MODEL 1
REMARK VINA RESULT:     -11.8      0.000      0.000
REMARK SMILES Cc1cc(Cl)cc2c1O[C@H](C(F)(F)F)C(C(=O)NCCCCCCNC(=O)c1ccc(-c3c4nc(c(-c5c(F)cc(S(=O)(=O)[O-])cc5F)c5ccc([nH]5)c(-c5c(F)cc(S(=O)(=O)[O-])cc5F)c5nc(c(-c6c(F)cc(S(=O)(=O)[O-])cc6F)c6ccc3[nH]6)C=C5)C=C4)cc1)=C2
REMARK SMILES IDX 22 1 21 2 20 3 19 4 18 5 16 6 17 7 15 9 1 10 2 11 3 12 8 13
REMARK SMILES IDX 4 14 7 15 9 16 5 17 6 18 94 19 10 20 11 21 12 22 13 23 14 24
REMARK SMILES IDX 23 25 24 26 25 27 26 28 27 30 28 31 29 32 93 33 30 34 92 35
REMARK SMILES IDX 31 36 32 37 33 38 86 39 34 40 91 41 85 42 87 43 35 44 90 45
REMARK SMILES IDX 84 46 83 47 36 49 70 50 49 51 69 52 50 53 53 54 68 55 88 56
REMARK SMILES IDX 51 57 52 58 67 60 89 61 54 62 37 63 38 64 47 65 39 66 40 67
REMARK SMILES IDX 46 68 48 69 41 70 42 71 43 72 44 73 45 74 71 75 72 76 81 77
REMARK SMILES IDX 73 78 74 79 80 80 82 81 75 82 76 83 77 84 78 85 79 86 55 87
REMARK SMILES IDX 56 88 65 89 57 90 58 91 64 92 66 93 59 94 60 95 61 96 62 97
REMARK SMILES IDX 63 98
REMARK H PARENT 18 8 25 29 87 48 53 59
REMARK Flexibility Score: inf
ROOT
ATOM      1  C   UNL A   1      32.953  28.983  24.816  1.00  0.00     0.002 C 
ENDROOT
BRANCH   1   2
ATOM      2  C   UNL A   1      31.424  28.923  24.711  1.00  0.00     0.002 C 
BRANCH   2   3
ATOM      3  C   UNL A   1      30.872  28.902  23.282  1.00  0.00     0.021 C 
BRANCH   3   4
ATOM      4  C   UNL A   1      30.571  27.499  22.763  1.00  0.00     0.116 C 
BRANCH   4   5
ATOM      5  N   UNL A   1      31.612  27.018  21.870  1.00  0.00    -0.352 N 
ATOM      6  C   UNL A   1      32.607  26.100  21.909  1.00  0.00     0.251 C 
ATOM      7  O   UNL A   1      33.260  25.986  20.866  1.00  0.00    -0.270 OA
ATOM      8  H   UNL A   1      31.589  27.485  21.004  1.00  0.00     0.163 HD
BRANCH   6   9
ATOM      9  C   UNL A   1      32.952  25.251  23.089  1.00  0.00     0.067 C 
ATOM     10  C   UNL A   1      33.223  22.852  27.655  1.00  0.00     0.048 C 
ATOM     11  C   UNL A   1      34.146  23.067  26.487  1.00  0.00    -0.007 A 
ATOM     12  C   UNL A   1      35.438  22.526  26.527  1.00  0.00     0.027 A 
ATOM     13  C   UNL A   1      33.768  23.820  25.367  1.00  0.00     0.131 A 
ATOM     14  C   UNL A   1      36.320  22.735  25.467  1.00  0.00     0.042 A 
ATOM     15  C   UNL A   1      34.654  24.039  24.307  1.00  0.00     0.019 A 
ATOM     16  O   UNL A   1      32.520  24.371  25.383  1.00  0.00    -0.475 OA
ATOM     17  Cl  UNL A   1      37.905  22.067  25.536  1.00  0.00    -0.084 Cl
ATOM     18  C   UNL A   1      35.937  23.490  24.359  1.00  0.00     0.032 A 
ATOM     19  C   UNL A   1      34.242  24.879  23.187  1.00  0.00     0.025 C 
ATOM     20  C   UNL A   1      31.959  24.784  24.112  1.00  0.00     0.314 C 
BRANCH  20  21
ATOM     21  C   UNL A   1      31.036  23.674  23.576  1.00  0.00     0.429 C 
ATOM     22  F   UNL A   1      30.584  22.898  24.590  1.00  0.00    -0.167 F 
ATOM     23  F   UNL A   1      29.940  24.167  22.953  1.00  0.00    -0.167 F 
ATOM     24  F   UNL A   1      31.661  22.866  22.688  1.00  0.00    -0.167 F 
ENDBRANCH  20  21
ENDBRANCH   6   9
ENDBRANCH   4   5
ENDBRANCH   3   4
ENDBRANCH   2   3
ENDBRANCH   1   2
BRANCH   1  25
ATOM     25  C   UNL A   1      33.598  27.895  25.683  1.00  0.00     0.021 C 
BRANCH  25  26
ATOM     26  C   UNL A   1      33.678  28.228  27.170  1.00  0.00     0.116 C 
BRANCH  26  27
ATOM     27  N   UNL A   1      33.538  29.654  27.410  1.00  0.00    -0.352 N 
ATOM     28  C   UNL A   1      34.411  30.521  28.010  1.00  0.00     0.251 C 
ATOM     29  H   UNL A   1      32.695  30.054  27.097  1.00  0.00     0.163 HD
ATOM     30  O   UNL A   1      34.030  31.651  28.327  1.00  0.00    -0.269 OA
BRANCH  28  31
ATOM     31  C   UNL A   1      35.801  30.106  28.283  1.00  0.00     0.039 A 
ATOM     32  C   UNL A   1      36.739  30.162  27.249  1.00  0.00     0.014 A 
ATOM     33  C   UNL A   1      36.169  29.635  29.547  1.00  0.00     0.014 A 
ATOM     34  C   UNL A   1      38.063  29.790  27.496  1.00  0.00     0.010 A 
ATOM     35  C   UNL A   1      37.499  29.318  29.806  1.00  0.00     0.010 A 
ATOM     36  C   UNL A   1      38.457  29.389  28.783  1.00  0.00    -0.014 A 
BRANCH  36  37
ATOM     37  C   UNL A   1      39.864  29.035  29.086  1.00  0.00     0.031 A 
ATOM     38  C   UNL A   1      40.786  30.069  29.672  1.00  0.00     0.074 A 
ATOM     39  C   UNL A   1      40.325  27.810  28.769  1.00  0.00     0.049 A 
ATOM     40  N   UNL A   1      42.074  29.998  29.889  1.00  0.00    -0.248 NA
ATOM     41  C   UNL A   1      40.183  31.359  30.046  1.00  0.00     0.031 C 
ATOM     42  C   UNL A   1      39.525  26.733  28.182  1.00  0.00     0.029 A 
ATOM     43  N   UNL A   1      41.580  27.269  28.881  1.00  0.00    -0.354 N 
ATOM     44  C   UNL A   1      42.438  31.231  30.415  1.00  0.00     0.074 A 
ATOM     45  C   UNL A   1      41.243  32.048  30.444  1.00  0.00     0.031 C 
ATOM     46  C   UNL A   1      40.306  25.656  27.996  1.00  0.00     0.029 A 
ATOM     47  C   UNL A   1      41.669  25.980  28.408  1.00  0.00     0.049 A 
ATOM     48  H   UNL A   1      42.344  27.755  29.264  1.00  0.00     0.167 HD
ATOM     49  C   UNL A   1      43.655  31.638  30.848  1.00  0.00     0.037 A 
ATOM     50  C   UNL A   1      42.732  25.160  28.303  1.00  0.00     0.037 A 
ATOM     51  C   UNL A   1      44.834  30.811  30.827  1.00  0.00     0.049 A 
ATOM     52  C   UNL A   1      44.076  25.643  28.771  1.00  0.00     0.074 A 
ATOM     53  C   UNL A   1      46.112  31.122  31.261  1.00  0.00     0.029 A 
ATOM     54  N   UNL A   1      44.882  29.507  30.353  1.00  0.00    -0.354 N 
ATOM     55  N   UNL A   1      44.403  26.811  29.273  1.00  0.00    -0.248 NA
ATOM     56  C   UNL A   1      45.196  24.699  28.666  1.00  0.00     0.031 C 
ATOM     57  C   UNL A   1      46.938  30.022  31.015  1.00  0.00     0.029 A 
ATOM     58  C   UNL A   1      46.167  29.005  30.476  1.00  0.00     0.049 A 
ATOM     59  H   UNL A   1      44.114  29.013  29.983  1.00  0.00     0.167 HD
ATOM     60  C   UNL A   1      45.759  26.729  29.573  1.00  0.00     0.074 A 
ATOM     61  C   UNL A   1      46.187  25.396  29.205  1.00  0.00     0.031 C 
ATOM     62  C   UNL A   1      46.574  27.671  30.110  1.00  0.00     0.037 A 
BRANCH  49  63
ATOM     63  C   UNL A   1      43.777  33.035  31.392  1.00  0.00     0.058 A 
ATOM     64  C   UNL A   1      44.043  34.129  30.553  1.00  0.00     0.135 A 
ATOM     65  C   UNL A   1      43.561  33.293  32.756  1.00  0.00     0.135 A 
ATOM     66  F   UNL A   1      44.277  33.937  29.246  1.00  0.00    -0.206 F 
ATOM     67  C   UNL A   1      44.098  35.428  31.048  1.00  0.00     0.059 A 
ATOM     68  C   UNL A   1      43.587  34.587  33.268  1.00  0.00     0.059 A 
ATOM     69  F   UNL A   1      43.311  32.283  33.603  1.00  0.00    -0.206 F 
ATOM     70  C   UNL A   1      43.862  35.648  32.406  1.00  0.00     0.060 A 
BRANCH  70  71
ATOM     71  S   UNL A   1      43.902  37.344  33.022  1.00  0.00     0.124 S 
ATOM     72  O   UNL A   1      45.197  37.380  33.695  1.00  0.00    -0.237 OA
ATOM     73  O   UNL A   1      43.806  38.123  31.792  1.00  0.00    -0.237 OA
ATOM     74  O   UNL A   1      42.739  37.416  33.900  1.00  0.00    -0.744 OA
ENDBRANCH  70  71
ENDBRANCH  49  63
BRANCH  50  75
ATOM     75  C   UNL A   1      42.560  23.790  27.751  1.00  0.00     0.058 A 
ATOM     76  C   UNL A   1      42.570  23.567  26.365  1.00  0.00     0.135 A 
ATOM     77  C   UNL A   1      42.405  22.676  28.590  1.00  0.00     0.135 A 
ATOM     78  F   UNL A   1      42.708  24.600  25.521  1.00  0.00    -0.206 F 
ATOM     79  C   UNL A   1      42.417  22.291  25.832  1.00  0.00     0.059 A 
ATOM     80  C   UNL A   1      42.278  21.387  28.081  1.00  0.00     0.059 A 
ATOM     81  F   UNL A   1      42.407  22.834  29.923  1.00  0.00    -0.206 F 
ATOM     82  C   UNL A   1      42.277  21.207  26.699  1.00  0.00     0.060 A 
BRANCH  82  83
ATOM     83  S   UNL A   1      42.135  19.551  25.994  1.00  0.00     0.124 S 
ATOM     84  O   UNL A   1      42.594  18.719  27.101  1.00  0.00    -0.237 OA
ATOM     85  O   UNL A   1      40.710  19.473  25.685  1.00  0.00    -0.237 OA
ATOM     86  O   UNL A   1      43.018  19.602  24.834  1.00  0.00    -0.744 OA
ENDBRANCH  82  83
ENDBRANCH  50  75
BRANCH  62  87
ATOM     87  C   UNL A   1      48.000  27.278  30.376  1.00  0.00     0.058 A 
ATOM     88  C   UNL A   1      49.041  27.631  29.502  1.00  0.00     0.135 A 
ATOM     89  C   UNL A   1      48.333  26.567  31.540  1.00  0.00     0.135 A 
ATOM     90  F   UNL A   1      48.777  28.309  28.375  1.00  0.00    -0.206 F 
ATOM     91  C   UNL A   1      50.358  27.262  29.757  1.00  0.00     0.059 A 
ATOM     92  C   UNL A   1      49.647  26.212  31.828  1.00  0.00     0.059 A 
ATOM     93  F   UNL A   1      47.377  26.216  32.415  1.00  0.00    -0.206 F 
ATOM     94  C   UNL A   1      50.650  26.550  30.922  1.00  0.00     0.060 A 
BRANCH  94  95
ATOM     95  S   UNL A   1      52.364  26.082  31.242  1.00  0.00     0.124 S 
ATOM     96  O   UNL A   1      52.900  25.989  29.888  1.00  0.00    -0.237 OA
ATOM     97  O   UNL A   1      52.850  27.203  32.039  1.00  0.00    -0.237 OA
ATOM     98  O   UNL A   1      52.244  24.815  31.958  1.00  0.00    -0.744 OA
ENDBRANCH  94  95
ENDBRANCH  62  87
ENDBRANCH  36  37
ENDBRANCH  28  31
ENDBRANCH  26  27
ENDBRANCH  25  26
ENDBRANCH   1  25
TORSDOF 17
ENDMDL
MODEL 2
REMARK VINA RESULT:     -11.3      2.531      3.200
REMARK SMILES Cc1cc(Cl)cc2c1O[C@H](C(F)(F)F)C(C(=O)NCCCCCCNC(=O)c1ccc(-c3c4nc(c(-c5c(F)cc(S(=O)(=O)[O-])cc5F)c5ccc([nH]5)c(-c5c(F)cc(S(=O)(=O)[O-])cc5F)c5nc(c(-c6c(F)cc(S(=O)(=O)[O-])cc6F)c6ccc3[nH]6)C=C5)C=C4)cc1)=C2
REMARK SMILES IDX 22 1 21 2 20 3 19 4 18 5 16 6 17 7 15 9 1 10 2 11 3 12 8 13
REMARK SMILES IDX 4 14 7 15 9 16 5 17 6 18 94 19 10 20 11 21 12 22 13 23 14 24
REMARK SMILES IDX 23 25 24 26 25 27 26 28 27 30 28 31 29 32 93 33 30 34 92 35
REMARK SMILES IDX 31 36 32 37 33 38 86 39 34 40 91 41 85 42 87 43 35 44 90 45
REMARK SMILES IDX 84 46 83 47 36 49 70 50 49 51 69 52 50 53 53 54 68 55 88 56
REMARK SMILES IDX 51 57 52 58 67 60 89 61 54 62 37 63 38 64 47 65 39 66 40 67
REMARK SMILES IDX 46 68 48 69 41 70 42 71 43 72 44 73 45 74 71 75 72 76 81 77
REMARK SMILES IDX 73 78 74 79 80 80 82 81 75 82 76 83 77 84 78 85 79 86 55 87
REMARK SMILES IDX 56 88 65 89 57 90 58 91 64 92 66 93 59 94 60 95 61 96 62 97
REMARK SMILES IDX 63 98
REMARK H PARENT 18 8 25 29 87 48 53 59
REMARK Flexibility Score: inf
ROOT
ATOM      1  C   UNL A   1      33.628  28.206  25.943  1.00  0.00     0.002 C 
ENDROOT
BRANCH   1   2
ATOM      2  C   UNL A   1      32.178  28.018  25.476  1.00  0.00     0.002 C 
BRANCH   2   3
ATOM      3  C   UNL A   1      31.953  28.195  23.972  1.00  0.00     0.021 C 
BRANCH   3   4
ATOM      4  C   UNL A   1      33.241  28.179  23.154  1.00  0.00     0.116 C 
BRANCH   4   5
ATOM      5  N   UNL A   1      33.178  27.217  22.066  1.00  0.00    -0.352 N 
ATOM      6  C   UNL A   1      33.237  25.871  21.927  1.00  0.00     0.251 C 
ATOM      7  O   UNL A   1      33.096  25.454  20.772  1.00  0.00    -0.270 OA
ATOM      8  H   UNL A   1      33.062  27.663  21.196  1.00  0.00     0.163 HD
BRANCH   6   9
ATOM      9  C   UNL A   1      33.457  24.897  23.038  1.00  0.00     0.067 C 
ATOM     10  C   UNL A   1      33.522  22.260  27.479  1.00  0.00     0.048 C 
ATOM     11  C   UNL A   1      34.351  22.291  26.224  1.00  0.00    -0.007 A 
ATOM     12  C   UNL A   1      35.450  21.429  26.108  1.00  0.00     0.027 A 
ATOM     13  C   UNL A   1      34.080  23.178  25.173  1.00  0.00     0.131 A 
ATOM     14  C   UNL A   1      36.249  21.459  24.966  1.00  0.00     0.042 A 
ATOM     15  C   UNL A   1      34.885  23.217  24.030  1.00  0.00     0.019 A 
ATOM     16  O   UNL A   1      33.031  24.034  25.340  1.00  0.00    -0.475 OA
ATOM     17  Cl  UNL A   1      37.599  20.397  24.844  1.00  0.00    -0.084 Cl
ATOM     18  C   UNL A   1      35.975  22.349  23.927  1.00  0.00     0.032 A 
ATOM     19  C   UNL A   1      34.605  24.196  22.985  1.00  0.00     0.025 C 
ATOM     20  C   UNL A   1      32.479  24.650  24.150  1.00  0.00     0.314 C 
BRANCH  20  21
ATOM     21  C   UNL A   1      31.247  23.852  23.686  1.00  0.00     0.429 C 
ATOM     22  F   UNL A   1      31.597  22.935  22.752  1.00  0.00    -0.167 F 
ATOM     23  F   UNL A   1      30.663  23.166  24.696  1.00  0.00    -0.167 F 
ATOM     24  F   UNL A   1      30.293  24.644  23.145  1.00  0.00    -0.167 F 
ENDBRANCH  20  21
ENDBRANCH   6   9
ENDBRANCH   4   5
ENDBRANCH   3   4
ENDBRANCH   2   3
ENDBRANCH   1   2
BRANCH   1  25
ATOM     25  C   UNL A   1      33.849  29.319  26.975  1.00  0.00     0.021 C 
BRANCH  25  26
ATOM     26  C   UNL A   1      35.221  29.305  27.643  1.00  0.00     0.116 C 
BRANCH  26  27
ATOM     27  N   UNL A   1      35.235  30.101  28.860  1.00  0.00    -0.352 N 
ATOM     28  C   UNL A   1      36.242  30.273  29.771  1.00  0.00     0.251 C 
ATOM     29  H   UNL A   1      34.401  30.584  29.057  1.00  0.00     0.163 HD
ATOM     30  O   UNL A   1      35.999  30.805  30.857  1.00  0.00    -0.269 OA
BRANCH  28  31
ATOM     31  C   UNL A   1      37.611  29.820  29.458  1.00  0.00     0.039 A 
ATOM     32  C   UNL A   1      38.080  29.935  28.147  1.00  0.00     0.014 A 
ATOM     33  C   UNL A   1      38.419  29.256  30.450  1.00  0.00     0.014 A 
ATOM     34  C   UNL A   1      39.380  29.528  27.839  1.00  0.00     0.010 A 
ATOM     35  C   UNL A   1      39.733  28.902  30.155  1.00  0.00     0.010 A 
ATOM     36  C   UNL A   1      40.224  29.032  28.846  1.00  0.00    -0.014 A 
BRANCH  36  37
ATOM     37  C   UNL A   1      41.624  28.638  28.559  1.00  0.00     0.031 A 
ATOM     38  C   UNL A   1      42.709  29.679  28.556  1.00  0.00     0.074 A 
ATOM     39  C   UNL A   1      41.902  27.361  28.234  1.00  0.00     0.049 A 
ATOM     40  N   UNL A   1      43.963  29.562  28.206  1.00  0.00    -0.248 NA
ATOM     41  C   UNL A   1      42.328  31.035  28.985  1.00  0.00     0.031 C 
ATOM     42  C   UNL A   1      40.926  26.269  28.189  1.00  0.00     0.029 A 
ATOM     43  N   UNL A   1      43.082  26.767  27.865  1.00  0.00    -0.354 N 
ATOM     44  C   UNL A   1      44.520  30.826  28.363  1.00  0.00     0.074 A 
ATOM     45  C   UNL A   1      43.456  31.705  28.798  1.00  0.00     0.031 C 
ATOM     46  C   UNL A   1      41.550  25.137  27.825  1.00  0.00     0.029 A 
ATOM     47  C   UNL A   1      42.957  25.430  27.567  1.00  0.00     0.049 A 
ATOM     48  H   UNL A   1      43.937  27.252  27.817  1.00  0.00     0.167 HD
ATOM     49  C   UNL A   1      45.805  31.212  28.177  1.00  0.00     0.037 A 
ATOM     50  C   UNL A   1      43.869  24.546  27.122  1.00  0.00     0.037 A 
ATOM     51  C   UNL A   1      46.858  30.324  27.758  1.00  0.00     0.049 A 
ATOM     52  C   UNL A   1      45.284  25.004  26.902  1.00  0.00     0.074 A 
ATOM     53  C   UNL A   1      48.198  30.612  27.558  1.00  0.00     0.029 A 
ATOM     54  N   UNL A   1      46.696  28.974  27.479  1.00  0.00    -0.354 N 
ATOM     55  N   UNL A   1      45.796  26.202  27.062  1.00  0.00    -0.248 NA
ATOM     56  C   UNL A   1      46.248  23.993  26.449  1.00  0.00     0.031 C 
ATOM     57  C   UNL A   1      48.836  29.446  27.124  1.00  0.00     0.029 A 
ATOM     58  C   UNL A   1      47.907  28.419  27.102  1.00  0.00     0.049 A 
ATOM     59  H   UNL A   1      45.844  28.484  27.541  1.00  0.00     0.167 HD
ATOM     60  C   UNL A   1      47.148  26.080  26.760  1.00  0.00     0.074 A 
ATOM     61  C   UNL A   1      47.374  24.692  26.416  1.00  0.00     0.031 C 
ATOM     62  C   UNL A   1      48.116  27.031  26.770  1.00  0.00     0.037 A 
BRANCH  49  63
ATOM     63  C   UNL A   1      46.151  32.653  28.433  1.00  0.00     0.058 A 
ATOM     64  C   UNL A   1      46.045  33.624  27.425  1.00  0.00     0.135 A 
ATOM     65  C   UNL A   1      46.528  33.081  29.717  1.00  0.00     0.135 A 
ATOM     66  F   UNL A   1      45.708  33.267  26.176  1.00  0.00    -0.206 F 
ATOM     67  C   UNL A   1      46.309  34.966  27.677  1.00  0.00     0.059 A 
ATOM     68  C   UNL A   1      46.772  34.422  29.998  1.00  0.00     0.059 A 
ATOM     69  F   UNL A   1      46.651  32.194  30.716  1.00  0.00    -0.206 F 
ATOM     70  C   UNL A   1      46.665  35.357  28.969  1.00  0.00     0.060 A 
BRANCH  70  71
ATOM     71  S   UNL A   1      46.968  37.108  29.285  1.00  0.00     0.124 S 
ATOM     72  O   UNL A   1      48.421  37.179  29.165  1.00  0.00    -0.237 OA
ATOM     73  O   UNL A   1      46.213  37.751  28.215  1.00  0.00    -0.237 OA
ATOM     74  O   UNL A   1      46.440  37.308  30.630  1.00  0.00    -0.744 OA
ENDBRANCH  70  71
ENDBRANCH  49  63
BRANCH  50  75
ATOM     75  C   UNL A   1      43.475  23.133  26.876  1.00  0.00     0.058 A 
ATOM     76  C   UNL A   1      43.401  22.624  25.571  1.00  0.00     0.135 A 
ATOM     77  C   UNL A   1      43.187  22.259  27.935  1.00  0.00     0.135 A 
ATOM     78  F   UNL A   1      43.661  23.422  24.524  1.00  0.00    -0.206 F 
ATOM     79  C   UNL A   1      43.041  21.303  25.323  1.00  0.00     0.059 A 
ATOM     80  C   UNL A   1      42.850  20.927  27.715  1.00  0.00     0.059 A 
ATOM     81  F   UNL A   1      43.260  22.692  29.204  1.00  0.00    -0.206 F 
ATOM     82  C   UNL A   1      42.772  20.461  26.403  1.00  0.00     0.060 A 
BRANCH  82  83
ATOM     83  S   UNL A   1      42.359  18.735  26.070  1.00  0.00     0.124 S 
ATOM     84  O   UNL A   1      40.943  18.831  25.732  1.00  0.00    -0.237 OA
ATOM     85  O   UNL A   1      43.259  18.415  24.965  1.00  0.00    -0.237 OA
ATOM     86  O   UNL A   1      42.664  18.066  27.331  1.00  0.00    -0.744 OA
ENDBRANCH  82  83
ENDBRANCH  50  75
BRANCH  62  87
ATOM     87  C   UNL A   1      49.517  26.593  26.446  1.00  0.00     0.058 A 
ATOM     88  C   UNL A   1      50.362  26.032  27.416  1.00  0.00     0.135 A 
ATOM     89  C   UNL A   1      50.008  26.706  25.135  1.00  0.00     0.135 A 
ATOM     90  F   UNL A   1      49.942  25.904  28.685  1.00  0.00    -0.206 F 
ATOM     91  C   UNL A   1      51.657  25.631  27.105  1.00  0.00     0.059 A 
ATOM     92  C   UNL A   1      51.290  26.285  24.796  1.00  0.00     0.059 A 
ATOM     93  F   UNL A   1      49.236  27.223  24.165  1.00  0.00    -0.206 F 
ATOM     94  C   UNL A   1      52.112  25.763  25.792  1.00  0.00     0.060 A 
BRANCH  94  95
ATOM     95  S   UNL A   1      53.794  25.233  25.403  1.00  0.00     0.124 S 
ATOM     96  O   UNL A   1      54.247  26.315  24.535  1.00  0.00    -0.237 OA
ATOM     97  O   UNL A   1      54.416  25.176  26.721  1.00  0.00    -0.237 OA
ATOM     98  O   UNL A   1      53.601  23.942  24.749  1.00  0.00    -0.744 OA
ENDBRANCH  94  95
ENDBRANCH  62  87
ENDBRANCH  36  37
ENDBRANCH  28  31
ENDBRANCH  26  27
ENDBRANCH  25  26
ENDBRANCH   1  25
TORSDOF 17
ENDMDL
MODEL 3
REMARK VINA RESULT:     -11.1      4.905      9.922
REMARK SMILES Cc1cc(Cl)cc2c1O[C@H](C(F)(F)F)C(C(=O)NCCCCCCNC(=O)c1ccc(-c3c4nc(c(-c5c(F)cc(S(=O)(=O)[O-])cc5F)c5ccc([nH]5)c(-c5c(F)cc(S(=O)(=O)[O-])cc5F)c5nc(c(-c6c(F)cc(S(=O)(=O)[O-])cc6F)c6ccc3[nH]6)C=C5)C=C4)cc1)=C2
REMARK SMILES IDX 22 1 21 2 20 3 19 4 18 5 16 6 17 7 15 9 1 10 2 11 3 12 8 13
REMARK SMILES IDX 4 14 7 15 9 16 5 17 6 18 94 19 10 20 11 21 12 22 13 23 14 24
REMARK SMILES IDX 23 25 24 26 25 27 26 28 27 30 28 31 29 32 93 33 30 34 92 35
REMARK SMILES IDX 31 36 32 37 33 38 86 39 34 40 91 41 85 42 87 43 35 44 90 45
REMARK SMILES IDX 84 46 83 47 36 49 70 50 49 51 69 52 50 53 53 54 68 55 88 56
REMARK SMILES IDX 51 57 52 58 67 60 89 61 54 62 37 63 38 64 47 65 39 66 40 67
REMARK SMILES IDX 46 68 48 69 41 70 42 71 43 72 44 73 45 74 71 75 72 76 81 77
REMARK SMILES IDX 73 78 74 79 80 80 82 81 75 82 76 83 77 84 78 85 79 86 55 87
REMARK SMILES IDX 56 88 65 89 57 90 58 91 64 92 66 93 59 94 60 95 61 96 62 97
REMARK SMILES IDX 63 98
REMARK H PARENT 18 8 25 29 87 48 53 59
REMARK Flexibility Score: inf
ROOT
ATOM      1  C   UNL A   1      41.491  22.212  26.680  1.00  0.00     0.002 C 
ENDROOT
BRANCH   1   2
ATOM      2  C   UNL A   1      40.037  22.678  26.835  1.00  0.00     0.002 C 
BRANCH   2   3
ATOM      3  C   UNL A   1      38.999  21.822  26.104  1.00  0.00     0.021 C 
BRANCH   3   4
ATOM      4  C   UNL A   1      37.775  22.606  25.641  1.00  0.00     0.116 C 
BRANCH   4   5
ATOM      5  N   UNL A   1      36.538  22.009  26.118  1.00  0.00    -0.352 N 
ATOM      6  C   UNL A   1      35.215  22.123  25.854  1.00  0.00     0.251 C 
ATOM      7  O   UNL A   1      34.482  21.363  26.495  1.00  0.00    -0.270 OA
ATOM      8  H   UNL A   1      36.708  21.342  26.821  1.00  0.00     0.163 HD
BRANCH   6   9
ATOM      9  C   UNL A   1      34.609  23.078  24.877  1.00  0.00     0.067 C 
ATOM     10  C   UNL A   1      32.883  25.594  20.710  1.00  0.00     0.048 C 
ATOM     11  C   UNL A   1      33.160  25.939  22.147  1.00  0.00    -0.007 A 
ATOM     12  C   UNL A   1      32.927  27.247  22.594  1.00  0.00     0.027 A 
ATOM     13  C   UNL A   1      33.673  25.001  23.054  1.00  0.00     0.131 A 
ATOM     14  C   UNL A   1      33.201  27.597  23.915  1.00  0.00     0.042 A 
ATOM     15  C   UNL A   1      33.958  25.352  24.378  1.00  0.00     0.019 A 
ATOM     16  O   UNL A   1      33.931  23.751  22.572  1.00  0.00    -0.475 OA
ATOM     17  Cl  UNL A   1      32.916  29.210  24.444  1.00  0.00    -0.084 Cl
ATOM     18  C   UNL A   1      33.717  26.659  24.809  1.00  0.00     0.032 A 
ATOM     19  C   UNL A   1      34.547  24.363  25.273  1.00  0.00     0.025 C 
ATOM     20  C   UNL A   1      34.056  22.679  23.540  1.00  0.00     0.314 C 
BRANCH  20  21
ATOM     21  C   UNL A   1      32.714  21.934  23.654  1.00  0.00     0.429 C 
ATOM     22  F   UNL A   1      32.011  22.378  24.724  1.00  0.00    -0.167 F 
ATOM     23  F   UNL A   1      31.924  22.119  22.571  1.00  0.00    -0.167 F 
ATOM     24  F   UNL A   1      32.876  20.598  23.797  1.00  0.00    -0.167 F 
ENDBRANCH  20  21
ENDBRANCH   6   9
ENDBRANCH   4   5
ENDBRANCH   3   4
ENDBRANCH   2   3
ENDBRANCH   1   2
BRANCH   1  25
ATOM     25  C   UNL A   1      42.444  22.638  27.803  1.00  0.00     0.021 C 
BRANCH  25  26
ATOM     26  C   UNL A   1      43.386  23.782  27.438  1.00  0.00     0.116 C 
BRANCH  26  27
ATOM     27  N   UNL A   1      42.958  24.467  26.230  1.00  0.00    -0.352 N 
ATOM     28  C   UNL A   1      42.179  25.584  26.097  1.00  0.00     0.251 C 
ATOM     29  H   UNL A   1      43.273  24.070  25.386  1.00  0.00     0.163 HD
ATOM     30  O   UNL A   1      41.735  25.892  24.988  1.00  0.00    -0.269 OA
BRANCH  28  31
ATOM     31  C   UNL A   1      41.865  26.415  27.276  1.00  0.00     0.039 A 
ATOM     32  C   UNL A   1      40.802  26.045  28.102  1.00  0.00     0.014 A 
ATOM     33  C   UNL A   1      42.601  27.573  27.548  1.00  0.00     0.014 A 
ATOM     34  C   UNL A   1      40.504  26.810  29.232  1.00  0.00     0.010 A 
ATOM     35  C   UNL A   1      42.339  28.304  28.703  1.00  0.00     0.010 A 
ATOM     36  C   UNL A   1      41.287  27.931  29.553  1.00  0.00    -0.014 A 
BRANCH  36  37
ATOM     37  C   UNL A   1      41.025  28.734  30.772  1.00  0.00     0.031 A 
ATOM     38  C   UNL A   1      39.937  29.772  30.764  1.00  0.00     0.074 A 
ATOM     39  C   UNL A   1      41.809  28.575  31.855  1.00  0.00     0.049 A 
ATOM     40  N   UNL A   1      39.636  30.659  31.677  1.00  0.00    -0.248 NA
ATOM     41  C   UNL A   1      39.088  29.834  29.563  1.00  0.00     0.031 C 
ATOM     42  C   UNL A   1      42.904  27.609  31.970  1.00  0.00     0.029 A 
ATOM     43  N   UNL A   1      41.817  29.231  33.059  1.00  0.00    -0.354 N 
ATOM     44  C   UNL A   1      38.572  31.388  31.161  1.00  0.00     0.074 A 
ATOM     45  C   UNL A   1      38.307  30.869  29.836  1.00  0.00     0.031 C 
ATOM     46  C   UNL A   1      43.471  27.729  33.182  1.00  0.00     0.029 A 
ATOM     47  C   UNL A   1      42.810  28.807  33.911  1.00  0.00     0.049 A 
ATOM     48  H   UNL A   1      41.174  29.939  33.291  1.00  0.00     0.167 HD
ATOM     49  C   UNL A   1      37.871  32.388  31.746  1.00  0.00     0.037 A 
ATOM     50  C   UNL A   1      43.158  29.249  35.135  1.00  0.00     0.037 A 
ATOM     51  C   UNL A   1      38.135  32.887  33.072  1.00  0.00     0.049 A 
ATOM     52  C   UNL A   1      42.377  30.375  35.754  1.00  0.00     0.074 A 
ATOM     53  C   UNL A   1      37.469  33.884  33.764  1.00  0.00     0.029 A 
ATOM     54  N   UNL A   1      39.139  32.423  33.909  1.00  0.00    -0.354 N 
ATOM     55  N   UNL A   1      41.369  31.050  35.255  1.00  0.00    -0.248 NA
ATOM     56  C   UNL A   1      42.775  30.796  37.104  1.00  0.00     0.031 C 
ATOM     57  C   UNL A   1      38.095  34.048  35.003  1.00  0.00     0.029 A 
ATOM     58  C   UNL A   1      39.117  33.118  35.106  1.00  0.00     0.049 A 
ATOM     59  H   UNL A   1      39.774  31.704  33.684  1.00  0.00     0.167 HD
ATOM     60  C   UNL A   1      40.991  31.954  36.243  1.00  0.00     0.074 A 
ATOM     61  C   UNL A   1      41.874  31.732  37.369  1.00  0.00     0.031 C 
ATOM     62  C   UNL A   1      40.000  32.880  36.221  1.00  0.00     0.037 A 
BRANCH  49  63
ATOM     63  C   UNL A   1      36.744  33.008  30.966  1.00  0.00     0.058 A 
ATOM     64  C   UNL A   1      35.401  32.762  31.296  1.00  0.00     0.135 A 
ATOM     65  C   UNL A   1      37.007  33.908  29.921  1.00  0.00     0.135 A 
ATOM     66  F   UNL A   1      35.093  31.895  32.272  1.00  0.00    -0.206 F 
ATOM     67  C   UNL A   1      34.360  33.381  30.611  1.00  0.00     0.059 A 
ATOM     68  C   UNL A   1      35.981  34.558  29.240  1.00  0.00     0.059 A 
ATOM     69  F   UNL A   1      38.272  34.173  29.560  1.00  0.00    -0.206 F 
ATOM     70  C   UNL A   1      34.660  34.282  29.589  1.00  0.00     0.060 A 
BRANCH  70  71
ATOM     71  S   UNL A   1      33.296  35.103  28.738  1.00  0.00     0.124 S 
ATOM     72  O   UNL A   1      34.001  36.136  27.986  1.00  0.00    -0.237 OA
ATOM     73  O   UNL A   1      32.728  34.018  27.944  1.00  0.00    -0.237 OA
ATOM     74  O   UNL A   1      32.455  35.586  29.828  1.00  0.00    -0.744 OA
ENDBRANCH  70  71
ENDBRANCH  49  63
BRANCH  50  75
ATOM     75  C   UNL A   1      44.286  28.607  35.862  1.00  0.00     0.058 A 
ATOM     76  C   UNL A   1      44.055  27.557  36.764  1.00  0.00     0.135 A 
ATOM     77  C   UNL A   1      45.613  29.012  35.656  1.00  0.00     0.135 A 
ATOM     78  F   UNL A   1      42.802  27.139  37.000  1.00  0.00    -0.206 F 
ATOM     79  C   UNL A   1      45.098  26.941  37.447  1.00  0.00     0.059 A 
ATOM     80  C   UNL A   1      46.677  28.394  36.308  1.00  0.00     0.059 A 
ATOM     81  F   UNL A   1      45.889  30.001  34.791  1.00  0.00    -0.206 F 
ATOM     82  C   UNL A   1      46.407  27.364  37.208  1.00  0.00     0.060 A 
BRANCH  82  83
ATOM     83  S   UNL A   1      47.756  26.520  38.060  1.00  0.00     0.124 S 
ATOM     84  O   UNL A   1      48.130  27.505  39.069  1.00  0.00    -0.237 OA
ATOM     85  O   UNL A   1      47.096  25.315  38.557  1.00  0.00    -0.237 OA
ATOM     86  O   UNL A   1      48.736  26.297  37.001  1.00  0.00    -0.744 OA
ENDBRANCH  82  83
ENDBRANCH  50  75
BRANCH  62  87
ATOM     87  C   UNL A   1      39.787  33.691  37.468  1.00  0.00     0.058 A 
ATOM     88  C   UNL A   1      40.475  34.892  37.698  1.00  0.00     0.135 A 
ATOM     89  C   UNL A   1      38.853  33.275  38.432  1.00  0.00     0.135 A 
ATOM     90  F   UNL A   1      41.380  35.333  36.810  1.00  0.00    -0.206 F 
ATOM     91  C   UNL A   1      40.271  35.635  38.857  1.00  0.00     0.059 A 
ATOM     92  C   UNL A   1      38.613  34.017  39.584  1.00  0.00     0.059 A 
ATOM     93  F   UNL A   1      38.158  32.140  38.254  1.00  0.00    -0.206 F 
ATOM     94  C   UNL A   1      39.339  35.187  39.794  1.00  0.00     0.060 A 
BRANCH  94  95
ATOM     95  S   UNL A   1      39.080  36.164  41.291  1.00  0.00     0.124 S 
ATOM     96  O   UNL A   1      40.312  35.902  42.027  1.00  0.00    -0.237 OA
ATOM     97  O   UNL A   1      38.935  37.515  40.760  1.00  0.00    -0.237 OA
ATOM     98  O   UNL A   1      37.869  35.589  41.868  1.00  0.00    -0.744 OA
ENDBRANCH  94  95
ENDBRANCH  62  87
ENDBRANCH  36  37
ENDBRANCH  28  31
ENDBRANCH  26  27
ENDBRANCH  25  26
ENDBRANCH   1  25
TORSDOF 17
ENDMDL
