MODEL 1
REMARK VINA RESULT:     -11.7      0.000      0.000
REMARK SMILES COc1ccc2cc([C@@H](C)C(=O)NCCCCCCNC(=O)c3ccc(-c4c5nc(c(-c6c(F)cc(S(=O)(=O)[O-])cc6F)c6ccc([nH]6)c(-c6c(F)cc(S(=O)(=O)[O-])cc6F)c6nc(c(-c7c(F)cc(S(=O)(=O)[O-])cc7F)c7ccc4[nH]7)C=C6)C=C5)cc3)ccc2c1
REMARK SMILES IDX 17 1 16 2 15 3 14 4 13 5 11 6 12 7 9 9 10 10 8 11 3 12 4 13
REMARK SMILES IDX 92 14 5 15 91 16 6 17 90 18 7 19 89 20 2 21 1 22 18 23 19 24
REMARK SMILES IDX 20 25 21 26 22 28 23 29 24 30 88 31 25 32 87 33 26 34 27 35
REMARK SMILES IDX 28 36 81 37 29 38 86 39 80 40 82 41 30 42 85 43 79 44 78 45
REMARK SMILES IDX 31 47 65 48 44 49 64 50 45 51 48 52 63 53 83 54 46 55 47 56
REMARK SMILES IDX 62 58 84 59 49 60 32 61 33 62 42 63 34 64 35 65 41 66 43 67
REMARK SMILES IDX 36 68 37 69 38 70 39 71 40 72 66 73 67 74 76 75 68 76 69 77
REMARK SMILES IDX 75 78 77 79 70 80 71 81 72 82 73 83 74 84 50 85 51 86 60 87
REMARK SMILES IDX 52 88 53 89 59 90 61 91 54 92 55 93 56 94 57 95 58 96
REMARK H PARENT 13 8 20 27 82 46 48 57
REMARK Flexibility Score: inf
ROOT
ATOM      1  C   UNL A   1      41.012  22.172  28.011  1.00  0.00     0.002 C 
ENDROOT
BRANCH   1   2
ATOM      2  C   UNL A   1      40.069  21.706  26.894  1.00  0.00     0.002 C 
BRANCH   2   3
ATOM      3  C   UNL A   1      39.343  22.830  26.150  1.00  0.00     0.021 C 
BRANCH   3   4
ATOM      4  C   UNL A   1      37.874  22.523  25.842  1.00  0.00     0.116 C 
BRANCH   4   5
ATOM      5  N   UNL A   1      37.546  22.825  24.462  1.00  0.00    -0.356 N 
ATOM      6  C   UNL A   1      36.356  22.944  23.814  1.00  0.00     0.227 C 
ATOM      7  O   UNL A   1      36.418  23.114  22.589  1.00  0.00    -0.274 OA
ATOM      8  H   UNL A   1      38.331  22.973  23.888  1.00  0.00     0.163 HD
BRANCH   6   9
ATOM      9  C   UNL A   1      34.985  22.899  24.507  1.00  0.00     0.105 C 
ATOM     10  C   UNL A   1      34.893  23.744  25.778  1.00  0.00     0.023 C 
BRANCH   9  11
ATOM     11  C   UNL A   1      34.388  21.503  24.601  1.00  0.00    -0.035 A 
ATOM     12  C   UNL A   1      33.532  16.487  24.659  1.00  0.00     0.119 A 
ATOM     13  C   UNL A   1      34.914  16.652  24.707  1.00  0.00     0.047 A 
ATOM     14  C   UNL A   1      32.701  17.608  24.585  1.00  0.00     0.055 A 
ATOM     15  C   UNL A   1      35.459  17.935  24.755  1.00  0.00     0.012 A 
ATOM     16  C   UNL A   1      33.238  18.906  24.605  1.00  0.00    -0.015 A 
ATOM     17  C   UNL A   1      34.632  19.067  24.719  1.00  0.00    -0.018 A 
ATOM     18  C   UNL A   1      32.431  20.050  24.508  1.00  0.00     0.009 A 
ATOM     19  C   UNL A   1      35.177  20.358  24.771  1.00  0.00     0.013 A 
ATOM     20  C   UNL A   1      33.002  21.329  24.481  1.00  0.00     0.005 A 
BRANCH  12  21
ATOM     21  O   UNL A   1      32.899  15.273  24.645  1.00  0.00    -0.497 OA
ATOM     22  C   UNL A   1      32.163  14.976  25.829  1.00  0.00     0.278 C 
ENDBRANCH  12  21
ENDBRANCH   9  11
ENDBRANCH   6   9
ENDBRANCH   4   5
ENDBRANCH   3   4
ENDBRANCH   2   3
ENDBRANCH   1   2
BRANCH   1  23
ATOM     23  C   UNL A   1      42.507  21.959  27.748  1.00  0.00     0.021 C 
BRANCH  23  24
ATOM     24  C   UNL A   1      43.324  23.241  27.607  1.00  0.00     0.116 C 
BRANCH  24  25
ATOM     25  N   UNL A   1      42.970  23.978  26.404  1.00  0.00    -0.352 N 
ATOM     26  C   UNL A   1      42.301  25.169  26.269  1.00  0.00     0.251 C 
ATOM     27  H   UNL A   1      43.251  23.558  25.558  1.00  0.00     0.163 HD
ATOM     28  O   UNL A   1      41.883  25.511  25.168  1.00  0.00    -0.269 OA
BRANCH  26  29
ATOM     29  C   UNL A   1      42.077  26.035  27.448  1.00  0.00     0.039 A 
ATOM     30  C   UNL A   1      42.976  27.074  27.705  1.00  0.00     0.014 A 
ATOM     31  C   UNL A   1      41.006  25.805  28.317  1.00  0.00     0.014 A 
ATOM     32  C   UNL A   1      42.768  27.914  28.802  1.00  0.00     0.010 A 
ATOM     33  C   UNL A   1      40.765  26.682  29.372  1.00  0.00     0.010 A 
ATOM     34  C   UNL A   1      41.644  27.745  29.628  1.00  0.00    -0.014 A 
BRANCH  34  35
ATOM     35  C   UNL A   1      41.375  28.675  30.755  1.00  0.00     0.031 A 
ATOM     36  C   UNL A   1      42.179  28.586  32.025  1.00  0.00     0.074 A 
ATOM     37  C   UNL A   1      40.364  29.562  30.656  1.00  0.00     0.049 A 
ATOM     38  N   UNL A   1      42.051  29.272  33.132  1.00  0.00    -0.248 NA
ATOM     39  C   UNL A   1      43.250  27.578  32.066  1.00  0.00     0.031 C 
ATOM     40  C   UNL A   1      39.479  29.708  29.497  1.00  0.00     0.029 A 
ATOM     41  N   UNL A   1      39.902  30.500  31.544  1.00  0.00    -0.354 N 
ATOM     42  C   UNL A   1      43.012  28.773  34.002  1.00  0.00     0.074 A 
ATOM     43  C   UNL A   1      43.686  27.694  33.313  1.00  0.00     0.031 C 
ATOM     44  C   UNL A   1      38.596  30.691  29.738  1.00  0.00     0.029 A 
ATOM     45  C   UNL A   1      38.827  31.221  31.078  1.00  0.00     0.049 A 
ATOM     46  H   UNL A   1      40.302  30.644  32.432  1.00  0.00     0.167 HD
ATOM     47  C   UNL A   1      43.322  29.192  35.253  1.00  0.00     0.037 A 
ATOM     48  C   UNL A   1      38.105  32.195  31.666  1.00  0.00     0.037 A 
ATOM     49  C   UNL A   1      42.670  30.288  35.922  1.00  0.00     0.049 A 
ATOM     50  C   UNL A   1      38.477  32.650  33.050  1.00  0.00     0.074 A 
ATOM     51  C   UNL A   1      42.954  30.829  37.163  1.00  0.00     0.029 A 
ATOM     52  N   UNL A   1      41.606  31.012  35.405  1.00  0.00    -0.354 N 
ATOM     53  N   UNL A   1      39.434  32.209  33.832  1.00  0.00    -0.248 NA
ATOM     54  C   UNL A   1      37.677  33.737  33.632  1.00  0.00     0.031 C 
ATOM     55  C   UNL A   1      42.036  31.853  37.415  1.00  0.00     0.029 A 
ATOM     56  C   UNL A   1      41.209  31.982  36.311  1.00  0.00     0.049 A 
ATOM     57  H   UNL A   1      41.193  30.859  34.524  1.00  0.00     0.167 HD
ATOM     58  C   UNL A   1      39.370  32.985  34.984  1.00  0.00     0.074 A 
ATOM     59  C   UNL A   1      38.287  33.928  34.793  1.00  0.00     0.031 C 
ATOM     60  C   UNL A   1      40.137  32.922  36.101  1.00  0.00     0.037 A 
BRANCH  47  61
ATOM     61  C   UNL A   1      44.422  28.472  35.983  1.00  0.00     0.058 A 
ATOM     62  C   UNL A   1      44.156  27.377  36.820  1.00  0.00     0.135 A 
ATOM     63  C   UNL A   1      45.765  28.842  35.799  1.00  0.00     0.135 A 
ATOM     64  F   UNL A   1      42.891  26.989  37.043  1.00  0.00    -0.206 F 
ATOM     65  C   UNL A   1      45.178  26.687  37.465  1.00  0.00     0.059 A 
ATOM     66  C   UNL A   1      46.805  28.150  36.413  1.00  0.00     0.059 A 
ATOM     67  F   UNL A   1      46.077  29.883  35.010  1.00  0.00    -0.206 F 
ATOM     68  C   UNL A   1      46.500  27.080  37.253  1.00  0.00     0.060 A 
BRANCH  68  69
ATOM     69  S   UNL A   1      47.815  26.162  38.080  1.00  0.00     0.124 S 
ATOM     70  O   UNL A   1      48.801  27.212  38.313  1.00  0.00    -0.237 OA
ATOM     71  O   UNL A   1      47.140  25.652  39.269  1.00  0.00    -0.237 OA
ATOM     72  O   UNL A   1      48.196  25.151  37.097  1.00  0.00    -0.744 OA
ENDBRANCH  68  69
ENDBRANCH  47  61
BRANCH  48  73
ATOM     73  C   UNL A   1      36.968  32.822  30.939  1.00  0.00     0.058 A 
ATOM     74  C   UNL A   1      37.190  33.789  29.948  1.00  0.00     0.135 A 
ATOM     75  C   UNL A   1      35.639  32.468  31.221  1.00  0.00     0.135 A 
ATOM     76  F   UNL A   1      38.443  34.165  29.646  1.00  0.00    -0.206 F 
ATOM     77  C   UNL A   1      36.136  34.403  29.279  1.00  0.00     0.059 A 
ATOM     78  C   UNL A   1      34.570  33.047  30.546  1.00  0.00     0.059 A 
ATOM     79  F   UNL A   1      35.373  31.532  32.147  1.00  0.00    -0.206 F 
ATOM     80  C   UNL A   1      34.828  34.025  29.586  1.00  0.00     0.060 A 
BRANCH  80  81
ATOM     81  S   UNL A   1      33.467  34.801  28.688  1.00  0.00     0.124 S 
ATOM     82  O   UNL A   1      32.496  35.014  29.756  1.00  0.00    -0.237 OA
ATOM     83  O   UNL A   1      34.099  36.001  28.149  1.00  0.00    -0.237 OA
ATOM     84  O   UNL A   1      33.104  33.793  27.696  1.00  0.00    -0.744 OA
ENDBRANCH  80  81
ENDBRANCH  48  73
BRANCH  60  85
ATOM     85  C   UNL A   1      39.860  33.922  37.189  1.00  0.00     0.058 A 
ATOM     86  C   UNL A   1      39.017  33.620  38.269  1.00  0.00     0.135 A 
ATOM     87  C   UNL A   1      40.485  35.178  37.174  1.00  0.00     0.135 A 
ATOM     88  F   UNL A   1      38.389  32.435  38.328  1.00  0.00    -0.206 F 
ATOM     89  C   UNL A   1      38.785  34.540  39.288  1.00  0.00     0.059 A 
ATOM     90  C   UNL A   1      40.290  36.103  38.194  1.00  0.00     0.059 A 
ATOM     91  F   UNL A   1      41.309  35.512  36.167  1.00  0.00    -0.206 F 
ATOM     92  C   UNL A   1      39.428  35.779  39.241  1.00  0.00     0.060 A 
BRANCH  92  93
ATOM     93  S   UNL A   1      39.146  36.951  40.585  1.00  0.00     0.124 S 
ATOM     94  O   UNL A   1      38.473  36.111  41.571  1.00  0.00    -0.237 OA
ATOM     95  O   UNL A   1      40.503  37.368  40.928  1.00  0.00    -0.237 OA
ATOM     96  O   UNL A   1      38.318  37.982  39.967  1.00  0.00    -0.744 OA
ENDBRANCH  92  93
ENDBRANCH  60  85
ENDBRANCH  34  35
ENDBRANCH  26  29
ENDBRANCH  24  25
ENDBRANCH  23  24
ENDBRANCH   1  23
TORSDOF 18
ENDMDL
MODEL 2
REMARK VINA RESULT:     -11.7      6.980     12.690
REMARK SMILES COc1ccc2cc([C@@H](C)C(=O)NCCCCCCNC(=O)c3ccc(-c4c5nc(c(-c6c(F)cc(S(=O)(=O)[O-])cc6F)c6ccc([nH]6)c(-c6c(F)cc(S(=O)(=O)[O-])cc6F)c6nc(c(-c7c(F)cc(S(=O)(=O)[O-])cc7F)c7ccc4[nH]7)C=C6)C=C5)cc3)ccc2c1
REMARK SMILES IDX 17 1 16 2 15 3 14 4 13 5 11 6 12 7 9 9 10 10 8 11 3 12 4 13
REMARK SMILES IDX 92 14 5 15 91 16 6 17 90 18 7 19 89 20 2 21 1 22 18 23 19 24
REMARK SMILES IDX 20 25 21 26 22 28 23 29 24 30 88 31 25 32 87 33 26 34 27 35
REMARK SMILES IDX 28 36 81 37 29 38 86 39 80 40 82 41 30 42 85 43 79 44 78 45
REMARK SMILES IDX 31 47 65 48 44 49 64 50 45 51 48 52 63 53 83 54 46 55 47 56
REMARK SMILES IDX 62 58 84 59 49 60 32 61 33 62 42 63 34 64 35 65 41 66 43 67
REMARK SMILES IDX 36 68 37 69 38 70 39 71 40 72 66 73 67 74 76 75 68 76 69 77
REMARK SMILES IDX 75 78 77 79 70 80 71 81 72 82 73 83 74 84 50 85 51 86 60 87
REMARK SMILES IDX 52 88 53 89 59 90 61 91 54 92 55 93 56 94 57 95 58 96
REMARK H PARENT 13 8 20 27 82 46 48 57
REMARK Flexibility Score: inf
ROOT
ATOM      1  C   UNL A   1      34.805  28.966  26.965  1.00  0.00     0.002 C 
ENDROOT
BRANCH   1   2
ATOM      2  C   UNL A   1      33.859  28.364  25.918  1.00  0.00     0.002 C 
BRANCH   2   3
ATOM      3  C   UNL A   1      32.713  27.524  26.488  1.00  0.00     0.021 C 
BRANCH   3   4
ATOM      4  C   UNL A   1      32.850  26.023  26.219  1.00  0.00     0.116 C 
BRANCH   4   5
ATOM      5  N   UNL A   1      31.707  25.286  26.724  1.00  0.00    -0.356 N 
ATOM      6  C   UNL A   1      30.629  24.738  26.101  1.00  0.00     0.227 C 
ATOM      7  O   UNL A   1      29.762  24.253  26.840  1.00  0.00    -0.274 OA
ATOM      8  H   UNL A   1      31.714  25.158  27.699  1.00  0.00     0.163 HD
BRANCH   6   9
ATOM      9  C   UNL A   1      30.451  24.675  24.576  1.00  0.00     0.105 C 
ATOM     10  C   UNL A   1      31.389  23.696  23.871  1.00  0.00     0.023 C 
BRANCH   9  11
ATOM     11  C   UNL A   1      30.308  26.039  23.917  1.00  0.00    -0.035 A 
ATOM     12  C   UNL A   1      28.640  30.362  21.812  1.00  0.00     0.119 A 
ATOM     13  C   UNL A   1      27.545  29.786  22.452  1.00  0.00     0.047 A 
ATOM     14  C   UNL A   1      29.877  29.712  21.832  1.00  0.00     0.055 A 
ATOM     15  C   UNL A   1      27.704  28.602  23.171  1.00  0.00     0.012 A 
ATOM     16  C   UNL A   1      30.045  28.503  22.529  1.00  0.00    -0.015 A 
ATOM     17  C   UNL A   1      28.950  27.960  23.228  1.00  0.00    -0.018 A 
ATOM     18  C   UNL A   1      31.267  27.815  22.547  1.00  0.00     0.009 A 
ATOM     19  C   UNL A   1      29.114  26.770  23.953  1.00  0.00     0.013 A 
ATOM     20  C   UNL A   1      31.388  26.588  23.211  1.00  0.00     0.005 A 
BRANCH  12  21
ATOM     21  O   UNL A   1      28.595  31.538  21.113  1.00  0.00    -0.497 OA
ATOM     22  C   UNL A   1      28.380  32.697  21.917  1.00  0.00     0.278 C 
ENDBRANCH  12  21
ENDBRANCH   9  11
ENDBRANCH   6   9
ENDBRANCH   4   5
ENDBRANCH   3   4
ENDBRANCH   2   3
ENDBRANCH   1   2
BRANCH   1  23
ATOM     23  C   UNL A   1      34.454  30.381  27.440  1.00  0.00     0.021 C 
BRANCH  23  24
ATOM     24  C   UNL A   1      35.601  31.141  28.100  1.00  0.00     0.116 C 
BRANCH  24  25
ATOM     25  N   UNL A   1      35.513  31.097  29.551  1.00  0.00    -0.352 N 
ATOM     26  C   UNL A   1      36.353  30.512  30.465  1.00  0.00     0.251 C 
ATOM     27  H   UNL A   1      34.731  31.556  29.937  1.00  0.00     0.163 HD
ATOM     28  O   UNL A   1      35.987  30.372  31.628  1.00  0.00    -0.269 OA
BRANCH  26  29
ATOM     29  C   UNL A   1      37.694  30.043  30.050  1.00  0.00     0.039 A 
ATOM     30  C   UNL A   1      38.002  29.991  28.687  1.00  0.00     0.014 A 
ATOM     31  C   UNL A   1      38.634  29.622  30.995  1.00  0.00     0.014 A 
ATOM     32  C   UNL A   1      39.270  29.570  28.278  1.00  0.00     0.010 A 
ATOM     33  C   UNL A   1      39.918  29.264  30.589  1.00  0.00     0.010 A 
ATOM     34  C   UNL A   1      40.249  29.232  29.227  1.00  0.00    -0.014 A 
BRANCH  34  35
ATOM     35  C   UNL A   1      41.623  28.851  28.807  1.00  0.00     0.031 A 
ATOM     36  C   UNL A   1      42.714  29.886  28.743  1.00  0.00     0.074 A 
ATOM     37  C   UNL A   1      41.872  27.582  28.426  1.00  0.00     0.049 A 
ATOM     38  N   UNL A   1      43.954  29.754  28.348  1.00  0.00    -0.248 NA
ATOM     39  C   UNL A   1      42.360  31.254  29.154  1.00  0.00     0.031 C 
ATOM     40  C   UNL A   1      40.885  26.500  28.394  1.00  0.00     0.029 A 
ATOM     41  N   UNL A   1      43.027  26.987  27.983  1.00  0.00    -0.354 N 
ATOM     42  C   UNL A   1      44.523  31.017  28.449  1.00  0.00     0.074 A 
ATOM     43  C   UNL A   1      43.481  31.915  28.898  1.00  0.00     0.031 C 
ATOM     44  C   UNL A   1      41.480  25.372  27.975  1.00  0.00     0.029 A 
ATOM     45  C   UNL A   1      42.880  25.654  27.676  1.00  0.00     0.049 A 
ATOM     46  H   UNL A   1      43.880  27.469  27.895  1.00  0.00     0.167 HD
ATOM     47  C   UNL A   1      45.804  31.392  28.213  1.00  0.00     0.037 A 
ATOM     48  C   UNL A   1      43.771  24.762  27.200  1.00  0.00     0.037 A 
ATOM     49  C   UNL A   1      46.846  30.488  27.798  1.00  0.00     0.049 A 
ATOM     50  C   UNL A   1      45.189  25.201  26.958  1.00  0.00     0.074 A 
ATOM     51  C   UNL A   1      48.188  30.758  27.594  1.00  0.00     0.029 A 
ATOM     52  N   UNL A   1      46.664  29.140  27.525  1.00  0.00    -0.354 N 
ATOM     53  N   UNL A   1      45.724  26.387  27.123  1.00  0.00    -0.248 NA
ATOM     54  C   UNL A   1      46.127  24.180  26.470  1.00  0.00     0.031 C 
ATOM     55  C   UNL A   1      48.809  29.584  27.158  1.00  0.00     0.029 A 
ATOM     56  C   UNL A   1      47.865  28.570  27.136  1.00  0.00     0.049 A 
ATOM     57  H   UNL A   1      45.807  28.659  27.597  1.00  0.00     0.167 HD
ATOM     58  C   UNL A   1      47.067  26.248  26.789  1.00  0.00     0.074 A 
ATOM     59  C   UNL A   1      47.264  24.860  26.421  1.00  0.00     0.031 C 
ATOM     60  C   UNL A   1      48.048  27.184  26.785  1.00  0.00     0.037 A 
BRANCH  47  61
ATOM     61  C   UNL A   1      46.160  32.840  28.406  1.00  0.00     0.058 A 
ATOM     62  C   UNL A   1      46.669  33.316  29.625  1.00  0.00     0.135 A 
ATOM     63  C   UNL A   1      46.045  33.753  27.345  1.00  0.00     0.135 A 
ATOM     64  F   UNL A   1      46.787  32.491  30.676  1.00  0.00    -0.206 F 
ATOM     65  C   UNL A   1      47.035  34.649  29.791  1.00  0.00     0.059 A 
ATOM     66  C   UNL A   1      46.428  35.084  27.480  1.00  0.00     0.059 A 
ATOM     67  F   UNL A   1      45.563  33.352  26.158  1.00  0.00    -0.206 F 
ATOM     68  C   UNL A   1      46.912  35.525  28.711  1.00  0.00     0.060 A 
BRANCH  68  69
ATOM     69  S   UNL A   1      47.409  37.245  28.938  1.00  0.00     0.124 S 
ATOM     70  O   UNL A   1      46.158  37.853  29.381  1.00  0.00    -0.237 OA
ATOM     71  O   UNL A   1      48.455  37.138  29.949  1.00  0.00    -0.237 OA
ATOM     72  O   UNL A   1      47.864  37.646  27.610  1.00  0.00    -0.744 OA
ENDBRANCH  68  69
ENDBRANCH  47  61
BRANCH  48  73
ATOM     73  C   UNL A   1      43.354  23.358  26.941  1.00  0.00     0.058 A 
ATOM     74  C   UNL A   1      43.121  22.467  27.999  1.00  0.00     0.135 A 
ATOM     75  C   UNL A   1      43.181  22.879  25.633  1.00  0.00     0.135 A 
ATOM     76  F   UNL A   1      43.278  22.877  29.268  1.00  0.00    -0.206 F 
ATOM     77  C   UNL A   1      42.756  21.144  27.772  1.00  0.00     0.059 A 
ATOM     78  C   UNL A   1      42.790  21.568  25.381  1.00  0.00     0.059 A 
ATOM     79  F   UNL A   1      43.372  23.697  24.586  1.00  0.00    -0.206 F 
ATOM     80  C   UNL A   1      42.594  20.704  26.457  1.00  0.00     0.060 A 
BRANCH  80  81
ATOM     81  S   UNL A   1      42.086  18.994  26.171  1.00  0.00     0.124 S 
ATOM     82  O   UNL A   1      42.373  18.383  27.464  1.00  0.00    -0.237 OA
ATOM     83  O   UNL A   1      40.673  19.146  25.835  1.00  0.00    -0.237 OA
ATOM     84  O   UNL A   1      42.943  18.572  25.068  1.00  0.00    -0.744 OA
ENDBRANCH  80  81
ENDBRANCH  48  73
BRANCH  60  85
ATOM     85  C   UNL A   1      49.432  26.735  26.406  1.00  0.00     0.058 A 
ATOM     86  C   UNL A   1      50.294  26.140  27.339  1.00  0.00     0.135 A 
ATOM     87  C   UNL A   1      49.880  26.859  25.082  1.00  0.00     0.135 A 
ATOM     88  F   UNL A   1      49.917  26.004  28.620  1.00  0.00    -0.206 F 
ATOM     89  C   UNL A   1      51.565  25.702  26.976  1.00  0.00     0.059 A 
ATOM     90  C   UNL A   1      51.135  26.404  24.690  1.00  0.00     0.059 A 
ATOM     91  F   UNL A   1      49.089  27.413  24.148  1.00  0.00    -0.206 F 
ATOM     92  C   UNL A   1      51.975  25.838  25.648  1.00  0.00     0.060 A 
BRANCH  92  93
ATOM     93  S   UNL A   1      53.612  25.234  25.182  1.00  0.00     0.124 S 
ATOM     94  O   UNL A   1      53.728  25.728  23.814  1.00  0.00    -0.237 OA
ATOM     95  O   UNL A   1      54.476  25.881  26.165  1.00  0.00    -0.237 OA
ATOM     96  O   UNL A   1      53.491  23.786  25.320  1.00  0.00    -0.744 OA
ENDBRANCH  92  93
ENDBRANCH  60  85
ENDBRANCH  34  35
ENDBRANCH  26  29
ENDBRANCH  24  25
ENDBRANCH  23  24
ENDBRANCH   1  23
TORSDOF 18
ENDMDL
MODEL 3
REMARK VINA RESULT:     -11.6      1.340      2.195
REMARK SMILES COc1ccc2cc([C@@H](C)C(=O)NCCCCCCNC(=O)c3ccc(-c4c5nc(c(-c6c(F)cc(S(=O)(=O)[O-])cc6F)c6ccc([nH]6)c(-c6c(F)cc(S(=O)(=O)[O-])cc6F)c6nc(c(-c7c(F)cc(S(=O)(=O)[O-])cc7F)c7ccc4[nH]7)C=C6)C=C5)cc3)ccc2c1
REMARK SMILES IDX 17 1 16 2 15 3 14 4 13 5 11 6 12 7 9 9 10 10 8 11 3 12 4 13
REMARK SMILES IDX 92 14 5 15 91 16 6 17 90 18 7 19 89 20 2 21 1 22 18 23 19 24
REMARK SMILES IDX 20 25 21 26 22 28 23 29 24 30 88 31 25 32 87 33 26 34 27 35
REMARK SMILES IDX 28 36 81 37 29 38 86 39 80 40 82 41 30 42 85 43 79 44 78 45
REMARK SMILES IDX 31 47 65 48 44 49 64 50 45 51 48 52 63 53 83 54 46 55 47 56
REMARK SMILES IDX 62 58 84 59 49 60 32 61 33 62 42 63 34 64 35 65 41 66 43 67
REMARK SMILES IDX 36 68 37 69 38 70 39 71 40 72 66 73 67 74 76 75 68 76 69 77
REMARK SMILES IDX 75 78 77 79 70 80 71 81 72 82 73 83 74 84 50 85 51 86 60 87
REMARK SMILES IDX 52 88 53 89 59 90 61 91 54 92 55 93 56 94 57 95 58 96
REMARK H PARENT 13 8 20 27 82 46 48 57
REMARK Flexibility Score: inf
ROOT
ATOM      1  C   UNL A   1      37.210  22.941  24.587  1.00  0.00     0.002 C 
ENDROOT
BRANCH   1   2
ATOM      2  C   UNL A   1      35.869  23.425  24.019  1.00  0.00     0.002 C 
BRANCH   2   3
ATOM      3  C   UNL A   1      34.993  24.205  25.004  1.00  0.00     0.021 C 
BRANCH   3   4
ATOM      4  C   UNL A   1      34.046  25.205  24.334  1.00  0.00     0.116 C 
BRANCH   4   5
ATOM      5  N   UNL A   1      33.897  24.931  22.919  1.00  0.00    -0.356 N 
ATOM      6  C   UNL A   1      33.014  24.159  22.228  1.00  0.00     0.227 C 
ATOM      7  O   UNL A   1      33.219  24.052  21.012  1.00  0.00    -0.274 OA
ATOM      8  H   UNL A   1      34.557  25.389  22.351  1.00  0.00     0.163 HD
BRANCH   6   9
ATOM      9  C   UNL A   1      31.804  23.454  22.860  1.00  0.00     0.105 C 
ATOM     10  C   UNL A   1      30.835  24.390  23.583  1.00  0.00     0.023 C 
BRANCH   9  11
ATOM     11  C   UNL A   1      32.155  22.173  23.601  1.00  0.00    -0.035 A 
ATOM     12  C   UNL A   1      32.978  17.361  25.040  1.00  0.00     0.119 A 
ATOM     13  C   UNL A   1      32.826  17.339  23.656  1.00  0.00     0.047 A 
ATOM     14  C   UNL A   1      32.866  18.570  25.731  1.00  0.00     0.055 A 
ATOM     15  C   UNL A   1      32.636  18.531  22.959  1.00  0.00     0.012 A 
ATOM     16  C   UNL A   1      32.646  19.776  25.044  1.00  0.00    -0.015 A 
ATOM     17  C   UNL A   1      32.558  19.756  23.639  1.00  0.00    -0.018 A 
ATOM     18  C   UNL A   1      32.505  21.002  25.712  1.00  0.00     0.009 A 
ATOM     19  C   UNL A   1      32.370  20.957  22.940  1.00  0.00     0.013 A 
ATOM     20  C   UNL A   1      32.238  22.178  25.001  1.00  0.00     0.005 A 
BRANCH  12  21
ATOM     21  O   UNL A   1      33.204  16.252  25.810  1.00  0.00    -0.497 OA
ATOM     22  C   UNL A   1      32.459  15.100  25.422  1.00  0.00     0.278 C 
ENDBRANCH  12  21
ENDBRANCH   9  11
ENDBRANCH   6   9
ENDBRANCH   4   5
ENDBRANCH   3   4
ENDBRANCH   2   3
ENDBRANCH   1   2
BRANCH   1  23
ATOM     23  C   UNL A   1      37.401  23.139  26.094  1.00  0.00     0.021 C 
BRANCH  23  24
ATOM     24  C   UNL A   1      38.246  24.350  26.482  1.00  0.00     0.116 C 
BRANCH  24  25
ATOM     25  N   UNL A   1      39.633  24.194  26.073  1.00  0.00    -0.352 N 
ATOM     26  C   UNL A   1      40.742  24.921  26.431  1.00  0.00     0.251 C 
ATOM     27  H   UNL A   1      39.803  23.457  25.441  1.00  0.00     0.163 HD
ATOM     28  O   UNL A   1      41.784  24.794  25.797  1.00  0.00    -0.269 OA
BRANCH  26  29
ATOM     29  C   UNL A   1      40.680  25.860  27.573  1.00  0.00     0.039 A 
ATOM     30  C   UNL A   1      41.606  26.905  27.641  1.00  0.00     0.014 A 
ATOM     31  C   UNL A   1      39.737  25.693  28.592  1.00  0.00     0.014 A 
ATOM     32  C   UNL A   1      41.549  27.813  28.702  1.00  0.00     0.010 A 
ATOM     33  C   UNL A   1      39.642  26.635  29.614  1.00  0.00     0.010 A 
ATOM     34  C   UNL A   1      40.549  27.703  29.681  1.00  0.00    -0.014 A 
BRANCH  34  35
ATOM     35  C   UNL A   1      40.435  28.703  30.775  1.00  0.00     0.031 A 
ATOM     36  C   UNL A   1      41.293  28.586  32.007  1.00  0.00     0.074 A 
ATOM     37  C   UNL A   1      39.514  29.685  30.684  1.00  0.00     0.049 A 
ATOM     38  N   UNL A   1      41.294  29.327  33.084  1.00  0.00    -0.248 NA
ATOM     39  C   UNL A   1      42.258  27.476  32.042  1.00  0.00     0.031 C 
ATOM     40  C   UNL A   1      38.588  29.872  29.564  1.00  0.00     0.029 A 
ATOM     41  N   UNL A   1      39.197  30.702  31.548  1.00  0.00    -0.354 N 
ATOM     42  C   UNL A   1      42.246  28.770  33.929  1.00  0.00     0.074 A 
ATOM     43  C   UNL A   1      42.770  27.599  33.260  1.00  0.00     0.031 C 
ATOM     44  C   UNL A   1      37.823  30.950  29.801  1.00  0.00     0.029 A 
ATOM     45  C   UNL A   1      38.177  31.509  31.101  1.00  0.00     0.049 A 
ATOM     46  H   UNL A   1      39.657  30.842  32.407  1.00  0.00     0.167 HD
ATOM     47  C   UNL A   1      42.663  29.207  35.142  1.00  0.00     0.037 A 
ATOM     48  C   UNL A   1      37.589  32.577  31.677  1.00  0.00     0.037 A 
ATOM     49  C   UNL A   1      42.162  30.392  35.789  1.00  0.00     0.049 A 
ATOM     50  C   UNL A   1      38.079  33.049  33.018  1.00  0.00     0.074 A 
ATOM     51  C   UNL A   1      42.565  30.953  36.988  1.00  0.00     0.029 A 
ATOM     52  N   UNL A   1      41.149  31.199  35.291  1.00  0.00    -0.354 N 
ATOM     53  N   UNL A   1      39.028  32.546  33.772  1.00  0.00    -0.248 NA
ATOM     54  C   UNL A   1      37.425  34.236  33.586  1.00  0.00     0.031 C 
ATOM     55  C   UNL A   1      41.770  32.076  37.236  1.00  0.00     0.029 A 
ATOM     56  C   UNL A   1      40.902  32.242  36.169  1.00  0.00     0.049 A 
ATOM     57  H   UNL A   1      40.676  31.053  34.441  1.00  0.00     0.167 HD
ATOM     58  C   UNL A   1      39.104  33.372  34.888  1.00  0.00     0.074 A 
ATOM     59  C   UNL A   1      38.113  34.413  34.706  1.00  0.00     0.031 C 
ATOM     60  C   UNL A   1      39.920  33.278  35.967  1.00  0.00     0.037 A 
BRANCH  47  61
ATOM     61  C   UNL A   1      43.723  28.409  35.850  1.00  0.00     0.058 A 
ATOM     62  C   UNL A   1      45.090  28.681  35.675  1.00  0.00     0.135 A 
ATOM     63  C   UNL A   1      43.370  27.398  36.759  1.00  0.00     0.135 A 
ATOM     64  F   UNL A   1      45.484  29.627  34.808  1.00  0.00    -0.206 F 
ATOM     65  C   UNL A   1      46.068  27.968  36.360  1.00  0.00     0.059 A 
ATOM     66  C   UNL A   1      44.331  26.689  37.475  1.00  0.00     0.059 A 
ATOM     67  F   UNL A   1      42.078  27.096  36.965  1.00  0.00    -0.206 F 
ATOM     68  C   UNL A   1      45.678  26.975  37.259  1.00  0.00     0.060 A 
BRANCH  68  69
ATOM     69  S   UNL A   1      46.960  26.073  38.154  1.00  0.00     0.124 S 
ATOM     70  O   UNL A   1      47.361  27.054  39.157  1.00  0.00    -0.237 OA
ATOM     71  O   UNL A   1      46.232  24.913  38.659  1.00  0.00    -0.237 OA
ATOM     72  O   UNL A   1      47.955  25.784  37.126  1.00  0.00    -0.744 OA
ENDBRANCH  68  69
ENDBRANCH  47  61
BRANCH  48  73
ATOM     73  C   UNL A   1      36.484  33.286  30.978  1.00  0.00     0.058 A 
ATOM     74  C   UNL A   1      36.741  34.115  29.876  1.00  0.00     0.135 A 
ATOM     75  C   UNL A   1      35.151  33.151  31.398  1.00  0.00     0.135 A 
ATOM     76  F   UNL A   1      38.000  34.280  29.440  1.00  0.00    -0.206 F 
ATOM     77  C   UNL A   1      35.721  34.805  29.229  1.00  0.00     0.059 A 
ATOM     78  C   UNL A   1      34.111  33.809  30.750  1.00  0.00     0.059 A 
ATOM     79  F   UNL A   1      34.850  32.354  32.435  1.00  0.00    -0.206 F 
ATOM     80  C   UNL A   1      34.408  34.645  29.675  1.00  0.00     0.060 A 
BRANCH  80  81
ATOM     81  S   UNL A   1      33.085  35.517  28.807  1.00  0.00     0.124 S 
ATOM     82  O   UNL A   1      32.323  36.073  29.920  1.00  0.00    -0.237 OA
ATOM     83  O   UNL A   1      33.829  36.478  27.998  1.00  0.00    -0.237 OA
ATOM     84  O   UNL A   1      32.423  34.455  28.055  1.00  0.00    -0.744 OA
ENDBRANCH  80  81
ENDBRANCH  48  73
BRANCH  60  85
ATOM     85  C   UNL A   1      39.804  34.346  37.019  1.00  0.00     0.058 A 
ATOM     86  C   UNL A   1      39.011  34.170  38.163  1.00  0.00     0.135 A 
ATOM     87  C   UNL A   1      40.534  35.539  36.902  1.00  0.00     0.135 A 
ATOM     88  F   UNL A   1      38.288  33.051  38.320  1.00  0.00    -0.206 F 
ATOM     89  C   UNL A   1      38.928  35.152  39.146  1.00  0.00     0.059 A 
ATOM     90  C   UNL A   1      40.488  36.522  37.884  1.00  0.00     0.059 A 
ATOM     91  F   UNL A   1      41.315  35.752  35.830  1.00  0.00    -0.206 F 
ATOM     92  C   UNL A   1      39.672  36.325  38.997  1.00  0.00     0.060 A 
BRANCH  92  93
ATOM     93  S   UNL A   1      39.583  37.576  40.296  1.00  0.00     0.124 S 
ATOM     94  O   UNL A   1      40.992  37.911  40.478  1.00  0.00    -0.237 OA
ATOM     95  O   UNL A   1      38.759  38.611  39.678  1.00  0.00    -0.237 OA
ATOM     96  O   UNL A   1      38.958  36.866  41.408  1.00  0.00    -0.744 OA
ENDBRANCH  92  93
ENDBRANCH  60  85
ENDBRANCH  34  35
ENDBRANCH  26  29
ENDBRANCH  24  25
ENDBRANCH  23  24
ENDBRANCH   1  23
TORSDOF 18
ENDMDL
