MODEL 1
REMARK VINA RESULT:     -10.3      0.000      0.000
REMARK SMILES C[C@H](CO)CSc1cc(Cl)ccc1C(=O)NCCCCCCNC(=O)c1ccc(-c2c3nc(c(-c4c(F)cc(S(=O)(=O)[O-])cc4F)c4ccc([nH]4)c(-c4c(F)cc(S(=O)(=O)[O-])cc4F)c4nc(c(-c5c(F)cc(S(=O)(=O)[O-])cc5F)c5ccc2[nH]5)C=C4)C=C3)cc1
REMARK SMILES IDX 18 1 17 2 16 3 14 4 15 5 13 7 7 8 8 9 9 10 12 11 10 12 11 13
REMARK SMILES IDX 6 14 5 15 2 16 1 17 3 18 4 19 19 21 20 22 21 23 22 24 23 25
REMARK SMILES IDX 24 26 25 28 26 29 27 30 91 31 28 32 90 33 29 34 30 35 31 36
REMARK SMILES IDX 84 37 32 38 89 39 83 40 85 41 33 42 88 43 82 44 81 45 34 47
REMARK SMILES IDX 68 48 47 49 67 50 48 51 51 52 66 53 86 54 49 55 50 56 65 58
REMARK SMILES IDX 87 59 52 60 35 61 36 62 45 63 37 64 38 65 44 66 46 67 39 68
REMARK SMILES IDX 40 69 41 70 42 71 43 72 69 73 70 74 79 75 71 76 72 77 78 78
REMARK SMILES IDX 80 79 73 80 74 81 75 82 76 83 77 84 53 85 54 86 63 87 55 88
REMARK SMILES IDX 56 89 62 90 64 91 57 92 58 93 59 94 60 95 61 96
REMARK H PARENT 16 6 4 20 23 27 85 46 51 57
REMARK Flexibility Score: inf
ROOT
ATOM      1  C   UNL A   1      31.774  23.532  25.205  1.00  0.00     0.021 C 
ENDROOT
BRANCH   1   2
ATOM      2  C   UNL A   1      31.752  24.420  23.958  1.00  0.00     0.116 C 
BRANCH   2   3
ATOM      3  N   UNL A   1      30.462  25.039  23.816  1.00  0.00    -0.352 N 
ATOM      4  C   UNL A   1      29.903  26.210  24.230  1.00  0.00     0.252 C 
ATOM      5  O   UNL A   1      28.687  26.282  23.997  1.00  0.00    -0.269 OA
ATOM      6  H   UNL A   1      29.834  24.484  23.299  1.00  0.00     0.163 HD
BRANCH   4   7
ATOM      7  C   UNL A   1      30.565  27.425  24.830  1.00  0.00     0.053 A 
ATOM      8  C   UNL A   1      31.007  28.648  24.269  1.00  0.00     0.021 A 
ATOM      9  C   UNL A   1      31.763  29.540  25.072  1.00  0.00     0.036 A 
ATOM     10  C   UNL A   1      32.043  29.270  26.407  1.00  0.00     0.042 A 
ATOM     11  C   UNL A   1      30.850  27.208  26.207  1.00  0.00     0.016 A 
ATOM     12  Cl  UNL A   1      32.988  30.369  27.330  1.00  0.00    -0.084 Cl
ATOM     13  C   UNL A   1      31.575  28.109  26.987  1.00  0.00     0.021 A 
BRANCH   8  14
ATOM     14  S   UNL A   1      30.847  29.200  22.580  1.00  0.00    -0.125 SA
BRANCH  14  15
ATOM     15  C   UNL A   1      29.075  29.744  22.438  1.00  0.00     0.080 C 
BRANCH  15  16
ATOM     16  C   UNL A   1      28.738  31.252  22.550  1.00  0.00     0.022 C 
ATOM     17  C   UNL A   1      27.665  31.467  23.629  1.00  0.00     0.011 C 
BRANCH  16  18
ATOM     18  C   UNL A   1      28.275  31.922  21.250  1.00  0.00     0.160 C 
BRANCH  18  19
ATOM     19  O   UNL A   1      27.801  33.246  21.443  1.00  0.00    -0.396 OA
ATOM     20  H   UNL A   1      26.833  33.256  21.377  1.00  0.00     0.210 HD
ENDBRANCH  18  19
ENDBRANCH  16  18
ENDBRANCH  15  16
ENDBRANCH  14  15
ENDBRANCH   8  14
ENDBRANCH   4   7
ENDBRANCH   2   3
ENDBRANCH   1   2
BRANCH   1  21
ATOM     21  C   UNL A   1      32.580  24.140  26.353  1.00  0.00     0.002 C 
BRANCH  21  22
ATOM     22  C   UNL A   1      33.941  24.701  25.925  1.00  0.00     0.002 C 
BRANCH  22  23
ATOM     23  C   UNL A   1      35.020  23.646  25.655  1.00  0.00     0.021 C 
BRANCH  23  24
ATOM     24  C   UNL A   1      36.442  24.143  25.883  1.00  0.00     0.116 C 
BRANCH  24  25
ATOM     25  N   UNL A   1      37.399  23.046  25.837  1.00  0.00    -0.352 N 
ATOM     26  C   UNL A   1      38.736  23.065  26.145  1.00  0.00     0.251 C 
ATOM     27  H   UNL A   1      37.040  22.176  25.546  1.00  0.00     0.163 HD
ATOM     28  O   UNL A   1      39.471  22.143  25.806  1.00  0.00    -0.269 OA
BRANCH  26  29
ATOM     29  C   UNL A   1      39.275  24.220  26.888  1.00  0.00     0.039 A 
ATOM     30  C   UNL A   1      40.067  25.162  26.227  1.00  0.00     0.014 A 
ATOM     31  C   UNL A   1      38.963  24.375  28.241  1.00  0.00     0.014 A 
ATOM     32  C   UNL A   1      40.500  26.298  26.914  1.00  0.00     0.010 A 
ATOM     33  C   UNL A   1      39.332  25.538  28.900  1.00  0.00     0.010 A 
ATOM     34  C   UNL A   1      40.110  26.508  28.246  1.00  0.00    -0.014 A 
BRANCH  34  35
ATOM     35  C   UNL A   1      40.513  27.714  29.011  1.00  0.00     0.031 A 
ATOM     36  C   UNL A   1      41.796  27.687  29.795  1.00  0.00     0.074 A 
ATOM     37  C   UNL A   1      39.684  28.772  29.092  1.00  0.00     0.049 A 
ATOM     38  N   UNL A   1      42.241  28.535  30.684  1.00  0.00    -0.248 NA
ATOM     39  C   UNL A   1      42.677  26.528  29.574  1.00  0.00     0.031 C 
ATOM     40  C   UNL A   1      38.403  28.902  28.394  1.00  0.00     0.029 A 
ATOM     41  N   UNL A   1      39.782  29.930  29.822  1.00  0.00    -0.354 N 
ATOM     42  C   UNL A   1      43.435  27.998  31.150  1.00  0.00     0.074 A 
ATOM     43  C   UNL A   1      43.622  26.730  30.481  1.00  0.00     0.031 C 
ATOM     44  C   UNL A   1      37.837  30.074  28.729  1.00  0.00     0.029 A 
ATOM     45  C   UNL A   1      38.687  30.754  29.701  1.00  0.00     0.049 A 
ATOM     46  H   UNL A   1      40.562  30.150  30.381  1.00  0.00     0.167 HD
ATOM     47  C   UNL A   1      44.304  28.525  32.045  1.00  0.00     0.037 A 
ATOM     48  C   UNL A   1      38.392  31.913  30.323  1.00  0.00     0.037 A 
ATOM     49  C   UNL A   1      44.120  29.802  32.681  1.00  0.00     0.049 A 
ATOM     50  C   UNL A   1      39.369  32.477  31.322  1.00  0.00     0.074 A 
ATOM     51  C   UNL A   1      44.962  30.451  33.567  1.00  0.00     0.029 A 
ATOM     52  N   UNL A   1      43.019  30.627  32.496  1.00  0.00    -0.354 N 
ATOM     53  N   UNL A   1      40.513  31.975  31.727  1.00  0.00    -0.248 NA
ATOM     54  C   UNL A   1      39.022  33.761  31.944  1.00  0.00     0.031 C 
ATOM     55  C   UNL A   1      44.350  31.647  33.951  1.00  0.00     0.029 A 
ATOM     56  C   UNL A   1      43.154  31.773  33.260  1.00  0.00     0.049 A 
ATOM     57  H   UNL A   1      42.255  30.427  31.908  1.00  0.00     0.167 HD
ATOM     58  C   UNL A   1      41.041  32.905  32.617  1.00  0.00     0.074 A 
ATOM     59  C   UNL A   1      40.090  33.994  32.697  1.00  0.00     0.031 C 
ATOM     60  C   UNL A   1      42.212  32.863  33.299  1.00  0.00     0.037 A 
BRANCH  47  61
ATOM     61  C   UNL A   1      45.527  27.721  32.390  1.00  0.00     0.058 A 
ATOM     62  C   UNL A   1      46.698  27.790  31.618  1.00  0.00     0.135 A 
ATOM     63  C   UNL A   1      45.540  26.895  33.525  1.00  0.00     0.135 A 
ATOM     64  F   UNL A   1      46.736  28.550  30.512  1.00  0.00    -0.206 F 
ATOM     65  C   UNL A   1      47.826  27.042  31.940  1.00  0.00     0.059 A 
ATOM     66  C   UNL A   1      46.668  26.163  33.885  1.00  0.00     0.059 A 
ATOM     67  F   UNL A   1      44.448  26.791  34.299  1.00  0.00    -0.206 F 
ATOM     68  C   UNL A   1      47.801  26.232  33.076  1.00  0.00     0.060 A 
BRANCH  68  69
ATOM     69  S   UNL A   1      49.276  25.274  33.482  1.00  0.00     0.124 S 
ATOM     70  O   UNL A   1      48.703  23.959  33.751  1.00  0.00    -0.237 OA
ATOM     71  O   UNL A   1      50.065  25.383  32.260  1.00  0.00    -0.237 OA
ATOM     72  O   UNL A   1      49.824  25.968  34.643  1.00  0.00    -0.744 OA
ENDBRANCH  68  69
ENDBRANCH  47  61
BRANCH  48  73
ATOM     73  C   UNL A   1      37.123  32.623  30.010  1.00  0.00     0.058 A 
ATOM     74  C   UNL A   1      37.083  33.624  29.028  1.00  0.00     0.135 A 
ATOM     75  C   UNL A   1      35.926  32.310  30.673  1.00  0.00     0.135 A 
ATOM     76  F   UNL A   1      38.202  33.963  28.371  1.00  0.00    -0.206 F 
ATOM     77  C   UNL A   1      35.907  34.301  28.725  1.00  0.00     0.059 A 
ATOM     78  C   UNL A   1      34.731  32.955  30.369  1.00  0.00     0.059 A 
ATOM     79  F   UNL A   1      35.905  31.348  31.608  1.00  0.00    -0.206 F 
ATOM     80  C   UNL A   1      34.734  33.958  29.400  1.00  0.00     0.060 A 
BRANCH  80  81
ATOM     81  S   UNL A   1      33.203  34.814  28.966  1.00  0.00     0.124 S 
ATOM     82  O   UNL A   1      33.712  36.074  28.439  1.00  0.00    -0.237 OA
ATOM     83  O   UNL A   1      32.611  33.904  27.992  1.00  0.00    -0.237 OA
ATOM     84  O   UNL A   1      32.497  34.901  30.242  1.00  0.00    -0.744 OA
ENDBRANCH  80  81
ENDBRANCH  48  73
BRANCH  60  85
ATOM     85  C   UNL A   1      42.581  34.054  34.138  1.00  0.00     0.058 A 
ATOM     86  C   UNL A   1      42.340  34.095  35.519  1.00  0.00     0.135 A 
ATOM     87  C   UNL A   1      43.285  35.125  33.561  1.00  0.00     0.135 A 
ATOM     88  F   UNL A   1      41.666  33.101  36.117  1.00  0.00    -0.206 F 
ATOM     89  C   UNL A   1      42.784  35.158  36.300  1.00  0.00     0.059 A 
ATOM     90  C   UNL A   1      43.760  36.183  34.326  1.00  0.00     0.059 A 
ATOM     91  F   UNL A   1      43.547  35.128  32.244  1.00  0.00    -0.206 F 
ATOM     92  C   UNL A   1      43.503  36.192  35.696  1.00  0.00     0.060 A 
BRANCH  92  93
ATOM     93  S   UNL A   1      44.140  37.524  36.733  1.00  0.00     0.124 S 
ATOM     94  O   UNL A   1      44.201  38.632  35.786  1.00  0.00    -0.237 OA
ATOM     95  O   UNL A   1      43.115  37.630  37.767  1.00  0.00    -0.237 OA
ATOM     96  O   UNL A   1      45.430  37.015  37.188  1.00  0.00    -0.744 OA
ENDBRANCH  92  93
ENDBRANCH  60  85
ENDBRANCH  34  35
ENDBRANCH  26  29
ENDBRANCH  24  25
ENDBRANCH  23  24
ENDBRANCH  22  23
ENDBRANCH  21  22
ENDBRANCH   1  21
TORSDOF 21
ENDMDL
MODEL 2
REMARK VINA RESULT:      -9.9      5.160      9.769
REMARK SMILES C[C@H](CO)CSc1cc(Cl)ccc1C(=O)NCCCCCCNC(=O)c1ccc(-c2c3nc(c(-c4c(F)cc(S(=O)(=O)[O-])cc4F)c4ccc([nH]4)c(-c4c(F)cc(S(=O)(=O)[O-])cc4F)c4nc(c(-c5c(F)cc(S(=O)(=O)[O-])cc5F)c5ccc2[nH]5)C=C4)C=C3)cc1
REMARK SMILES IDX 18 1 17 2 16 3 14 4 15 5 13 7 7 8 8 9 9 10 12 11 10 12 11 13
REMARK SMILES IDX 6 14 5 15 2 16 1 17 3 18 4 19 19 21 20 22 21 23 22 24 23 25
REMARK SMILES IDX 24 26 25 28 26 29 27 30 91 31 28 32 90 33 29 34 30 35 31 36
REMARK SMILES IDX 84 37 32 38 89 39 83 40 85 41 33 42 88 43 82 44 81 45 34 47
REMARK SMILES IDX 68 48 47 49 67 50 48 51 51 52 66 53 86 54 49 55 50 56 65 58
REMARK SMILES IDX 87 59 52 60 35 61 36 62 45 63 37 64 38 65 44 66 46 67 39 68
REMARK SMILES IDX 40 69 41 70 42 71 43 72 69 73 70 74 79 75 71 76 72 77 78 78
REMARK SMILES IDX 80 79 73 80 74 81 75 82 76 83 77 84 53 85 54 86 63 87 55 88
REMARK SMILES IDX 56 89 62 90 64 91 57 92 58 93 59 94 60 95 61 96
REMARK H PARENT 16 6 4 20 23 27 85 46 51 57
REMARK Flexibility Score: inf
ROOT
ATOM      1  C   UNL A   1      31.774  29.357  26.383  1.00  0.00     0.021 C 
ENDROOT
BRANCH   1   2
ATOM      2  C   UNL A   1      32.118  28.272  27.408  1.00  0.00     0.116 C 
BRANCH   2   3
ATOM      3  N   UNL A   1      31.314  27.103  27.177  1.00  0.00    -0.352 N 
ATOM      4  C   UNL A   1      31.471  25.946  26.475  1.00  0.00     0.252 C 
ATOM      5  O   UNL A   1      30.443  25.253  26.435  1.00  0.00    -0.269 OA
ATOM      6  H   UNL A   1      30.442  27.151  27.633  1.00  0.00     0.163 HD
BRANCH   4   7
ATOM      7  C   UNL A   1      32.715  25.375  25.842  1.00  0.00     0.053 A 
ATOM      8  C   UNL A   1      33.522  25.807  24.761  1.00  0.00     0.021 A 
ATOM      9  C   UNL A   1      34.544  24.949  24.280  1.00  0.00     0.036 A 
ATOM     10  C   UNL A   1      34.808  23.716  24.869  1.00  0.00     0.042 A 
ATOM     11  C   UNL A   1      33.042  24.122  26.429  1.00  0.00     0.016 A 
ATOM     12  Cl  UNL A   1      36.038  22.700  24.232  1.00  0.00    -0.084 Cl
ATOM     13  C   UNL A   1      34.067  23.302  25.957  1.00  0.00     0.021 A 
BRANCH   8  14
ATOM     14  S   UNL A   1      33.350  27.293  23.790  1.00  0.00    -0.125 SA
BRANCH  14  15
ATOM     15  C   UNL A   1      31.745  27.066  22.879  1.00  0.00     0.080 C 
BRANCH  15  16
ATOM     16  C   UNL A   1      30.547  27.986  23.220  1.00  0.00     0.022 C 
ATOM     17  C   UNL A   1      29.337  27.133  23.632  1.00  0.00     0.011 C 
BRANCH  16  18
ATOM     18  C   UNL A   1      30.118  28.949  22.107  1.00  0.00     0.160 C 
BRANCH  18  19
ATOM     19  O   UNL A   1      31.108  29.917  21.794  1.00  0.00    -0.396 OA
ATOM     20  H   UNL A   1      31.521  30.235  22.613  1.00  0.00     0.210 HD
ENDBRANCH  18  19
ENDBRANCH  16  18
ENDBRANCH  15  16
ENDBRANCH  14  15
ENDBRANCH   8  14
ENDBRANCH   4   7
ENDBRANCH   2   3
ENDBRANCH   1   2
BRANCH   1  21
ATOM     21  C   UNL A   1      32.776  30.511  26.382  1.00  0.00     0.002 C 
BRANCH  21  22
ATOM     22  C   UNL A   1      33.565  30.648  27.689  1.00  0.00     0.002 C 
BRANCH  22  23
ATOM     23  C   UNL A   1      35.088  30.605  27.533  1.00  0.00     0.021 C 
BRANCH  23  24
ATOM     24  C   UNL A   1      35.841  31.432  28.569  1.00  0.00     0.116 C 
BRANCH  24  25
ATOM     25  N   UNL A   1      35.719  30.850  29.899  1.00  0.00    -0.352 N 
ATOM     26  C   UNL A   1      36.592  30.014  30.548  1.00  0.00     0.251 C 
ATOM     27  H   UNL A   1      34.904  31.087  30.397  1.00  0.00     0.163 HD
ATOM     28  O   UNL A   1      36.240  29.391  31.545  1.00  0.00    -0.269 OA
BRANCH  26  29
ATOM     29  C   UNL A   1      37.963  29.874  30.020  1.00  0.00     0.039 A 
ATOM     30  C   UNL A   1      39.049  29.885  30.899  1.00  0.00     0.014 A 
ATOM     31  C   UNL A   1      38.158  29.702  28.648  1.00  0.00     0.014 A 
ATOM     32  C   UNL A   1      40.335  29.664  30.403  1.00  0.00     0.010 A 
ATOM     33  C   UNL A   1      39.427  29.409  28.168  1.00  0.00     0.010 A 
ATOM     34  C   UNL A   1      40.529  29.394  29.038  1.00  0.00    -0.014 A 
BRANCH  34  35
ATOM     35  C   UNL A   1      41.870  29.118  28.466  1.00  0.00     0.031 A 
ATOM     36  C   UNL A   1      42.204  27.718  28.030  1.00  0.00     0.074 A 
ATOM     37  C   UNL A   1      42.808  30.084  28.447  1.00  0.00     0.049 A 
ATOM     38  N   UNL A   1      43.360  27.210  27.696  1.00  0.00    -0.248 NA
ATOM     39  C   UNL A   1      41.092  26.754  28.004  1.00  0.00     0.031 C 
ATOM     40  C   UNL A   1      42.606  31.473  28.866  1.00  0.00     0.029 A 
ATOM     41  N   UNL A   1      44.131  30.036  28.085  1.00  0.00    -0.354 N 
ATOM     42  C   UNL A   1      43.121  25.863  27.451  1.00  0.00     0.074 A 
ATOM     43  C   UNL A   1      41.721  25.624  27.719  1.00  0.00     0.031 C 
ATOM     44  C   UNL A   1      43.763  32.143  28.735  1.00  0.00     0.029 A 
ATOM     45  C   UNL A   1      44.798  31.225  28.273  1.00  0.00     0.049 A 
ATOM     46  H   UNL A   1      44.562  29.227  27.726  1.00  0.00     0.167 HD
ATOM     47  C   UNL A   1      43.990  24.916  27.025  1.00  0.00     0.037 A 
ATOM     48  C   UNL A   1      46.101  31.530  28.114  1.00  0.00     0.037 A 
ATOM     49  C   UNL A   1      45.375  25.175  26.733  1.00  0.00     0.049 A 
ATOM     50  C   UNL A   1      47.053  30.459  27.648  1.00  0.00     0.074 A 
ATOM     51  C   UNL A   1      46.331  24.299  26.251  1.00  0.00     0.029 A 
ATOM     52  N   UNL A   1      46.001  26.404  26.893  1.00  0.00    -0.354 N 
ATOM     53  N   UNL A   1      46.806  29.197  27.386  1.00  0.00    -0.248 NA
ATOM     54  C   UNL A   1      48.455  30.850  27.452  1.00  0.00     0.031 C 
ATOM     55  C   UNL A   1      47.544  24.986  26.161  1.00  0.00     0.029 A 
ATOM     56  C   UNL A   1      47.333  26.306  26.530  1.00  0.00     0.049 A 
ATOM     57  H   UNL A   1      45.562  27.224  27.216  1.00  0.00     0.167 HD
ATOM     58  C   UNL A   1      48.011  28.656  26.952  1.00  0.00     0.074 A 
ATOM     59  C   UNL A   1      48.988  29.724  26.993  1.00  0.00     0.031 C 
ATOM     60  C   UNL A   1      48.282  27.391  26.546  1.00  0.00     0.037 A 
BRANCH  47  61
ATOM     61  C   UNL A   1      43.470  23.516  26.853  1.00  0.00     0.058 A 
ATOM     62  C   UNL A   1      43.146  22.998  25.589  1.00  0.00     0.135 A 
ATOM     63  C   UNL A   1      43.325  22.668  27.963  1.00  0.00     0.135 A 
ATOM     64  F   UNL A   1      43.250  23.769  24.495  1.00  0.00    -0.206 F 
ATOM     65  C   UNL A   1      42.664  21.702  25.435  1.00  0.00     0.059 A 
ATOM     66  C   UNL A   1      42.875  21.358  27.830  1.00  0.00     0.059 A 
ATOM     67  F   UNL A   1      43.620  23.111  29.195  1.00  0.00    -0.206 F 
ATOM     68  C   UNL A   1      42.532  20.890  26.562  1.00  0.00     0.060 A 
BRANCH  68  69
ATOM     69  S   UNL A   1      41.910  19.210  26.343  1.00  0.00     0.124 S 
ATOM     70  O   UNL A   1      42.072  18.663  27.687  1.00  0.00    -0.237 OA
ATOM     71  O   UNL A   1      40.534  19.439  25.914  1.00  0.00    -0.237 OA
ATOM     72  O   UNL A   1      42.796  18.649  25.327  1.00  0.00    -0.744 OA
ENDBRANCH  68  69
ENDBRANCH  47  61
BRANCH  48  73
ATOM     73  C   UNL A   1      46.580  32.912  28.386  1.00  0.00     0.058 A 
ATOM     74  C   UNL A   1      46.636  33.868  27.360  1.00  0.00     0.135 A 
ATOM     75  C   UNL A   1      46.977  33.310  29.672  1.00  0.00     0.135 A 
ATOM     76  F   UNL A   1      46.273  33.534  26.113  1.00  0.00    -0.206 F 
ATOM     77  C   UNL A   1      47.085  35.163  27.595  1.00  0.00     0.059 A 
ATOM     78  C   UNL A   1      47.404  34.608  29.937  1.00  0.00     0.059 A 
ATOM     79  F   UNL A   1      46.924  32.441  30.692  1.00  0.00    -0.206 F 
ATOM     80  C   UNL A   1      47.465  35.525  28.888  1.00  0.00     0.060 A 
BRANCH  80  81
ATOM     81  S   UNL A   1      48.004  37.223  29.190  1.00  0.00     0.124 S 
ATOM     82  O   UNL A   1      48.920  37.044  30.309  1.00  0.00    -0.237 OA
ATOM     83  O   UNL A   1      48.614  37.580  27.913  1.00  0.00    -0.237 OA
ATOM     84  O   UNL A   1      46.757  37.918  29.497  1.00  0.00    -0.744 OA
ENDBRANCH  80  81
ENDBRANCH  48  73
BRANCH  60  85
ATOM     85  C   UNL A   1      49.666  27.093  26.041  1.00  0.00     0.058 A 
ATOM     86  C   UNL A   1      50.648  26.517  26.860  1.00  0.00     0.135 A 
ATOM     87  C   UNL A   1      49.974  27.293  24.685  1.00  0.00     0.135 A 
ATOM     88  F   UNL A   1      50.407  26.312  28.164  1.00  0.00    -0.206 F 
ATOM     89  C   UNL A   1      51.890  26.149  26.350  1.00  0.00     0.059 A 
ATOM     90  C   UNL A   1      51.197  26.909  24.150  1.00  0.00     0.059 A 
ATOM     91  F   UNL A   1      49.064  27.835  23.859  1.00  0.00    -0.206 F 
ATOM     92  C   UNL A   1      52.150  26.339  24.991  1.00  0.00     0.060 A 
BRANCH  92  93
ATOM     93  S   UNL A   1      53.735  25.785  24.328  1.00  0.00     0.124 S 
ATOM     94  O   UNL A   1      53.498  25.863  22.891  1.00  0.00    -0.237 OA
ATOM     95  O   UNL A   1      54.662  26.774  24.872  1.00  0.00    -0.237 OA
ATOM     96  O   UNL A   1      53.879  24.437  24.869  1.00  0.00    -0.744 OA
ENDBRANCH  92  93
ENDBRANCH  60  85
ENDBRANCH  34  35
ENDBRANCH  26  29
ENDBRANCH  24  25
ENDBRANCH  23  24
ENDBRANCH  22  23
ENDBRANCH  21  22
ENDBRANCH   1  21
TORSDOF 21
ENDMDL
MODEL 3
REMARK VINA RESULT:      -9.9      4.941     11.287
REMARK SMILES C[C@H](CO)CSc1cc(Cl)ccc1C(=O)NCCCCCCNC(=O)c1ccc(-c2c3nc(c(-c4c(F)cc(S(=O)(=O)[O-])cc4F)c4ccc([nH]4)c(-c4c(F)cc(S(=O)(=O)[O-])cc4F)c4nc(c(-c5c(F)cc(S(=O)(=O)[O-])cc5F)c5ccc2[nH]5)C=C4)C=C3)cc1
REMARK SMILES IDX 18 1 17 2 16 3 14 4 15 5 13 7 7 8 8 9 9 10 12 11 10 12 11 13
REMARK SMILES IDX 6 14 5 15 2 16 1 17 3 18 4 19 19 21 20 22 21 23 22 24 23 25
REMARK SMILES IDX 24 26 25 28 26 29 27 30 91 31 28 32 90 33 29 34 30 35 31 36
REMARK SMILES IDX 84 37 32 38 89 39 83 40 85 41 33 42 88 43 82 44 81 45 34 47
REMARK SMILES IDX 68 48 47 49 67 50 48 51 51 52 66 53 86 54 49 55 50 56 65 58
REMARK SMILES IDX 87 59 52 60 35 61 36 62 45 63 37 64 38 65 44 66 46 67 39 68
REMARK SMILES IDX 40 69 41 70 42 71 43 72 69 73 70 74 79 75 71 76 72 77 78 78
REMARK SMILES IDX 80 79 73 80 74 81 75 82 76 83 77 84 53 85 54 86 63 87 55 88
REMARK SMILES IDX 56 89 62 90 64 91 57 92 58 93 59 94 60 95 61 96
REMARK H PARENT 16 6 4 20 23 27 85 46 51 57
REMARK Flexibility Score: inf
ROOT
ATOM      1  C   UNL A   1      35.777  32.575  33.024  1.00  0.00     0.021 C 
ENDROOT
BRANCH   1   2
ATOM      2  C   UNL A   1      37.108  31.890  32.703  1.00  0.00     0.116 C 
BRANCH   2   3
ATOM      3  N   UNL A   1      37.029  30.489  33.016  1.00  0.00    -0.352 N 
ATOM      4  C   UNL A   1      37.935  29.484  33.181  1.00  0.00     0.252 C 
ATOM      5  O   UNL A   1      37.410  28.368  33.312  1.00  0.00    -0.269 OA
ATOM      6  H   UNL A   1      36.101  30.183  33.139  1.00  0.00     0.163 HD
BRANCH   4   7
ATOM      7  C   UNL A   1      39.435  29.562  33.312  1.00  0.00     0.053 A 
ATOM      8  C   UNL A   1      40.301  30.573  33.797  1.00  0.00     0.021 A 
ATOM      9  C   UNL A   1      41.701  30.419  33.627  1.00  0.00     0.036 A 
ATOM     10  C   UNL A   1      42.251  29.284  33.041  1.00  0.00     0.042 A 
ATOM     11  C   UNL A   1      40.046  28.408  32.748  1.00  0.00     0.016 A 
ATOM     12  Cl  UNL A   1      43.952  29.157  32.832  1.00  0.00    -0.084 Cl
ATOM     13  C   UNL A   1      41.426  28.264  32.611  1.00  0.00     0.021 A 
BRANCH   8  14
ATOM     14  S   UNL A   1      39.857  32.144  34.515  1.00  0.00    -0.125 SA
BRANCH  14  15
ATOM     15  C   UNL A   1      38.900  31.699  36.046  1.00  0.00     0.080 C 
BRANCH  15  16
ATOM     16  C   UNL A   1      38.732  32.756  37.164  1.00  0.00     0.022 C 
ATOM     17  C   UNL A   1      37.312  33.343  37.116  1.00  0.00     0.011 C 
BRANCH  16  18
ATOM     18  C   UNL A   1      39.744  33.908  37.140  1.00  0.00     0.160 C 
BRANCH  18  19
ATOM     19  O   UNL A   1      39.202  35.138  37.596  1.00  0.00    -0.396 OA
ATOM     20  H   UNL A   1      38.705  34.988  38.416  1.00  0.00     0.210 HD
ENDBRANCH  18  19
ENDBRANCH  16  18
ENDBRANCH  15  16
ENDBRANCH  14  15
ENDBRANCH   8  14
ENDBRANCH   4   7
ENDBRANCH   2   3
ENDBRANCH   1   2
BRANCH   1  21
ATOM     21  C   UNL A   1      35.289  33.481  31.893  1.00  0.00     0.002 C 
BRANCH  21  22
ATOM     22  C   UNL A   1      34.815  32.719  30.650  1.00  0.00     0.002 C 
BRANCH  22  23
ATOM     23  C   UNL A   1      35.760  32.795  29.446  1.00  0.00     0.021 C 
BRANCH  23  24
ATOM     24  C   UNL A   1      35.068  32.595  28.103  1.00  0.00     0.116 C 
BRANCH  24  25
ATOM     25  N   UNL A   1      34.301  31.356  28.083  1.00  0.00    -0.352 N 
ATOM     26  C   UNL A   1      34.765  30.065  28.039  1.00  0.00     0.251 C 
ATOM     27  H   UNL A   1      33.322  31.458  28.102  1.00  0.00     0.163 HD
ATOM     28  O   UNL A   1      34.012  29.138  27.757  1.00  0.00    -0.269 OA
BRANCH  26  29
ATOM     29  C   UNL A   1      36.189  29.814  28.335  1.00  0.00     0.039 A 
ATOM     30  C   UNL A   1      36.563  29.342  29.594  1.00  0.00     0.014 A 
ATOM     31  C   UNL A   1      37.146  30.025  27.339  1.00  0.00     0.014 A 
ATOM     32  C   UNL A   1      37.900  29.023  29.838  1.00  0.00     0.010 A 
ATOM     33  C   UNL A   1      38.460  29.638  27.559  1.00  0.00     0.010 A 
ATOM     34  C   UNL A   1      38.852  29.140  28.812  1.00  0.00    -0.014 A 
BRANCH  34  35
ATOM     35  C   UNL A   1      40.278  28.782  29.008  1.00  0.00     0.031 A 
ATOM     36  C   UNL A   1      41.247  29.848  29.441  1.00  0.00     0.074 A 
ATOM     37  C   UNL A   1      40.715  27.548  28.691  1.00  0.00     0.049 A 
ATOM     38  N   UNL A   1      42.552  29.814  29.478  1.00  0.00    -0.248 NA
ATOM     39  C   UNL A   1      40.666  31.138  29.850  1.00  0.00     0.031 C 
ATOM     40  C   UNL A   1      39.873  26.439  28.239  1.00  0.00     0.029 A 
ATOM     41  N   UNL A   1      41.985  27.028  28.672  1.00  0.00    -0.354 N 
ATOM     42  C   UNL A   1      42.949  31.083  29.883  1.00  0.00     0.074 A 
ATOM     43  C   UNL A   1      41.750  31.876  30.035  1.00  0.00     0.031 C 
ATOM     44  C   UNL A   1      40.648  25.371  27.990  1.00  0.00     0.029 A 
ATOM     45  C   UNL A   1      42.044  25.732  28.215  1.00  0.00     0.049 A 
ATOM     46  H   UNL A   1      42.779  27.535  28.959  1.00  0.00     0.167 HD
ATOM     47  C   UNL A   1      44.202  31.538  30.123  1.00  0.00     0.037 A 
ATOM     48  C   UNL A   1      43.106  24.935  27.981  1.00  0.00     0.037 A 
ATOM     49  C   UNL A   1      45.385  30.729  29.996  1.00  0.00     0.049 A 
ATOM     50  C   UNL A   1      44.492  25.465  28.244  1.00  0.00     0.074 A 
ATOM     51  C   UNL A   1      46.697  31.078  30.259  1.00  0.00     0.029 A 
ATOM     52  N   UNL A   1      45.397  29.406  29.574  1.00  0.00    -0.354 N 
ATOM     53  N   UNL A   1      44.850  26.657  28.662  1.00  0.00    -0.248 NA
ATOM     54  C   UNL A   1      45.614  24.547  28.011  1.00  0.00     0.031 C 
ATOM     55  C   UNL A   1      47.508  29.980  29.954  1.00  0.00     0.029 A 
ATOM     56  C   UNL A   1      46.696  28.929  29.558  1.00  0.00     0.049 A 
ATOM     57  H   UNL A   1      44.600  28.885  29.323  1.00  0.00     0.167 HD
ATOM     58  C   UNL A   1      46.236  26.616  28.784  1.00  0.00     0.074 A 
ATOM     59  C   UNL A   1      46.650  25.286  28.390  1.00  0.00     0.031 C 
ATOM     60  C   UNL A   1      47.085  27.589  29.194  1.00  0.00     0.037 A 
BRANCH  47  61
ATOM     61  C   UNL A   1      44.356  32.975  30.540  1.00  0.00     0.058 A 
ATOM     62  C   UNL A   1      44.439  34.012  29.597  1.00  0.00     0.135 A 
ATOM     63  C   UNL A   1      44.388  33.323  31.899  1.00  0.00     0.135 A 
ATOM     64  F   UNL A   1      44.430  33.736  28.284  1.00  0.00    -0.206 F 
ATOM     65  C   UNL A   1      44.583  35.340  29.988  1.00  0.00     0.059 A 
ATOM     66  C   UNL A   1      44.498  34.647  32.314  1.00  0.00     0.059 A 
ATOM     67  F   UNL A   1      44.312  32.371  32.843  1.00  0.00    -0.206 F 
ATOM     68  C   UNL A   1      44.611  35.647  31.349  1.00  0.00     0.060 A 
BRANCH  68  69
ATOM     69  S   UNL A   1      44.793  37.375  31.837  1.00  0.00     0.124 S 
ATOM     70  O   UNL A   1      45.395  37.953  30.640  1.00  0.00    -0.237 OA
ATOM     71  O   UNL A   1      43.414  37.770  32.106  1.00  0.00    -0.237 OA
ATOM     72  O   UNL A   1      45.663  37.308  33.008  1.00  0.00    -0.744 OA
ENDBRANCH  68  69
ENDBRANCH  47  61
BRANCH  48  73
ATOM     73  C   UNL A   1      42.900  23.550  27.481  1.00  0.00     0.058 A 
ATOM     74  C   UNL A   1      43.035  23.250  26.117  1.00  0.00     0.135 A 
ATOM     75  C   UNL A   1      42.580  22.497  28.351  1.00  0.00     0.135 A 
ATOM     76  F   UNL A   1      43.334  24.224  25.243  1.00  0.00    -0.206 F 
ATOM     77  C   UNL A   1      42.842  21.962  25.630  1.00  0.00     0.059 A 
ATOM     78  C   UNL A   1      42.408  21.193  27.892  1.00  0.00     0.059 A 
ATOM     79  F   UNL A   1      42.458  22.724  29.668  1.00  0.00    -0.206 F 
ATOM     80  C   UNL A   1      42.531  20.938  26.527  1.00  0.00     0.060 A 
BRANCH  80  81
ATOM     81  S   UNL A   1      42.327  19.261  25.890  1.00  0.00     0.124 S 
ATOM     82  O   UNL A   1      40.884  19.197  25.690  1.00  0.00    -0.237 OA
ATOM     83  O   UNL A   1      43.140  19.294  24.679  1.00  0.00    -0.237 OA
ATOM     84  O   UNL A   1      42.854  18.428  26.967  1.00  0.00    -0.744 OA
ENDBRANCH  80  81
ENDBRANCH  48  73
BRANCH  60  85
ATOM     85  C   UNL A   1      48.544  27.246  29.315  1.00  0.00     0.058 A 
ATOM     86  C   UNL A   1      49.466  27.554  28.304  1.00  0.00     0.135 A 
ATOM     87  C   UNL A   1      49.036  26.697  30.511  1.00  0.00     0.135 A 
ATOM     88  F   UNL A   1      49.046  28.074  27.141  1.00  0.00    -0.206 F 
ATOM     89  C   UNL A   1      50.828  27.328  28.475  1.00  0.00     0.059 A 
ATOM     90  C   UNL A   1      50.395  26.488  30.713  1.00  0.00     0.059 A 
ATOM     91  F   UNL A   1      48.194  26.393  31.511  1.00  0.00    -0.206 F 
ATOM     92  C   UNL A   1      51.284  26.805  29.688  1.00  0.00     0.060 A 
BRANCH  92  93
ATOM     93  S   UNL A   1      53.061  26.591  29.925  1.00  0.00     0.124 S 
ATOM     94  O   UNL A   1      53.101  25.786  31.141  1.00  0.00    -0.237 OA
ATOM     95  O   UNL A   1      53.457  25.906  28.698  1.00  0.00    -0.237 OA
ATOM     96  O   UNL A   1      53.554  27.958  30.059  1.00  0.00    -0.744 OA
ENDBRANCH  92  93
ENDBRANCH  60  85
ENDBRANCH  34  35
ENDBRANCH  26  29
ENDBRANCH  24  25
ENDBRANCH  23  24
ENDBRANCH  22  23
ENDBRANCH  21  22
ENDBRANCH   1  21
TORSDOF 21
ENDMDL
