MODEL 1
REMARK VINA RESULT:     -12.3      0.000      0.000
REMARK SMILES COCCNC(=O)c1cccc(NC(=O)[C@@H]2CCCC[C@H]2C(=O)NCCCCCCNC(=O)c2ccc(-c3c4nc(c(-c5c(F)cc(S(=O)(=O)[O-])cc5F)c5ccc([nH]5)c(-c5c(F)cc(S(=O)(=O)[O-])cc5F)c5nc(c(-c6c(F)cc(S(=O)(=O)[O-])cc6F)c6ccc3[nH]6)C=C5)C=C4)cc2)c1
REMARK SMILES IDX 26 1 25 2 24 3 22 4 23 5 21 7 16 8 17 9 18 10 20 11 19 12
REMARK SMILES IDX 14 13 13 14 15 16 12 17 8 18 9 19 100 20 10 21 11 22 6 23
REMARK SMILES IDX 5 24 7 26 4 27 3 28 2 29 1 30 27 31 28 32 29 33 30 34 31 35
REMARK SMILES IDX 32 36 33 38 34 39 35 40 99 41 36 42 98 43 37 44 38 45 39 46
REMARK SMILES IDX 92 47 40 48 97 49 91 50 93 51 41 52 96 53 90 54 89 55 42 57
REMARK SMILES IDX 76 58 55 59 75 60 56 61 59 62 74 63 94 64 57 65 58 66 73 68
REMARK SMILES IDX 95 69 60 70 43 71 44 72 53 73 45 74 46 75 52 76 54 77 47 78
REMARK SMILES IDX 48 79 49 80 50 81 51 82 77 83 78 84 87 85 79 86 80 87 86 88
REMARK SMILES IDX 88 89 81 90 82 91 83 92 84 93 85 94 61 95 62 96 71 97 63 98
REMARK SMILES IDX 64 99 70 100 72 101 65 102 66 103 67 104 68 105 69 106
REMARK H PARENT 24 6 13 15 5 25 31 37 93 56 59 67
REMARK Flexibility Score: inf
ROOT
ATOM      1  C   UNL A   1      37.015  23.634  24.964  1.00  0.00     0.021 C 
ENDROOT
BRANCH   1   2
ATOM      2  C   UNL A   1      35.598  24.028  25.363  1.00  0.00     0.116 C 
BRANCH   2   3
ATOM      3  N   UNL A   1      35.171  23.299  26.546  1.00  0.00    -0.356 N 
ATOM      4  C   UNL A   1      34.046  22.590  26.831  1.00  0.00     0.223 C 
ATOM      5  O   UNL A   1      33.934  22.170  27.987  1.00  0.00    -0.275 OA
ATOM      6  H   UNL A   1      35.824  23.323  27.284  1.00  0.00     0.163 HD
BRANCH   4   7
ATOM      7  C   UNL A   1      32.953  22.298  25.798  1.00  0.00     0.091 C 
ATOM      8  C   UNL A   1      32.188  23.571  25.366  1.00  0.00     0.091 C 
ATOM      9  C   UNL A   1      31.174  23.246  24.259  1.00  0.00     0.014 C 
ATOM     10  C   UNL A   1      31.842  22.565  23.073  1.00  0.00     0.001 C 
ATOM     11  C   UNL A   1      33.501  21.457  24.629  1.00  0.00     0.014 C 
ATOM     12  C   UNL A   1      32.497  21.257  23.498  1.00  0.00     0.001 C 
BRANCH   8  13
ATOM     13  C   UNL A   1      31.412  24.159  26.547  1.00  0.00     0.228 C 
ATOM     14  N   UNL A   1      31.339  25.503  26.779  1.00  0.00    -0.326 N 
ATOM     15  H   UNL A   1      30.946  25.726  27.654  1.00  0.00     0.169 HD
ATOM     16  O   UNL A   1      30.855  23.416  27.362  1.00  0.00    -0.274 OA
BRANCH  14  17
ATOM     17  C   UNL A   1      31.708  26.631  26.030  1.00  0.00     0.041 A 
ATOM     18  C   UNL A   1      31.140  28.102  24.169  1.00  0.00     0.041 A 
ATOM     19  C   UNL A   1      32.185  28.956  24.552  1.00  0.00     0.014 A 
ATOM     20  C   UNL A   1      30.939  26.916  24.887  1.00  0.00     0.040 A 
ATOM     21  C   UNL A   1      33.021  28.623  25.614  1.00  0.00     0.003 A 
ATOM     22  C   UNL A   1      32.785  27.458  26.344  1.00  0.00     0.026 A 
BRANCH  18  23
ATOM     23  C   UNL A   1      30.394  28.471  22.939  1.00  0.00     0.251 C 
ATOM     24  N   UNL A   1      29.538  29.529  22.847  1.00  0.00    -0.350 N 
ATOM     25  H   UNL A   1      28.951  29.481  22.058  1.00  0.00     0.163 HD
ATOM     26  O   UNL A   1      30.531  27.774  21.932  1.00  0.00    -0.269 OA
BRANCH  24  27
ATOM     27  C   UNL A   1      29.299  30.713  23.658  1.00  0.00     0.144 C 
BRANCH  27  28
ATOM     28  C   UNL A   1      27.826  31.148  23.638  1.00  0.00     0.181 C 
BRANCH  28  29
ATOM     29  O   UNL A   1      27.600  32.352  22.897  1.00  0.00    -0.383 OA
ATOM     30  C   UNL A   1      28.775  33.114  22.643  1.00  0.00     0.194 C 
ENDBRANCH  28  29
ENDBRANCH  27  28
ENDBRANCH  24  27
ENDBRANCH  18  23
ENDBRANCH  14  17
ENDBRANCH   8  13
ENDBRANCH   4   7
ENDBRANCH   2   3
ENDBRANCH   1   2
BRANCH   1  31
ATOM     31  C   UNL A   1      37.402  22.179  25.215  1.00  0.00     0.002 C 
BRANCH  31  32
ATOM     32  C   UNL A   1      38.773  21.971  25.862  1.00  0.00     0.002 C 
BRANCH  32  33
ATOM     33  C   UNL A   1      39.245  23.073  26.818  1.00  0.00     0.021 C 
BRANCH  33  34
ATOM     34  C   UNL A   1      40.759  23.270  26.918  1.00  0.00     0.116 C 
BRANCH  34  35
ATOM     35  N   UNL A   1      41.280  24.168  25.901  1.00  0.00    -0.352 N 
ATOM     36  C   UNL A   1      41.543  25.514  25.961  1.00  0.00     0.251 C 
ATOM     37  H   UNL A   1      41.476  23.745  25.034  1.00  0.00     0.163 HD
ATOM     38  O   UNL A   1      41.827  26.126  24.933  1.00  0.00    -0.269 OA
BRANCH  36  39
ATOM     39  C   UNL A   1      41.452  26.237  27.248  1.00  0.00     0.039 A 
ATOM     40  C   UNL A   1      42.506  27.074  27.623  1.00  0.00     0.014 A 
ATOM     41  C   UNL A   1      40.340  26.093  28.083  1.00  0.00     0.014 A 
ATOM     42  C   UNL A   1      42.407  27.833  28.792  1.00  0.00     0.010 A 
ATOM     43  C   UNL A   1      40.217  26.895  29.219  1.00  0.00     0.010 A 
ATOM     44  C   UNL A   1      41.240  27.788  29.574  1.00  0.00    -0.014 A 
BRANCH  44  45
ATOM     45  C   UNL A   1      41.056  28.721  30.718  1.00  0.00     0.031 A 
ATOM     46  C   UNL A   1      41.897  28.603  31.960  1.00  0.00     0.074 A 
ATOM     47  C   UNL A   1      40.077  29.647  30.656  1.00  0.00     0.049 A 
ATOM     48  N   UNL A   1      41.839  29.304  33.063  1.00  0.00    -0.248 NA
ATOM     49  C   UNL A   1      42.924  27.551  31.970  1.00  0.00     0.031 C 
ATOM     50  C   UNL A   1      39.164  29.835  29.524  1.00  0.00     0.029 A 
ATOM     51  N   UNL A   1      39.677  30.599  31.562  1.00  0.00    -0.354 N 
ATOM     52  C   UNL A   1      42.816  28.781  33.901  1.00  0.00     0.074 A 
ATOM     53  C   UNL A   1      43.420  27.670  33.195  1.00  0.00     0.031 C 
ATOM     54  C   UNL A   1      38.328  30.849  29.795  1.00  0.00     0.029 A 
ATOM     55  C   UNL A   1      38.611  31.356  31.133  1.00  0.00     0.049 A 
ATOM     56  H   UNL A   1      40.111  30.726  32.436  1.00  0.00     0.167 HD
ATOM     57  C   UNL A   1      43.187  29.198  35.136  1.00  0.00     0.037 A 
ATOM     58  C   UNL A   1      37.925  32.339  31.751  1.00  0.00     0.037 A 
ATOM     59  C   UNL A   1      42.583  30.308  35.831  1.00  0.00     0.049 A 
ATOM     60  C   UNL A   1      38.338  32.764  33.134  1.00  0.00     0.074 A 
ATOM     61  C   UNL A   1      42.927  30.841  37.062  1.00  0.00     0.029 A 
ATOM     62  N   UNL A   1      41.505  31.049  35.367  1.00  0.00    -0.354 N 
ATOM     63  N   UNL A   1      39.313  32.304  33.881  1.00  0.00    -0.248 NA
ATOM     64  C   UNL A   1      37.560  33.844  33.758  1.00  0.00     0.031 C 
ATOM     65  C   UNL A   1      42.021  31.861  37.369  1.00  0.00     0.029 A 
ATOM     66  C   UNL A   1      41.150  32.008  36.302  1.00  0.00     0.049 A 
ATOM     67  H   UNL A   1      41.058  30.912  34.501  1.00  0.00     0.167 HD
ATOM     68  C   UNL A   1      39.279  33.051  35.053  1.00  0.00     0.074 A 
ATOM     69  C   UNL A   1      38.201  34.006  34.907  1.00  0.00     0.031 C 
ATOM     70  C   UNL A   1      40.070  32.954  36.150  1.00  0.00     0.037 A 
BRANCH  57  71
ATOM     71  C   UNL A   1      44.298  28.451  35.825  1.00  0.00     0.058 A 
ATOM     72  C   UNL A   1      44.040  27.366  36.679  1.00  0.00     0.135 A 
ATOM     73  C   UNL A   1      45.642  28.788  35.588  1.00  0.00     0.135 A 
ATOM     74  F   UNL A   1      42.776  27.005  36.951  1.00  0.00    -0.206 F 
ATOM     75  C   UNL A   1      45.071  26.661  37.293  1.00  0.00     0.059 A 
ATOM     76  C   UNL A   1      46.689  28.077  36.167  1.00  0.00     0.059 A 
ATOM     77  F   UNL A   1      45.948  29.815  34.779  1.00  0.00    -0.206 F 
ATOM     78  C   UNL A   1      46.392  27.023  37.030  1.00  0.00     0.060 A 
BRANCH  78  79
ATOM     79  S   UNL A   1      47.717  26.090  37.827  1.00  0.00     0.124 S 
ATOM     80  O   UNL A   1      48.003  25.074  36.819  1.00  0.00    -0.237 OA
ATOM     81  O   UNL A   1      48.747  27.107  38.010  1.00  0.00    -0.237 OA
ATOM     82  O   UNL A   1      47.099  25.599  39.054  1.00  0.00    -0.744 OA
ENDBRANCH  78  79
ENDBRANCH  57  71
BRANCH  58  83
ATOM     83  C   UNL A   1      36.780  32.993  31.061  1.00  0.00     0.058 A 
ATOM     84  C   UNL A   1      35.457  32.738  31.452  1.00  0.00     0.135 A 
ATOM     85  C   UNL A   1      36.986  33.893  30.004  1.00  0.00     0.135 A 
ATOM     86  F   UNL A   1      35.207  31.878  32.451  1.00  0.00    -0.206 F 
ATOM     87  C   UNL A   1      34.379  33.338  30.810  1.00  0.00     0.059 A 
ATOM     88  C   UNL A   1      35.926  34.528  29.366  1.00  0.00     0.059 A 
ATOM     89  F   UNL A   1      38.233  34.186  29.602  1.00  0.00    -0.206 F 
ATOM     90  C   UNL A   1      34.624  34.236  29.770  1.00  0.00     0.060 A 
BRANCH  90  91
ATOM     91  S   UNL A   1      33.219  35.048  28.977  1.00  0.00     0.124 S 
ATOM     92  O   UNL A   1      32.335  35.282  30.112  1.00  0.00    -0.237 OA
ATOM     93  O   UNL A   1      33.842  36.233  28.395  1.00  0.00    -0.237 OA
ATOM     94  O   UNL A   1      32.759  34.053  28.012  1.00  0.00    -0.744 OA
ENDBRANCH  90  91
ENDBRANCH  58  83
BRANCH  70  95
ATOM     95  C   UNL A   1      39.814  33.919  37.277  1.00  0.00     0.058 A 
ATOM     96  C   UNL A   1      38.907  33.628  38.308  1.00  0.00     0.135 A 
ATOM     97  C   UNL A   1      40.520  35.132  37.352  1.00  0.00     0.135 A 
ATOM     98  F   UNL A   1      38.199  32.487  38.283  1.00  0.00    -0.206 F 
ATOM     99  C   UNL A   1      38.688  34.515  39.357  1.00  0.00     0.059 A 
ATOM    100  C   UNL A   1      40.340  36.020  38.408  1.00  0.00     0.059 A 
ATOM    101  F   UNL A   1      41.407  35.459  36.398  1.00  0.00    -0.206 F 
ATOM    102  C   UNL A   1      39.411  35.708  39.400  1.00  0.00     0.060 A 
BRANCH 102 103
ATOM    103  S   UNL A   1      39.140  36.834  40.785  1.00  0.00     0.124 S 
ATOM    104  O   UNL A   1      40.500  37.031  41.275  1.00  0.00    -0.237 OA
ATOM    105  O   UNL A   1      38.528  37.988  40.132  1.00  0.00    -0.237 OA
ATOM    106  O   UNL A   1      38.257  36.080  41.669  1.00  0.00    -0.744 OA
ENDBRANCH 102 103
ENDBRANCH  70  95
ENDBRANCH  44  45
ENDBRANCH  36  39
ENDBRANCH  34  35
ENDBRANCH  33  34
ENDBRANCH  32  33
ENDBRANCH  31  32
ENDBRANCH   1  31
TORSDOF 22
ENDMDL
MODEL 2
REMARK VINA RESULT:     -12.2      6.081     10.510
REMARK SMILES COCCNC(=O)c1cccc(NC(=O)[C@@H]2CCCC[C@H]2C(=O)NCCCCCCNC(=O)c2ccc(-c3c4nc(c(-c5c(F)cc(S(=O)(=O)[O-])cc5F)c5ccc([nH]5)c(-c5c(F)cc(S(=O)(=O)[O-])cc5F)c5nc(c(-c6c(F)cc(S(=O)(=O)[O-])cc6F)c6ccc3[nH]6)C=C5)C=C4)cc2)c1
REMARK SMILES IDX 26 1 25 2 24 3 22 4 23 5 21 7 16 8 17 9 18 10 20 11 19 12
REMARK SMILES IDX 14 13 13 14 15 16 12 17 8 18 9 19 100 20 10 21 11 22 6 23
REMARK SMILES IDX 5 24 7 26 4 27 3 28 2 29 1 30 27 31 28 32 29 33 30 34 31 35
REMARK SMILES IDX 32 36 33 38 34 39 35 40 99 41 36 42 98 43 37 44 38 45 39 46
REMARK SMILES IDX 92 47 40 48 97 49 91 50 93 51 41 52 96 53 90 54 89 55 42 57
REMARK SMILES IDX 76 58 55 59 75 60 56 61 59 62 74 63 94 64 57 65 58 66 73 68
REMARK SMILES IDX 95 69 60 70 43 71 44 72 53 73 45 74 46 75 52 76 54 77 47 78
REMARK SMILES IDX 48 79 49 80 50 81 51 82 77 83 78 84 87 85 79 86 80 87 86 88
REMARK SMILES IDX 88 89 81 90 82 91 83 92 84 93 85 94 61 95 62 96 71 97 63 98
REMARK SMILES IDX 64 99 70 100 72 101 65 102 66 103 67 104 68 105 69 106
REMARK H PARENT 24 6 13 15 5 25 31 37 93 56 59 67
REMARK Flexibility Score: inf
ROOT
ATOM      1  C   UNL A   1      36.645  23.737  25.096  1.00  0.00     0.021 C 
ENDROOT
BRANCH   1   2
ATOM      2  C   UNL A   1      35.298  24.246  25.597  1.00  0.00     0.116 C 
BRANCH   2   3
ATOM      3  N   UNL A   1      34.829  23.451  26.721  1.00  0.00    -0.356 N 
ATOM      4  C   UNL A   1      33.723  22.682  26.901  1.00  0.00     0.223 C 
ATOM      5  O   UNL A   1      33.555  22.211  28.031  1.00  0.00    -0.275 OA
ATOM      6  H   UNL A   1      35.430  23.475  27.501  1.00  0.00     0.163 HD
BRANCH   4   7
ATOM      7  C   UNL A   1      32.716  22.384  25.787  1.00  0.00     0.091 C 
ATOM      8  C   UNL A   1      31.916  23.636  25.356  1.00  0.00     0.091 C 
ATOM      9  C   UNL A   1      30.995  23.312  24.171  1.00  0.00     0.014 C 
ATOM     10  C   UNL A   1      31.772  22.716  23.006  1.00  0.00     0.001 C 
ATOM     11  C   UNL A   1      33.380  21.622  24.623  1.00  0.00     0.014 C 
ATOM     12  C   UNL A   1      32.463  21.424  23.421  1.00  0.00     0.001 C 
BRANCH   8  13
ATOM     13  C   UNL A   1      31.037  24.133  26.505  1.00  0.00     0.228 C 
ATOM     14  N   UNL A   1      30.836  25.462  26.753  1.00  0.00    -0.326 N 
ATOM     15  H   UNL A   1      30.384  25.634  27.610  1.00  0.00     0.169 HD
ATOM     16  O   UNL A   1      30.507  23.330  27.281  1.00  0.00    -0.274 OA
BRANCH  14  17
ATOM     17  C   UNL A   1      31.141  26.631  26.038  1.00  0.00     0.041 A 
ATOM     18  C   UNL A   1      30.651  27.993  24.075  1.00  0.00     0.041 A 
ATOM     19  C   UNL A   1      31.484  28.997  24.589  1.00  0.00     0.014 A 
ATOM     20  C   UNL A   1      30.523  26.793  24.785  1.00  0.00     0.040 A 
ATOM     21  C   UNL A   1      32.188  28.799  25.774  1.00  0.00     0.003 A 
ATOM     22  C   UNL A   1      32.021  27.614  26.491  1.00  0.00     0.026 A 
BRANCH  18  23
ATOM     23  C   UNL A   1      30.055  28.240  22.738  1.00  0.00     0.251 C 
ATOM     24  N   UNL A   1      28.925  28.974  22.523  1.00  0.00    -0.350 N 
ATOM     25  H   UNL A   1      28.538  28.830  21.629  1.00  0.00     0.163 HD
ATOM     26  O   UNL A   1      30.593  27.740  21.748  1.00  0.00    -0.269 OA
BRANCH  24  27
ATOM     27  C   UNL A   1      28.165  29.921  23.322  1.00  0.00     0.144 C 
BRANCH  27  28
ATOM     28  C   UNL A   1      28.214  31.345  22.747  1.00  0.00     0.181 C 
BRANCH  28  29
ATOM     29  O   UNL A   1      28.537  31.383  21.353  1.00  0.00    -0.383 OA
ATOM     30  C   UNL A   1      27.911  32.440  20.635  1.00  0.00     0.194 C 
ENDBRANCH  28  29
ENDBRANCH  27  28
ENDBRANCH  24  27
ENDBRANCH  18  23
ENDBRANCH  14  17
ENDBRANCH   8  13
ENDBRANCH   4   7
ENDBRANCH   2   3
ENDBRANCH   1   2
BRANCH   1  31
ATOM     31  C   UNL A   1      37.116  22.407  25.678  1.00  0.00     0.002 C 
BRANCH  31  32
ATOM     32  C   UNL A   1      37.140  21.236  24.693  1.00  0.00     0.002 C 
BRANCH  32  33
ATOM     33  C   UNL A   1      38.078  20.075  25.045  1.00  0.00     0.021 C 
BRANCH  33  34
ATOM     34  C   UNL A   1      39.345  20.447  25.815  1.00  0.00     0.116 C 
BRANCH  34  35
ATOM     35  N   UNL A   1      40.270  19.335  25.953  1.00  0.00    -0.352 N 
ATOM     36  C   UNL A   1      41.625  19.334  26.174  1.00  0.00     0.251 C 
ATOM     37  H   UNL A   1      39.861  18.442  25.876  1.00  0.00     0.163 HD
ATOM     38  O   UNL A   1      42.255  18.280  26.094  1.00  0.00    -0.269 OA
BRANCH  36  39
ATOM     39  C   UNL A   1      42.335  20.595  26.474  1.00  0.00     0.039 A 
ATOM     40  C   UNL A   1      42.923  21.301  25.420  1.00  0.00     0.014 A 
ATOM     41  C   UNL A   1      42.426  21.084  27.781  1.00  0.00     0.014 A 
ATOM     42  C   UNL A   1      43.525  22.538  25.665  1.00  0.00     0.010 A 
ATOM     43  C   UNL A   1      42.975  22.345  28.014  1.00  0.00     0.010 A 
ATOM     44  C   UNL A   1      43.513  23.094  26.955  1.00  0.00    -0.014 A 
BRANCH  44  45
ATOM     45  C   UNL A   1      43.993  24.483  27.189  1.00  0.00     0.031 A 
ATOM     46  C   UNL A   1      43.040  25.580  27.576  1.00  0.00     0.074 A 
ATOM     47  C   UNL A   1      45.298  24.765  26.991  1.00  0.00     0.049 A 
ATOM     48  N   UNL A   1      43.283  26.850  27.775  1.00  0.00    -0.248 NA
ATOM     49  C   UNL A   1      41.628  25.206  27.744  1.00  0.00     0.031 C 
ATOM     50  C   UNL A   1      46.316  23.798  26.572  1.00  0.00     0.029 A 
ATOM     51  N   UNL A   1      45.992  25.945  27.105  1.00  0.00    -0.354 N 
ATOM     52  C   UNL A   1      42.060  27.429  28.090  1.00  0.00     0.074 A 
ATOM     53  C   UNL A   1      41.067  26.378  28.007  1.00  0.00     0.031 C 
ATOM     54  C   UNL A   1      47.503  24.417  26.485  1.00  0.00     0.029 A 
ATOM     55  C   UNL A   1      47.328  25.831  26.797  1.00  0.00     0.049 A 
ATOM     56  H   UNL A   1      45.573  26.792  27.381  1.00  0.00     0.167 HD
ATOM     57  C   UNL A   1      41.793  28.713  28.433  1.00  0.00     0.037 A 
ATOM     58  C   UNL A   1      48.303  26.762  26.753  1.00  0.00     0.037 A 
ATOM     59  C   UNL A   1      42.788  29.753  28.517  1.00  0.00     0.049 A 
ATOM     60  C   UNL A   1      47.974  28.186  27.110  1.00  0.00     0.074 A 
ATOM     61  C   UNL A   1      42.623  31.070  28.909  1.00  0.00     0.029 A 
ATOM     62  N   UNL A   1      44.130  29.601  28.195  1.00  0.00    -0.354 N 
ATOM     63  N   UNL A   1      46.824  28.700  27.475  1.00  0.00    -0.248 NA
ATOM     64  C   UNL A   1      49.075  29.158  27.051  1.00  0.00     0.031 C 
ATOM     65  C   UNL A   1      43.849  31.729  28.766  1.00  0.00     0.029 A 
ATOM     66  C   UNL A   1      44.794  30.808  28.345  1.00  0.00     0.049 A 
ATOM     67  H   UNL A   1      44.548  28.760  27.902  1.00  0.00     0.167 HD
ATOM     68  C   UNL A   1      47.067  30.048  27.710  1.00  0.00     0.074 A 
ATOM     69  C   UNL A   1      48.477  30.266  27.466  1.00  0.00     0.031 C 
ATOM     70  C   UNL A   1      46.200  31.018  28.094  1.00  0.00     0.037 A 
BRANCH  57  71
ATOM     71  C   UNL A   1      40.364  29.074  28.741  1.00  0.00     0.058 A 
ATOM     72  C   UNL A   1      39.899  29.187  30.061  1.00  0.00     0.135 A 
ATOM     73  C   UNL A   1      39.461  29.366  27.704  1.00  0.00     0.135 A 
ATOM     74  F   UNL A   1      40.713  28.910  31.092  1.00  0.00    -0.206 F 
ATOM     75  C   UNL A   1      38.584  29.548  30.342  1.00  0.00     0.059 A 
ATOM     76  C   UNL A   1      38.151  29.759  27.963  1.00  0.00     0.059 A 
ATOM     77  F   UNL A   1      39.851  29.279  26.423  1.00  0.00    -0.206 F 
ATOM     78  C   UNL A   1      37.718  29.834  29.286  1.00  0.00     0.060 A 
BRANCH  78  79
ATOM     79  S   UNL A   1      36.019  30.311  29.670  1.00  0.00     0.124 S 
ATOM     80  O   UNL A   1      35.832  29.691  30.979  1.00  0.00    -0.237 OA
ATOM     81  O   UNL A   1      36.098  31.768  29.666  1.00  0.00    -0.237 OA
ATOM     82  O   UNL A   1      35.245  29.725  28.582  1.00  0.00    -0.744 OA
ENDBRANCH  78  79
ENDBRANCH  57  71
BRANCH  58  83
ATOM     83  C   UNL A   1      49.685  26.372  26.362  1.00  0.00     0.058 A 
ATOM     84  C   UNL A   1      50.592  25.870  27.306  1.00  0.00     0.135 A 
ATOM     85  C   UNL A   1      50.122  26.486  25.032  1.00  0.00     0.135 A 
ATOM     86  F   UNL A   1      50.225  25.751  28.591  1.00  0.00    -0.206 F 
ATOM     87  C   UNL A   1      51.888  25.510  26.952  1.00  0.00     0.059 A 
ATOM     88  C   UNL A   1      51.404  26.105  24.649  1.00  0.00     0.059 A 
ATOM     89  F   UNL A   1      49.289  26.945  24.086  1.00  0.00    -0.206 F 
ATOM     90  C   UNL A   1      52.283  25.627  25.619  1.00  0.00     0.060 A 
BRANCH  90  91
ATOM     91  S   UNL A   1      53.952  25.109  25.160  1.00  0.00     0.124 S 
ATOM     92  O   UNL A   1      53.760  23.686  24.907  1.00  0.00    -0.237 OA
ATOM     93  O   UNL A   1      54.217  25.937  23.988  1.00  0.00    -0.237 OA
ATOM     94  O   UNL A   1      54.742  25.439  26.343  1.00  0.00    -0.744 OA
ENDBRANCH  90  91
ENDBRANCH  58  83
BRANCH  70  95
ATOM     95  C   UNL A   1      46.753  32.404  28.294  1.00  0.00     0.058 A 
ATOM     96  C   UNL A   1      47.354  32.792  29.502  1.00  0.00     0.135 A 
ATOM     97  C   UNL A   1      46.722  33.342  27.248  1.00  0.00     0.135 A 
ATOM     98  F   UNL A   1      47.404  31.939  30.537  1.00  0.00    -0.206 F 
ATOM     99  C   UNL A   1      47.880  34.068  29.675  1.00  0.00     0.059 A 
ATOM    100  C   UNL A   1      47.271  34.613  27.389  1.00  0.00     0.059 A 
ATOM    101  F   UNL A   1      46.167  33.022  26.068  1.00  0.00    -0.206 F 
ATOM    102  C   UNL A   1      47.837  34.972  28.612  1.00  0.00     0.060 A 
BRANCH 102 103
ATOM    103  S   UNL A   1      48.553  36.613  28.842  1.00  0.00     0.124 S 
ATOM    104  O   UNL A   1      49.308  36.434  30.078  1.00  0.00    -0.237 OA
ATOM    105  O   UNL A   1      49.351  36.777  27.630  1.00  0.00    -0.237 OA
ATOM    106  O   UNL A   1      47.386  37.484  28.940  1.00  0.00    -0.744 OA
ENDBRANCH 102 103
ENDBRANCH  70  95
ENDBRANCH  44  45
ENDBRANCH  36  39
ENDBRANCH  34  35
ENDBRANCH  33  34
ENDBRANCH  32  33
ENDBRANCH  31  32
ENDBRANCH   1  31
TORSDOF 22
ENDMDL
MODEL 3
REMARK VINA RESULT:     -12.0      5.913      8.182
REMARK SMILES COCCNC(=O)c1cccc(NC(=O)[C@@H]2CCCC[C@H]2C(=O)NCCCCCCNC(=O)c2ccc(-c3c4nc(c(-c5c(F)cc(S(=O)(=O)[O-])cc5F)c5ccc([nH]5)c(-c5c(F)cc(S(=O)(=O)[O-])cc5F)c5nc(c(-c6c(F)cc(S(=O)(=O)[O-])cc6F)c6ccc3[nH]6)C=C5)C=C4)cc2)c1
REMARK SMILES IDX 26 1 25 2 24 3 22 4 23 5 21 7 16 8 17 9 18 10 20 11 19 12
REMARK SMILES IDX 14 13 13 14 15 16 12 17 8 18 9 19 100 20 10 21 11 22 6 23
REMARK SMILES IDX 5 24 7 26 4 27 3 28 2 29 1 30 27 31 28 32 29 33 30 34 31 35
REMARK SMILES IDX 32 36 33 38 34 39 35 40 99 41 36 42 98 43 37 44 38 45 39 46
REMARK SMILES IDX 92 47 40 48 97 49 91 50 93 51 41 52 96 53 90 54 89 55 42 57
REMARK SMILES IDX 76 58 55 59 75 60 56 61 59 62 74 63 94 64 57 65 58 66 73 68
REMARK SMILES IDX 95 69 60 70 43 71 44 72 53 73 45 74 46 75 52 76 54 77 47 78
REMARK SMILES IDX 48 79 49 80 50 81 51 82 77 83 78 84 87 85 79 86 80 87 86 88
REMARK SMILES IDX 88 89 81 90 82 91 83 92 84 93 85 94 61 95 62 96 71 97 63 98
REMARK SMILES IDX 64 99 70 100 72 101 65 102 66 103 67 104 68 105 69 106
REMARK H PARENT 24 6 13 15 5 25 31 37 93 56 59 67
REMARK Flexibility Score: inf
ROOT
ATOM      1  C   UNL A   1      36.441  23.580  25.194  1.00  0.00     0.021 C 
ENDROOT
BRANCH   1   2
ATOM      2  C   UNL A   1      35.150  24.144  25.776  1.00  0.00     0.116 C 
BRANCH   2   3
ATOM      3  N   UNL A   1      34.660  23.306  26.859  1.00  0.00    -0.356 N 
ATOM      4  C   UNL A   1      33.562  22.515  26.981  1.00  0.00     0.223 C 
ATOM      5  O   UNL A   1      33.368  22.005  28.090  1.00  0.00    -0.275 OA
ATOM      6  H   UNL A   1      35.236  23.315  27.659  1.00  0.00     0.163 HD
BRANCH   4   7
ATOM      7  C   UNL A   1      32.595  22.235  25.827  1.00  0.00     0.091 C 
ATOM      8  C   UNL A   1      31.840  23.502  25.363  1.00  0.00     0.091 C 
ATOM      9  C   UNL A   1      30.961  23.195  24.142  1.00  0.00     0.014 C 
ATOM     10  C   UNL A   1      31.772  22.581  23.010  1.00  0.00     0.001 C 
ATOM     11  C   UNL A   1      33.290  21.456  24.693  1.00  0.00     0.014 C 
ATOM     12  C   UNL A   1      32.418  21.275  23.454  1.00  0.00     0.001 C 
BRANCH   8  13
ATOM     13  C   UNL A   1      30.925  24.020  26.475  1.00  0.00     0.228 C 
ATOM     14  N   UNL A   1      30.799  25.350  26.760  1.00  0.00    -0.326 N 
ATOM     15  H   UNL A   1      30.306  25.525  27.593  1.00  0.00     0.169 HD
ATOM     16  O   UNL A   1      30.295  23.230  27.186  1.00  0.00    -0.274 OA
BRANCH  14  17
ATOM     17  C   UNL A   1      31.226  26.519  26.109  1.00  0.00     0.041 A 
ATOM     18  C   UNL A   1      30.881  28.034  24.230  1.00  0.00     0.041 A 
ATOM     19  C   UNL A   1      31.817  28.914  24.793  1.00  0.00     0.014 A 
ATOM     20  C   UNL A   1      30.626  26.816  24.872  1.00  0.00     0.040 A 
ATOM     21  C   UNL A   1      32.497  28.574  25.959  1.00  0.00     0.003 A 
ATOM     22  C   UNL A   1      32.206  27.375  26.609  1.00  0.00     0.026 A 
BRANCH  18  23
ATOM     23  C   UNL A   1      30.312  28.419  22.913  1.00  0.00     0.251 C 
ATOM     24  N   UNL A   1      29.514  29.506  22.707  1.00  0.00    -0.350 N 
ATOM     25  H   UNL A   1      29.032  29.472  21.850  1.00  0.00     0.163 HD
ATOM     26  O   UNL A   1      30.552  27.709  21.935  1.00  0.00    -0.269 OA
BRANCH  24  27
ATOM     27  C   UNL A   1      29.216  30.704  23.476  1.00  0.00     0.144 C 
BRANCH  27  28
ATOM     28  C   UNL A   1      27.744  31.126  23.356  1.00  0.00     0.181 C 
BRANCH  28  29
ATOM     29  O   UNL A   1      27.573  32.527  23.117  1.00  0.00    -0.383 OA
ATOM     30  C   UNL A   1      28.764  33.206  22.733  1.00  0.00     0.194 C 
ENDBRANCH  28  29
ENDBRANCH  27  28
ENDBRANCH  24  27
ENDBRANCH  18  23
ENDBRANCH  14  17
ENDBRANCH   8  13
ENDBRANCH   4   7
ENDBRANCH   2   3
ENDBRANCH   1   2
BRANCH   1  31
ATOM     31  C   UNL A   1      36.929  22.265  25.798  1.00  0.00     0.002 C 
BRANCH  31  32
ATOM     32  C   UNL A   1      37.148  21.129  24.797  1.00  0.00     0.002 C 
BRANCH  32  33
ATOM     33  C   UNL A   1      38.132  20.033  25.222  1.00  0.00     0.021 C 
BRANCH  33  34
ATOM     34  C   UNL A   1      39.547  20.500  25.567  1.00  0.00     0.116 C 
BRANCH  34  35
ATOM     35  N   UNL A   1      40.416  19.412  25.983  1.00  0.00    -0.352 N 
ATOM     36  C   UNL A   1      41.727  19.433  26.390  1.00  0.00     0.251 C 
ATOM     37  H   UNL A   1      40.000  18.520  25.970  1.00  0.00     0.163 HD
ATOM     38  O   UNL A   1      42.335  18.376  26.542  1.00  0.00    -0.269 OA
BRANCH  36  39
ATOM     39  C   UNL A   1      42.419  20.720  26.614  1.00  0.00     0.039 A 
ATOM     40  C   UNL A   1      42.999  21.370  25.521  1.00  0.00     0.014 A 
ATOM     41  C   UNL A   1      42.501  21.287  27.890  1.00  0.00     0.014 A 
ATOM     42  C   UNL A   1      43.584  22.627  25.691  1.00  0.00     0.010 A 
ATOM     43  C   UNL A   1      43.034  22.568  28.048  1.00  0.00     0.010 A 
ATOM     44  C   UNL A   1      43.562  23.259  26.946  1.00  0.00    -0.014 A 
BRANCH  44  45
ATOM     45  C   UNL A   1      44.024  24.666  27.097  1.00  0.00     0.031 A 
ATOM     46  C   UNL A   1      45.465  25.038  26.883  1.00  0.00     0.074 A 
ATOM     47  C   UNL A   1      43.139  25.606  27.489  1.00  0.00     0.049 A 
ATOM     48  N   UNL A   1      46.043  26.205  27.014  1.00  0.00    -0.248 NA
ATOM     49  C   UNL A   1      46.379  23.956  26.486  1.00  0.00     0.031 C 
ATOM     50  C   UNL A   1      41.721  25.363  27.772  1.00  0.00     0.029 A 
ATOM     51  N   UNL A   1      43.297  26.949  27.728  1.00  0.00    -0.354 N 
ATOM     52  C   UNL A   1      47.386  26.002  26.720  1.00  0.00     0.074 A 
ATOM     53  C   UNL A   1      47.545  24.588  26.450  1.00  0.00     0.031 C 
ATOM     54  C   UNL A   1      41.138  26.519  28.124  1.00  0.00     0.029 A 
ATOM     55  C   UNL A   1      42.143  27.577  28.138  1.00  0.00     0.049 A 
ATOM     56  H   UNL A   1      44.156  27.418  27.618  1.00  0.00     0.167 HD
ATOM     57  C   UNL A   1      48.388  26.912  26.663  1.00  0.00     0.037 A 
ATOM     58  C   UNL A   1      41.919  28.856  28.499  1.00  0.00     0.037 A 
ATOM     59  C   UNL A   1      48.220  28.319  26.930  1.00  0.00     0.049 A 
ATOM     60  C   UNL A   1      43.055  29.841  28.457  1.00  0.00     0.074 A 
ATOM     61  C   UNL A   1      49.165  29.328  26.844  1.00  0.00     0.029 A 
ATOM     62  N   UNL A   1      47.039  28.918  27.344  1.00  0.00    -0.354 N 
ATOM     63  N   UNL A   1      44.304  29.643  28.106  1.00  0.00    -0.248 NA
ATOM     64  C   UNL A   1      42.754  31.223  28.856  1.00  0.00     0.031 C 
ATOM     65  C   UNL A   1      48.572  30.523  27.264  1.00  0.00     0.029 A 
ATOM     66  C   UNL A   1      47.240  30.273  27.552  1.00  0.00     0.049 A 
ATOM     67  H   UNL A   1      46.184  28.447  27.472  1.00  0.00     0.167 HD
ATOM     68  C   UNL A   1      44.930  30.879  28.221  1.00  0.00     0.074 A 
ATOM     69  C   UNL A   1      43.920  31.821  28.654  1.00  0.00     0.031 C 
ATOM     70  C   UNL A   1      46.227  31.204  27.989  1.00  0.00     0.037 A 
BRANCH  57  71
ATOM     71  C   UNL A   1      49.765  26.419  26.303  1.00  0.00     0.058 A 
ATOM     72  C   UNL A   1      50.248  26.475  24.986  1.00  0.00     0.135 A 
ATOM     73  C   UNL A   1      50.634  25.935  27.296  1.00  0.00     0.135 A 
ATOM     74  F   UNL A   1      49.460  26.919  23.993  1.00  0.00    -0.206 F 
ATOM     75  C   UNL A   1      51.531  26.044  24.661  1.00  0.00     0.059 A 
ATOM     76  C   UNL A   1      51.931  25.527  26.999  1.00  0.00     0.059 A 
ATOM     77  F   UNL A   1      50.226  25.861  28.573  1.00  0.00    -0.206 F 
ATOM     78  C   UNL A   1      52.366  25.573  25.675  1.00  0.00     0.060 A 
BRANCH  78  79
ATOM     79  S   UNL A   1      54.031  25.028  25.237  1.00  0.00     0.124 S 
ATOM     80  O   UNL A   1      54.345  25.920  24.125  1.00  0.00    -0.237 OA
ATOM     81  O   UNL A   1      54.771  25.270  26.471  1.00  0.00    -0.237 OA
ATOM     82  O   UNL A   1      53.849  23.624  24.883  1.00  0.00    -0.744 OA
ENDBRANCH  78  79
ENDBRANCH  57  71
BRANCH  58  83
ATOM     83  C   UNL A   1      40.558  29.279  28.929  1.00  0.00     0.058 A 
ATOM     84  C   UNL A   1      39.546  29.528  27.991  1.00  0.00     0.135 A 
ATOM     85  C   UNL A   1      40.241  29.434  30.288  1.00  0.00     0.135 A 
ATOM     86  F   UNL A   1      39.801  29.402  26.680  1.00  0.00    -0.206 F 
ATOM     87  C   UNL A   1      38.272  29.930  28.381  1.00  0.00     0.059 A 
ATOM     88  C   UNL A   1      38.967  29.806  30.704  1.00  0.00     0.059 A 
ATOM     89  F   UNL A   1      41.168  29.192  31.228  1.00  0.00    -0.206 F 
ATOM     90  C   UNL A   1      37.992  30.062  29.742  1.00  0.00     0.060 A 
BRANCH  90  91
ATOM     91  S   UNL A   1      36.322  30.536  30.240  1.00  0.00     0.124 S 
ATOM     92  O   UNL A   1      35.551  30.193  29.051  1.00  0.00    -0.237 OA
ATOM     93  O   UNL A   1      36.102  29.692  31.411  1.00  0.00    -0.237 OA
ATOM     94  O   UNL A   1      36.449  31.963  30.521  1.00  0.00    -0.744 OA
ENDBRANCH  90  91
ENDBRANCH  58  83
BRANCH  70  95
ATOM     95  C   UNL A   1      46.626  32.643  28.179  1.00  0.00     0.058 A 
ATOM     96  C   UNL A   1      47.187  33.101  29.381  1.00  0.00     0.135 A 
ATOM     97  C   UNL A   1      46.487  33.567  27.129  1.00  0.00     0.135 A 
ATOM     98  F   UNL A   1      47.335  32.265  30.421  1.00  0.00    -0.206 F 
ATOM     99  C   UNL A   1      47.572  34.429  29.546  1.00  0.00     0.059 A 
ATOM    100  C   UNL A   1      46.895  34.890  27.261  1.00  0.00     0.059 A 
ATOM    101  F   UNL A   1      45.965  33.181  25.954  1.00  0.00    -0.206 F 
ATOM    102  C   UNL A   1      47.424  35.316  28.478  1.00  0.00     0.060 A 
BRANCH 102 103
ATOM    103  S   UNL A   1      47.957  37.027  28.696  1.00  0.00     0.124 S 
ATOM    104  O   UNL A   1      48.529  37.325  27.386  1.00  0.00    -0.237 OA
ATOM    105  O   UNL A   1      46.705  37.706  29.011  1.00  0.00    -0.237 OA
ATOM    106  O   UNL A   1      48.915  36.948  29.795  1.00  0.00    -0.744 OA
ENDBRANCH 102 103
ENDBRANCH  70  95
ENDBRANCH  44  45
ENDBRANCH  36  39
ENDBRANCH  34  35
ENDBRANCH  33  34
ENDBRANCH  32  33
ENDBRANCH  31  32
ENDBRANCH   1  31
TORSDOF 22
ENDMDL
