MODEL 1
REMARK VINA RESULT:     -11.3      0.000      0.000
REMARK SMILES NC(=O)[C@@H]1CCCCN1C(=O)N[C@H]1C=C[C@@H](C(=O)NCCCCCCNC(=O)c2ccc(-c3c4nc(c(-c5c(F)cc(S(=O)(=O)[O-])cc5F)c5ccc([nH]5)c(-c5c(F)cc(S(=O)(=O)[O-])cc5F)c5nc(c(-c6c(F)cc(S(=O)(=O)[O-])cc6F)c6ccc3[nH]6)C=C5)C=C4)cc2)C1
REMARK SMILES IDX 22 1 21 2 20 3 19 4 17 5 18 6 16 8 13 9 14 10 95 11 15 12
REMARK SMILES IDX 12 13 10 14 11 15 9 17 4 18 5 19 6 20 8 21 7 22 2 23 1 24
REMARK SMILES IDX 3 27 23 28 24 29 25 30 26 31 27 32 28 34 29 35 30 36 94 37
REMARK SMILES IDX 31 38 93 39 32 40 33 41 34 42 87 43 35 44 92 45 86 46 88 47
REMARK SMILES IDX 36 48 91 49 85 50 84 51 37 53 71 54 50 55 70 56 51 57 54 58
REMARK SMILES IDX 69 59 89 60 52 61 53 62 68 64 90 65 55 66 38 67 39 68 48 69
REMARK SMILES IDX 40 70 41 71 47 72 49 73 42 74 43 75 44 76 45 77 46 78 72 79
REMARK SMILES IDX 73 80 82 81 74 82 75 83 81 84 83 85 76 86 77 87 78 88 79 89
REMARK SMILES IDX 80 90 56 91 57 92 66 93 58 94 59 95 65 96 67 97 60 98 61 99
REMARK SMILES IDX 62 100 63 101 64 102
REMARK H PARENT 19 7 12 16 1 25 1 26 26 33 88 52 54 63
REMARK Flexibility Score: inf
ROOT
ATOM      1  C   UNL A   1      40.704  21.952  27.697  1.00  0.00     0.002 C 
ENDROOT
BRANCH   1   2
ATOM      2  C   UNL A   1      39.965  21.818  26.365  1.00  0.00     0.021 C 
BRANCH   2   3
ATOM      3  C   UNL A   1      38.787  22.771  26.209  1.00  0.00     0.116 C 
BRANCH   3   4
ATOM      4  N   UNL A   1      38.044  22.521  24.988  1.00  0.00    -0.356 N 
ATOM      5  C   UNL A   1      36.798  22.927  24.617  1.00  0.00     0.227 C 
ATOM      6  O   UNL A   1      36.389  22.572  23.507  1.00  0.00    -0.274 OA
ATOM      7  H   UNL A   1      38.516  21.970  24.323  1.00  0.00     0.163 HD
BRANCH   5   8
ATOM      8  C   UNL A   1      35.904  23.770  25.533  1.00  0.00     0.103 C 
ATOM      9  C   UNL A   1      33.502  24.300  25.647  1.00  0.00     0.107 C 
ATOM     10  C   UNL A   1      33.889  23.230  26.618  1.00  0.00    -0.006 C 
ATOM     11  C   UNL A   1      34.770  24.483  24.795  1.00  0.00     0.047 C 
ATOM     12  C   UNL A   1      35.203  22.976  26.593  1.00  0.00    -0.016 C 
BRANCH   9  13
ATOM     13  N   UNL A   1      32.391  23.886  24.823  1.00  0.00    -0.332 N 
ATOM     14  C   UNL A   1      31.516  24.522  24.015  1.00  0.00     0.318 C 
ATOM     15  O   UNL A   1      30.921  23.784  23.226  1.00  0.00    -0.249 OA
ATOM     16  H   UNL A   1      32.235  22.914  24.858  1.00  0.00     0.165 HD
BRANCH  14  17
ATOM     17  N   UNL A   1      31.283  25.871  24.059  1.00  0.00    -0.313 N 
ATOM     18  C   UNL A   1      32.133  26.770  23.239  1.00  0.00     0.176 C 
ATOM     19  C   UNL A   1      33.143  27.510  24.132  1.00  0.00     0.035 C 
ATOM     20  C   UNL A   1      32.421  28.249  25.266  1.00  0.00     0.004 C 
ATOM     21  C   UNL A   1      30.515  26.630  25.041  1.00  0.00     0.122 C 
ATOM     22  C   UNL A   1      31.474  27.316  26.016  1.00  0.00     0.022 C 
BRANCH  18  23
ATOM     23  C   UNL A   1      32.673  26.290  21.865  1.00  0.00     0.240 C 
ATOM     24  N   UNL A   1      31.752  25.964  20.908  1.00  0.00    -0.368 N 
ATOM     25  H   UNL A   1      32.053  25.655  20.023  1.00  0.00     0.159 HD
ATOM     26  H   UNL A   1      30.791  26.036  21.105  1.00  0.00     0.159 HD
ATOM     27  O   UNL A   1      33.873  26.188  21.624  1.00  0.00    -0.273 OA
ENDBRANCH  18  23
ENDBRANCH  14  17
ENDBRANCH   9  13
ENDBRANCH   5   8
ENDBRANCH   3   4
ENDBRANCH   2   3
ENDBRANCH   1   2
BRANCH   1  28
ATOM     28  C   UNL A   1      42.227  21.799  27.609  1.00  0.00     0.002 C 
BRANCH  28  29
ATOM     29  C   UNL A   1      43.028  22.794  28.452  1.00  0.00     0.021 C 
BRANCH  29  30
ATOM     30  C   UNL A   1      43.823  23.813  27.644  1.00  0.00     0.116 C 
BRANCH  30  31
ATOM     31  N   UNL A   1      43.139  24.183  26.414  1.00  0.00    -0.352 N 
ATOM     32  C   UNL A   1      42.168  25.130  26.216  1.00  0.00     0.251 C 
ATOM     33  H   UNL A   1      43.412  23.682  25.612  1.00  0.00     0.163 HD
ATOM     34  O   UNL A   1      41.548  25.159  25.153  1.00  0.00    -0.269 OA
BRANCH  32  35
ATOM     35  C   UNL A   1      41.858  26.100  27.285  1.00  0.00     0.039 A 
ATOM     36  C   UNL A   1      40.850  25.799  28.203  1.00  0.00     0.014 A 
ATOM     37  C   UNL A   1      42.560  27.305  27.381  1.00  0.00     0.014 A 
ATOM     38  C   UNL A   1      40.584  26.683  29.251  1.00  0.00     0.010 A 
ATOM     39  C   UNL A   1      42.349  28.146  28.469  1.00  0.00     0.010 A 
ATOM     40  C   UNL A   1      41.354  27.849  29.411  1.00  0.00    -0.014 A 
BRANCH  40  41
ATOM     41  C   UNL A   1      41.128  28.768  30.557  1.00  0.00     0.031 A 
ATOM     42  C   UNL A   1      41.974  28.648  31.797  1.00  0.00     0.074 A 
ATOM     43  C   UNL A   1      40.127  29.668  30.503  1.00  0.00     0.049 A 
ATOM     44  N   UNL A   1      41.892  29.316  32.919  1.00  0.00    -0.248 NA
ATOM     45  C   UNL A   1      43.035  27.629  31.782  1.00  0.00     0.031 C 
ATOM     46  C   UNL A   1      39.213  29.849  29.373  1.00  0.00     0.029 A 
ATOM     47  N   UNL A   1      39.704  30.595  31.421  1.00  0.00    -0.354 N 
ATOM     48  C   UNL A   1      42.881  28.793  33.745  1.00  0.00     0.074 A 
ATOM     49  C   UNL A   1      43.510  27.713  33.016  1.00  0.00     0.031 C 
ATOM     50  C   UNL A   1      38.355  30.842  29.655  1.00  0.00     0.029 A 
ATOM     51  C   UNL A   1      38.627  31.340  31.000  1.00  0.00     0.049 A 
ATOM     52  H   UNL A   1      40.130  30.716  32.300  1.00  0.00     0.167 HD
ATOM     53  C   UNL A   1      43.249  29.192  34.985  1.00  0.00     0.037 A 
ATOM     54  C   UNL A   1      37.931  32.307  31.628  1.00  0.00     0.037 A 
ATOM     55  C   UNL A   1      42.624  30.277  35.698  1.00  0.00     0.049 A 
ATOM     56  C   UNL A   1      38.342  32.717  33.018  1.00  0.00     0.074 A 
ATOM     57  C   UNL A   1      42.951  30.792  36.939  1.00  0.00     0.029 A 
ATOM     58  N   UNL A   1      41.540  31.011  35.235  1.00  0.00    -0.354 N 
ATOM     59  N   UNL A   1      39.322  32.256  33.759  1.00  0.00    -0.248 NA
ATOM     60  C   UNL A   1      37.558  33.784  33.655  1.00  0.00     0.031 C 
ATOM     61  C   UNL A   1      42.033  31.800  37.251  1.00  0.00     0.029 A 
ATOM     62  C   UNL A   1      41.171  31.958  36.177  1.00  0.00     0.049 A 
ATOM     63  H   UNL A   1      41.099  30.878  34.365  1.00  0.00     0.167 HD
ATOM     64  C   UNL A   1      39.291  32.996  34.935  1.00  0.00     0.074 A 
ATOM     65  C   UNL A   1      38.204  33.944  34.801  1.00  0.00     0.031 C 
ATOM     66  C   UNL A   1      40.092  32.902  36.026  1.00  0.00     0.037 A 
BRANCH  53  67
ATOM     67  C   UNL A   1      44.379  28.453  35.650  1.00  0.00     0.058 A 
ATOM     68  C   UNL A   1      44.149  27.342  36.478  1.00  0.00     0.135 A 
ATOM     69  C   UNL A   1      45.713  28.839  35.434  1.00  0.00     0.135 A 
ATOM     70  F   UNL A   1      42.896  26.934  36.731  1.00  0.00    -0.206 F 
ATOM     71  C   UNL A   1      45.195  26.664  37.096  1.00  0.00     0.059 A 
ATOM     72  C   UNL A   1      46.776  28.155  36.017  1.00  0.00     0.059 A 
ATOM     73  F   UNL A   1      45.993  29.893  34.652  1.00  0.00    -0.206 F 
ATOM     74  C   UNL A   1      46.507  27.078  36.859  1.00  0.00     0.060 A 
BRANCH  74  75
ATOM     75  S   UNL A   1      47.851  26.187  37.670  1.00  0.00     0.124 S 
ATOM     76  O   UNL A   1      48.863  26.170  36.619  1.00  0.00    -0.237 OA
ATOM     77  O   UNL A   1      48.143  27.041  38.816  1.00  0.00    -0.237 OA
ATOM     78  O   UNL A   1      47.259  24.893  37.990  1.00  0.00    -0.744 OA
ENDBRANCH  74  75
ENDBRANCH  53  67
BRANCH  54  79
ATOM     79  C   UNL A   1      36.789  32.970  30.942  1.00  0.00     0.058 A 
ATOM     80  C   UNL A   1      35.465  32.698  31.317  1.00  0.00     0.135 A 
ATOM     81  C   UNL A   1      36.996  33.894  29.906  1.00  0.00     0.135 A 
ATOM     82  F   UNL A   1      35.214  31.817  32.297  1.00  0.00    -0.206 F 
ATOM     83  C   UNL A   1      34.387  33.301  30.678  1.00  0.00     0.059 A 
ATOM     84  C   UNL A   1      35.935  34.533  29.271  1.00  0.00     0.059 A 
ATOM     85  F   UNL A   1      38.244  34.204  29.519  1.00  0.00    -0.206 F 
ATOM     86  C   UNL A   1      34.632  34.220  29.657  1.00  0.00     0.060 A 
BRANCH  86  87
ATOM     87  S   UNL A   1      33.226  35.032  28.866  1.00  0.00     0.124 S 
ATOM     88  O   UNL A   1      32.816  34.027  27.893  1.00  0.00    -0.237 OA
ATOM     89  O   UNL A   1      32.320  35.238  29.993  1.00  0.00    -0.237 OA
ATOM     90  O   UNL A   1      33.810  36.249  28.311  1.00  0.00    -0.744 OA
ENDBRANCH  86  87
ENDBRANCH  54  79
BRANCH  66  91
ATOM     91  C   UNL A   1      39.853  33.875  37.149  1.00  0.00     0.058 A 
ATOM     92  C   UNL A   1      39.068  33.545  38.265  1.00  0.00     0.135 A 
ATOM     93  C   UNL A   1      40.464  35.140  37.130  1.00  0.00     0.135 A 
ATOM     94  F   UNL A   1      38.456  32.353  38.332  1.00  0.00    -0.206 F 
ATOM     95  C   UNL A   1      38.878  34.443  39.311  1.00  0.00     0.059 A 
ATOM     96  C   UNL A   1      40.314  36.042  38.179  1.00  0.00     0.059 A 
ATOM     97  F   UNL A   1      41.234  35.506  36.092  1.00  0.00    -0.206 F 
ATOM     98  C   UNL A   1      39.508  35.688  39.260  1.00  0.00     0.060 A 
BRANCH  98  99
ATOM     99  S   UNL A   1      39.282  36.830  40.641  1.00  0.00     0.124 S 
ATOM    100  O   UNL A   1      38.389  36.069  41.509  1.00  0.00    -0.237 OA
ATOM    101  O   UNL A   1      40.646  37.001  41.130  1.00  0.00    -0.237 OA
ATOM    102  O   UNL A   1      38.694  38.009  40.015  1.00  0.00    -0.744 OA
ENDBRANCH  98  99
ENDBRANCH  66  91
ENDBRANCH  40  41
ENDBRANCH  32  35
ENDBRANCH  30  31
ENDBRANCH  29  30
ENDBRANCH  28  29
ENDBRANCH   1  28
TORSDOF 19
ENDMDL
MODEL 2
REMARK VINA RESULT:     -11.0      4.628     10.398
REMARK SMILES NC(=O)[C@@H]1CCCCN1C(=O)N[C@H]1C=C[C@@H](C(=O)NCCCCCCNC(=O)c2ccc(-c3c4nc(c(-c5c(F)cc(S(=O)(=O)[O-])cc5F)c5ccc([nH]5)c(-c5c(F)cc(S(=O)(=O)[O-])cc5F)c5nc(c(-c6c(F)cc(S(=O)(=O)[O-])cc6F)c6ccc3[nH]6)C=C5)C=C4)cc2)C1
REMARK SMILES IDX 22 1 21 2 20 3 19 4 17 5 18 6 16 8 13 9 14 10 95 11 15 12
REMARK SMILES IDX 12 13 10 14 11 15 9 17 4 18 5 19 6 20 8 21 7 22 2 23 1 24
REMARK SMILES IDX 3 27 23 28 24 29 25 30 26 31 27 32 28 34 29 35 30 36 94 37
REMARK SMILES IDX 31 38 93 39 32 40 33 41 34 42 87 43 35 44 92 45 86 46 88 47
REMARK SMILES IDX 36 48 91 49 85 50 84 51 37 53 71 54 50 55 70 56 51 57 54 58
REMARK SMILES IDX 69 59 89 60 52 61 53 62 68 64 90 65 55 66 38 67 39 68 48 69
REMARK SMILES IDX 40 70 41 71 47 72 49 73 42 74 43 75 44 76 45 77 46 78 72 79
REMARK SMILES IDX 73 80 82 81 74 82 75 83 81 84 83 85 76 86 77 87 78 88 79 89
REMARK SMILES IDX 80 90 56 91 57 92 66 93 58 94 59 95 65 96 67 97 60 98 61 99
REMARK SMILES IDX 62 100 63 101 64 102
REMARK H PARENT 19 7 12 16 1 25 1 26 26 33 88 52 54 63
REMARK Flexibility Score: inf
ROOT
ATOM      1  C   UNL A   1      32.478  28.392  23.381  1.00  0.00     0.002 C 
ENDROOT
BRANCH   1   2
ATOM      2  C   UNL A   1      32.802  27.340  22.318  1.00  0.00     0.021 C 
BRANCH   2   3
ATOM      3  C   UNL A   1      31.686  26.331  22.082  1.00  0.00     0.116 C 
BRANCH   3   4
ATOM      4  N   UNL A   1      32.191  24.974  21.991  1.00  0.00    -0.356 N 
ATOM      5  C   UNL A   1      32.009  23.909  22.821  1.00  0.00     0.227 C 
ATOM      6  O   UNL A   1      32.557  22.846  22.513  1.00  0.00    -0.274 OA
ATOM      7  H   UNL A   1      32.756  24.796  21.205  1.00  0.00     0.163 HD
BRANCH   5   8
ATOM      8  C   UNL A   1      31.182  24.005  24.107  1.00  0.00     0.103 C 
ATOM      9  C   UNL A   1      31.361  23.091  26.387  1.00  0.00     0.107 C 
ATOM     10  C   UNL A   1      31.837  24.507  26.309  1.00  0.00    -0.006 C 
ATOM     11  C   UNL A   1      31.149  22.705  24.912  1.00  0.00     0.047 C 
ATOM     12  C   UNL A   1      31.693  25.022  25.082  1.00  0.00    -0.016 C 
BRANCH   9  13
ATOM     13  N   UNL A   1      32.349  22.235  27.000  1.00  0.00    -0.332 N 
ATOM     14  C   UNL A   1      33.664  22.004  26.799  1.00  0.00     0.318 C 
ATOM     15  O   UNL A   1      34.233  21.447  27.741  1.00  0.00    -0.249 OA
ATOM     16  H   UNL A   1      31.978  21.696  27.736  1.00  0.00     0.165 HD
BRANCH  14  17
ATOM     17  N   UNL A   1      34.327  22.338  25.648  1.00  0.00    -0.313 N 
ATOM     18  C   UNL A   1      34.746  21.254  24.725  1.00  0.00     0.176 C 
ATOM     19  C   UNL A   1      36.262  21.019  24.833  1.00  0.00     0.035 C 
ATOM     20  C   UNL A   1      37.031  22.325  24.599  1.00  0.00     0.004 C 
ATOM     21  C   UNL A   1      34.985  23.597  25.310  1.00  0.00     0.122 C 
ATOM     22  C   UNL A   1      36.497  23.445  25.490  1.00  0.00     0.022 C 
BRANCH  18  23
ATOM     23  C   UNL A   1      33.874  19.979  24.576  1.00  0.00     0.240 C 
ATOM     24  N   UNL A   1      32.658  20.117  23.967  1.00  0.00    -0.368 N 
ATOM     25  H   UNL A   1      32.074  19.333  23.852  1.00  0.00     0.159 HD
ATOM     26  H   UNL A   1      32.367  21.000  23.644  1.00  0.00     0.159 HD
ATOM     27  O   UNL A   1      34.233  18.879  24.992  1.00  0.00    -0.273 OA
ENDBRANCH  18  23
ENDBRANCH  14  17
ENDBRANCH   9  13
ENDBRANCH   5   8
ENDBRANCH   3   4
ENDBRANCH   2   3
ENDBRANCH   1   2
BRANCH   1  28
ATOM     28  C   UNL A   1      33.452  28.437  24.563  1.00  0.00     0.002 C 
BRANCH  28  29
ATOM     29  C   UNL A   1      32.839  28.086  25.922  1.00  0.00     0.021 C 
BRANCH  29  30
ATOM     30  C   UNL A   1      33.720  28.422  27.120  1.00  0.00     0.116 C 
BRANCH  30  31
ATOM     31  N   UNL A   1      33.591  29.818  27.512  1.00  0.00    -0.352 N 
ATOM     32  C   UNL A   1      34.481  30.611  28.189  1.00  0.00     0.251 C 
ATOM     33  H   UNL A   1      32.747  30.253  27.254  1.00  0.00     0.163 HD
ATOM     34  O   UNL A   1      34.119  31.704  28.624  1.00  0.00    -0.269 OA
BRANCH  32  35
ATOM     35  C   UNL A   1      35.865  30.144  28.407  1.00  0.00     0.039 A 
ATOM     36  C   UNL A   1      36.771  30.187  27.345  1.00  0.00     0.014 A 
ATOM     37  C   UNL A   1      36.268  29.664  29.656  1.00  0.00     0.014 A 
ATOM     38  C   UNL A   1      38.096  29.801  27.552  1.00  0.00     0.010 A 
ATOM     39  C   UNL A   1      37.606  29.355  29.881  1.00  0.00     0.010 A 
ATOM     40  C   UNL A   1      38.532  29.411  28.831  1.00  0.00    -0.014 A 
BRANCH  40  41
ATOM     41  C   UNL A   1      39.953  29.058  29.084  1.00  0.00     0.031 A 
ATOM     42  C   UNL A   1      40.892  30.083  29.663  1.00  0.00     0.074 A 
ATOM     43  C   UNL A   1      40.409  27.838  28.740  1.00  0.00     0.049 A 
ATOM     44  N   UNL A   1      42.175  29.985  29.901  1.00  0.00    -0.248 NA
ATOM     45  C   UNL A   1      40.320  31.397  29.996  1.00  0.00     0.031 C 
ATOM     46  C   UNL A   1      39.605  26.776  28.131  1.00  0.00     0.029 A 
ATOM     47  N   UNL A   1      41.660  27.286  28.844  1.00  0.00    -0.354 N 
ATOM     48  C   UNL A   1      42.564  31.223  30.401  1.00  0.00     0.074 A 
ATOM     49  C   UNL A   1      41.394  32.073  30.376  1.00  0.00     0.031 C 
ATOM     50  C   UNL A   1      40.376  25.694  27.941  1.00  0.00     0.029 A 
ATOM     51  C   UNL A   1      41.737  25.997  28.371  1.00  0.00     0.049 A 
ATOM     52  H   UNL A   1      42.432  27.767  29.221  1.00  0.00     0.167 HD
ATOM     53  C   UNL A   1      43.777  31.608  30.862  1.00  0.00     0.037 A 
ATOM     54  C   UNL A   1      42.788  25.157  28.284  1.00  0.00     0.037 A 
ATOM     55  C   UNL A   1      44.934  30.750  30.894  1.00  0.00     0.049 A 
ATOM     56  C   UNL A   1      44.133  25.616  28.780  1.00  0.00     0.074 A 
ATOM     57  C   UNL A   1      46.197  31.027  31.385  1.00  0.00     0.029 A 
ATOM     58  N   UNL A   1      44.971  29.449  30.411  1.00  0.00    -0.354 N 
ATOM     59  N   UNL A   1      44.468  26.768  29.309  1.00  0.00    -0.248 NA
ATOM     60  C   UNL A   1      45.242  24.658  28.672  1.00  0.00     0.031 C 
ATOM     61  C   UNL A   1      47.012  29.914  31.150  1.00  0.00     0.029 A 
ATOM     62  C   UNL A   1      46.241  28.919  30.570  1.00  0.00     0.049 A 
ATOM     63  H   UNL A   1      44.206  28.973  30.014  1.00  0.00     0.167 HD
ATOM     64  C   UNL A   1      45.818  26.664  29.627  1.00  0.00     0.074 A 
ATOM     65  C   UNL A   1      46.233  25.331  29.241  1.00  0.00     0.031 C 
ATOM     66  C   UNL A   1      46.638  27.586  30.190  1.00  0.00     0.037 A 
BRANCH  53  67
ATOM     67  C   UNL A   1      43.916  33.019  31.371  1.00  0.00     0.058 A 
ATOM     68  C   UNL A   1      43.806  33.325  32.737  1.00  0.00     0.135 A 
ATOM     69  C   UNL A   1      44.192  34.075  30.486  1.00  0.00     0.135 A 
ATOM     70  F   UNL A   1      43.529  32.360  33.627  1.00  0.00    -0.206 F 
ATOM     71  C   UNL A   1      43.928  34.631  33.203  1.00  0.00     0.059 A 
ATOM     72  C   UNL A   1      44.350  35.383  30.935  1.00  0.00     0.059 A 
ATOM     73  F   UNL A   1      44.309  33.841  29.170  1.00  0.00    -0.206 F 
ATOM     74  C   UNL A   1      44.200  35.654  32.294  1.00  0.00     0.060 A 
BRANCH  74  75
ATOM     75  S   UNL A   1      44.355  37.340  32.917  1.00  0.00     0.124 S 
ATOM     76  O   UNL A   1      45.494  37.214  33.820  1.00  0.00    -0.237 OA
ATOM     77  O   UNL A   1      44.598  38.102  31.696  1.00  0.00    -0.237 OA
ATOM     78  O   UNL A   1      43.070  37.586  33.561  1.00  0.00    -0.744 OA
ENDBRANCH  74  75
ENDBRANCH  53  67
BRANCH  54  79
ATOM     79  C   UNL A   1      42.604  23.790  27.725  1.00  0.00     0.058 A 
ATOM     80  C   UNL A   1      42.437  22.682  28.568  1.00  0.00     0.135 A 
ATOM     81  C   UNL A   1      42.582  23.563  26.339  1.00  0.00     0.135 A 
ATOM     82  F   UNL A   1      42.456  22.844  29.900  1.00  0.00    -0.206 F 
ATOM     83  C   UNL A   1      42.275  21.396  28.062  1.00  0.00     0.059 A 
ATOM     84  C   UNL A   1      42.392  22.292  25.808  1.00  0.00     0.059 A 
ATOM     85  F   UNL A   1      42.721  24.592  25.487  1.00  0.00    -0.206 F 
ATOM     86  C   UNL A   1      42.251  21.212  26.678  1.00  0.00     0.060 A 
BRANCH  86  87
ATOM     87  S   UNL A   1      41.993  19.545  26.032  1.00  0.00     0.124 S 
ATOM     88  O   UNL A   1      42.340  18.725  27.187  1.00  0.00    -0.237 OA
ATOM     89  O   UNL A   1      40.580  19.573  25.669  1.00  0.00    -0.237 OA
ATOM     90  O   UNL A   1      42.920  19.475  24.906  1.00  0.00    -0.744 OA
ENDBRANCH  86  87
ENDBRANCH  54  79
BRANCH  66  91
ATOM     91  C   UNL A   1      48.060  27.176  30.463  1.00  0.00     0.058 A 
ATOM     92  C   UNL A   1      49.105  27.476  29.574  1.00  0.00     0.135 A 
ATOM     93  C   UNL A   1      48.389  26.518  31.660  1.00  0.00     0.135 A 
ATOM     94  F   UNL A   1      48.846  28.098  28.413  1.00  0.00    -0.206 F 
ATOM     95  C   UNL A   1      50.420  27.118  29.851  1.00  0.00     0.059 A 
ATOM     96  C   UNL A   1      49.702  26.178  31.972  1.00  0.00     0.059 A 
ATOM     97  F   UNL A   1      47.432  26.215  32.551  1.00  0.00    -0.206 F 
ATOM     98  C   UNL A   1      50.709  26.472  31.054  1.00  0.00     0.060 A 
BRANCH  98  99
ATOM     99  S   UNL A   1      52.426  26.044  31.417  1.00  0.00     0.124 S 
ATOM    100  O   UNL A   1      52.826  27.144  32.288  1.00  0.00    -0.237 OA
ATOM    101  O   UNL A   1      52.292  24.742  32.061  1.00  0.00    -0.237 OA
ATOM    102  O   UNL A   1      53.057  26.024  30.101  1.00  0.00    -0.744 OA
ENDBRANCH  98  99
ENDBRANCH  66  91
ENDBRANCH  40  41
ENDBRANCH  32  35
ENDBRANCH  30  31
ENDBRANCH  29  30
ENDBRANCH  28  29
ENDBRANCH   1  28
TORSDOF 19
ENDMDL
MODEL 3
REMARK VINA RESULT:     -10.9      6.232     11.989
REMARK SMILES NC(=O)[C@@H]1CCCCN1C(=O)N[C@H]1C=C[C@@H](C(=O)NCCCCCCNC(=O)c2ccc(-c3c4nc(c(-c5c(F)cc(S(=O)(=O)[O-])cc5F)c5ccc([nH]5)c(-c5c(F)cc(S(=O)(=O)[O-])cc5F)c5nc(c(-c6c(F)cc(S(=O)(=O)[O-])cc6F)c6ccc3[nH]6)C=C5)C=C4)cc2)C1
REMARK SMILES IDX 22 1 21 2 20 3 19 4 17 5 18 6 16 8 13 9 14 10 95 11 15 12
REMARK SMILES IDX 12 13 10 14 11 15 9 17 4 18 5 19 6 20 8 21 7 22 2 23 1 24
REMARK SMILES IDX 3 27 23 28 24 29 25 30 26 31 27 32 28 34 29 35 30 36 94 37
REMARK SMILES IDX 31 38 93 39 32 40 33 41 34 42 87 43 35 44 92 45 86 46 88 47
REMARK SMILES IDX 36 48 91 49 85 50 84 51 37 53 71 54 50 55 70 56 51 57 54 58
REMARK SMILES IDX 69 59 89 60 52 61 53 62 68 64 90 65 55 66 38 67 39 68 48 69
REMARK SMILES IDX 40 70 41 71 47 72 49 73 42 74 43 75 44 76 45 77 46 78 72 79
REMARK SMILES IDX 73 80 82 81 74 82 75 83 81 84 83 85 76 86 77 87 78 88 79 89
REMARK SMILES IDX 80 90 56 91 57 92 66 93 58 94 59 95 65 96 67 97 60 98 61 99
REMARK SMILES IDX 62 100 63 101 64 102
REMARK H PARENT 19 7 12 16 1 25 1 26 26 33 88 52 54 63
REMARK Flexibility Score: inf
ROOT
ATOM      1  C   UNL A   1      35.362  30.568  28.054  1.00  0.00     0.002 C 
ENDROOT
BRANCH   1   2
ATOM      2  C   UNL A   1      34.765  29.774  26.891  1.00  0.00     0.021 C 
BRANCH   2   3
ATOM      3  C   UNL A   1      33.320  30.132  26.570  1.00  0.00     0.116 C 
BRANCH   3   4
ATOM      4  N   UNL A   1      32.386  29.469  27.461  1.00  0.00    -0.356 N 
ATOM      5  C   UNL A   1      31.727  28.285  27.324  1.00  0.00     0.227 C 
ATOM      6  O   UNL A   1      30.975  27.940  28.241  1.00  0.00    -0.274 OA
ATOM      7  H   UNL A   1      32.199  29.954  28.298  1.00  0.00     0.163 HD
BRANCH   5   8
ATOM      8  C   UNL A   1      31.874  27.406  26.077  1.00  0.00     0.103 C 
ATOM      9  C   UNL A   1      32.613  25.100  25.627  1.00  0.00     0.107 C 
ATOM     10  C   UNL A   1      31.121  25.219  25.654  1.00  0.00    -0.006 C 
ATOM     11  C   UNL A   1      33.089  26.477  26.123  1.00  0.00     0.047 C 
ATOM     12  C   UNL A   1      30.718  26.480  25.849  1.00  0.00    -0.016 C 
BRANCH   9  13
ATOM     13  N   UNL A   1      33.074  24.054  26.508  1.00  0.00    -0.332 N 
ATOM     14  C   UNL A   1      34.108  23.186  26.496  1.00  0.00     0.318 C 
ATOM     15  O   UNL A   1      34.354  22.670  27.589  1.00  0.00    -0.249 OA
ATOM     16  H   UNL A   1      32.502  23.949  27.303  1.00  0.00     0.165 HD
BRANCH  14  17
ATOM     17  N   UNL A   1      34.829  22.879  25.373  1.00  0.00    -0.313 N 
ATOM     18  C   UNL A   1      34.800  21.485  24.864  1.00  0.00     0.176 C 
ATOM     19  C   UNL A   1      36.121  20.770  25.193  1.00  0.00     0.035 C 
ATOM     20  C   UNL A   1      37.316  21.569  24.660  1.00  0.00     0.004 C 
ATOM     21  C   UNL A   1      35.902  23.642  24.743  1.00  0.00     0.122 C 
ATOM     22  C   UNL A   1      37.252  23.025  25.115  1.00  0.00     0.022 C 
BRANCH  18  23
ATOM     23  C   UNL A   1      33.514  20.629  25.015  1.00  0.00     0.240 C 
ATOM     24  N   UNL A   1      33.298  20.028  26.223  1.00  0.00    -0.368 N 
ATOM     25  H   UNL A   1      32.493  19.477  26.361  1.00  0.00     0.159 HD
ATOM     26  H   UNL A   1      33.945  20.146  26.955  1.00  0.00     0.159 HD
ATOM     27  O   UNL A   1      32.712  20.471  24.097  1.00  0.00    -0.273 OA
ENDBRANCH  18  23
ENDBRANCH  14  17
ENDBRANCH   9  13
ENDBRANCH   5   8
ENDBRANCH   3   4
ENDBRANCH   2   3
ENDBRANCH   1   2
BRANCH   1  28
ATOM     28  C   UNL A   1      35.726  32.020  27.727  1.00  0.00     0.002 C 
BRANCH  28  29
ATOM     29  C   UNL A   1      35.627  32.994  28.903  1.00  0.00     0.021 C 
BRANCH  29  30
ATOM     30  C   UNL A   1      36.811  32.953  29.863  1.00  0.00     0.116 C 
BRANCH  30  31
ATOM     31  N   UNL A   1      36.489  32.240  31.090  1.00  0.00    -0.352 N 
ATOM     32  C   UNL A   1      37.056  31.102  31.603  1.00  0.00     0.251 C 
ATOM     33  H   UNL A   1      35.762  32.630  31.626  1.00  0.00     0.163 HD
ATOM     34  O   UNL A   1      36.515  30.517  32.541  1.00  0.00    -0.269 OA
BRANCH  32  35
ATOM     35  C   UNL A   1      38.305  30.574  31.017  1.00  0.00     0.039 A 
ATOM     36  C   UNL A   1      38.471  30.608  29.631  1.00  0.00     0.014 A 
ATOM     37  C   UNL A   1      39.310  30.048  31.834  1.00  0.00     0.014 A 
ATOM     38  C   UNL A   1      39.670  30.163  29.069  1.00  0.00     0.010 A 
ATOM     39  C   UNL A   1      40.532  29.679  31.280  1.00  0.00     0.010 A 
ATOM     40  C   UNL A   1      40.722  29.724  29.891  1.00  0.00    -0.014 A 
BRANCH  40  41
ATOM     41  C   UNL A   1      42.027  29.308  29.315  1.00  0.00     0.031 A 
ATOM     42  C   UNL A   1      43.143  30.309  29.177  1.00  0.00     0.074 A 
ATOM     43  C   UNL A   1      42.186  28.048  28.863  1.00  0.00     0.049 A 
ATOM     44  N   UNL A   1      44.330  30.154  28.647  1.00  0.00    -0.248 NA
ATOM     45  C   UNL A   1      42.884  31.668  29.677  1.00  0.00     0.031 C 
ATOM     46  C   UNL A   1      41.162  27.001  28.903  1.00  0.00     0.029 A 
ATOM     47  N   UNL A   1      43.262  27.435  28.276  1.00  0.00    -0.354 N 
ATOM     48  C   UNL A   1      44.953  31.393  28.742  1.00  0.00     0.074 A 
ATOM     49  C   UNL A   1      43.992  32.304  29.326  1.00  0.00     0.031 C 
ATOM     50  C   UNL A   1      41.669  25.870  28.388  1.00  0.00     0.029 A 
ATOM     51  C   UNL A   1      43.036  26.121  27.941  1.00  0.00     0.049 A 
ATOM     52  H   UNL A   1      44.118  27.893  28.109  1.00  0.00     0.167 HD
ATOM     53  C   UNL A   1      46.217  31.735  28.399  1.00  0.00     0.037 A 
ATOM     54  C   UNL A   1      43.834  25.221  27.333  1.00  0.00     0.037 A 
ATOM     55  C   UNL A   1      47.171  30.818  27.829  1.00  0.00     0.049 A 
ATOM     56  C   UNL A   1      45.228  25.632  26.937  1.00  0.00     0.074 A 
ATOM     57  C   UNL A   1      48.491  31.051  27.490  1.00  0.00     0.029 A 
ATOM     58  N   UNL A   1      46.905  29.493  27.510  1.00  0.00    -0.354 N 
ATOM     59  N   UNL A   1      45.823  26.790  27.094  1.00  0.00    -0.248 NA
ATOM     60  C   UNL A   1      46.061  24.610  26.288  1.00  0.00     0.031 C 
ATOM     61  C   UNL A   1      49.008  29.884  26.916  1.00  0.00     0.029 A 
ATOM     62  C   UNL A   1      48.029  28.904  26.955  1.00  0.00     0.049 A 
ATOM     63  H   UNL A   1      46.044  29.039  27.657  1.00  0.00     0.167 HD
ATOM     64  C   UNL A   1      47.110  26.629  26.592  1.00  0.00     0.074 A 
ATOM     65  C   UNL A   1      47.209  25.257  26.138  1.00  0.00     0.031 C 
ATOM     66  C   UNL A   1      48.118  27.533  26.516  1.00  0.00     0.037 A 
BRANCH  53  67
ATOM     67  C   UNL A   1      46.642  33.161  28.631  1.00  0.00     0.058 A 
ATOM     68  C   UNL A   1      47.166  33.584  29.864  1.00  0.00     0.135 A 
ATOM     69  C   UNL A   1      46.555  34.111  27.600  1.00  0.00     0.135 A 
ATOM     70  F   UNL A   1      47.261  32.724  30.890  1.00  0.00    -0.206 F 
ATOM     71  C   UNL A   1      47.552  34.903  30.078  1.00  0.00     0.059 A 
ATOM     72  C   UNL A   1      46.966  35.429  27.782  1.00  0.00     0.059 A 
ATOM     73  F   UNL A   1      46.063  33.764  26.401  1.00  0.00    -0.206 F 
ATOM     74  C   UNL A   1      47.449  35.819  29.030  1.00  0.00     0.060 A 
BRANCH  74  75
ATOM     75  S   UNL A   1      47.954  37.526  29.326  1.00  0.00     0.124 S 
ATOM     76  O   UNL A   1      47.818  37.623  30.776  1.00  0.00    -0.237 OA
ATOM     77  O   UNL A   1      49.321  37.539  28.817  1.00  0.00    -0.237 OA
ATOM     78  O   UNL A   1      46.993  38.306  28.554  1.00  0.00    -0.744 OA
ENDBRANCH  74  75
ENDBRANCH  53  67
BRANCH  54  79
ATOM     79  C   UNL A   1      43.344  23.839  27.082  1.00  0.00     0.058 A 
ATOM     80  C   UNL A   1      43.364  22.870  28.096  1.00  0.00     0.135 A 
ATOM     81  C   UNL A   1      42.836  23.459  25.829  1.00  0.00     0.135 A 
ATOM     82  F   UNL A   1      43.845  23.181  29.310  1.00  0.00    -0.206 F 
ATOM     83  C   UNL A   1      42.919  21.571  27.875  1.00  0.00     0.059 A 
ATOM     84  C   UNL A   1      42.358  22.175  25.591  1.00  0.00     0.059 A 
ATOM     85  F   UNL A   1      42.779  24.352  24.828  1.00  0.00    -0.206 F 
ATOM     86  C   UNL A   1      42.414  21.233  26.618  1.00  0.00     0.060 A 
BRANCH  86  87
ATOM     87  S   UNL A   1      41.796  19.557  26.356  1.00  0.00     0.124 S 
ATOM     88  O   UNL A   1      42.512  19.165  25.147  1.00  0.00    -0.237 OA
ATOM     89  O   UNL A   1      42.203  18.886  27.587  1.00  0.00    -0.237 OA
ATOM     90  O   UNL A   1      40.357  19.750  26.203  1.00  0.00    -0.744 OA
ENDBRANCH  86  87
ENDBRANCH  54  79
BRANCH  66  91
ATOM     91  C   UNL A   1      49.434  27.061  25.959  1.00  0.00     0.058 A 
ATOM     92  C   UNL A   1      49.723  27.118  24.587  1.00  0.00     0.135 A 
ATOM     93  C   UNL A   1      50.439  26.594  26.821  1.00  0.00     0.135 A 
ATOM     94  F   UNL A   1      48.797  27.550  23.717  1.00  0.00    -0.206 F 
ATOM     95  C   UNL A   1      50.955  26.706  24.086  1.00  0.00     0.059 A 
ATOM     96  C   UNL A   1      51.689  26.205  26.347  1.00  0.00     0.059 A 
ATOM     97  F   UNL A   1      50.220  26.527  28.144  1.00  0.00    -0.206 F 
ATOM     98  C   UNL A   1      51.932  26.255  24.975  1.00  0.00     0.060 A 
BRANCH  98  99
ATOM     99  S   UNL A   1      53.538  25.756  24.316  1.00  0.00     0.124 S 
ATOM    100  O   UNL A   1      54.437  26.681  24.997  1.00  0.00    -0.237 OA
ATOM    101  O   UNL A   1      53.627  24.361  24.735  1.00  0.00    -0.237 OA
ATOM    102  O   UNL A   1      53.396  25.964  22.878  1.00  0.00    -0.744 OA
ENDBRANCH  98  99
ENDBRANCH  66  91
ENDBRANCH  40  41
ENDBRANCH  32  35
ENDBRANCH  30  31
ENDBRANCH  29  30
ENDBRANCH  28  29
ENDBRANCH   1  28
TORSDOF 19
ENDMDL
