MODEL 1
REMARK VINA RESULT:     -12.8      0.000      0.000
REMARK SMILES Cn1cc(Cl)cc1C(=O)N[C@H]1C=C[C@H](C(=O)NCCCCCCNC(=O)c2ccc(-c3c4nc(c(-c5c(F)cc(S(=O)(=O)[O-])cc5F)c5ccc([nH]5)c(-c5c(F)cc(S(=O)(=O)[O-])cc5F)c5nc(c(-c6c(F)cc(S(=O)(=O)[O-])cc6F)c6ccc3[nH]6)C=C5)C=C4)cc2)C1
REMARK SMILES IDX 21 1 20 2 19 3 18 4 17 5 15 6 16 7 14 9 11 10 12 11 93 12
REMARK SMILES IDX 13 13 10 14 8 15 9 16 7 18 1 19 2 20 3 21 4 22 6 23 5 24
REMARK SMILES IDX 22 25 23 26 24 27 25 28 26 30 27 31 28 32 92 33 29 34 91 35
REMARK SMILES IDX 30 36 31 37 32 38 85 39 33 40 90 41 84 42 86 43 34 44 89 45
REMARK SMILES IDX 83 46 82 47 35 49 69 50 48 51 68 52 49 53 52 54 67 55 87 56
REMARK SMILES IDX 50 57 51 58 66 60 88 61 53 62 36 63 37 64 46 65 38 66 39 67
REMARK SMILES IDX 45 68 47 69 40 70 41 71 42 72 43 73 44 74 70 75 71 76 80 77
REMARK SMILES IDX 72 78 73 79 79 80 81 81 74 82 75 83 76 84 77 85 78 86 54 87
REMARK SMILES IDX 55 88 64 89 56 90 57 91 63 92 65 93 58 94 59 95 60 96 61 97
REMARK SMILES IDX 62 98
REMARK H PARENT 17 8 10 17 24 29 86 48 52 59
REMARK Flexibility Score: inf
ROOT
ATOM      1  C   UNL A   1      35.821  21.205  25.186  1.00  0.00     0.002 C 
ENDROOT
BRANCH   1   2
ATOM      2  C   UNL A   1      34.422  20.971  24.603  1.00  0.00     0.002 C 
BRANCH   2   3
ATOM      3  C   UNL A   1      33.282  20.822  25.608  1.00  0.00     0.021 C 
BRANCH   3   4
ATOM      4  C   UNL A   1      31.934  21.343  25.137  1.00  0.00     0.116 C 
BRANCH   4   5
ATOM      5  N   UNL A   1      31.142  21.931  26.188  1.00  0.00    -0.356 N 
ATOM      6  C   UNL A   1      30.946  23.241  26.488  1.00  0.00     0.227 C 
ATOM      7  O   UNL A   1      30.146  23.500  27.394  1.00  0.00    -0.274 OA
ATOM      8  H   UNL A   1      30.676  21.291  26.772  1.00  0.00     0.163 HD
BRANCH   6   9
ATOM      9  C   UNL A   1      31.680  24.378  25.767  1.00  0.00     0.103 C 
ATOM     10  C   UNL A   1      33.245  24.409  23.866  1.00  0.00     0.106 C 
ATOM     11  C   UNL A   1      33.948  24.619  25.156  1.00  0.00    -0.006 C 
ATOM     12  C   UNL A   1      31.751  24.315  24.233  1.00  0.00     0.047 C 
ATOM     13  C   UNL A   1      33.106  24.560  26.196  1.00  0.00    -0.016 C 
BRANCH  10  14
ATOM     14  N   UNL A   1      33.552  25.348  22.809  1.00  0.00    -0.345 N 
ATOM     15  C   UNL A   1      33.393  26.683  22.566  1.00  0.00     0.268 C 
ATOM     16  O   UNL A   1      33.821  27.083  21.483  1.00  0.00    -0.268 OA
ATOM     17  H   UNL A   1      34.000  24.900  22.055  1.00  0.00     0.164 HD
BRANCH  15  18
ATOM     18  C   UNL A   1      32.833  27.586  23.540  1.00  0.00     0.108 A 
ATOM     19  C   UNL A   1      30.465  27.857  22.709  1.00  0.00     0.150 C 
ATOM     20  N   UNL A   1      31.527  28.006  23.674  1.00  0.00    -0.345 N 
ATOM     21  C   UNL A   1      31.403  28.825  24.770  1.00  0.00     0.106 A 
ATOM     22  C   UNL A   1      32.669  29.145  25.188  1.00  0.00     0.059 A 
ATOM     23  C   UNL A   1      33.568  28.381  24.416  1.00  0.00     0.054 A 
ATOM     24  Cl  UNL A   1      33.097  30.280  26.371  1.00  0.00    -0.083 Cl
ENDBRANCH  15  18
ENDBRANCH  10  14
ENDBRANCH   6   9
ENDBRANCH   4   5
ENDBRANCH   3   4
ENDBRANCH   2   3
ENDBRANCH   1   2
BRANCH   1  25
ATOM     25  C   UNL A   1      36.756  22.167  24.435  1.00  0.00     0.021 C 
BRANCH  25  26
ATOM     26  C   UNL A   1      37.788  22.878  25.296  1.00  0.00     0.116 C 
BRANCH  26  27
ATOM     27  N   UNL A   1      38.544  21.948  26.120  1.00  0.00    -0.352 N 
ATOM     28  C   UNL A   1      39.627  22.193  26.933  1.00  0.00     0.251 C 
ATOM     29  H   UNL A   1      38.239  21.012  26.092  1.00  0.00     0.163 HD
ATOM     30  O   UNL A   1      40.329  21.265  27.320  1.00  0.00    -0.269 OA
BRANCH  28  31
ATOM     31  C   UNL A   1      39.952  23.582  27.303  1.00  0.00     0.039 A 
ATOM     32  C   UNL A   1      38.933  24.532  27.403  1.00  0.00     0.014 A 
ATOM     33  C   UNL A   1      41.270  23.926  27.590  1.00  0.00     0.014 A 
ATOM     34  C   UNL A   1      39.239  25.806  27.879  1.00  0.00     0.010 A 
ATOM     35  C   UNL A   1      41.553  25.149  28.163  1.00  0.00     0.010 A 
ATOM     36  C   UNL A   1      40.548  26.109  28.286  1.00  0.00    -0.014 A 
BRANCH  36  37
ATOM     37  C   UNL A   1      40.825  27.388  28.950  1.00  0.00     0.031 A 
ATOM     38  C   UNL A   1      41.956  28.177  28.380  1.00  0.00     0.074 A 
ATOM     39  C   UNL A   1      39.997  27.969  29.847  1.00  0.00     0.049 A 
ATOM     40  N   UNL A   1      43.052  28.547  28.959  1.00  0.00    -0.248 NA
ATOM     41  C   UNL A   1      41.890  28.538  26.953  1.00  0.00     0.031 C 
ATOM     42  C   UNL A   1      38.662  27.503  30.242  1.00  0.00     0.029 A 
ATOM     43  N   UNL A   1      40.107  29.168  30.496  1.00  0.00    -0.354 N 
ATOM     44  C   UNL A   1      43.701  29.382  28.048  1.00  0.00     0.074 A 
ATOM     45  C   UNL A   1      43.040  29.192  26.785  1.00  0.00     0.031 C 
ATOM     46  C   UNL A   1      37.995  28.510  30.839  1.00  0.00     0.029 A 
ATOM     47  C   UNL A   1      38.914  29.614  31.047  1.00  0.00     0.049 A 
ATOM     48  H   UNL A   1      40.953  29.667  30.566  1.00  0.00     0.167 HD
ATOM     49  C   UNL A   1      44.547  30.363  28.470  1.00  0.00     0.037 A 
ATOM     50  C   UNL A   1      38.658  30.802  31.641  1.00  0.00     0.037 A 
ATOM     51  C   UNL A   1      44.891  30.198  29.858  1.00  0.00     0.049 A 
ATOM     52  C   UNL A   1      39.933  31.373  32.129  1.00  0.00     0.074 A 
ATOM     53  C   UNL A   1      45.768  29.448  30.607  1.00  0.00     0.029 A 
ATOM     54  N   UNL A   1      43.992  30.762  30.722  1.00  0.00    -0.354 N 
ATOM     55  N   UNL A   1      40.673  30.810  33.047  1.00  0.00    -0.248 NA
ATOM     56  C   UNL A   1      40.574  32.459  31.393  1.00  0.00     0.031 C 
ATOM     57  C   UNL A   1      45.272  29.465  31.946  1.00  0.00     0.029 A 
ATOM     58  C   UNL A   1      44.109  30.229  31.978  1.00  0.00     0.049 A 
ATOM     59  H   UNL A   1      43.345  31.460  30.472  1.00  0.00     0.167 HD
ATOM     60  C   UNL A   1      41.961  31.177  32.721  1.00  0.00     0.074 A 
ATOM     61  C   UNL A   1      41.828  32.317  31.827  1.00  0.00     0.031 C 
ATOM     62  C   UNL A   1      43.005  30.323  32.908  1.00  0.00     0.037 A 
BRANCH  49  63
ATOM     63  C   UNL A   1      44.709  31.729  27.819  1.00  0.00     0.058 A 
ATOM     64  C   UNL A   1      45.883  31.994  27.076  1.00  0.00     0.135 A 
ATOM     65  C   UNL A   1      43.946  32.865  28.166  1.00  0.00     0.135 A 
ATOM     66  F   UNL A   1      46.680  30.992  26.675  1.00  0.00    -0.206 F 
ATOM     67  C   UNL A   1      46.316  33.292  26.792  1.00  0.00     0.059 A 
ATOM     68  C   UNL A   1      44.332  34.164  27.846  1.00  0.00     0.059 A 
ATOM     69  F   UNL A   1      42.844  32.783  28.920  1.00  0.00    -0.206 F 
ATOM     70  C   UNL A   1      45.544  34.371  27.207  1.00  0.00     0.060 A 
BRANCH  70  71
ATOM     71  S   UNL A   1      46.163  36.048  26.972  1.00  0.00     0.124 S 
ATOM     72  O   UNL A   1      44.927  36.778  26.715  1.00  0.00    -0.237 OA
ATOM     73  O   UNL A   1      46.813  36.316  28.250  1.00  0.00    -0.237 OA
ATOM     74  O   UNL A   1      47.068  35.912  25.833  1.00  0.00    -0.744 OA
ENDBRANCH  70  71
ENDBRANCH  49  63
BRANCH  50  75
ATOM     75  C   UNL A   1      37.378  31.544  31.657  1.00  0.00     0.058 A 
ATOM     76  C   UNL A   1      36.674  31.774  32.849  1.00  0.00     0.135 A 
ATOM     77  C   UNL A   1      36.940  32.257  30.521  1.00  0.00     0.135 A 
ATOM     78  F   UNL A   1      37.041  31.151  33.979  1.00  0.00    -0.206 F 
ATOM     79  C   UNL A   1      35.619  32.685  32.922  1.00  0.00     0.059 A 
ATOM     80  C   UNL A   1      35.884  33.163  30.566  1.00  0.00     0.059 A 
ATOM     81  F   UNL A   1      37.588  32.150  29.350  1.00  0.00    -0.206 F 
ATOM     82  C   UNL A   1      35.242  33.389  31.778  1.00  0.00     0.060 A 
BRANCH  82  83
ATOM     83  S   UNL A   1      33.988  34.684  31.909  1.00  0.00     0.124 S 
ATOM     84  O   UNL A   1      34.781  35.825  32.352  1.00  0.00    -0.237 OA
ATOM     85  O   UNL A   1      33.476  34.753  30.545  1.00  0.00    -0.237 OA
ATOM     86  O   UNL A   1      33.054  34.150  32.898  1.00  0.00    -0.744 OA
ENDBRANCH  82  83
ENDBRANCH  50  75
BRANCH  62  87
ATOM     87  C   UNL A   1      42.904  29.311  34.006  1.00  0.00     0.058 A 
ATOM     88  C   UNL A   1      43.139  29.575  35.363  1.00  0.00     0.135 A 
ATOM     89  C   UNL A   1      42.465  28.022  33.664  1.00  0.00     0.135 A 
ATOM     90  F   UNL A   1      43.490  30.802  35.776  1.00  0.00    -0.206 F 
ATOM     91  C   UNL A   1      42.972  28.589  36.338  1.00  0.00     0.059 A 
ATOM     92  C   UNL A   1      42.265  27.033  34.619  1.00  0.00     0.059 A 
ATOM     93  F   UNL A   1      42.183  27.726  32.385  1.00  0.00    -0.206 F 
ATOM     94  C   UNL A   1      42.531  27.321  35.956  1.00  0.00     0.060 A 
BRANCH  94  95
ATOM     95  S   UNL A   1      42.230  26.070  37.224  1.00  0.00     0.124 S 
ATOM     96  O   UNL A   1      42.588  24.837  36.529  1.00  0.00    -0.237 OA
ATOM     97  O   UNL A   1      43.134  26.480  38.296  1.00  0.00    -0.237 OA
ATOM     98  O   UNL A   1      40.810  26.226  37.527  1.00  0.00    -0.744 OA
ENDBRANCH  94  95
ENDBRANCH  62  87
ENDBRANCH  36  37
ENDBRANCH  28  31
ENDBRANCH  26  27
ENDBRANCH  25  26
ENDBRANCH   1  25
TORSDOF 18
ENDMDL
MODEL 2
REMARK VINA RESULT:     -12.5      2.767      9.475
REMARK SMILES Cn1cc(Cl)cc1C(=O)N[C@H]1C=C[C@H](C(=O)NCCCCCCNC(=O)c2ccc(-c3c4nc(c(-c5c(F)cc(S(=O)(=O)[O-])cc5F)c5ccc([nH]5)c(-c5c(F)cc(S(=O)(=O)[O-])cc5F)c5nc(c(-c6c(F)cc(S(=O)(=O)[O-])cc6F)c6ccc3[nH]6)C=C5)C=C4)cc2)C1
REMARK SMILES IDX 21 1 20 2 19 3 18 4 17 5 15 6 16 7 14 9 11 10 12 11 93 12
REMARK SMILES IDX 13 13 10 14 8 15 9 16 7 18 1 19 2 20 3 21 4 22 6 23 5 24
REMARK SMILES IDX 22 25 23 26 24 27 25 28 26 30 27 31 28 32 92 33 29 34 91 35
REMARK SMILES IDX 30 36 31 37 32 38 85 39 33 40 90 41 84 42 86 43 34 44 89 45
REMARK SMILES IDX 83 46 82 47 35 49 69 50 48 51 68 52 49 53 52 54 67 55 87 56
REMARK SMILES IDX 50 57 51 58 66 60 88 61 53 62 36 63 37 64 46 65 38 66 39 67
REMARK SMILES IDX 45 68 47 69 40 70 41 71 42 72 43 73 44 74 70 75 71 76 80 77
REMARK SMILES IDX 72 78 73 79 79 80 81 81 74 82 75 83 76 84 77 85 78 86 54 87
REMARK SMILES IDX 55 88 64 89 56 90 57 91 63 92 65 93 58 94 59 95 60 96 61 97
REMARK SMILES IDX 62 98
REMARK H PARENT 17 8 10 17 24 29 86 48 52 59
REMARK Flexibility Score: inf
ROOT
ATOM      1  C   UNL A   1      32.614  29.153  25.202  1.00  0.00     0.002 C 
ENDROOT
BRANCH   1   2
ATOM      2  C   UNL A   1      31.170  29.052  24.698  1.00  0.00     0.002 C 
BRANCH   2   3
ATOM      3  C   UNL A   1      30.956  29.248  23.199  1.00  0.00     0.021 C 
BRANCH   3   4
ATOM      4  C   UNL A   1      30.662  27.980  22.416  1.00  0.00     0.116 C 
BRANCH   4   5
ATOM      5  N   UNL A   1      31.826  27.407  21.786  1.00  0.00    -0.356 N 
ATOM      6  C   UNL A   1      32.502  26.270  22.098  1.00  0.00     0.227 C 
ATOM      7  O   UNL A   1      33.427  25.939  21.348  1.00  0.00    -0.274 OA
ATOM      8  H   UNL A   1      32.180  27.911  21.019  1.00  0.00     0.163 HD
BRANCH   6   9
ATOM      9  C   UNL A   1      32.172  25.418  23.329  1.00  0.00     0.103 C 
ATOM     10  C   UNL A   1      33.135  23.335  24.222  1.00  0.00     0.106 C 
ATOM     11  C   UNL A   1      31.828  23.094  23.562  1.00  0.00    -0.006 C 
ATOM     12  C   UNL A   1      33.351  24.859  24.142  1.00  0.00     0.047 C 
ATOM     13  C   UNL A   1      31.321  24.218  23.038  1.00  0.00    -0.016 C 
BRANCH  10  14
ATOM     14  N   UNL A   1      33.300  22.768  25.542  1.00  0.00    -0.345 N 
ATOM     15  C   UNL A   1      34.328  22.410  26.367  1.00  0.00     0.268 C 
ATOM     16  O   UNL A   1      33.999  21.942  27.458  1.00  0.00    -0.268 OA
ATOM     17  H   UNL A   1      32.428  22.590  25.963  1.00  0.00     0.164 HD
BRANCH  15  18
ATOM     18  C   UNL A   1      35.710  22.635  26.025  1.00  0.00     0.108 A 
ATOM     19  C   UNL A   1      36.377  20.412  25.032  1.00  0.00     0.150 C 
ATOM     20  N   UNL A   1      36.571  21.809  25.336  1.00  0.00    -0.345 N 
ATOM     21  C   UNL A   1      37.789  22.425  25.172  1.00  0.00     0.106 A 
ATOM     22  C   UNL A   1      37.799  23.534  25.978  1.00  0.00     0.059 A 
ATOM     23  C   UNL A   1      36.505  23.665  26.522  1.00  0.00     0.054 A 
ATOM     24  Cl  UNL A   1      39.120  24.540  26.313  1.00  0.00    -0.083 Cl
ENDBRANCH  15  18
ENDBRANCH  10  14
ENDBRANCH   6   9
ENDBRANCH   4   5
ENDBRANCH   3   4
ENDBRANCH   2   3
ENDBRANCH   1   2
BRANCH   1  25
ATOM     25  C   UNL A   1      33.034  28.227  26.355  1.00  0.00     0.021 C 
BRANCH  25  26
ATOM     26  C   UNL A   1      33.543  28.931  27.604  1.00  0.00     0.116 C 
BRANCH  26  27
ATOM     27  N   UNL A   1      33.365  30.372  27.527  1.00  0.00    -0.352 N 
ATOM     28  C   UNL A   1      34.266  31.373  27.813  1.00  0.00     0.251 C 
ATOM     29  H   UNL A   1      32.477  30.675  27.230  1.00  0.00     0.163 HD
ATOM     30  O   UNL A   1      33.875  32.522  27.987  1.00  0.00    -0.269 OA
BRANCH  28  31
ATOM     31  C   UNL A   1      35.697  31.041  27.941  1.00  0.00     0.039 A 
ATOM     32  C   UNL A   1      36.546  31.884  28.660  1.00  0.00     0.014 A 
ATOM     33  C   UNL A   1      36.181  29.865  27.375  1.00  0.00     0.014 A 
ATOM     34  C   UNL A   1      37.864  31.491  28.881  1.00  0.00     0.010 A 
ATOM     35  C   UNL A   1      37.452  29.425  27.685  1.00  0.00     0.010 A 
ATOM     36  C   UNL A   1      38.313  30.245  28.415  1.00  0.00    -0.014 A 
BRANCH  36  37
ATOM     37  C   UNL A   1      39.643  29.760  28.802  1.00  0.00     0.031 A 
ATOM     38  C   UNL A   1      39.920  29.742  30.268  1.00  0.00     0.074 A 
ATOM     39  C   UNL A   1      40.493  29.131  27.959  1.00  0.00     0.049 A 
ATOM     40  N   UNL A   1      40.836  30.380  30.922  1.00  0.00    -0.248 NA
ATOM     41  C   UNL A   1      39.009  28.970  31.129  1.00  0.00     0.031 C 
ATOM     42  C   UNL A   1      40.223  28.736  26.572  1.00  0.00     0.029 A 
ATOM     43  N   UNL A   1      41.726  28.590  28.198  1.00  0.00    -0.354 N 
ATOM     44  C   UNL A   1      40.767  29.910  32.234  1.00  0.00     0.074 A 
ATOM     45  C   UNL A   1      39.523  29.193  32.339  1.00  0.00     0.031 C 
ATOM     46  C   UNL A   1      41.127  27.814  26.185  1.00  0.00     0.029 A 
ATOM     47  C   UNL A   1      42.145  27.705  27.214  1.00  0.00     0.049 A 
ATOM     48  H   UNL A   1      42.266  28.807  28.992  1.00  0.00     0.167 HD
ATOM     49  C   UNL A   1      41.862  29.911  33.043  1.00  0.00     0.037 A 
ATOM     50  C   UNL A   1      43.246  26.920  27.208  1.00  0.00     0.037 A 
ATOM     51  C   UNL A   1      42.922  30.713  32.489  1.00  0.00     0.049 A 
ATOM     52  C   UNL A   1      44.250  27.502  28.126  1.00  0.00     0.074 A 
ATOM     53  C   UNL A   1      43.263  32.044  32.421  1.00  0.00     0.029 A 
ATOM     54  N   UNL A   1      43.720  30.041  31.604  1.00  0.00    -0.354 N 
ATOM     55  N   UNL A   1      44.801  28.673  27.945  1.00  0.00    -0.248 NA
ATOM     56  C   UNL A   1      44.462  26.911  29.443  1.00  0.00     0.031 C 
ATOM     57  C   UNL A   1      44.200  32.167  31.351  1.00  0.00     0.029 A 
ATOM     58  C   UNL A   1      44.409  30.907  30.799  1.00  0.00     0.049 A 
ATOM     59  H   UNL A   1      43.789  29.060  31.554  1.00  0.00     0.167 HD
ATOM     60  C   UNL A   1      45.056  29.131  29.220  1.00  0.00     0.074 A 
ATOM     61  C   UNL A   1      45.000  27.955  30.077  1.00  0.00     0.031 C 
ATOM     62  C   UNL A   1      44.937  30.451  29.532  1.00  0.00     0.037 A 
BRANCH  49  63
ATOM     63  C   UNL A   1      42.195  28.850  34.081  1.00  0.00     0.058 A 
ATOM     64  C   UNL A   1      42.430  27.524  33.649  1.00  0.00     0.135 A 
ATOM     65  C   UNL A   1      41.965  29.000  35.466  1.00  0.00     0.135 A 
ATOM     66  F   UNL A   1      42.677  27.259  32.356  1.00  0.00    -0.206 F 
ATOM     67  C   UNL A   1      42.339  26.426  34.508  1.00  0.00     0.059 A 
ATOM     68  C   UNL A   1      41.924  27.924  36.348  1.00  0.00     0.059 A 
ATOM     69  F   UNL A   1      41.666  30.182  36.017  1.00  0.00    -0.206 F 
ATOM     70  C   UNL A   1      42.058  26.637  35.853  1.00  0.00     0.060 A 
BRANCH  70  71
ATOM     71  S   UNL A   1      41.798  25.222  36.939  1.00  0.00     0.124 S 
ATOM     72  O   UNL A   1      40.675  25.682  37.748  1.00  0.00    -0.237 OA
ATOM     73  O   UNL A   1      41.510  24.155  35.989  1.00  0.00    -0.237 OA
ATOM     74  O   UNL A   1      43.076  25.102  37.639  1.00  0.00    -0.744 OA
ENDBRANCH  70  71
ENDBRANCH  49  63
BRANCH  50  75
ATOM     75  C   UNL A   1      43.404  25.594  26.567  1.00  0.00     0.058 A 
ATOM     76  C   UNL A   1      44.310  25.387  25.516  1.00  0.00     0.135 A 
ATOM     77  C   UNL A   1      42.834  24.440  27.145  1.00  0.00     0.135 A 
ATOM     78  F   UNL A   1      44.910  26.431  24.928  1.00  0.00    -0.206 F 
ATOM     79  C   UNL A   1      44.661  24.106  25.084  1.00  0.00     0.059 A 
ATOM     80  C   UNL A   1      43.160  23.153  26.724  1.00  0.00     0.059 A 
ATOM     81  F   UNL A   1      42.004  24.533  28.196  1.00  0.00    -0.206 F 
ATOM     82  C   UNL A   1      44.093  22.994  25.707  1.00  0.00     0.060 A 
BRANCH  82  83
ATOM     83  S   UNL A   1      44.669  21.341  25.258  1.00  0.00     0.124 S 
ATOM     84  O   UNL A   1      43.719  20.490  25.966  1.00  0.00    -0.237 OA
ATOM     85  O   UNL A   1      44.549  21.359  23.804  1.00  0.00    -0.237 OA
ATOM     86  O   UNL A   1      46.037  21.309  25.769  1.00  0.00    -0.744 OA
ENDBRANCH  82  83
ENDBRANCH  50  75
BRANCH  62  87
ATOM     87  C   UNL A   1      45.173  31.457  28.450  1.00  0.00     0.058 A 
ATOM     88  C   UNL A   1      44.221  31.851  27.498  1.00  0.00     0.135 A 
ATOM     89  C   UNL A   1      46.414  32.114  28.433  1.00  0.00     0.135 A 
ATOM     90  F   UNL A   1      42.988  31.321  27.498  1.00  0.00    -0.206 F 
ATOM     91  C   UNL A   1      44.499  32.838  26.551  1.00  0.00     0.059 A 
ATOM     92  C   UNL A   1      46.705  33.119  27.517  1.00  0.00     0.059 A 
ATOM     93  F   UNL A   1      47.348  31.809  29.348  1.00  0.00    -0.206 F 
ATOM     94  C   UNL A   1      45.745  33.469  26.571  1.00  0.00     0.060 A 
BRANCH  94  95
ATOM     95  S   UNL A   1      46.077  34.806  25.403  1.00  0.00     0.124 S 
ATOM     96  O   UNL A   1      45.699  35.987  26.172  1.00  0.00    -0.237 OA
ATOM     97  O   UNL A   1      47.506  34.651  25.139  1.00  0.00    -0.237 OA
ATOM     98  O   UNL A   1      45.208  34.493  24.271  1.00  0.00    -0.744 OA
ENDBRANCH  94  95
ENDBRANCH  62  87
ENDBRANCH  36  37
ENDBRANCH  28  31
ENDBRANCH  26  27
ENDBRANCH  25  26
ENDBRANCH   1  25
TORSDOF 18
ENDMDL
MODEL 3
REMARK VINA RESULT:     -12.5      1.168      1.704
REMARK SMILES Cn1cc(Cl)cc1C(=O)N[C@H]1C=C[C@H](C(=O)NCCCCCCNC(=O)c2ccc(-c3c4nc(c(-c5c(F)cc(S(=O)(=O)[O-])cc5F)c5ccc([nH]5)c(-c5c(F)cc(S(=O)(=O)[O-])cc5F)c5nc(c(-c6c(F)cc(S(=O)(=O)[O-])cc6F)c6ccc3[nH]6)C=C5)C=C4)cc2)C1
REMARK SMILES IDX 21 1 20 2 19 3 18 4 17 5 15 6 16 7 14 9 11 10 12 11 93 12
REMARK SMILES IDX 13 13 10 14 8 15 9 16 7 18 1 19 2 20 3 21 4 22 6 23 5 24
REMARK SMILES IDX 22 25 23 26 24 27 25 28 26 30 27 31 28 32 92 33 29 34 91 35
REMARK SMILES IDX 30 36 31 37 32 38 85 39 33 40 90 41 84 42 86 43 34 44 89 45
REMARK SMILES IDX 83 46 82 47 35 49 69 50 48 51 68 52 49 53 52 54 67 55 87 56
REMARK SMILES IDX 50 57 51 58 66 60 88 61 53 62 36 63 37 64 46 65 38 66 39 67
REMARK SMILES IDX 45 68 47 69 40 70 41 71 42 72 43 73 44 74 70 75 71 76 80 77
REMARK SMILES IDX 72 78 73 79 79 80 81 81 74 82 75 83 76 84 77 85 78 86 54 87
REMARK SMILES IDX 55 88 64 89 56 90 57 91 63 92 65 93 58 94 59 95 60 96 61 97
REMARK SMILES IDX 62 98
REMARK H PARENT 17 8 10 17 24 29 86 48 52 59
REMARK Flexibility Score: inf
ROOT
ATOM      1  C   UNL A   1      35.709  21.524  24.687  1.00  0.00     0.002 C 
ENDROOT
BRANCH   1   2
ATOM      2  C   UNL A   1      34.233  21.816  24.390  1.00  0.00     0.002 C 
BRANCH   2   3
ATOM      3  C   UNL A   1      33.216  20.829  24.958  1.00  0.00     0.021 C 
BRANCH   3   4
ATOM      4  C   UNL A   1      31.766  21.272  24.868  1.00  0.00     0.116 C 
BRANCH   4   5
ATOM      5  N   UNL A   1      31.223  21.732  26.122  1.00  0.00    -0.356 N 
ATOM      6  C   UNL A   1      30.925  22.997  26.520  1.00  0.00     0.227 C 
ATOM      7  O   UNL A   1      30.383  23.130  27.622  1.00  0.00    -0.274 OA
ATOM      8  H   UNL A   1      31.041  21.028  26.785  1.00  0.00     0.163 HD
BRANCH   6   9
ATOM      9  C   UNL A   1      31.250  24.232  25.671  1.00  0.00     0.103 C 
ATOM     10  C   UNL A   1      32.254  26.413  26.217  1.00  0.00     0.106 C 
ATOM     11  C   UNL A   1      30.787  26.520  26.020  1.00  0.00    -0.006 C 
ATOM     12  C   UNL A   1      32.591  24.937  25.928  1.00  0.00     0.047 C 
ATOM     13  C   UNL A   1      30.232  25.329  25.765  1.00  0.00    -0.016 C 
BRANCH  10  14
ATOM     14  N   UNL A   1      33.068  27.372  25.503  1.00  0.00    -0.345 N 
ATOM     15  C   UNL A   1      33.501  27.575  24.223  1.00  0.00     0.268 C 
ATOM     16  O   UNL A   1      34.213  28.565  24.052  1.00  0.00    -0.268 OA
ATOM     17  H   UNL A   1      33.404  28.072  26.107  1.00  0.00     0.164 HD
BRANCH  15  18
ATOM     18  C   UNL A   1      33.092  26.736  23.125  1.00  0.00     0.108 A 
ATOM     19  C   UNL A   1      30.865  27.742  22.492  1.00  0.00     0.150 C 
ATOM     20  N   UNL A   1      32.004  26.878  22.292  1.00  0.00    -0.345 N 
ATOM     21  C   UNL A   1      32.008  25.893  21.334  1.00  0.00     0.106 A 
ATOM     22  C   UNL A   1      32.947  24.965  21.705  1.00  0.00     0.059 A 
ATOM     23  C   UNL A   1      33.621  25.482  22.829  1.00  0.00     0.054 A 
ATOM     24  Cl  UNL A   1      33.225  23.454  20.992  1.00  0.00    -0.083 Cl
ENDBRANCH  15  18
ENDBRANCH  10  14
ENDBRANCH   6   9
ENDBRANCH   4   5
ENDBRANCH   3   4
ENDBRANCH   2   3
ENDBRANCH   1   2
BRANCH   1  25
ATOM     25  C   UNL A   1      36.735  22.616  24.344  1.00  0.00     0.021 C 
BRANCH  25  26
ATOM     26  C   UNL A   1      37.521  23.165  25.525  1.00  0.00     0.116 C 
BRANCH  26  27
ATOM     27  N   UNL A   1      38.375  22.153  26.129  1.00  0.00    -0.352 N 
ATOM     28  C   UNL A   1      39.589  22.306  26.759  1.00  0.00     0.251 C 
ATOM     29  H   UNL A   1      38.037  21.229  26.079  1.00  0.00     0.163 HD
ATOM     30  O   UNL A   1      40.314  21.334  26.943  1.00  0.00    -0.269 OA
BRANCH  28  31
ATOM     31  C   UNL A   1      40.020  23.652  27.177  1.00  0.00     0.039 A 
ATOM     32  C   UNL A   1      39.221  24.760  26.889  1.00  0.00     0.014 A 
ATOM     33  C   UNL A   1      41.205  23.801  27.893  1.00  0.00     0.014 A 
ATOM     34  C   UNL A   1      39.578  26.005  27.403  1.00  0.00     0.010 A 
ATOM     35  C   UNL A   1      41.499  25.009  28.491  1.00  0.00     0.010 A 
ATOM     36  C   UNL A   1      40.706  26.127  28.229  1.00  0.00    -0.014 A 
BRANCH  36  37
ATOM     37  C   UNL A   1      40.975  27.399  28.910  1.00  0.00     0.031 A 
ATOM     38  C   UNL A   1      42.127  28.183  28.377  1.00  0.00     0.074 A 
ATOM     39  C   UNL A   1      40.126  27.980  29.787  1.00  0.00     0.049 A 
ATOM     40  N   UNL A   1      43.210  28.540  28.990  1.00  0.00    -0.248 NA
ATOM     41  C   UNL A   1      42.105  28.554  26.952  1.00  0.00     0.031 C 
ATOM     42  C   UNL A   1      38.777  27.523  30.141  1.00  0.00     0.029 A 
ATOM     43  N   UNL A   1      40.228  29.174  30.448  1.00  0.00    -0.354 N 
ATOM     44  C   UNL A   1      43.891  29.376  28.104  1.00  0.00     0.074 A 
ATOM     45  C   UNL A   1      43.264  29.200  26.821  1.00  0.00     0.031 C 
ATOM     46  C   UNL A   1      38.101  28.532  30.727  1.00  0.00     0.029 A 
ATOM     47  C   UNL A   1      39.023  29.627  30.968  1.00  0.00     0.049 A 
ATOM     48  H   UNL A   1      41.076  29.666  30.545  1.00  0.00     0.167 HD
ATOM     49  C   UNL A   1      44.732  30.347  28.557  1.00  0.00     0.037 A 
ATOM     50  C   UNL A   1      38.760  30.813  31.563  1.00  0.00     0.037 A 
ATOM     51  C   UNL A   1      45.036  30.170  29.952  1.00  0.00     0.049 A 
ATOM     52  C   UNL A   1      40.026  31.369  32.090  1.00  0.00     0.074 A 
ATOM     53  C   UNL A   1      45.885  29.407  30.721  1.00  0.00     0.029 A 
ATOM     54  N   UNL A   1      44.118  30.734  30.795  1.00  0.00    -0.354 N 
ATOM     55  N   UNL A   1      40.734  30.794  33.025  1.00  0.00    -0.248 NA
ATOM     56  C   UNL A   1      40.696  32.455  31.381  1.00  0.00     0.031 C 
ATOM     57  C   UNL A   1      45.351  29.418  32.045  1.00  0.00     0.029 A 
ATOM     58  C   UNL A   1      44.195  30.192  32.049  1.00  0.00     0.049 A 
ATOM     59  H   UNL A   1      43.484  31.440  30.532  1.00  0.00     0.167 HD
ATOM     60  C   UNL A   1      42.034  31.152  32.738  1.00  0.00     0.074 A 
ATOM     61  C   UNL A   1      41.936  32.300  31.849  1.00  0.00     0.031 C 
ATOM     62  C   UNL A   1      43.065  30.289  32.949  1.00  0.00     0.037 A 
BRANCH  49  63
ATOM     63  C   UNL A   1      44.924  31.715  27.920  1.00  0.00     0.058 A 
ATOM     64  C   UNL A   1      46.176  32.029  27.343  1.00  0.00     0.135 A 
ATOM     65  C   UNL A   1      44.072  32.818  28.146  1.00  0.00     0.135 A 
ATOM     66  F   UNL A   1      47.064  31.061  27.066  1.00  0.00    -0.206 F 
ATOM     67  C   UNL A   1      46.588  33.343  27.108  1.00  0.00     0.059 A 
ATOM     68  C   UNL A   1      44.443  34.131  27.870  1.00  0.00     0.059 A 
ATOM     69  F   UNL A   1      42.881  32.691  28.743  1.00  0.00    -0.206 F 
ATOM     70  C   UNL A   1      45.721  34.390  27.401  1.00  0.00     0.060 A 
BRANCH  70  71
ATOM     71  S   UNL A   1      46.293  36.091  27.237  1.00  0.00     0.124 S 
ATOM     72  O   UNL A   1      47.540  36.050  27.992  1.00  0.00    -0.237 OA
ATOM     73  O   UNL A   1      46.422  36.233  25.792  1.00  0.00    -0.237 OA
ATOM     74  O   UNL A   1      45.211  36.864  27.843  1.00  0.00    -0.744 OA
ENDBRANCH  70  71
ENDBRANCH  49  63
BRANCH  50  75
ATOM     75  C   UNL A   1      37.485  31.565  31.548  1.00  0.00     0.058 A 
ATOM     76  C   UNL A   1      36.658  31.635  32.679  1.00  0.00     0.135 A 
ATOM     77  C   UNL A   1      37.173  32.437  30.484  1.00  0.00     0.135 A 
ATOM     78  F   UNL A   1      36.902  30.854  33.742  1.00  0.00    -0.206 F 
ATOM     79  C   UNL A   1      35.602  32.544  32.768  1.00  0.00     0.059 A 
ATOM     80  C   UNL A   1      36.118  33.344  30.545  1.00  0.00     0.059 A 
ATOM     81  F   UNL A   1      37.942  32.487  29.385  1.00  0.00    -0.206 F 
ATOM     82  C   UNL A   1      35.351  33.408  31.702  1.00  0.00     0.060 A 
BRANCH  82  83
ATOM     83  S   UNL A   1      34.090  34.691  31.882  1.00  0.00     0.124 S 
ATOM     84  O   UNL A   1      33.214  34.109  32.892  1.00  0.00    -0.237 OA
ATOM     85  O   UNL A   1      34.882  35.839  32.309  1.00  0.00    -0.237 OA
ATOM     86  O   UNL A   1      33.518  34.792  30.542  1.00  0.00    -0.744 OA
ENDBRANCH  82  83
ENDBRANCH  50  75
BRANCH  62  87
ATOM     87  C   UNL A   1      42.925  29.270  34.036  1.00  0.00     0.058 A 
ATOM     88  C   UNL A   1      43.185  29.506  35.394  1.00  0.00     0.135 A 
ATOM     89  C   UNL A   1      42.421  28.008  33.684  1.00  0.00     0.135 A 
ATOM     90  F   UNL A   1      43.599  30.710  35.817  1.00  0.00    -0.206 F 
ATOM     91  C   UNL A   1      42.978  28.519  36.360  1.00  0.00     0.059 A 
ATOM     92  C   UNL A   1      42.182  27.019  34.630  1.00  0.00     0.059 A 
ATOM     93  F   UNL A   1      42.113  27.741  32.404  1.00  0.00    -0.206 F 
ATOM     94  C   UNL A   1      42.473  27.278  35.967  1.00  0.00     0.060 A 
BRANCH  94  95
ATOM     95  S   UNL A   1      42.123  26.028  37.224  1.00  0.00     0.124 S 
ATOM     96  O   UNL A   1      40.705  26.246  37.487  1.00  0.00    -0.237 OA
ATOM     97  O   UNL A   1      42.458  24.783  36.537  1.00  0.00    -0.237 OA
ATOM     98  O   UNL A   1      43.024  26.384  38.318  1.00  0.00    -0.744 OA
ENDBRANCH  94  95
ENDBRANCH  62  87
ENDBRANCH  36  37
ENDBRANCH  28  31
ENDBRANCH  26  27
ENDBRANCH  25  26
ENDBRANCH   1  25
TORSDOF 18
ENDMDL
