MODEL 1
REMARK VINA RESULT:     -10.8      0.000      0.000
REMARK SMILES Cc1ccccc1CCNS(=O)(=O)c1ccc(C(=O)NCCCCCCNC(=O)c2ccc(-c3c4nc(c(-c5c(F)cc(S(=O)(=O)[O-])cc5F)c5ccc([nH]5)c(-c5c(F)cc(S(=O)(=O)[O-])cc5F)c5nc(c(-c6c(F)cc(S(=O)(=O)[O-])cc6F)c6ccc3[nH]6)C=C5)C=C4)cc2)o1
REMARK SMILES IDX 22 1 21 2 20 3 18 4 19 5 17 7 14 8 15 9 96 10 16 11 11 12
REMARK SMILES IDX 12 13 13 14 10 15 9 17 8 18 7 19 1 20 2 21 3 22 4 23 6 24
REMARK SMILES IDX 5 25 23 26 24 27 25 28 26 29 27 30 28 31 29 33 30 34 31 35
REMARK SMILES IDX 95 36 32 37 94 38 33 39 34 40 35 41 88 42 36 43 93 44 87 45
REMARK SMILES IDX 89 46 37 47 92 48 86 49 85 50 38 52 72 53 51 54 71 55 52 56
REMARK SMILES IDX 55 57 70 58 90 59 53 60 54 61 69 63 91 64 56 65 39 66 40 67
REMARK SMILES IDX 49 68 41 69 42 70 48 71 50 72 43 73 44 74 45 75 46 76 47 77
REMARK SMILES IDX 73 78 74 79 83 80 75 81 76 82 82 83 84 84 77 85 78 86 79 87
REMARK SMILES IDX 80 88 81 89 57 90 58 91 67 92 59 93 60 94 66 95 68 96 61 97
REMARK SMILES IDX 62 98 63 99 64 100 65 101
REMARK H PARENT 20 6 10 16 27 32 89 51 55 62
REMARK Flexibility Score: inf
ROOT
ATOM      1  C   UNL A   1      37.840  23.111  25.847  1.00  0.00     0.021 C 
ENDROOT
BRANCH   1   2
ATOM      2  C   UNL A   1      37.174  22.170  24.844  1.00  0.00     0.116 C 
BRANCH   2   3
ATOM      3  N   UNL A   1      35.920  21.666  25.355  1.00  0.00    -0.349 N 
ATOM      4  C   UNL A   1      34.667  22.219  25.402  1.00  0.00     0.287 C 
ATOM      5  O   UNL A   1      33.772  21.484  25.831  1.00  0.00    -0.266 OA
ATOM      6  H   UNL A   1      35.976  20.763  25.740  1.00  0.00     0.163 HD
BRANCH   4   7
ATOM      7  C   UNL A   1      34.404  23.574  24.951  1.00  0.00     0.193 A 
ATOM      8  C   UNL A   1      33.780  25.016  23.353  1.00  0.00     0.234 A 
ATOM      9  C   UNL A   1      34.058  25.753  24.492  1.00  0.00     0.065 A 
ATOM     10  O   UNL A   1      34.008  23.694  23.645  1.00  0.00    -0.438 OA
ATOM     11  C   UNL A   1      34.407  24.837  25.515  1.00  0.00     0.058 A 
BRANCH   8  12
ATOM     12  S   UNL A   1      33.161  25.504  21.756  1.00  0.00     0.273 S 
ATOM     13  O   UNL A   1      33.249  24.338  20.902  1.00  0.00    -0.204 OA
ATOM     14  O   UNL A   1      33.841  26.736  21.430  1.00  0.00    -0.204 OA
BRANCH  12  15
ATOM     15  N   UNL A   1      31.528  25.889  21.942  1.00  0.00    -0.208 NA
ATOM     16  H   UNL A   1      31.021  25.455  21.171  1.00  0.00     0.141 HD
BRANCH  15  17
ATOM     17  C   UNL A   1      31.161  27.330  21.960  1.00  0.00     0.104 C 
BRANCH  17  18
ATOM     18  C   UNL A   1      30.044  27.583  22.992  1.00  0.00     0.052 C 
BRANCH  18  19
ATOM     19  C   UNL A   1      30.470  27.251  24.412  1.00  0.00    -0.044 A 
ATOM     20  C   UNL A   1      31.537  29.547  24.897  1.00  0.00     0.044 C 
ATOM     21  C   UNL A   1      31.218  28.116  25.234  1.00  0.00    -0.048 A 
ATOM     22  C   UNL A   1      31.670  27.644  26.483  1.00  0.00     0.004 A 
ATOM     23  C   UNL A   1      31.395  26.347  26.913  1.00  0.00     0.000 A 
ATOM     24  C   UNL A   1      30.148  25.965  24.897  1.00  0.00     0.004 A 
ATOM     25  C   UNL A   1      30.624  25.509  26.122  1.00  0.00     0.000 A 
ENDBRANCH  18  19
ENDBRANCH  17  18
ENDBRANCH  15  17
ENDBRANCH  12  15
ENDBRANCH   8  12
ENDBRANCH   4   7
ENDBRANCH   2   3
ENDBRANCH   1   2
BRANCH   1  26
ATOM     26  C   UNL A   1      39.098  22.526  26.505  1.00  0.00     0.002 C 
BRANCH  26  27
ATOM     27  C   UNL A   1      39.714  21.289  25.821  1.00  0.00     0.002 C 
BRANCH  27  28
ATOM     28  C   UNL A   1      40.459  20.313  26.733  1.00  0.00     0.021 C 
BRANCH  28  29
ATOM     29  C   UNL A   1      41.508  20.973  27.601  1.00  0.00     0.116 C 
BRANCH  29  30
ATOM     30  N   UNL A   1      42.796  21.170  26.955  1.00  0.00    -0.352 N 
ATOM     31  C   UNL A   1      42.986  22.139  25.970  1.00  0.00     0.251 C 
ATOM     32  H   UNL A   1      43.555  20.602  27.219  1.00  0.00     0.163 HD
ATOM     33  O   UNL A   1      43.441  21.911  24.859  1.00  0.00    -0.269 OA
BRANCH  31  34
ATOM     34  C   UNL A   1      42.701  23.520  26.412  1.00  0.00     0.039 A 
ATOM     35  C   UNL A   1      42.721  24.555  25.471  1.00  0.00     0.014 A 
ATOM     36  C   UNL A   1      42.740  23.786  27.776  1.00  0.00     0.014 A 
ATOM     37  C   UNL A   1      43.005  25.846  25.896  1.00  0.00     0.010 A 
ATOM     38  C   UNL A   1      43.188  25.009  28.177  1.00  0.00     0.010 A 
ATOM     39  C   UNL A   1      43.348  26.024  27.229  1.00  0.00    -0.014 A 
BRANCH  39  40
ATOM     40  C   UNL A   1      43.708  27.277  27.849  1.00  0.00     0.031 A 
ATOM     41  C   UNL A   1      42.585  28.192  28.114  1.00  0.00     0.074 A 
ATOM     42  C   UNL A   1      44.909  27.317  28.462  1.00  0.00     0.049 A 
ATOM     43  N   UNL A   1      42.695  29.346  28.655  1.00  0.00    -0.248 NA
ATOM     44  C   UNL A   1      41.202  27.859  27.764  1.00  0.00     0.031 C 
ATOM     45  C   UNL A   1      45.345  28.154  29.572  1.00  0.00     0.029 A 
ATOM     46  N   UNL A   1      46.081  26.693  28.024  1.00  0.00    -0.354 N 
ATOM     47  C   UNL A   1      41.428  29.769  29.004  1.00  0.00     0.074 A 
ATOM     48  C   UNL A   1      40.534  28.867  28.331  1.00  0.00     0.031 C 
ATOM     49  C   UNL A   1      46.689  28.234  29.550  1.00  0.00     0.029 A 
ATOM     50  C   UNL A   1      47.128  27.589  28.320  1.00  0.00     0.049 A 
ATOM     51  H   UNL A   1      46.159  25.810  27.597  1.00  0.00     0.167 HD
ATOM     52  C   UNL A   1      41.333  30.750  29.945  1.00  0.00     0.037 A 
ATOM     53  C   UNL A   1      47.741  28.250  27.287  1.00  0.00     0.037 A 
ATOM     54  C   UNL A   1      42.672  31.296  30.184  1.00  0.00     0.049 A 
ATOM     55  C   UNL A   1      47.473  29.739  27.328  1.00  0.00     0.074 A 
ATOM     56  C   UNL A   1      43.630  31.038  31.150  1.00  0.00     0.029 A 
ATOM     57  N   UNL A   1      43.329  31.927  29.130  1.00  0.00    -0.354 N 
ATOM     58  N   UNL A   1      46.405  30.286  27.846  1.00  0.00    -0.248 NA
ATOM     59  C   UNL A   1      48.448  30.728  26.880  1.00  0.00     0.031 C 
ATOM     60  C   UNL A   1      44.893  31.415  30.611  1.00  0.00     0.029 A 
ATOM     61  C   UNL A   1      44.695  31.928  29.338  1.00  0.00     0.049 A 
ATOM     62  H   UNL A   1      42.881  32.318  28.346  1.00  0.00     0.167 HD
ATOM     63  C   UNL A   1      46.538  31.652  27.836  1.00  0.00     0.074 A 
ATOM     64  C   UNL A   1      47.838  31.873  27.227  1.00  0.00     0.031 C 
ATOM     65  C   UNL A   1      45.593  32.503  28.344  1.00  0.00     0.037 A 
BRANCH  52  66
ATOM     66  C   UNL A   1      40.135  31.074  30.819  1.00  0.00     0.058 A 
ATOM     67  C   UNL A   1      39.222  32.071  30.400  1.00  0.00     0.135 A 
ATOM     68  C   UNL A   1      39.854  30.541  32.096  1.00  0.00     0.135 A 
ATOM     69  F   UNL A   1      39.333  32.662  29.201  1.00  0.00    -0.206 F 
ATOM     70  C   UNL A   1      38.166  32.530  31.191  1.00  0.00     0.059 A 
ATOM     71  C   UNL A   1      38.799  30.980  32.904  1.00  0.00     0.059 A 
ATOM     72  F   UNL A   1      40.582  29.566  32.643  1.00  0.00    -0.206 F 
ATOM     73  C   UNL A   1      37.966  31.985  32.449  1.00  0.00     0.060 A 
BRANCH  73  74
ATOM     74  S   UNL A   1      36.612  32.601  33.464  1.00  0.00     0.124 S 
ATOM     75  O   UNL A   1      35.451  32.002  32.815  1.00  0.00    -0.237 OA
ATOM     76  O   UNL A   1      36.951  32.073  34.781  1.00  0.00    -0.237 OA
ATOM     77  O   UNL A   1      36.719  34.052  33.330  1.00  0.00    -0.744 OA
ENDBRANCH  73  74
ENDBRANCH  52  66
BRANCH  53  78
ATOM     78  C   UNL A   1      47.851  27.384  26.066  1.00  0.00     0.058 A 
ATOM     79  C   UNL A   1      46.992  27.705  24.992  1.00  0.00     0.135 A 
ATOM     80  C   UNL A   1      49.046  26.717  25.749  1.00  0.00     0.135 A 
ATOM     81  F   UNL A   1      45.815  28.306  25.236  1.00  0.00    -0.206 F 
ATOM     82  C   UNL A   1      47.400  27.593  23.665  1.00  0.00     0.059 A 
ATOM     83  C   UNL A   1      49.459  26.567  24.420  1.00  0.00     0.059 A 
ATOM     84  F   UNL A   1      49.896  26.355  26.720  1.00  0.00    -0.206 F 
ATOM     85  C   UNL A   1      48.674  27.102  23.396  1.00  0.00     0.060 A 
BRANCH  85  86
ATOM     86  S   UNL A   1      49.340  27.344  21.728  1.00  0.00     0.124 S 
ATOM     87  O   UNL A   1      50.763  27.093  21.929  1.00  0.00    -0.237 OA
ATOM     88  O   UNL A   1      48.621  26.328  20.954  1.00  0.00    -0.237 OA
ATOM     89  O   UNL A   1      48.987  28.726  21.422  1.00  0.00    -0.744 OA
ENDBRANCH  85  86
ENDBRANCH  53  78
BRANCH  65  90
ATOM     90  C   UNL A   1      45.487  33.985  28.036  1.00  0.00     0.058 A 
ATOM     91  C   UNL A   1      44.750  34.513  26.963  1.00  0.00     0.135 A 
ATOM     92  C   UNL A   1      46.024  34.953  28.926  1.00  0.00     0.135 A 
ATOM     93  F   UNL A   1      44.052  33.730  26.130  1.00  0.00    -0.206 F 
ATOM     94  C   UNL A   1      44.653  35.883  26.720  1.00  0.00     0.059 A 
ATOM     95  C   UNL A   1      45.866  36.324  28.750  1.00  0.00     0.059 A 
ATOM     96  F   UNL A   1      46.712  34.606  30.023  1.00  0.00    -0.206 F 
ATOM     97  C   UNL A   1      45.218  36.782  27.616  1.00  0.00     0.060 A 
BRANCH  97  98
ATOM     98  S   UNL A   1      45.071  38.546  27.303  1.00  0.00     0.124 S 
ATOM     99  O   UNL A   1      45.833  38.681  26.065  1.00  0.00    -0.237 OA
ATOM    100  O   UNL A   1      43.628  38.727  27.179  1.00  0.00    -0.237 OA
ATOM    101  O   UNL A   1      45.673  39.152  28.485  1.00  0.00    -0.744 OA
ENDBRANCH  97  98
ENDBRANCH  65  90
ENDBRANCH  39  40
ENDBRANCH  31  34
ENDBRANCH  29  30
ENDBRANCH  28  29
ENDBRANCH  27  28
ENDBRANCH  26  27
ENDBRANCH   1  26
TORSDOF 21
ENDMDL
MODEL 2
REMARK VINA RESULT:     -10.7      1.636      2.176
REMARK SMILES Cc1ccccc1CCNS(=O)(=O)c1ccc(C(=O)NCCCCCCNC(=O)c2ccc(-c3c4nc(c(-c5c(F)cc(S(=O)(=O)[O-])cc5F)c5ccc([nH]5)c(-c5c(F)cc(S(=O)(=O)[O-])cc5F)c5nc(c(-c6c(F)cc(S(=O)(=O)[O-])cc6F)c6ccc3[nH]6)C=C5)C=C4)cc2)o1
REMARK SMILES IDX 22 1 21 2 20 3 18 4 19 5 17 7 14 8 15 9 96 10 16 11 11 12
REMARK SMILES IDX 12 13 13 14 10 15 9 17 8 18 7 19 1 20 2 21 3 22 4 23 6 24
REMARK SMILES IDX 5 25 23 26 24 27 25 28 26 29 27 30 28 31 29 33 30 34 31 35
REMARK SMILES IDX 95 36 32 37 94 38 33 39 34 40 35 41 88 42 36 43 93 44 87 45
REMARK SMILES IDX 89 46 37 47 92 48 86 49 85 50 38 52 72 53 51 54 71 55 52 56
REMARK SMILES IDX 55 57 70 58 90 59 53 60 54 61 69 63 91 64 56 65 39 66 40 67
REMARK SMILES IDX 49 68 41 69 42 70 48 71 50 72 43 73 44 74 45 75 46 76 47 77
REMARK SMILES IDX 73 78 74 79 83 80 75 81 76 82 82 83 84 84 77 85 78 86 79 87
REMARK SMILES IDX 80 88 81 89 57 90 58 91 67 92 59 93 60 94 66 95 68 96 61 97
REMARK SMILES IDX 62 98 63 99 64 100 65 101
REMARK H PARENT 20 6 10 16 27 32 89 51 55 62
REMARK Flexibility Score: inf
ROOT
ATOM      1  C   UNL A   1      39.211  24.233  27.065  1.00  0.00     0.021 C 
ENDROOT
BRANCH   1   2
ATOM      2  C   UNL A   1      38.138  24.006  26.001  1.00  0.00     0.116 C 
BRANCH   2   3
ATOM      3  N   UNL A   1      37.242  22.938  26.383  1.00  0.00    -0.349 N 
ATOM      4  C   UNL A   1      35.924  22.706  26.089  1.00  0.00     0.287 C 
ATOM      5  O   UNL A   1      35.463  21.638  26.506  1.00  0.00    -0.266 OA
ATOM      6  H   UNL A   1      37.654  22.255  26.959  1.00  0.00     0.163 HD
BRANCH   4   7
ATOM      7  C   UNL A   1      35.129  23.643  25.316  1.00  0.00     0.193 A 
ATOM      8  C   UNL A   1      33.783  24.099  23.583  1.00  0.00     0.234 A 
ATOM      9  C   UNL A   1      33.965  25.276  24.290  1.00  0.00     0.065 A 
ATOM     10  O   UNL A   1      34.508  23.118  24.213  1.00  0.00    -0.438 OA
ATOM     11  C   UNL A   1      34.778  24.977  25.410  1.00  0.00     0.058 A 
BRANCH   8  12
ATOM     12  S   UNL A   1      32.779  23.721  22.161  1.00  0.00     0.273 S 
ATOM     13  O   UNL A   1      32.558  22.290  22.177  1.00  0.00    -0.204 OA
ATOM     14  O   UNL A   1      33.416  24.377  21.044  1.00  0.00    -0.204 OA
BRANCH  12  15
ATOM     15  N   UNL A   1      31.287  24.479  22.379  1.00  0.00    -0.208 NA
ATOM     16  H   UNL A   1      31.420  25.474  22.194  1.00  0.00     0.141 HD
BRANCH  15  17
ATOM     17  C   UNL A   1      30.644  24.358  23.714  1.00  0.00     0.104 C 
BRANCH  17  18
ATOM     18  C   UNL A   1      29.719  25.564  23.973  1.00  0.00     0.052 C 
BRANCH  18  19
ATOM     19  C   UNL A   1      30.406  26.675  24.750  1.00  0.00    -0.044 A 
ATOM     20  C   UNL A   1      30.191  28.449  22.892  1.00  0.00     0.044 C 
ATOM     21  C   UNL A   1      30.689  27.949  24.221  1.00  0.00    -0.048 A 
ATOM     22  C   UNL A   1      31.450  28.851  24.991  1.00  0.00     0.004 A 
ATOM     23  C   UNL A   1      31.927  28.504  26.255  1.00  0.00     0.000 A 
ATOM     24  C   UNL A   1      30.843  26.371  26.056  1.00  0.00     0.004 A 
ATOM     25  C   UNL A   1      31.615  27.265  26.793  1.00  0.00     0.000 A 
ENDBRANCH  18  19
ENDBRANCH  17  18
ENDBRANCH  15  17
ENDBRANCH  12  15
ENDBRANCH   8  12
ENDBRANCH   4   7
ENDBRANCH   2   3
ENDBRANCH   1   2
BRANCH   1  26
ATOM     26  C   UNL A   1      40.073  22.994  27.350  1.00  0.00     0.002 C 
BRANCH  26  27
ATOM     27  C   UNL A   1      41.531  23.048  26.854  1.00  0.00     0.002 C 
BRANCH  27  28
ATOM     28  C   UNL A   1      41.902  22.071  25.738  1.00  0.00     0.021 C 
BRANCH  28  29
ATOM     29  C   UNL A   1      42.874  20.994  26.169  1.00  0.00     0.116 C 
BRANCH  29  30
ATOM     30  N   UNL A   1      43.883  20.653  25.179  1.00  0.00    -0.352 N 
ATOM     31  C   UNL A   1      44.490  21.622  24.381  1.00  0.00     0.251 C 
ATOM     32  H   UNL A   1      44.143  19.711  25.067  1.00  0.00     0.163 HD
ATOM     33  O   UNL A   1      44.527  21.585  23.160  1.00  0.00    -0.269 OA
BRANCH  31  34
ATOM     34  C   UNL A   1      45.209  22.669  25.137  1.00  0.00     0.039 A 
ATOM     35  C   UNL A   1      45.452  22.480  26.501  1.00  0.00     0.014 A 
ATOM     36  C   UNL A   1      45.333  23.923  24.549  1.00  0.00     0.014 A 
ATOM     37  C   UNL A   1      45.603  23.593  27.318  1.00  0.00     0.010 A 
ATOM     38  C   UNL A   1      45.305  25.016  25.363  1.00  0.00     0.010 A 
ATOM     39  C   UNL A   1      45.410  24.843  26.746  1.00  0.00    -0.014 A 
BRANCH  39  40
ATOM     40  C   UNL A   1      45.487  26.109  27.435  1.00  0.00     0.031 A 
ATOM     41  C   UNL A   1      44.199  26.793  27.639  1.00  0.00     0.074 A 
ATOM     42  C   UNL A   1      46.612  26.336  28.144  1.00  0.00     0.049 A 
ATOM     43  N   UNL A   1      44.055  27.920  28.226  1.00  0.00    -0.248 NA
ATOM     44  C   UNL A   1      42.930  26.233  27.167  1.00  0.00     0.031 C 
ATOM     45  C   UNL A   1      46.805  27.183  29.314  1.00  0.00     0.029 A 
ATOM     46  N   UNL A   1      47.908  25.955  27.782  1.00  0.00    -0.354 N 
ATOM     47  C   UNL A   1      42.710  28.090  28.486  1.00  0.00     0.074 A 
ATOM     48  C   UNL A   1      42.049  27.075  27.712  1.00  0.00     0.031 C 
ATOM     49  C   UNL A   1      48.109  27.505  29.403  1.00  0.00     0.029 A 
ATOM     50  C   UNL A   1      48.748  27.010  28.192  1.00  0.00     0.049 A 
ATOM     51  H   UNL A   1      48.178  25.122  27.333  1.00  0.00     0.167 HD
ATOM     52  C   UNL A   1      42.368  28.992  29.449  1.00  0.00     0.037 A 
ATOM     53  C   UNL A   1      49.303  27.819  27.235  1.00  0.00     0.037 A 
ATOM     54  C   UNL A   1      43.563  29.758  29.813  1.00  0.00     0.049 A 
ATOM     55  C   UNL A   1      48.765  29.232  27.305  1.00  0.00     0.074 A 
ATOM     56  C   UNL A   1      44.479  29.632  30.844  1.00  0.00     0.029 A 
ATOM     57  N   UNL A   1      44.168  30.547  28.838  1.00  0.00    -0.354 N 
ATOM     58  N   UNL A   1      47.579  29.551  27.752  1.00  0.00    -0.248 NA
ATOM     59  C   UNL A   1      49.572  30.400  26.971  1.00  0.00     0.031 C 
ATOM     60  C   UNL A   1      45.687  30.255  30.422  1.00  0.00     0.029 A 
ATOM     61  C   UNL A   1      45.492  30.784  29.156  1.00  0.00     0.049 A 
ATOM     62  H   UNL A   1      43.715  30.888  28.034  1.00  0.00     0.167 HD
ATOM     63  C   UNL A   1      47.459  30.918  27.799  1.00  0.00     0.074 A 
ATOM     64  C   UNL A   1      48.738  31.399  27.305  1.00  0.00     0.031 C 
ATOM     65  C   UNL A   1      46.340  31.559  28.258  1.00  0.00     0.037 A 
BRANCH  52  66
ATOM     66  C   UNL A   1      41.070  29.052  30.233  1.00  0.00     0.058 A 
ATOM     67  C   UNL A   1      39.926  29.632  29.635  1.00  0.00     0.135 A 
ATOM     68  C   UNL A   1      40.878  28.663  31.577  1.00  0.00     0.135 A 
ATOM     69  F   UNL A   1      39.934  30.034  28.355  1.00  0.00    -0.206 F 
ATOM     70  C   UNL A   1      38.726  29.850  30.317  1.00  0.00     0.059 A 
ATOM     71  C   UNL A   1      39.685  28.866  32.280  1.00  0.00     0.059 A 
ATOM     72  F   UNL A   1      41.831  28.065  32.294  1.00  0.00    -0.206 F 
ATOM     73  C   UNL A   1      38.617  29.473  31.646  1.00  0.00     0.060 A 
BRANCH  73  74
ATOM     74  S   UNL A   1      37.071  29.779  32.517  1.00  0.00     0.124 S 
ATOM     75  O   UNL A   1      37.036  28.673  33.468  1.00  0.00    -0.237 OA
ATOM     76  O   UNL A   1      37.297  31.103  33.086  1.00  0.00    -0.237 OA
ATOM     77  O   UNL A   1      36.065  29.720  31.459  1.00  0.00    -0.744 OA
ENDBRANCH  73  74
ENDBRANCH  52  66
BRANCH  53  78
ATOM     78  C   UNL A   1      49.660  27.047  25.998  1.00  0.00     0.058 A 
ATOM     79  C   UNL A   1      48.783  27.184  24.900  1.00  0.00     0.135 A 
ATOM     80  C   UNL A   1      50.991  26.701  25.711  1.00  0.00     0.135 A 
ATOM     81  F   UNL A   1      47.488  27.474  25.112  1.00  0.00    -0.206 F 
ATOM     82  C   UNL A   1      49.247  27.219  23.587  1.00  0.00     0.059 A 
ATOM     83  C   UNL A   1      51.470  26.700  24.396  1.00  0.00     0.059 A 
ATOM     84  F   UNL A   1      51.873  26.524  26.705  1.00  0.00    -0.206 F 
ATOM     85  C   UNL A   1      50.611  27.062  23.355  1.00  0.00     0.060 A 
BRANCH  85  86
ATOM     86  S   UNL A   1      51.250  27.514  21.721  1.00  0.00     0.124 S 
ATOM     87  O   UNL A   1      50.664  26.484  20.870  1.00  0.00    -0.237 OA
ATOM     88  O   UNL A   1      50.713  28.866  21.539  1.00  0.00    -0.237 OA
ATOM     89  O   UNL A   1      52.696  27.435  21.891  1.00  0.00    -0.744 OA
ENDBRANCH  85  86
ENDBRANCH  53  78
BRANCH  65  90
ATOM     90  C   UNL A   1      45.987  33.011  27.992  1.00  0.00     0.058 A 
ATOM     91  C   UNL A   1      45.419  33.475  26.793  1.00  0.00     0.135 A 
ATOM     92  C   UNL A   1      46.079  33.982  29.024  1.00  0.00     0.135 A 
ATOM     93  F   UNL A   1      45.120  32.645  25.785  1.00  0.00    -0.206 F 
ATOM     94  C   UNL A   1      45.083  34.812  26.589  1.00  0.00     0.059 A 
ATOM     95  C   UNL A   1      45.670  35.303  28.869  1.00  0.00     0.059 A 
ATOM     96  F   UNL A   1      46.556  33.684  30.241  1.00  0.00    -0.206 F 
ATOM     97  C   UNL A   1      45.217  35.721  27.631  1.00  0.00     0.060 A 
BRANCH  97  98
ATOM     98  S   UNL A   1      44.764  37.440  27.362  1.00  0.00     0.124 S 
ATOM     99  O   UNL A   1      43.407  37.301  26.842  1.00  0.00    -0.237 OA
ATOM    100  O   UNL A   1      44.873  38.010  28.701  1.00  0.00    -0.237 OA
ATOM    101  O   UNL A   1      45.762  37.909  26.406  1.00  0.00    -0.744 OA
ENDBRANCH  97  98
ENDBRANCH  65  90
ENDBRANCH  39  40
ENDBRANCH  31  34
ENDBRANCH  29  30
ENDBRANCH  28  29
ENDBRANCH  27  28
ENDBRANCH  26  27
ENDBRANCH   1  26
TORSDOF 21
ENDMDL
MODEL 3
REMARK VINA RESULT:     -10.4      2.963      8.325
REMARK SMILES Cc1ccccc1CCNS(=O)(=O)c1ccc(C(=O)NCCCCCCNC(=O)c2ccc(-c3c4nc(c(-c5c(F)cc(S(=O)(=O)[O-])cc5F)c5ccc([nH]5)c(-c5c(F)cc(S(=O)(=O)[O-])cc5F)c5nc(c(-c6c(F)cc(S(=O)(=O)[O-])cc6F)c6ccc3[nH]6)C=C5)C=C4)cc2)o1
REMARK SMILES IDX 22 1 21 2 20 3 18 4 19 5 17 7 14 8 15 9 96 10 16 11 11 12
REMARK SMILES IDX 12 13 13 14 10 15 9 17 8 18 7 19 1 20 2 21 3 22 4 23 6 24
REMARK SMILES IDX 5 25 23 26 24 27 25 28 26 29 27 30 28 31 29 33 30 34 31 35
REMARK SMILES IDX 95 36 32 37 94 38 33 39 34 40 35 41 88 42 36 43 93 44 87 45
REMARK SMILES IDX 89 46 37 47 92 48 86 49 85 50 38 52 72 53 51 54 71 55 52 56
REMARK SMILES IDX 55 57 70 58 90 59 53 60 54 61 69 63 91 64 56 65 39 66 40 67
REMARK SMILES IDX 49 68 41 69 42 70 48 71 50 72 43 73 44 74 45 75 46 76 47 77
REMARK SMILES IDX 73 78 74 79 83 80 75 81 76 82 82 83 84 84 77 85 78 86 79 87
REMARK SMILES IDX 80 88 81 89 57 90 58 91 67 92 59 93 60 94 66 95 68 96 61 97
REMARK SMILES IDX 62 98 63 99 64 100 65 101
REMARK H PARENT 20 6 10 16 27 32 89 51 55 62
REMARK Flexibility Score: inf
ROOT
ATOM      1  C   UNL A   1      35.561  29.792  28.042  1.00  0.00     0.021 C 
ENDROOT
BRANCH   1   2
ATOM      2  C   UNL A   1      34.797  29.474  26.757  1.00  0.00     0.116 C 
BRANCH   2   3
ATOM      3  N   UNL A   1      33.672  30.365  26.585  1.00  0.00    -0.349 N 
ATOM      4  C   UNL A   1      32.363  30.128  26.256  1.00  0.00     0.287 C 
ATOM      5  O   UNL A   1      31.619  31.113  26.274  1.00  0.00    -0.266 OA
ATOM      6  H   UNL A   1      33.886  31.315  26.729  1.00  0.00     0.163 HD
BRANCH   4   7
ATOM      7  C   UNL A   1      31.878  28.798  25.932  1.00  0.00     0.193 A 
ATOM      8  C   UNL A   1      31.345  27.225  24.427  1.00  0.00     0.234 A 
ATOM      9  C   UNL A   1      31.106  26.696  25.684  1.00  0.00     0.065 A 
ATOM     10  O   UNL A   1      31.802  28.509  24.594  1.00  0.00    -0.438 OA
ATOM     11  C   UNL A   1      31.487  27.674  26.636  1.00  0.00     0.058 A 
BRANCH   8  12
ATOM     12  S   UNL A   1      31.221  26.506  22.802  1.00  0.00     0.273 S 
ATOM     13  O   UNL A   1      30.608  27.504  21.952  1.00  0.00    -0.204 OA
ATOM     14  O   UNL A   1      30.627  25.203  22.993  1.00  0.00    -0.204 OA
BRANCH  12  15
ATOM     15  N   UNL A   1      32.792  26.242  22.244  1.00  0.00    -0.208 NA
ATOM     16  H   UNL A   1      32.722  25.735  21.362  1.00  0.00     0.141 HD
BRANCH  15  17
ATOM     17  C   UNL A   1      33.713  25.476  23.125  1.00  0.00     0.104 C 
BRANCH  17  18
ATOM     18  C   UNL A   1      33.537  23.962  22.894  1.00  0.00     0.052 C 
BRANCH  18  19
ATOM     19  C   UNL A   1      34.264  23.121  23.928  1.00  0.00    -0.044 A 
ATOM     20  C   UNL A   1      32.779  21.033  23.644  1.00  0.00     0.044 C 
ATOM     21  C   UNL A   1      33.862  21.829  24.320  1.00  0.00    -0.048 A 
ATOM     22  C   UNL A   1      34.536  21.202  25.387  1.00  0.00     0.004 A 
ATOM     23  C   UNL A   1      35.583  21.833  26.057  1.00  0.00     0.000 A 
ATOM     24  C   UNL A   1      35.368  23.713  24.578  1.00  0.00     0.004 A 
ATOM     25  C   UNL A   1      36.006  23.087  25.646  1.00  0.00     0.000 A 
ENDBRANCH  18  19
ENDBRANCH  17  18
ENDBRANCH  15  17
ENDBRANCH  12  15
ENDBRANCH   8  12
ENDBRANCH   4   7
ENDBRANCH   2   3
ENDBRANCH   1   2
BRANCH   1  26
ATOM     26  C   UNL A   1      37.070  29.982  27.835  1.00  0.00     0.002 C 
BRANCH  26  27
ATOM     27  C   UNL A   1      37.777  30.945  28.810  1.00  0.00     0.002 C 
BRANCH  27  28
ATOM     28  C   UNL A   1      37.164  31.062  30.206  1.00  0.00     0.021 C 
BRANCH  28  29
ATOM     29  C   UNL A   1      37.039  29.738  30.929  1.00  0.00     0.116 C 
BRANCH  29  30
ATOM     30  N   UNL A   1      37.881  29.606  32.107  1.00  0.00    -0.352 N 
ATOM     31  C   UNL A   1      38.988  28.760  32.131  1.00  0.00     0.251 C 
ATOM     32  H   UNL A   1      37.662  30.129  32.912  1.00  0.00     0.163 HD
ATOM     33  O   UNL A   1      39.173  27.891  32.971  1.00  0.00    -0.269 OA
BRANCH  31  34
ATOM     34  C   UNL A   1      40.013  29.068  31.111  1.00  0.00     0.039 A 
ATOM     35  C   UNL A   1      40.015  28.352  29.909  1.00  0.00     0.014 A 
ATOM     36  C   UNL A   1      41.114  29.819  31.505  1.00  0.00     0.014 A 
ATOM     37  C   UNL A   1      41.207  28.214  29.211  1.00  0.00     0.010 A 
ATOM     38  C   UNL A   1      42.316  29.545  30.924  1.00  0.00     0.010 A 
ATOM     39  C   UNL A   1      42.359  28.718  29.797  1.00  0.00    -0.014 A 
BRANCH  39  40
ATOM     40  C   UNL A   1      43.691  28.640  29.247  1.00  0.00     0.031 A 
ATOM     41  C   UNL A   1      44.130  29.827  28.494  1.00  0.00     0.074 A 
ATOM     42  C   UNL A   1      44.509  27.713  29.787  1.00  0.00     0.049 A 
ATOM     43  N   UNL A   1      45.272  29.955  27.931  1.00  0.00    -0.248 NA
ATOM     44  C   UNL A   1      43.272  31.000  28.308  1.00  0.00     0.031 C 
ATOM     45  C   UNL A   1      45.964  27.707  29.869  1.00  0.00     0.029 A 
ATOM     46  N   UNL A   1      44.138  26.435  30.217  1.00  0.00    -0.354 N 
ATOM     47  C   UNL A   1      45.426  31.284  27.590  1.00  0.00     0.074 A 
ATOM     48  C   UNL A   1      44.118  31.863  27.741  1.00  0.00     0.031 C 
ATOM     49  C   UNL A   1      46.382  26.437  30.025  1.00  0.00     0.029 A 
ATOM     50  C   UNL A   1      45.209  25.587  29.872  1.00  0.00     0.049 A 
ATOM     51  H   UNL A   1      43.301  26.181  30.668  1.00  0.00     0.167 HD
ATOM     52  C   UNL A   1      46.694  31.729  27.365  1.00  0.00     0.037 A 
ATOM     53  C   UNL A   1      45.039  24.697  28.844  1.00  0.00     0.037 A 
ATOM     54  C   UNL A   1      47.590  30.570  27.310  1.00  0.00     0.049 A 
ATOM     55  C   UNL A   1      45.914  25.030  27.654  1.00  0.00     0.074 A 
ATOM     56  C   UNL A   1      48.411  29.976  28.253  1.00  0.00     0.029 A 
ATOM     57  N   UNL A   1      47.399  29.631  26.300  1.00  0.00    -0.354 N 
ATOM     58  N   UNL A   1      46.325  26.233  27.351  1.00  0.00    -0.248 NA
ATOM     59  C   UNL A   1      46.478  24.007  26.780  1.00  0.00     0.031 C 
ATOM     60  C   UNL A   1      48.612  28.625  27.854  1.00  0.00     0.029 A 
ATOM     61  C   UNL A   1      47.943  28.413  26.659  1.00  0.00     0.049 A 
ATOM     62  H   UNL A   1      46.939  29.812  25.449  1.00  0.00     0.167 HD
ATOM     63  C   UNL A   1      47.201  26.166  26.296  1.00  0.00     0.074 A 
ATOM     64  C   UNL A   1      47.266  24.749  25.983  1.00  0.00     0.031 C 
ATOM     65  C   UNL A   1      47.829  27.262  25.770  1.00  0.00     0.037 A 
BRANCH  52  66
ATOM     66  C   UNL A   1      47.190  33.162  27.426  1.00  0.00     0.058 A 
ATOM     67  C   UNL A   1      46.762  34.085  26.442  1.00  0.00     0.135 A 
ATOM     68  C   UNL A   1      48.136  33.689  28.332  1.00  0.00     0.135 A 
ATOM     69  F   UNL A   1      45.848  33.750  25.520  1.00  0.00    -0.206 F 
ATOM     70  C   UNL A   1      47.261  35.386  26.337  1.00  0.00     0.059 A 
ATOM     71  C   UNL A   1      48.646  34.990  28.251  1.00  0.00     0.059 A 
ATOM     72  F   UNL A   1      48.627  32.980  29.350  1.00  0.00    -0.206 F 
ATOM     73  C   UNL A   1      48.213  35.829  27.241  1.00  0.00     0.060 A 
BRANCH  73  74
ATOM     74  S   UNL A   1      48.861  37.501  27.080  1.00  0.00     0.124 S 
ATOM     75  O   UNL A   1      49.138  37.853  28.469  1.00  0.00    -0.237 OA
ATOM     76  O   UNL A   1      50.027  37.297  26.228  1.00  0.00    -0.237 OA
ATOM     77  O   UNL A   1      47.759  38.236  26.462  1.00  0.00    -0.744 OA
ENDBRANCH  73  74
ENDBRANCH  52  66
BRANCH  53  78
ATOM     78  C   UNL A   1      43.641  24.149  28.813  1.00  0.00     0.058 A 
ATOM     79  C   UNL A   1      42.828  24.569  27.737  1.00  0.00     0.135 A 
ATOM     80  C   UNL A   1      43.327  22.915  29.405  1.00  0.00     0.135 A 
ATOM     81  F   UNL A   1      43.053  25.760  27.156  1.00  0.00    -0.206 F 
ATOM     82  C   UNL A   1      41.916  23.712  27.126  1.00  0.00     0.059 A 
ATOM     83  C   UNL A   1      42.391  22.052  28.823  1.00  0.00     0.059 A 
ATOM     84  F   UNL A   1      44.037  22.466  30.450  1.00  0.00    -0.206 F 
ATOM     85  C   UNL A   1      41.771  22.422  27.628  1.00  0.00     0.060 A 
BRANCH  85  86
ATOM     86  S   UNL A   1      40.910  21.205  26.597  1.00  0.00     0.124 S 
ATOM     87  O   UNL A   1      40.662  20.124  27.546  1.00  0.00    -0.237 OA
ATOM     88  O   UNL A   1      39.725  21.949  26.161  1.00  0.00    -0.237 OA
ATOM     89  O   UNL A   1      41.880  20.906  25.550  1.00  0.00    -0.744 OA
ENDBRANCH  85  86
ENDBRANCH  53  78
BRANCH  65  90
ATOM     90  C   UNL A   1      48.491  27.327  24.406  1.00  0.00     0.058 A 
ATOM     91  C   UNL A   1      47.848  27.780  23.241  1.00  0.00     0.135 A 
ATOM     92  C   UNL A   1      49.879  27.063  24.257  1.00  0.00     0.135 A 
ATOM     93  F   UNL A   1      46.583  28.219  23.257  1.00  0.00    -0.206 F 
ATOM     94  C   UNL A   1      48.492  27.849  22.006  1.00  0.00     0.059 A 
ATOM     95  C   UNL A   1      50.561  27.209  23.053  1.00  0.00     0.059 A 
ATOM     96  F   UNL A   1      50.642  26.669  25.287  1.00  0.00    -0.206 F 
ATOM     97  C   UNL A   1      49.847  27.558  21.920  1.00  0.00     0.060 A 
BRANCH  97  98
ATOM     98  S   UNL A   1      50.671  27.668  20.326  1.00  0.00     0.124 S 
ATOM     99  O   UNL A   1      51.872  26.875  20.570  1.00  0.00    -0.237 OA
ATOM    100  O   UNL A   1      49.693  27.072  19.422  1.00  0.00    -0.237 OA
ATOM    101  O   UNL A   1      50.884  29.101  20.152  1.00  0.00    -0.744 OA
ENDBRANCH  97  98
ENDBRANCH  65  90
ENDBRANCH  39  40
ENDBRANCH  31  34
ENDBRANCH  29  30
ENDBRANCH  28  29
ENDBRANCH  27  28
ENDBRANCH  26  27
ENDBRANCH   1  26
TORSDOF 21
ENDMDL
