MODEL 1
REMARK VINA RESULT:      -8.8      0.000      0.000
REMARK SMILES COc1ccc(-c2ncn(CC(=O)NCCCCCCNC(=O)c3ccc(-c4c5nc(c(-c6c(F)cc(S(=O)(=O)[O-])cc6F)c6ccc([nH]6)c(-c6c(F)cc(S(=O)(=O)[O-])cc6F)c6nc(c(-c7c(F)cc(S(=O)(=O)[O-])cc7F)c7ccc4[nH]7)C=C6)C=C5)cc3)c2-c2ccc(OC)cc2)cc1
REMARK SMILES IDX 17 1 16 2 15 3 14 4 12 5 13 6 11 8 10 9 7 10 8 11 90 12 9 13
REMARK SMILES IDX 6 14 3 15 4 16 100 17 5 18 99 19 2 20 1 21 91 22 92 23 98 24
REMARK SMILES IDX 93 25 97 26 94 27 95 28 96 29 18 30 19 31 20 32 21 33 22 34
REMARK SMILES IDX 23 36 24 37 25 38 89 39 26 40 88 41 27 42 28 43 29 44 82 45
REMARK SMILES IDX 30 46 87 47 81 48 83 49 31 50 86 51 80 52 79 53 32 55 66 56
REMARK SMILES IDX 45 57 65 58 46 59 49 60 64 61 84 62 47 63 48 64 63 66 85 67
REMARK SMILES IDX 50 68 33 69 34 70 43 71 35 72 36 73 42 74 44 75 37 76 38 77
REMARK SMILES IDX 39 78 40 79 41 80 67 81 68 82 77 83 69 84 70 85 76 86 78 87
REMARK SMILES IDX 71 88 72 89 73 90 74 91 75 92 51 93 52 94 61 95 53 96 54 97
REMARK SMILES IDX 60 98 62 99 55 100 56 101 57 102 58 103 59 104
REMARK H PARENT 14 7 21 35 83 54 49 65
REMARK Flexibility Score: inf
ROOT
ATOM      1  C   UNL A   1      46.238  32.720  28.104  1.00  0.00     0.002 C 
ENDROOT
BRANCH   1   2
ATOM      2  C   UNL A   1      44.831  32.162  27.849  1.00  0.00     0.021 C 
BRANCH   2   3
ATOM      3  C   UNL A   1      44.518  31.854  26.385  1.00  0.00     0.116 C 
BRANCH   3   4
ATOM      4  N   UNL A   1      45.519  31.008  25.767  1.00  0.00    -0.355 N 
ATOM      5  C   UNL A   1      45.716  29.663  25.884  1.00  0.00     0.239 C 
ATOM      6  O   UNL A   1      46.546  29.144  25.131  1.00  0.00    -0.273 OA
ATOM      7  H   UNL A   1      46.151  31.472  25.172  1.00  0.00     0.163 HD
BRANCH   5   8
ATOM      8  C   UNL A   1      44.885  28.817  26.830  1.00  0.00     0.223 C 
BRANCH   8   9
ATOM      9  N   UNL A   1      44.271  27.652  26.222  1.00  0.00    -0.321 N 
ATOM     10  C   UNL A   1      43.754  25.659  25.515  1.00  0.00     0.096 A 
ATOM     11  N   UNL A   1      42.778  26.500  25.048  1.00  0.00    -0.236 NA
ATOM     12  C   UNL A   1      44.736  26.357  26.208  1.00  0.00     0.076 A 
ATOM     13  C   UNL A   1      43.137  27.694  25.452  1.00  0.00     0.201 A 
BRANCH  10  14
ATOM     14  C   UNL A   1      43.827  24.243  25.231  1.00  0.00     0.003 A 
ATOM     15  C   UNL A   1      44.224  21.479  24.977  1.00  0.00     0.118 A 
ATOM     16  C   UNL A   1      43.184  21.972  25.766  1.00  0.00     0.047 A 
ATOM     17  C   UNL A   1      45.037  22.376  24.280  1.00  0.00     0.047 A 
ATOM     18  C   UNL A   1      42.989  23.346  25.903  1.00  0.00     0.014 A 
ATOM     19  C   UNL A   1      44.824  23.755  24.386  1.00  0.00     0.014 A 
BRANCH  15  20
ATOM     20  O   UNL A   1      44.323  20.116  24.957  1.00  0.00    -0.497 OA
ATOM     21  C   UNL A   1      43.204  19.393  25.458  1.00  0.00     0.278 C 
ENDBRANCH  15  20
ENDBRANCH  10  14
BRANCH  12  22
ATOM     22  C   UNL A   1      46.031  25.897  26.697  1.00  0.00     0.001 A 
ATOM     23  C   UNL A   1      46.174  25.296  27.947  1.00  0.00     0.014 A 
ATOM     24  C   UNL A   1      47.145  25.987  25.854  1.00  0.00     0.014 A 
ATOM     25  C   UNL A   1      47.425  24.834  28.363  1.00  0.00     0.047 A 
ATOM     26  C   UNL A   1      48.391  25.501  26.261  1.00  0.00     0.047 A 
ATOM     27  C   UNL A   1      48.537  24.928  27.523  1.00  0.00     0.118 A 
BRANCH  27  28
ATOM     28  O   UNL A   1      49.699  24.429  28.045  1.00  0.00    -0.497 OA
ATOM     29  C   UNL A   1      50.466  25.324  28.840  1.00  0.00     0.278 C 
ENDBRANCH  27  28
ENDBRANCH  12  22
ENDBRANCH   8   9
ENDBRANCH   5   8
ENDBRANCH   3   4
ENDBRANCH   2   3
ENDBRANCH   1   2
BRANCH   1  30
ATOM     30  C   UNL A   1      46.322  34.007  28.938  1.00  0.00     0.002 C 
BRANCH  30  31
ATOM     31  C   UNL A   1      47.115  35.175  28.331  1.00  0.00     0.021 C 
BRANCH  31  32
ATOM     32  C   UNL A   1      46.254  36.226  27.648  1.00  0.00     0.116 C 
BRANCH  32  33
ATOM     33  N   UNL A   1      46.349  37.536  28.290  1.00  0.00    -0.352 N 
ATOM     34  C   UNL A   1      45.458  38.114  29.180  1.00  0.00     0.251 C 
ATOM     35  H   UNL A   1      47.141  38.073  28.061  1.00  0.00     0.163 HD
ATOM     36  O   UNL A   1      45.433  39.322  29.342  1.00  0.00    -0.269 OA
BRANCH  34  37
ATOM     37  C   UNL A   1      44.541  37.230  29.926  1.00  0.00     0.039 A 
ATOM     38  C   UNL A   1      43.452  36.612  29.305  1.00  0.00     0.014 A 
ATOM     39  C   UNL A   1      44.823  36.991  31.266  1.00  0.00     0.014 A 
ATOM     40  C   UNL A   1      42.706  35.685  30.033  1.00  0.00     0.010 A 
ATOM     41  C   UNL A   1      44.207  35.954  31.916  1.00  0.00     0.010 A 
ATOM     42  C   UNL A   1      43.105  35.340  31.335  1.00  0.00    -0.014 A 
BRANCH  42  43
ATOM     43  C   UNL A   1      42.438  34.265  32.068  1.00  0.00     0.031 A 
ATOM     44  C   UNL A   1      42.683  32.898  31.527  1.00  0.00     0.074 A 
ATOM     45  C   UNL A   1      41.831  34.447  33.264  1.00  0.00     0.049 A 
ATOM     46  N   UNL A   1      41.839  32.114  30.943  1.00  0.00    -0.248 NA
ATOM     47  C   UNL A   1      44.069  32.400  31.499  1.00  0.00     0.031 C 
ATOM     48  C   UNL A   1      41.781  35.656  34.098  1.00  0.00     0.029 A 
ATOM     49  N   UNL A   1      41.205  33.530  34.050  1.00  0.00    -0.354 N 
ATOM     50  C   UNL A   1      42.527  30.928  30.691  1.00  0.00     0.074 A 
ATOM     51  C   UNL A   1      43.922  31.234  30.866  1.00  0.00     0.031 C 
ATOM     52  C   UNL A   1      41.391  35.333  35.351  1.00  0.00     0.029 A 
ATOM     53  C   UNL A   1      40.975  33.944  35.359  1.00  0.00     0.049 A 
ATOM     54  H   UNL A   1      40.933  32.644  33.719  1.00  0.00     0.167 HD
ATOM     55  C   UNL A   1      41.872  29.736  30.598  1.00  0.00     0.037 A 
ATOM     56  C   UNL A   1      40.494  33.190  36.380  1.00  0.00     0.037 A 
ATOM     57  C   UNL A   1      40.455  29.936  30.416  1.00  0.00     0.049 A 
ATOM     58  C   UNL A   1      39.810  32.023  35.768  1.00  0.00     0.074 A 
ATOM     59  C   UNL A   1      39.679  30.594  29.479  1.00  0.00     0.029 A 
ATOM     60  N   UNL A   1      39.636  29.750  31.505  1.00  0.00    -0.354 N 
ATOM     61  N   UNL A   1      38.720  32.111  35.058  1.00  0.00    -0.248 NA
ATOM     62  C   UNL A   1      40.598  30.819  35.561  1.00  0.00     0.031 C 
ATOM     63  C   UNL A   1      38.637  31.210  30.233  1.00  0.00     0.029 A 
ATOM     64  C   UNL A   1      38.791  30.830  31.566  1.00  0.00     0.049 A 
ATOM     65  H   UNL A   1      39.653  28.985  32.125  1.00  0.00     0.167 HD
ATOM     66  C   UNL A   1      38.906  31.214  34.018  1.00  0.00     0.074 A 
ATOM     67  C   UNL A   1      40.039  30.386  34.427  1.00  0.00     0.031 C 
ATOM     68  C   UNL A   1      38.312  31.407  32.803  1.00  0.00     0.037 A 
BRANCH  55  69
ATOM     69  C   UNL A   1      42.442  28.405  31.042  1.00  0.00     0.058 A 
ATOM     70  C   UNL A   1      42.885  28.253  32.374  1.00  0.00     0.135 A 
ATOM     71  C   UNL A   1      42.832  27.376  30.155  1.00  0.00     0.135 A 
ATOM     72  F   UNL A   1      42.578  29.169  33.306  1.00  0.00    -0.206 F 
ATOM     73  C   UNL A   1      43.719  27.207  32.772  1.00  0.00     0.059 A 
ATOM     74  C   UNL A   1      43.616  26.296  30.545  1.00  0.00     0.059 A 
ATOM     75  F   UNL A   1      42.556  27.412  28.847  1.00  0.00    -0.206 F 
ATOM     76  C   UNL A   1      44.093  26.243  31.843  1.00  0.00     0.060 A 
BRANCH  76  77
ATOM     77  S   UNL A   1      45.254  24.952  32.324  1.00  0.00     0.124 S 
ATOM     78  O   UNL A   1      46.510  25.485  31.808  1.00  0.00    -0.237 OA
ATOM     79  O   UNL A   1      45.109  24.942  33.776  1.00  0.00    -0.237 OA
ATOM     80  O   UNL A   1      44.741  23.768  31.642  1.00  0.00    -0.744 OA
ENDBRANCH  76  77
ENDBRANCH  55  69
BRANCH  56  81
ATOM     81  C   UNL A   1      40.901  33.201  37.809  1.00  0.00     0.058 A 
ATOM     82  C   UNL A   1      39.948  33.331  38.837  1.00  0.00     0.135 A 
ATOM     83  C   UNL A   1      42.176  32.753  38.197  1.00  0.00     0.135 A 
ATOM     84  F   UNL A   1      38.698  33.724  38.548  1.00  0.00    -0.206 F 
ATOM     85  C   UNL A   1      40.226  32.988  40.166  1.00  0.00     0.059 A 
ATOM     86  C   UNL A   1      42.466  32.387  39.510  1.00  0.00     0.059 A 
ATOM     87  F   UNL A   1      43.146  32.556  37.291  1.00  0.00    -0.206 F 
ATOM     88  C   UNL A   1      41.487  32.493  40.490  1.00  0.00     0.060 A 
BRANCH  88  89
ATOM     89  S   UNL A   1      41.807  31.897  42.169  1.00  0.00     0.124 S 
ATOM     90  O   UNL A   1      40.459  31.628  42.659  1.00  0.00    -0.237 OA
ATOM     91  O   UNL A   1      42.645  30.727  41.933  1.00  0.00    -0.237 OA
ATOM     92  O   UNL A   1      42.479  33.024  42.814  1.00  0.00    -0.744 OA
ENDBRANCH  88  89
ENDBRANCH  56  81
BRANCH  68  93
ATOM     93  C   UNL A   1      37.229  32.452  32.693  1.00  0.00     0.058 A 
ATOM     94  C   UNL A   1      37.454  33.840  32.623  1.00  0.00     0.135 A 
ATOM     95  C   UNL A   1      35.910  32.012  32.504  1.00  0.00     0.135 A 
ATOM     96  F   UNL A   1      38.693  34.343  32.691  1.00  0.00    -0.206 F 
ATOM     97  C   UNL A   1      36.411  34.747  32.415  1.00  0.00     0.059 A 
ATOM     98  C   UNL A   1      34.861  32.896  32.263  1.00  0.00     0.059 A 
ATOM     99  F   UNL A   1      35.635  30.698  32.499  1.00  0.00    -0.206 F 
ATOM    100  C   UNL A   1      35.116  34.264  32.234  1.00  0.00     0.060 A 
BRANCH 100 101
ATOM    101  S   UNL A   1      33.778  35.428  31.894  1.00  0.00     0.124 S 
ATOM    102  O   UNL A   1      32.636  34.778  32.524  1.00  0.00    -0.237 OA
ATOM    103  O   UNL A   1      34.248  36.651  32.538  1.00  0.00    -0.237 OA
ATOM    104  O   UNL A   1      33.736  35.483  30.434  1.00  0.00    -0.744 OA
ENDBRANCH 100 101
ENDBRANCH  68  93
ENDBRANCH  42  43
ENDBRANCH  34  37
ENDBRANCH  32  33
ENDBRANCH  31  32
ENDBRANCH  30  31
ENDBRANCH   1  30
TORSDOF 21
ENDMDL
MODEL 2
REMARK VINA RESULT:      -8.5      5.135     10.257
REMARK SMILES COc1ccc(-c2ncn(CC(=O)NCCCCCCNC(=O)c3ccc(-c4c5nc(c(-c6c(F)cc(S(=O)(=O)[O-])cc6F)c6ccc([nH]6)c(-c6c(F)cc(S(=O)(=O)[O-])cc6F)c6nc(c(-c7c(F)cc(S(=O)(=O)[O-])cc7F)c7ccc4[nH]7)C=C6)C=C5)cc3)c2-c2ccc(OC)cc2)cc1
REMARK SMILES IDX 17 1 16 2 15 3 14 4 12 5 13 6 11 8 10 9 7 10 8 11 90 12 9 13
REMARK SMILES IDX 6 14 3 15 4 16 100 17 5 18 99 19 2 20 1 21 91 22 92 23 98 24
REMARK SMILES IDX 93 25 97 26 94 27 95 28 96 29 18 30 19 31 20 32 21 33 22 34
REMARK SMILES IDX 23 36 24 37 25 38 89 39 26 40 88 41 27 42 28 43 29 44 82 45
REMARK SMILES IDX 30 46 87 47 81 48 83 49 31 50 86 51 80 52 79 53 32 55 66 56
REMARK SMILES IDX 45 57 65 58 46 59 49 60 64 61 84 62 47 63 48 64 63 66 85 67
REMARK SMILES IDX 50 68 33 69 34 70 43 71 35 72 36 73 42 74 44 75 37 76 38 77
REMARK SMILES IDX 39 78 40 79 41 80 67 81 68 82 77 83 69 84 70 85 76 86 78 87
REMARK SMILES IDX 71 88 72 89 73 90 74 91 75 92 51 93 52 94 61 95 53 96 54 97
REMARK SMILES IDX 60 98 62 99 55 100 56 101 57 102 58 103 59 104
REMARK H PARENT 14 7 21 35 83 54 49 65
REMARK Flexibility Score: inf
ROOT
ATOM      1  C   UNL A   1      43.310  40.624  29.495  1.00  0.00     0.002 C 
ENDROOT
BRANCH   1   2
ATOM      2  C   UNL A   1      43.803  42.072  29.613  1.00  0.00     0.021 C 
BRANCH   2   3
ATOM      3  C   UNL A   1      45.164  42.341  28.972  1.00  0.00     0.116 C 
BRANCH   3   4
ATOM      4  N   UNL A   1      45.218  43.621  28.294  1.00  0.00    -0.355 N 
ATOM      5  C   UNL A   1      45.427  43.901  26.975  1.00  0.00     0.239 C 
ATOM      6  O   UNL A   1      45.274  45.072  26.614  1.00  0.00    -0.273 OA
ATOM      7  H   UNL A   1      45.084  44.407  28.872  1.00  0.00     0.163 HD
BRANCH   5   8
ATOM      8  C   UNL A   1      45.740  42.809  25.971  1.00  0.00     0.223 C 
BRANCH   8   9
ATOM      9  N   UNL A   1      44.691  42.560  25.000  1.00  0.00    -0.321 N 
ATOM     10  C   UNL A   1      43.421  42.466  23.235  1.00  0.00     0.096 A 
ATOM     11  N   UNL A   1      42.766  41.771  24.218  1.00  0.00    -0.236 NA
ATOM     12  C   UNL A   1      44.604  43.021  23.707  1.00  0.00     0.076 A 
ATOM     13  C   UNL A   1      43.532  41.880  25.276  1.00  0.00     0.201 A 
BRANCH  10  14
ATOM     14  C   UNL A   1      42.900  42.698  21.905  1.00  0.00     0.003 A 
ATOM     15  C   UNL A   1      42.003  43.522  19.380  1.00  0.00     0.118 A 
ATOM     16  C   UNL A   1      43.291  43.005  19.536  1.00  0.00     0.047 A 
ATOM     17  C   UNL A   1      41.153  43.583  20.485  1.00  0.00     0.047 A 
ATOM     18  C   UNL A   1      43.744  42.604  20.792  1.00  0.00     0.014 A 
ATOM     19  C   UNL A   1      41.591  43.149  21.741  1.00  0.00     0.014 A 
BRANCH  15  20
ATOM     20  O   UNL A   1      41.700  43.908  18.104  1.00  0.00    -0.497 OA
ATOM     21  C   UNL A   1      42.788  44.359  17.304  1.00  0.00     0.278 C 
ENDBRANCH  15  20
ENDBRANCH  10  14
BRANCH  12  22
ATOM     22  C   UNL A   1      45.498  43.982  23.068  1.00  0.00     0.001 A 
ATOM     23  C   UNL A   1      46.793  43.638  22.683  1.00  0.00     0.014 A 
ATOM     24  C   UNL A   1      45.012  45.258  22.759  1.00  0.00     0.014 A 
ATOM     25  C   UNL A   1      47.604  44.575  22.039  1.00  0.00     0.047 A 
ATOM     26  C   UNL A   1      45.816  46.186  22.092  1.00  0.00     0.047 A 
ATOM     27  C   UNL A   1      47.120  45.849  21.735  1.00  0.00     0.118 A 
BRANCH  27  28
ATOM     28  O   UNL A   1      48.011  46.668  21.094  1.00  0.00    -0.497 OA
ATOM     29  C   UNL A   1      49.257  46.083  20.740  1.00  0.00     0.278 C 
ENDBRANCH  27  28
ENDBRANCH  12  22
ENDBRANCH   8   9
ENDBRANCH   5   8
ENDBRANCH   3   4
ENDBRANCH   2   3
ENDBRANCH   1   2
BRANCH   1  30
ATOM     30  C   UNL A   1      42.370  40.316  28.319  1.00  0.00     0.002 C 
BRANCH  30  31
ATOM     31  C   UNL A   1      41.906  38.858  28.168  1.00  0.00     0.021 C 
BRANCH  31  32
ATOM     32  C   UNL A   1      42.345  38.195  26.872  1.00  0.00     0.116 C 
BRANCH  32  33
ATOM     33  N   UNL A   1      43.799  38.131  26.734  1.00  0.00    -0.352 N 
ATOM     34  C   UNL A   1      44.701  37.455  27.539  1.00  0.00     0.251 C 
ATOM     35  H   UNL A   1      44.184  38.631  25.978  1.00  0.00     0.163 HD
ATOM     36  O   UNL A   1      45.876  37.778  27.567  1.00  0.00    -0.269 OA
BRANCH  34  37
ATOM     37  C   UNL A   1      44.203  36.334  28.360  1.00  0.00     0.039 A 
ATOM     38  C   UNL A   1      44.157  36.410  29.754  1.00  0.00     0.014 A 
ATOM     39  C   UNL A   1      43.733  35.207  27.695  1.00  0.00     0.014 A 
ATOM     40  C   UNL A   1      43.551  35.371  30.461  1.00  0.00     0.010 A 
ATOM     41  C   UNL A   1      42.982  34.282  28.372  1.00  0.00     0.010 A 
ATOM     42  C   UNL A   1      42.941  34.317  29.760  1.00  0.00    -0.014 A 
BRANCH  42  43
ATOM     43  C   UNL A   1      42.167  33.293  30.461  1.00  0.00     0.031 A 
ATOM     44  C   UNL A   1      42.710  31.910  30.337  1.00  0.00     0.074 A 
ATOM     45  C   UNL A   1      41.172  33.579  31.332  1.00  0.00     0.049 A 
ATOM     46  N   UNL A   1      42.196  30.911  29.701  1.00  0.00    -0.248 NA
ATOM     47  C   UNL A   1      44.062  31.646  30.860  1.00  0.00     0.031 C 
ATOM     48  C   UNL A   1      40.726  34.891  31.822  1.00  0.00     0.029 A 
ATOM     49  N   UNL A   1      40.403  32.725  32.059  1.00  0.00    -0.354 N 
ATOM     50  C   UNL A   1      43.037  29.826  29.946  1.00  0.00     0.074 A 
ATOM     51  C   UNL A   1      44.252  30.380  30.483  1.00  0.00     0.031 C 
ATOM     52  C   UNL A   1      39.961  34.733  32.925  1.00  0.00     0.029 A 
ATOM     53  C   UNL A   1      39.700  33.318  33.104  1.00  0.00     0.049 A 
ATOM     54  H   UNL A   1      40.347  31.763  31.861  1.00  0.00     0.167 HD
ATOM     55  C   UNL A   1      42.569  28.547  29.914  1.00  0.00     0.037 A 
ATOM     56  C   UNL A   1      38.971  32.685  34.058  1.00  0.00     0.037 A 
ATOM     57  C   UNL A   1      41.288  28.479  29.252  1.00  0.00     0.049 A 
ATOM     58  C   UNL A   1      38.652  31.335  33.532  1.00  0.00     0.074 A 
ATOM     59  C   UNL A   1      40.823  28.830  27.997  1.00  0.00     0.029 A 
ATOM     60  N   UNL A   1      40.167  28.356  30.038  1.00  0.00    -0.354 N 
ATOM     61  N   UNL A   1      37.868  31.120  32.511  1.00  0.00    -0.248 NA
ATOM     62  C   UNL A   1      39.573  30.256  33.853  1.00  0.00     0.031 C 
ATOM     63  C   UNL A   1      39.532  29.391  28.229  1.00  0.00     0.029 A 
ATOM     64  C   UNL A   1      39.255  29.279  29.591  1.00  0.00     0.049 A 
ATOM     65  H   UNL A   1      40.042  27.724  30.782  1.00  0.00     0.167 HD
ATOM     66  C   UNL A   1      38.484  30.097  31.806  1.00  0.00     0.074 A 
ATOM     67  C   UNL A   1      39.480  29.548  32.724  1.00  0.00     0.031 C 
ATOM     68  C   UNL A   1      38.328  29.978  30.454  1.00  0.00     0.037 A 
BRANCH  55  69
ATOM     69  C   UNL A   1      43.075  27.423  30.794  1.00  0.00     0.058 A 
ATOM     70  C   UNL A   1      43.052  27.582  32.197  1.00  0.00     0.135 A 
ATOM     71  C   UNL A   1      43.834  26.328  30.323  1.00  0.00     0.135 A 
ATOM     72  F   UNL A   1      42.366  28.589  32.761  1.00  0.00    -0.206 F 
ATOM     73  C   UNL A   1      43.795  26.769  33.055  1.00  0.00     0.059 A 
ATOM     74  C   UNL A   1      44.536  25.473  31.165  1.00  0.00     0.059 A 
ATOM     75  F   UNL A   1      44.014  26.087  29.020  1.00  0.00    -0.206 F 
ATOM     76  C   UNL A   1      44.548  25.727  32.526  1.00  0.00     0.060 A 
BRANCH  76  77
ATOM     77  S   UNL A   1      45.591  24.743  33.617  1.00  0.00     0.124 S 
ATOM     78  O   UNL A   1      45.222  25.272  34.925  1.00  0.00    -0.237 OA
ATOM     79  O   UNL A   1      45.140  23.387  33.322  1.00  0.00    -0.237 OA
ATOM     80  O   UNL A   1      46.942  25.059  33.163  1.00  0.00    -0.744 OA
ENDBRANCH  76  77
ENDBRANCH  55  69
BRANCH  56  81
ATOM     81  C   UNL A   1      38.860  33.011  35.504  1.00  0.00     0.058 A 
ATOM     82  C   UNL A   1      37.607  33.235  36.105  1.00  0.00     0.135 A 
ATOM     83  C   UNL A   1      39.937  32.780  36.378  1.00  0.00     0.135 A 
ATOM     84  F   UNL A   1      36.521  33.434  35.343  1.00  0.00    -0.206 F 
ATOM     85  C   UNL A   1      37.421  33.182  37.493  1.00  0.00     0.059 A 
ATOM     86  C   UNL A   1      39.768  32.703  37.759  1.00  0.00     0.059 A 
ATOM     87  F   UNL A   1      41.165  32.515  35.908  1.00  0.00    -0.206 F 
ATOM     88  C   UNL A   1      38.508  32.892  38.313  1.00  0.00     0.060 A 
BRANCH  88  89
ATOM     89  S   UNL A   1      38.249  32.664  40.091  1.00  0.00     0.124 S 
ATOM     90  O   UNL A   1      37.086  31.782  40.118  1.00  0.00    -0.237 OA
ATOM     91  O   UNL A   1      39.509  32.069  40.519  1.00  0.00    -0.237 OA
ATOM     92  O   UNL A   1      38.002  34.018  40.581  1.00  0.00    -0.744 OA
ENDBRANCH  88  89
ENDBRANCH  56  81
BRANCH  68  93
ATOM     93  C   UNL A   1      37.255  30.798  29.781  1.00  0.00     0.058 A 
ATOM     94  C   UNL A   1      35.928  30.377  29.578  1.00  0.00     0.135 A 
ATOM     95  C   UNL A   1      37.555  32.130  29.459  1.00  0.00     0.135 A 
ATOM     96  F   UNL A   1      35.527  29.154  29.951  1.00  0.00    -0.206 F 
ATOM     97  C   UNL A   1      34.957  31.228  29.043  1.00  0.00     0.059 A 
ATOM     98  C   UNL A   1      36.596  33.005  28.954  1.00  0.00     0.059 A 
ATOM     99  F   UNL A   1      38.788  32.615  29.683  1.00  0.00    -0.206 F 
ATOM    100  C   UNL A   1      35.301  32.543  28.735  1.00  0.00     0.060 A 
BRANCH 100 101
ATOM    101  S   UNL A   1      34.031  33.665  28.111  1.00  0.00     0.124 S 
ATOM    102  O   UNL A   1      33.129  32.754  27.415  1.00  0.00    -0.237 OA
ATOM    103  O   UNL A   1      33.507  34.266  29.334  1.00  0.00    -0.237 OA
ATOM    104  O   UNL A   1      34.778  34.580  27.250  1.00  0.00    -0.744 OA
ENDBRANCH 100 101
ENDBRANCH  68  93
ENDBRANCH  42  43
ENDBRANCH  34  37
ENDBRANCH  32  33
ENDBRANCH  31  32
ENDBRANCH  30  31
ENDBRANCH   1  30
TORSDOF 21
ENDMDL
MODEL 3
REMARK VINA RESULT:      -8.5      2.835      7.279
REMARK SMILES COc1ccc(-c2ncn(CC(=O)NCCCCCCNC(=O)c3ccc(-c4c5nc(c(-c6c(F)cc(S(=O)(=O)[O-])cc6F)c6ccc([nH]6)c(-c6c(F)cc(S(=O)(=O)[O-])cc6F)c6nc(c(-c7c(F)cc(S(=O)(=O)[O-])cc7F)c7ccc4[nH]7)C=C6)C=C5)cc3)c2-c2ccc(OC)cc2)cc1
REMARK SMILES IDX 17 1 16 2 15 3 14 4 12 5 13 6 11 8 10 9 7 10 8 11 90 12 9 13
REMARK SMILES IDX 6 14 3 15 4 16 100 17 5 18 99 19 2 20 1 21 91 22 92 23 98 24
REMARK SMILES IDX 93 25 97 26 94 27 95 28 96 29 18 30 19 31 20 32 21 33 22 34
REMARK SMILES IDX 23 36 24 37 25 38 89 39 26 40 88 41 27 42 28 43 29 44 82 45
REMARK SMILES IDX 30 46 87 47 81 48 83 49 31 50 86 51 80 52 79 53 32 55 66 56
REMARK SMILES IDX 45 57 65 58 46 59 49 60 64 61 84 62 47 63 48 64 63 66 85 67
REMARK SMILES IDX 50 68 33 69 34 70 43 71 35 72 36 73 42 74 44 75 37 76 38 77
REMARK SMILES IDX 39 78 40 79 41 80 67 81 68 82 77 83 69 84 70 85 76 86 78 87
REMARK SMILES IDX 71 88 72 89 73 90 74 91 75 92 51 93 52 94 61 95 53 96 54 97
REMARK SMILES IDX 60 98 62 99 55 100 56 101 57 102 58 103 59 104
REMARK H PARENT 14 7 21 35 83 54 49 65
REMARK Flexibility Score: inf
ROOT
ATOM      1  C   UNL A   1      45.480  26.479  31.068  1.00  0.00     0.002 C 
ENDROOT
BRANCH   1   2
ATOM      2  C   UNL A   1      45.076  27.511  30.007  1.00  0.00     0.021 C 
BRANCH   2   3
ATOM      3  C   UNL A   1      43.771  27.201  29.275  1.00  0.00     0.116 C 
BRANCH   3   4
ATOM      4  N   UNL A   1      43.223  28.359  28.598  1.00  0.00    -0.355 N 
ATOM      5  C   UNL A   1      43.409  28.789  27.316  1.00  0.00     0.239 C 
ATOM      6  O   UNL A   1      42.706  29.726  26.925  1.00  0.00    -0.273 OA
ATOM      7  H   UNL A   1      42.626  28.920  29.144  1.00  0.00     0.163 HD
BRANCH   5   8
ATOM      8  C   UNL A   1      44.369  28.087  26.375  1.00  0.00     0.223 C 
BRANCH   8   9
ATOM      9  N   UNL A   1      43.879  26.834  25.832  1.00  0.00    -0.321 N 
ATOM     10  C   UNL A   1      43.583  24.768  25.215  1.00  0.00     0.096 A 
ATOM     11  N   UNL A   1      42.495  25.466  24.759  1.00  0.00    -0.236 NA
ATOM     12  C   UNL A   1      44.497  25.605  25.843  1.00  0.00     0.076 A 
ATOM     13  C   UNL A   1      42.721  26.709  25.108  1.00  0.00     0.201 A 
BRANCH  10  14
ATOM     14  C   UNL A   1      43.817  23.361  24.976  1.00  0.00     0.003 A 
ATOM     15  C   UNL A   1      44.587  20.675  24.742  1.00  0.00     0.118 A 
ATOM     16  C   UNL A   1      43.684  21.065  25.733  1.00  0.00     0.047 A 
ATOM     17  C   UNL A   1      45.068  21.627  23.843  1.00  0.00     0.047 A 
ATOM     18  C   UNL A   1      43.306  22.402  25.858  1.00  0.00     0.014 A 
ATOM     19  C   UNL A   1      44.665  22.964  23.942  1.00  0.00     0.014 A 
BRANCH  15  20
ATOM     20  O   UNL A   1      44.897  19.343  24.752  1.00  0.00    -0.497 OA
ATOM     21  C   UNL A   1      46.022  18.963  25.537  1.00  0.00     0.278 C 
ENDBRANCH  15  20
ENDBRANCH  10  14
BRANCH  12  22
ATOM     22  C   UNL A   1      45.855  25.323  26.294  1.00  0.00     0.001 A 
ATOM     23  C   UNL A   1      46.972  25.691  25.544  1.00  0.00     0.014 A 
ATOM     24  C   UNL A   1      46.044  24.743  27.554  1.00  0.00     0.014 A 
ATOM     25  C   UNL A   1      48.257  25.438  26.030  1.00  0.00     0.047 A 
ATOM     26  C   UNL A   1      47.330  24.513  28.050  1.00  0.00     0.047 A 
ATOM     27  C   UNL A   1      48.444  24.855  27.285  1.00  0.00     0.118 A 
BRANCH  27  28
ATOM     28  O   UNL A   1      49.751  24.671  27.648  1.00  0.00    -0.497 OA
ATOM     29  C   UNL A   1      50.725  25.293  26.820  1.00  0.00     0.278 C 
ENDBRANCH  27  28
ENDBRANCH  12  22
ENDBRANCH   8   9
ENDBRANCH   5   8
ENDBRANCH   3   4
ENDBRANCH   2   3
ENDBRANCH   1   2
BRANCH   1  30
ATOM     30  C   UNL A   1      44.534  25.283  31.254  1.00  0.00     0.002 C 
BRANCH  30  31
ATOM     31  C   UNL A   1      44.944  24.232  32.298  1.00  0.00     0.021 C 
BRANCH  31  32
ATOM     32  C   UNL A   1      43.857  23.898  33.308  1.00  0.00     0.116 C 
BRANCH  32  33
ATOM     33  N   UNL A   1      44.388  23.665  34.650  1.00  0.00    -0.352 N 
ATOM     34  C   UNL A   1      44.791  24.607  35.583  1.00  0.00     0.251 C 
ATOM     35  H   UNL A   1      44.469  22.723  34.925  1.00  0.00     0.163 HD
ATOM     36  O   UNL A   1      45.556  24.307  36.483  1.00  0.00    -0.269 OA
BRANCH  34  37
ATOM     37  C   UNL A   1      44.270  25.983  35.456  1.00  0.00     0.039 A 
ATOM     38  C   UNL A   1      44.959  26.965  34.740  1.00  0.00     0.014 A 
ATOM     39  C   UNL A   1      43.038  26.262  36.038  1.00  0.00     0.014 A 
ATOM     40  C   UNL A   1      44.348  28.204  34.547  1.00  0.00     0.010 A 
ATOM     41  C   UNL A   1      42.368  27.407  35.693  1.00  0.00     0.010 A 
ATOM     42  C   UNL A   1      43.037  28.411  35.006  1.00  0.00    -0.014 A 
BRANCH  42  43
ATOM     43  C   UNL A   1      42.311  29.641  34.689  1.00  0.00     0.031 A 
ATOM     44  C   UNL A   1      41.450  29.560  33.475  1.00  0.00     0.074 A 
ATOM     45  C   UNL A   1      42.239  30.699  35.530  1.00  0.00     0.049 A 
ATOM     46  N   UNL A   1      41.616  30.160  32.344  1.00  0.00    -0.248 NA
ATOM     47  C   UNL A   1      40.352  28.578  33.468  1.00  0.00     0.031 C 
ATOM     48  C   UNL A   1      42.752  30.822  36.902  1.00  0.00     0.029 A 
ATOM     49  N   UNL A   1      41.581  31.877  35.363  1.00  0.00    -0.354 N 
ATOM     50  C   UNL A   1      40.512  29.821  31.564  1.00  0.00     0.074 A 
ATOM     51  C   UNL A   1      39.889  28.704  32.222  1.00  0.00     0.031 C 
ATOM     52  C   UNL A   1      42.177  31.882  37.513  1.00  0.00     0.029 A 
ATOM     53  C   UNL A   1      41.417  32.623  36.526  1.00  0.00     0.049 A 
ATOM     54  H   UNL A   1      41.249  32.180  34.487  1.00  0.00     0.167 HD
ATOM     55  C   UNL A   1      40.065  30.645  30.574  1.00  0.00     0.037 A 
ATOM     56  C   UNL A   1      40.689  33.761  36.669  1.00  0.00     0.037 A 
ATOM     57  C   UNL A   1      41.063  31.629  30.229  1.00  0.00     0.049 A 
ATOM     58  C   UNL A   1      40.508  34.330  35.310  1.00  0.00     0.074 A 
ATOM     59  C   UNL A   1      42.371  31.572  29.784  1.00  0.00     0.029 A 
ATOM     60  N   UNL A   1      40.893  32.908  30.705  1.00  0.00    -0.354 N 
ATOM     61  N   UNL A   1      41.483  34.809  34.589  1.00  0.00    -0.248 NA
ATOM     62  C   UNL A   1      39.316  33.939  34.575  1.00  0.00     0.031 C 
ATOM     63  C   UNL A   1      43.041  32.623  30.479  1.00  0.00     0.029 A 
ATOM     64  C   UNL A   1      42.092  33.304  31.241  1.00  0.00     0.049 A 
ATOM     65  H   UNL A   1      40.065  33.440  30.669  1.00  0.00     0.167 HD
ATOM     66  C   UNL A   1      41.210  34.378  33.299  1.00  0.00     0.074 A 
ATOM     67  C   UNL A   1      39.821  33.923  33.338  1.00  0.00     0.031 C 
ATOM     68  C   UNL A   1      42.212  34.165  32.397  1.00  0.00     0.037 A 
BRANCH  55  69
ATOM     69  C   UNL A   1      38.612  30.806  30.178  1.00  0.00     0.058 A 
ATOM     70  C   UNL A   1      38.247  30.670  28.821  1.00  0.00     0.135 A 
ATOM     71  C   UNL A   1      37.620  31.361  31.017  1.00  0.00     0.135 A 
ATOM     72  F   UNL A   1      39.109  30.156  27.928  1.00  0.00    -0.206 F 
ATOM     73  C   UNL A   1      37.027  31.129  28.323  1.00  0.00     0.059 A 
ATOM     74  C   UNL A   1      36.377  31.774  30.551  1.00  0.00     0.059 A 
ATOM     75  F   UNL A   1      37.837  31.622  32.310  1.00  0.00    -0.206 F 
ATOM     76  C   UNL A   1      36.105  31.696  29.196  1.00  0.00     0.060 A 
BRANCH  76  77
ATOM     77  S   UNL A   1      34.574  32.387  28.543  1.00  0.00     0.124 S 
ATOM     78  O   UNL A   1      33.975  32.951  29.747  1.00  0.00    -0.237 OA
ATOM     79  O   UNL A   1      35.071  33.347  27.564  1.00  0.00    -0.237 OA
ATOM     80  O   UNL A   1      33.895  31.224  27.981  1.00  0.00    -0.744 OA
ENDBRANCH  76  77
ENDBRANCH  55  69
BRANCH  56  81
ATOM     81  C   UNL A   1      39.837  34.176  37.814  1.00  0.00     0.058 A 
ATOM     82  C   UNL A   1      38.842  33.322  38.327  1.00  0.00     0.135 A 
ATOM     83  C   UNL A   1      40.204  35.262  38.627  1.00  0.00     0.135 A 
ATOM     84  F   UNL A   1      38.454  32.245  37.628  1.00  0.00    -0.206 F 
ATOM     85  C   UNL A   1      38.278  33.506  39.596  1.00  0.00     0.059 A 
ATOM     86  C   UNL A   1      39.671  35.449  39.901  1.00  0.00     0.059 A 
ATOM     87  F   UNL A   1      41.171  36.112  38.251  1.00  0.00    -0.206 F 
ATOM     88  C   UNL A   1      38.717  34.564  40.388  1.00  0.00     0.060 A 
BRANCH  88  89
ATOM     89  S   UNL A   1      38.114  34.716  42.088  1.00  0.00     0.124 S 
ATOM     90  O   UNL A   1      38.640  36.019  42.482  1.00  0.00    -0.237 OA
ATOM     91  O   UNL A   1      36.668  34.638  41.917  1.00  0.00    -0.237 OA
ATOM     92  O   UNL A   1      38.722  33.578  42.774  1.00  0.00    -0.744 OA
ENDBRANCH  88  89
ENDBRANCH  56  81
BRANCH  68  93
ATOM     93  C   UNL A   1      43.594  34.673  32.729  1.00  0.00     0.058 A 
ATOM     94  C   UNL A   1      44.546  33.975  33.495  1.00  0.00     0.135 A 
ATOM     95  C   UNL A   1      44.020  35.861  32.116  1.00  0.00     0.135 A 
ATOM     96  F   UNL A   1      44.259  32.783  34.033  1.00  0.00    -0.206 F 
ATOM     97  C   UNL A   1      45.846  34.456  33.676  1.00  0.00     0.059 A 
ATOM     98  C   UNL A   1      45.319  36.343  32.256  1.00  0.00     0.059 A 
ATOM     99  F   UNL A   1      43.180  36.547  31.323  1.00  0.00    -0.206 F 
ATOM    100  C   UNL A   1      46.224  35.643  33.049  1.00  0.00     0.060 A 
BRANCH 100 101
ATOM    101  S   UNL A   1      47.923  36.230  33.222  1.00  0.00     0.124 S 
ATOM    102  O   UNL A   1      48.078  36.303  34.670  1.00  0.00    -0.237 OA
ATOM    103  O   UNL A   1      48.692  35.184  32.553  1.00  0.00    -0.237 OA
ATOM    104  O   UNL A   1      47.910  37.518  32.531  1.00  0.00    -0.744 OA
ENDBRANCH 100 101
ENDBRANCH  68  93
ENDBRANCH  42  43
ENDBRANCH  34  37
ENDBRANCH  32  33
ENDBRANCH  31  32
ENDBRANCH  30  31
ENDBRANCH   1  30
TORSDOF 21
ENDMDL
