MODEL 1
REMARK VINA RESULT:     -11.7      0.000      0.000
REMARK SMILES CC[C@@](C)(NC(=O)c1cccc2ccccc12)C(=O)NCCCCCCNC(=O)c1ccc(-c2c3nc(c(-c4c(F)cc(S(=O)(=O)[O-])cc4F)c4ccc([nH]4)c(-c4c(F)cc(S(=O)(=O)[O-])cc4F)c4nc(c(-c5c(F)cc(S(=O)(=O)[O-])cc5F)c5ccc2[nH]5)C=C4)C=C3)cc1
REMARK SMILES IDX 24 1 23 2 22 3 21 4 20 5 18 6 19 7 3 9 4 10 2 11 1 12 5 13
REMARK SMILES IDX 6 14 7 16 8 17 9 18 17 19 10 20 12 21 16 22 11 23 13 24
REMARK SMILES IDX 15 25 14 26 25 27 26 28 27 29 28 30 29 32 30 33 31 34 95 35
REMARK SMILES IDX 32 36 94 37 33 38 34 39 35 40 88 41 36 42 93 43 87 44 89 45
REMARK SMILES IDX 37 46 92 47 86 48 85 49 38 51 72 52 51 53 71 54 52 55 55 56
REMARK SMILES IDX 70 57 90 58 53 59 54 60 69 62 91 63 56 64 39 65 40 66 49 67
REMARK SMILES IDX 41 68 42 69 48 70 50 71 43 72 44 73 45 74 46 75 47 76 73 77
REMARK SMILES IDX 74 78 83 79 75 80 76 81 82 82 84 83 77 84 78 85 79 86 80 87
REMARK SMILES IDX 81 88 57 89 58 90 67 91 59 92 60 93 66 94 68 95 61 96 62 97
REMARK SMILES IDX 63 98 64 99 65 100
REMARK H PARENT 20 8 5 15 27 31 89 50 55 61
REMARK Flexibility Score: inf
ROOT
ATOM      1  C   UNL A   1      35.147  31.447  27.636  1.00  0.00     0.002 C 
ENDROOT
BRANCH   1   2
ATOM      2  C   UNL A   1      33.631  31.283  27.627  1.00  0.00     0.002 C 
BRANCH   2   3
ATOM      3  C   UNL A   1      33.099  29.918  27.187  1.00  0.00     0.021 C 
BRANCH   3   4
ATOM      4  C   UNL A   1      32.364  29.842  25.847  1.00  0.00     0.116 C 
BRANCH   4   5
ATOM      5  N   UNL A   1      33.186  29.700  24.658  1.00  0.00    -0.354 N 
ATOM      6  C   UNL A   1      33.344  28.690  23.746  1.00  0.00     0.245 C 
ATOM      7  O   UNL A   1      33.976  28.988  22.727  1.00  0.00    -0.272 OA
ATOM      8  H   UNL A   1      33.744  30.490  24.469  1.00  0.00     0.163 HD
BRANCH   6   9
ATOM      9  C   UNL A   1      32.708  27.276  23.934  1.00  0.00     0.116 C 
ATOM     10  C   UNL A   1      33.640  26.600  24.979  1.00  0.00     0.045 C 
BRANCH   9  11
ATOM     11  C   UNL A   1      31.267  27.265  24.526  1.00  0.00     0.035 C 
ATOM     12  C   UNL A   1      30.938  26.255  25.617  1.00  0.00     0.007 C 
ENDBRANCH   9  11
BRANCH   9  13
ATOM     13  N   UNL A   1      32.664  26.417  22.707  1.00  0.00    -0.338 N 
ATOM     14  C   UNL A   1      33.022  25.115  22.375  1.00  0.00     0.252 C 
ATOM     15  H   UNL A   1      32.282  26.899  21.938  1.00  0.00     0.164 HD
ATOM     16  O   UNL A   1      33.275  24.976  21.175  1.00  0.00    -0.269 OA
BRANCH  14  17
ATOM     17  C   UNL A   1      33.017  23.895  23.285  1.00  0.00     0.047 A 
ATOM     18  C   UNL A   1      31.808  23.281  23.609  1.00  0.00     0.014 A 
ATOM     19  C   UNL A   1      34.218  23.212  23.698  1.00  0.00    -0.006 A 
ATOM     20  C   UNL A   1      31.699  22.065  24.273  1.00  0.00     0.001 A 
ATOM     21  C   UNL A   1      34.091  21.954  24.373  1.00  0.00    -0.018 A 
ATOM     22  C   UNL A   1      35.552  23.650  23.488  1.00  0.00     0.009 A 
ATOM     23  C   UNL A   1      32.843  21.401  24.649  1.00  0.00     0.009 A 
ATOM     24  C   UNL A   1      35.212  21.211  24.763  1.00  0.00     0.009 A 
ATOM     25  C   UNL A   1      36.667  22.895  23.884  1.00  0.00     0.001 A 
ATOM     26  C   UNL A   1      36.496  21.673  24.516  1.00  0.00     0.001 A 
ENDBRANCH  14  17
ENDBRANCH   9  13
ENDBRANCH   6   9
ENDBRANCH   4   5
ENDBRANCH   3   4
ENDBRANCH   2   3
ENDBRANCH   1   2
BRANCH   1  27
ATOM     27  C   UNL A   1      35.643  32.808  28.114  1.00  0.00     0.021 C 
BRANCH  27  28
ATOM     28  C   UNL A   1      36.503  32.761  29.370  1.00  0.00     0.116 C 
BRANCH  28  29
ATOM     29  N   UNL A   1      36.051  31.747  30.311  1.00  0.00    -0.352 N 
ATOM     30  C   UNL A   1      36.657  30.559  30.637  1.00  0.00     0.251 C 
ATOM     31  H   UNL A   1      35.202  31.938  30.772  1.00  0.00     0.163 HD
ATOM     32  O   UNL A   1      36.060  29.710  31.294  1.00  0.00    -0.269 OA
BRANCH  30  33
ATOM     33  C   UNL A   1      38.034  30.308  30.164  1.00  0.00     0.039 A 
ATOM     34  C   UNL A   1      39.071  30.208  31.093  1.00  0.00     0.014 A 
ATOM     35  C   UNL A   1      38.281  30.118  28.801  1.00  0.00     0.014 A 
ATOM     36  C   UNL A   1      40.349  29.855  30.657  1.00  0.00     0.010 A 
ATOM     37  C   UNL A   1      39.534  29.685  28.382  1.00  0.00     0.010 A 
ATOM     38  C   UNL A   1      40.584  29.556  29.304  1.00  0.00    -0.014 A 
BRANCH  38  39
ATOM     39  C   UNL A   1      41.921  29.118  28.830  1.00  0.00     0.031 A 
ATOM     40  C   UNL A   1      43.039  30.119  28.712  1.00  0.00     0.074 A 
ATOM     41  C   UNL A   1      42.113  27.839  28.449  1.00  0.00     0.049 A 
ATOM     42  N   UNL A   1      44.255  29.950  28.263  1.00  0.00    -0.248 NA
ATOM     43  C   UNL A   1      42.741  31.501  29.126  1.00  0.00     0.031 C 
ATOM     44  C   UNL A   1      41.094  26.788  28.470  1.00  0.00     0.029 A 
ATOM     45  N   UNL A   1      43.230  27.205  27.963  1.00  0.00    -0.354 N 
ATOM     46  C   UNL A   1      44.861  31.200  28.330  1.00  0.00     0.074 A 
ATOM     47  C   UNL A   1      43.860  32.130  28.803  1.00  0.00     0.031 C 
ATOM     48  C   UNL A   1      41.637  25.637  28.041  1.00  0.00     0.029 A 
ATOM     49  C   UNL A   1      43.030  25.875  27.677  1.00  0.00     0.049 A 
ATOM     50  H   UNL A   1      44.092  27.661  27.831  1.00  0.00     0.167 HD
ATOM     51  C   UNL A   1      46.142  31.536  28.047  1.00  0.00     0.037 A 
ATOM     52  C   UNL A   1      43.873  24.953  27.170  1.00  0.00     0.037 A 
ATOM     53  C   UNL A   1      47.138  30.599  27.598  1.00  0.00     0.049 A 
ATOM     54  C   UNL A   1      45.291  25.352  26.858  1.00  0.00     0.074 A 
ATOM     55  C   UNL A   1      48.477  30.827  27.339  1.00  0.00     0.029 A 
ATOM     56  N   UNL A   1      46.902  29.256  27.336  1.00  0.00    -0.354 N 
ATOM     57  N   UNL A   1      45.865  26.525  26.992  1.00  0.00    -0.248 NA
ATOM     58  C   UNL A   1      46.177  24.304  26.333  1.00  0.00     0.031 C 
ATOM     59  C   UNL A   1      49.040  29.635  26.871  1.00  0.00     0.029 A 
ATOM     60  C   UNL A   1      48.066  28.649  26.897  1.00  0.00     0.049 A 
ATOM     61  H   UNL A   1      46.035  28.803  27.448  1.00  0.00     0.167 HD
ATOM     62  C   UNL A   1      47.187  26.348  26.597  1.00  0.00     0.074 A 
ATOM     63  C   UNL A   1      47.329  24.954  26.230  1.00  0.00     0.031 C 
ATOM     64  C   UNL A   1      48.193  27.256  26.544  1.00  0.00     0.037 A 
BRANCH  51  65
ATOM     65  C   UNL A   1      46.540  32.978  28.221  1.00  0.00     0.058 A 
ATOM     66  C   UNL A   1      47.074  33.456  29.428  1.00  0.00     0.135 A 
ATOM     67  C   UNL A   1      46.417  33.886  27.157  1.00  0.00     0.135 A 
ATOM     68  F   UNL A   1      47.199  32.637  30.485  1.00  0.00    -0.206 F 
ATOM     69  C   UNL A   1      47.444  34.788  29.584  1.00  0.00     0.059 A 
ATOM     70  C   UNL A   1      46.810  35.215  27.280  1.00  0.00     0.059 A 
ATOM     71  F   UNL A   1      45.912  33.483  25.979  1.00  0.00    -0.206 F 
ATOM     72  C   UNL A   1      47.310  35.661  28.503  1.00  0.00     0.060 A 
BRANCH  72  73
ATOM     73  S   UNL A   1      47.803  37.383  28.721  1.00  0.00     0.124 S 
ATOM     74  O   UNL A   1      49.174  37.359  28.219  1.00  0.00    -0.237 OA
ATOM     75  O   UNL A   1      46.836  38.092  27.889  1.00  0.00    -0.237 OA
ATOM     76  O   UNL A   1      47.666  37.596  30.159  1.00  0.00    -0.744 OA
ENDBRANCH  72  73
ENDBRANCH  51  65
BRANCH  52  77
ATOM     77  C   UNL A   1      43.405  23.557  26.947  1.00  0.00     0.058 A 
ATOM     78  C   UNL A   1      43.266  22.661  28.017  1.00  0.00     0.135 A 
ATOM     79  C   UNL A   1      43.079  23.095  25.662  1.00  0.00     0.135 A 
ATOM     80  F   UNL A   1      43.571  23.053  29.263  1.00  0.00    -0.206 F 
ATOM     81  C   UNL A   1      42.839  21.351  27.822  1.00  0.00     0.059 A 
ATOM     82  C   UNL A   1      42.622  21.798  25.446  1.00  0.00     0.059 A 
ATOM     83  F   UNL A   1      43.178  23.916  24.605  1.00  0.00    -0.206 F 
ATOM     84  C   UNL A   1      42.515  20.930  26.531  1.00  0.00     0.060 A 
BRANCH  84  85
ATOM     85  S   UNL A   1      41.918  19.242  26.295  1.00  0.00     0.124 S 
ATOM     86  O   UNL A   1      42.898  18.712  25.355  1.00  0.00    -0.237 OA
ATOM     87  O   UNL A   1      41.976  18.705  27.651  1.00  0.00    -0.237 OA
ATOM     88  O   UNL A   1      40.572  19.435  25.764  1.00  0.00    -0.744 OA
ENDBRANCH  84  85
ENDBRANCH  52  77
BRANCH  64  89
ATOM     89  C   UNL A   1      49.549  26.768  26.111  1.00  0.00     0.058 A 
ATOM     90  C   UNL A   1      49.996  26.897  24.787  1.00  0.00     0.135 A 
ATOM     91  C   UNL A   1      50.435  26.216  27.051  1.00  0.00     0.135 A 
ATOM     92  F   UNL A   1      49.186  27.412  23.848  1.00  0.00    -0.206 F 
ATOM     93  C   UNL A   1      51.264  26.472  24.405  1.00  0.00     0.059 A 
ATOM     94  C   UNL A   1      51.719  25.814  26.697  1.00  0.00     0.059 A 
ATOM     95  F   UNL A   1      50.062  26.080  28.334  1.00  0.00    -0.206 F 
ATOM     96  C   UNL A   1      52.120  25.936  25.368  1.00  0.00     0.060 A 
BRANCH  96  97
ATOM     97  S   UNL A   1      53.776  25.424  24.864  1.00  0.00     0.124 S 
ATOM     98  O   UNL A   1      53.681  23.972  24.978  1.00  0.00    -0.237 OA
ATOM     99  O   UNL A   1      53.865  25.949  23.506  1.00  0.00    -0.237 OA
ATOM    100  O   UNL A   1      54.645  26.074  25.840  1.00  0.00    -0.744 OA
ENDBRANCH  96  97
ENDBRANCH  64  89
ENDBRANCH  38  39
ENDBRANCH  30  33
ENDBRANCH  28  29
ENDBRANCH  27  28
ENDBRANCH   1  27
TORSDOF 19
ENDMDL
MODEL 2
REMARK VINA RESULT:     -11.5      6.193      8.519
REMARK SMILES CC[C@@](C)(NC(=O)c1cccc2ccccc12)C(=O)NCCCCCCNC(=O)c1ccc(-c2c3nc(c(-c4c(F)cc(S(=O)(=O)[O-])cc4F)c4ccc([nH]4)c(-c4c(F)cc(S(=O)(=O)[O-])cc4F)c4nc(c(-c5c(F)cc(S(=O)(=O)[O-])cc5F)c5ccc2[nH]5)C=C4)C=C3)cc1
REMARK SMILES IDX 24 1 23 2 22 3 21 4 20 5 18 6 19 7 3 9 4 10 2 11 1 12 5 13
REMARK SMILES IDX 6 14 7 16 8 17 9 18 17 19 10 20 12 21 16 22 11 23 13 24
REMARK SMILES IDX 15 25 14 26 25 27 26 28 27 29 28 30 29 32 30 33 31 34 95 35
REMARK SMILES IDX 32 36 94 37 33 38 34 39 35 40 88 41 36 42 93 43 87 44 89 45
REMARK SMILES IDX 37 46 92 47 86 48 85 49 38 51 72 52 51 53 71 54 52 55 55 56
REMARK SMILES IDX 70 57 90 58 53 59 54 60 69 62 91 63 56 64 39 65 40 66 49 67
REMARK SMILES IDX 41 68 42 69 48 70 50 71 43 72 44 73 45 74 46 75 47 76 73 77
REMARK SMILES IDX 74 78 83 79 75 80 76 81 82 82 84 83 77 84 78 85 79 86 80 87
REMARK SMILES IDX 81 88 57 89 58 90 67 91 59 92 60 93 66 94 68 95 61 96 62 97
REMARK SMILES IDX 63 98 64 99 65 100
REMARK H PARENT 20 8 5 15 27 31 89 50 55 61
REMARK Flexibility Score: inf
ROOT
ATOM      1  C   UNL A   1      31.647  30.736  26.868  1.00  0.00     0.002 C 
ENDROOT
BRANCH   1   2
ATOM      2  C   UNL A   1      32.950  29.972  27.073  1.00  0.00     0.002 C 
BRANCH   2   3
ATOM      3  C   UNL A   1      32.824  28.464  27.300  1.00  0.00     0.021 C 
BRANCH   3   4
ATOM      4  C   UNL A   1      31.454  27.825  27.067  1.00  0.00     0.116 C 
BRANCH   4   5
ATOM      5  N   UNL A   1      31.442  26.419  26.697  1.00  0.00    -0.354 N 
ATOM      6  C   UNL A   1      31.814  25.749  25.563  1.00  0.00     0.245 C 
ATOM      7  O   UNL A   1      31.869  24.519  25.665  1.00  0.00    -0.272 OA
ATOM      8  H   UNL A   1      31.096  25.829  27.406  1.00  0.00     0.163 HD
BRANCH   6   9
ATOM      9  C   UNL A   1      32.220  26.481  24.243  1.00  0.00     0.116 C 
ATOM     10  C   UNL A   1      31.063  27.499  24.029  1.00  0.00     0.045 C 
BRANCH   9  11
ATOM     11  C   UNL A   1      33.546  27.297  24.312  1.00  0.00     0.035 C 
ATOM     12  C   UNL A   1      33.641  28.596  23.524  1.00  0.00     0.007 C 
ENDBRANCH   9  11
BRANCH   9  13
ATOM     13  N   UNL A   1      32.324  25.613  23.026  1.00  0.00    -0.338 N 
ATOM     14  C   UNL A   1      33.216  24.665  22.538  1.00  0.00     0.252 C 
ATOM     15  H   UNL A   1      31.564  25.749  22.415  1.00  0.00     0.164 HD
ATOM     16  O   UNL A   1      33.188  24.565  21.309  1.00  0.00    -0.269 OA
BRANCH  14  17
ATOM     17  C   UNL A   1      34.089  23.715  23.347  1.00  0.00     0.047 A 
ATOM     18  C   UNL A   1      35.218  24.203  24.001  1.00  0.00     0.014 A 
ATOM     19  C   UNL A   1      33.718  22.351  23.631  1.00  0.00    -0.006 A 
ATOM     20  C   UNL A   1      35.975  23.472  24.909  1.00  0.00     0.001 A 
ATOM     21  C   UNL A   1      34.501  21.612  24.576  1.00  0.00    -0.018 A 
ATOM     22  C   UNL A   1      32.618  21.642  23.077  1.00  0.00     0.009 A 
ATOM     23  C   UNL A   1      35.611  22.179  25.199  1.00  0.00     0.009 A 
ATOM     24  C   UNL A   1      34.175  20.299  24.938  1.00  0.00     0.009 A 
ATOM     25  C   UNL A   1      32.303  20.327  23.448  1.00  0.00     0.001 A 
ATOM     26  C   UNL A   1      33.078  19.658  24.383  1.00  0.00     0.001 A 
ENDBRANCH  14  17
ENDBRANCH   9  13
ENDBRANCH   6   9
ENDBRANCH   4   5
ENDBRANCH   3   4
ENDBRANCH   2   3
ENDBRANCH   1   2
BRANCH   1  27
ATOM     27  C   UNL A   1      31.807  32.242  26.687  1.00  0.00     0.021 C 
BRANCH  27  28
ATOM     28  C   UNL A   1      32.898  32.869  27.545  1.00  0.00     0.116 C 
BRANCH  28  29
ATOM     29  N   UNL A   1      32.637  34.272  27.832  1.00  0.00    -0.352 N 
ATOM     30  C   UNL A   1      33.163  35.048  28.835  1.00  0.00     0.251 C 
ATOM     31  H   UNL A   1      32.001  34.721  27.228  1.00  0.00     0.163 HD
ATOM     32  O   UNL A   1      32.697  36.158  29.079  1.00  0.00    -0.269 OA
BRANCH  30  33
ATOM     33  C   UNL A   1      34.285  34.514  29.634  1.00  0.00     0.039 A 
ATOM     34  C   UNL A   1      34.026  33.925  30.872  1.00  0.00     0.014 A 
ATOM     35  C   UNL A   1      35.587  34.553  29.124  1.00  0.00     0.014 A 
ATOM     36  C   UNL A   1      35.069  33.316  31.573  1.00  0.00     0.010 A 
ATOM     37  C   UNL A   1      36.605  33.874  29.784  1.00  0.00     0.010 A 
ATOM     38  C   UNL A   1      36.359  33.254  31.018  1.00  0.00    -0.014 A 
BRANCH  38  39
ATOM     39  C   UNL A   1      37.469  32.558  31.718  1.00  0.00     0.031 A 
ATOM     40  C   UNL A   1      37.971  33.085  33.036  1.00  0.00     0.074 A 
ATOM     41  C   UNL A   1      38.061  31.493  31.143  1.00  0.00     0.049 A 
ATOM     42  N   UNL A   1      38.965  32.658  33.771  1.00  0.00    -0.248 NA
ATOM     43  C   UNL A   1      37.284  34.266  33.586  1.00  0.00     0.031 C 
ATOM     44  C   UNL A   1      37.697  30.919  29.846  1.00  0.00     0.029 A 
ATOM     45  N   UNL A   1      39.102  30.705  31.570  1.00  0.00    -0.354 N 
ATOM     46  C   UNL A   1      39.029  33.522  34.859  1.00  0.00     0.074 A 
ATOM     47  C   UNL A   1      38.015  34.533  34.657  1.00  0.00     0.031 C 
ATOM     48  C   UNL A   1      38.483  29.860  29.594  1.00  0.00     0.029 A 
ATOM     49  C   UNL A   1      39.433  29.701  30.692  1.00  0.00     0.049 A 
ATOM     50  H   UNL A   1      39.568  30.847  32.426  1.00  0.00     0.167 HD
ATOM     51  C   UNL A   1      39.841  33.462  35.941  1.00  0.00     0.037 A 
ATOM     52  C   UNL A   1      40.399  28.763  30.758  1.00  0.00     0.037 A 
ATOM     53  C   UNL A   1      40.832  32.438  36.146  1.00  0.00     0.049 A 
ATOM     54  C   UNL A   1      41.294  28.720  31.968  1.00  0.00     0.074 A 
ATOM     55  C   UNL A   1      41.666  32.255  37.233  1.00  0.00     0.029 A 
ATOM     56  N   UNL A   1      41.126  31.428  35.240  1.00  0.00    -0.354 N 
ATOM     57  N   UNL A   1      41.295  29.505  33.020  1.00  0.00    -0.248 NA
ATOM     58  C   UNL A   1      42.313  27.663  32.004  1.00  0.00     0.031 C 
ATOM     59  C   UNL A   1      42.500  31.165  36.964  1.00  0.00     0.029 A 
ATOM     60  C   UNL A   1      42.145  30.632  35.735  1.00  0.00     0.049 A 
ATOM     61  H   UNL A   1      40.676  31.296  34.375  1.00  0.00     0.167 HD
ATOM     62  C   UNL A   1      42.294  29.017  33.857  1.00  0.00     0.074 A 
ATOM     63  C   UNL A   1      42.866  27.863  33.194  1.00  0.00     0.031 C 
ATOM     64  C   UNL A   1      42.698  29.480  35.066  1.00  0.00     0.037 A 
BRANCH  51  65
ATOM     65  C   UNL A   1      39.688  34.531  36.990  1.00  0.00     0.058 A 
ATOM     66  C   UNL A   1      38.913  34.329  38.143  1.00  0.00     0.135 A 
ATOM     67  C   UNL A   1      40.349  35.763  36.856  1.00  0.00     0.135 A 
ATOM     68  F   UNL A   1      38.244  33.178  38.317  1.00  0.00    -0.206 F 
ATOM     69  C   UNL A   1      38.776  35.318  39.112  1.00  0.00     0.059 A 
ATOM     70  C   UNL A   1      40.252  36.755  37.827  1.00  0.00     0.059 A 
ATOM     71  F   UNL A   1      41.103  36.011  35.772  1.00  0.00    -0.206 F 
ATOM     72  C   UNL A   1      39.452  36.528  38.946  1.00  0.00     0.060 A 
BRANCH  72  73
ATOM     73  S   UNL A   1      39.270  37.797  40.217  1.00  0.00     0.124 S 
ATOM     74  O   UNL A   1      38.195  38.614  39.661  1.00  0.00    -0.237 OA
ATOM     75  O   UNL A   1      38.923  37.009  41.395  1.00  0.00    -0.237 OA
ATOM     76  O   UNL A   1      40.584  38.431  40.255  1.00  0.00    -0.744 OA
ENDBRANCH  72  73
ENDBRANCH  51  65
BRANCH  52  77
ATOM     77  C   UNL A   1      40.555  27.774  29.656  1.00  0.00     0.058 A 
ATOM     78  C   UNL A   1      41.601  27.884  28.728  1.00  0.00     0.135 A 
ATOM     79  C   UNL A   1      39.668  26.696  29.514  1.00  0.00     0.135 A 
ATOM     80  F   UNL A   1      42.472  28.900  28.816  1.00  0.00    -0.206 F 
ATOM     81  C   UNL A   1      41.753  26.973  27.687  1.00  0.00     0.059 A 
ATOM     82  C   UNL A   1      39.816  25.755  28.499  1.00  0.00     0.059 A 
ATOM     83  F   UNL A   1      38.659  26.534  30.385  1.00  0.00    -0.206 F 
ATOM     84  C   UNL A   1      40.856  25.908  27.583  1.00  0.00     0.060 A 
BRANCH  84  85
ATOM     85  S   UNL A   1      41.089  24.705  26.257  1.00  0.00     0.124 S 
ATOM     86  O   UNL A   1      41.143  25.567  25.083  1.00  0.00    -0.237 OA
ATOM     87  O   UNL A   1      42.346  24.067  26.641  1.00  0.00    -0.237 OA
ATOM     88  O   UNL A   1      39.907  23.855  26.364  1.00  0.00    -0.744 OA
ENDBRANCH  84  85
ENDBRANCH  52  77
BRANCH  64  89
ATOM     89  C   UNL A   1      43.787  28.719  35.773  1.00  0.00     0.058 A 
ATOM     90  C   UNL A   1      43.503  27.648  36.634  1.00  0.00     0.135 A 
ATOM     91  C   UNL A   1      45.136  29.030  35.538  1.00  0.00     0.135 A 
ATOM     92  F   UNL A   1      42.230  27.312  36.898  1.00  0.00    -0.206 F 
ATOM     93  C   UNL A   1      44.518  26.929  37.258  1.00  0.00     0.059 A 
ATOM     94  C   UNL A   1      46.167  28.305  36.125  1.00  0.00     0.059 A 
ATOM     95  F   UNL A   1      45.464  30.039  34.714  1.00  0.00    -0.206 F 
ATOM     96  C   UNL A   1      45.847  27.262  36.994  1.00  0.00     0.060 A 
BRANCH  96  97
ATOM     97  S   UNL A   1      47.154  26.297  37.781  1.00  0.00     0.124 S 
ATOM     98  O   UNL A   1      46.587  26.061  39.104  1.00  0.00    -0.237 OA
ATOM     99  O   UNL A   1      47.245  25.129  36.912  1.00  0.00    -0.237 OA
ATOM    100  O   UNL A   1      48.307  27.191  37.743  1.00  0.00    -0.744 OA
ENDBRANCH  96  97
ENDBRANCH  64  89
ENDBRANCH  38  39
ENDBRANCH  30  33
ENDBRANCH  28  29
ENDBRANCH  27  28
ENDBRANCH   1  27
TORSDOF 19
ENDMDL
MODEL 3
REMARK VINA RESULT:     -11.5      6.407     12.067
REMARK SMILES CC[C@@](C)(NC(=O)c1cccc2ccccc12)C(=O)NCCCCCCNC(=O)c1ccc(-c2c3nc(c(-c4c(F)cc(S(=O)(=O)[O-])cc4F)c4ccc([nH]4)c(-c4c(F)cc(S(=O)(=O)[O-])cc4F)c4nc(c(-c5c(F)cc(S(=O)(=O)[O-])cc5F)c5ccc2[nH]5)C=C4)C=C3)cc1
REMARK SMILES IDX 24 1 23 2 22 3 21 4 20 5 18 6 19 7 3 9 4 10 2 11 1 12 5 13
REMARK SMILES IDX 6 14 7 16 8 17 9 18 17 19 10 20 12 21 16 22 11 23 13 24
REMARK SMILES IDX 15 25 14 26 25 27 26 28 27 29 28 30 29 32 30 33 31 34 95 35
REMARK SMILES IDX 32 36 94 37 33 38 34 39 35 40 88 41 36 42 93 43 87 44 89 45
REMARK SMILES IDX 37 46 92 47 86 48 85 49 38 51 72 52 51 53 71 54 52 55 55 56
REMARK SMILES IDX 70 57 90 58 53 59 54 60 69 62 91 63 56 64 39 65 40 66 49 67
REMARK SMILES IDX 41 68 42 69 48 70 50 71 43 72 44 73 45 74 46 75 47 76 73 77
REMARK SMILES IDX 74 78 83 79 75 80 76 81 82 82 84 83 77 84 78 85 79 86 80 87
REMARK SMILES IDX 81 88 57 89 58 90 67 91 59 92 60 93 66 94 68 95 61 96 62 97
REMARK SMILES IDX 63 98 64 99 65 100
REMARK H PARENT 20 8 5 15 27 31 89 50 55 61
REMARK Flexibility Score: inf
ROOT
ATOM      1  C   UNL A   1      38.893  21.490  26.006  1.00  0.00     0.002 C 
ENDROOT
BRANCH   1   2
ATOM      2  C   UNL A   1      37.880  22.601  25.753  1.00  0.00     0.002 C 
BRANCH   2   3
ATOM      3  C   UNL A   1      36.417  22.171  25.631  1.00  0.00     0.021 C 
BRANCH   3   4
ATOM      4  C   UNL A   1      35.346  23.257  25.755  1.00  0.00     0.116 C 
BRANCH   4   5
ATOM      5  N   UNL A   1      35.105  24.075  24.578  1.00  0.00    -0.354 N 
ATOM      6  C   UNL A   1      34.000  24.285  23.798  1.00  0.00     0.245 C 
ATOM      7  O   UNL A   1      34.088  25.217  22.991  1.00  0.00    -0.272 OA
ATOM      8  H   UNL A   1      35.897  24.579  24.281  1.00  0.00     0.163 HD
BRANCH   6   9
ATOM      9  C   UNL A   1      32.682  23.461  23.959  1.00  0.00     0.116 C 
ATOM     10  C   UNL A   1      31.829  23.909  22.738  1.00  0.00     0.045 C 
BRANCH   9  11
ATOM     11  C   UNL A   1      32.846  21.914  23.864  1.00  0.00     0.035 C 
ATOM     12  C   UNL A   1      32.317  21.057  25.006  1.00  0.00     0.007 C 
ENDBRANCH   9  11
BRANCH   9  13
ATOM     13  N   UNL A   1      31.901  23.724  25.210  1.00  0.00    -0.338 N 
ATOM     14  C   UNL A   1      31.785  24.765  26.124  1.00  0.00     0.252 C 
ATOM     15  H   UNL A   1      31.320  22.965  25.444  1.00  0.00     0.164 HD
ATOM     16  O   UNL A   1      31.423  24.386  27.242  1.00  0.00    -0.269 OA
BRANCH  14  17
ATOM     17  C   UNL A   1      31.941  26.255  25.854  1.00  0.00     0.047 A 
ATOM     18  C   UNL A   1      33.072  26.925  26.316  1.00  0.00     0.014 A 
ATOM     19  C   UNL A   1      31.065  26.995  24.980  1.00  0.00    -0.006 A 
ATOM     20  C   UNL A   1      33.406  28.230  25.972  1.00  0.00     0.001 A 
ATOM     21  C   UNL A   1      31.426  28.336  24.626  1.00  0.00    -0.018 A 
ATOM     22  C   UNL A   1      29.857  26.524  24.399  1.00  0.00     0.009 A 
ATOM     23  C   UNL A   1      32.584  28.931  25.121  1.00  0.00     0.009 A 
ATOM     24  C   UNL A   1      30.650  29.101  23.746  1.00  0.00     0.009 A 
ATOM     25  C   UNL A   1      29.089  27.301  23.519  1.00  0.00     0.001 A 
ATOM     26  C   UNL A   1      29.489  28.587  23.188  1.00  0.00     0.001 A 
ENDBRANCH  14  17
ENDBRANCH   9  13
ENDBRANCH   6   9
ENDBRANCH   4   5
ENDBRANCH   3   4
ENDBRANCH   2   3
ENDBRANCH   1   2
BRANCH   1  27
ATOM     27  C   UNL A   1      40.051  21.872  26.920  1.00  0.00     0.021 C 
BRANCH  27  28
ATOM     28  C   UNL A   1      40.256  23.372  27.087  1.00  0.00     0.116 C 
BRANCH  28  29
ATOM     29  N   UNL A   1      41.199  23.912  26.119  1.00  0.00    -0.352 N 
ATOM     30  C   UNL A   1      41.641  25.206  25.990  1.00  0.00     0.251 C 
ATOM     31  H   UNL A   1      41.567  23.266  25.473  1.00  0.00     0.163 HD
ATOM     32  O   UNL A   1      42.279  25.555  25.002  1.00  0.00    -0.269 OA
BRANCH  30  33
ATOM     33  C   UNL A   1      41.313  26.179  27.053  1.00  0.00     0.039 A 
ATOM     34  C   UNL A   1      40.403  25.825  28.050  1.00  0.00     0.014 A 
ATOM     35  C   UNL A   1      41.955  27.421  27.085  1.00  0.00     0.014 A 
ATOM     36  C   UNL A   1      40.183  26.698  29.118  1.00  0.00     0.010 A 
ATOM     37  C   UNL A   1      41.796  28.249  28.191  1.00  0.00     0.010 A 
ATOM     38  C   UNL A   1      40.904  27.900  29.215  1.00  0.00    -0.014 A 
BRANCH  38  39
ATOM     39  C   UNL A   1      40.731  28.813  30.374  1.00  0.00     0.031 A 
ATOM     40  C   UNL A   1      41.581  28.633  31.603  1.00  0.00     0.074 A 
ATOM     41  C   UNL A   1      39.772  29.760  30.345  1.00  0.00     0.049 A 
ATOM     42  N   UNL A   1      41.542  29.283  32.737  1.00  0.00    -0.248 NA
ATOM     43  C   UNL A   1      42.591  27.561  31.562  1.00  0.00     0.031 C 
ATOM     44  C   UNL A   1      38.851  29.999  29.232  1.00  0.00     0.029 A 
ATOM     45  N   UNL A   1      39.405  30.695  31.282  1.00  0.00    -0.354 N 
ATOM     46  C   UNL A   1      42.508  28.694  33.545  1.00  0.00     0.074 A 
ATOM     47  C   UNL A   1      43.073  27.594  32.795  1.00  0.00     0.031 C 
ATOM     48  C   UNL A   1      38.044  31.027  29.539  1.00  0.00     0.029 A 
ATOM     49  C   UNL A   1      38.360  31.495  30.885  1.00  0.00     0.049 A 
ATOM     50  H   UNL A   1      39.848  30.782  32.156  1.00  0.00     0.167 HD
ATOM     51  C   UNL A   1      42.906  29.053  34.789  1.00  0.00     0.037 A 
ATOM     52  C   UNL A   1      37.723  32.490  31.535  1.00  0.00     0.037 A 
ATOM     53  C   UNL A   1      42.354  30.163  35.519  1.00  0.00     0.049 A 
ATOM     54  C   UNL A   1      38.179  32.867  32.920  1.00  0.00     0.074 A 
ATOM     55  C   UNL A   1      42.725  30.645  36.761  1.00  0.00     0.029 A 
ATOM     56  N   UNL A   1      41.308  30.962  35.076  1.00  0.00    -0.354 N 
ATOM     57  N   UNL A   1      39.141  32.341  33.642  1.00  0.00    -0.248 NA
ATOM     58  C   UNL A   1      37.470  33.974  33.575  1.00  0.00     0.031 C 
ATOM     59  C   UNL A   1      41.871  31.702  37.092  1.00  0.00     0.029 A 
ATOM     60  C   UNL A   1      41.007  31.918  36.031  1.00  0.00     0.049 A 
ATOM     61  H   UNL A   1      40.849  30.863  34.211  1.00  0.00     0.167 HD
ATOM     62  C   UNL A   1      39.172  33.075  34.824  1.00  0.00     0.074 A 
ATOM     63  C   UNL A   1      38.141  34.086  34.714  1.00  0.00     0.031 C 
ATOM     64  C   UNL A   1      39.982  32.925  35.902  1.00  0.00     0.037 A 
BRANCH  51  65
ATOM     65  C   UNL A   1      43.995  28.239  35.436  1.00  0.00     0.058 A 
ATOM     66  C   UNL A   1      43.705  27.129  36.246  1.00  0.00     0.135 A 
ATOM     67  C   UNL A   1      45.346  28.553  35.218  1.00  0.00     0.135 A 
ATOM     68  F   UNL A   1      42.431  26.792  36.503  1.00  0.00    -0.206 F 
ATOM     69  C   UNL A   1      44.714  26.377  36.839  1.00  0.00     0.059 A 
ATOM     70  C   UNL A   1      46.372  27.796  35.775  1.00  0.00     0.059 A 
ATOM     71  F   UNL A   1      45.682  29.604  34.453  1.00  0.00    -0.206 F 
ATOM     72  C   UNL A   1      46.046  26.718  36.597  1.00  0.00     0.060 A 
BRANCH  72  73
ATOM     73  S   UNL A   1      47.342  25.726  37.368  1.00  0.00     0.124 S 
ATOM     74  O   UNL A   1      48.420  25.843  36.390  1.00  0.00    -0.237 OA
ATOM     75  O   UNL A   1      47.555  26.421  38.633  1.00  0.00    -0.237 OA
ATOM     76  O   UNL A   1      46.736  24.402  37.477  1.00  0.00    -0.744 OA
ENDBRANCH  72  73
ENDBRANCH  51  65
BRANCH  52  77
ATOM     77  C   UNL A   1      36.601  33.213  30.876  1.00  0.00     0.058 A 
ATOM     78  C   UNL A   1      36.841  34.142  29.854  1.00  0.00     0.135 A 
ATOM     79  C   UNL A   1      35.268  32.983  31.250  1.00  0.00     0.135 A 
ATOM     80  F   UNL A   1      38.098  34.402  29.464  1.00  0.00    -0.206 F 
ATOM     81  C   UNL A   1      35.803  34.832  29.236  1.00  0.00     0.059 A 
ATOM     82  C   UNL A   1      34.210  33.640  30.627  1.00  0.00     0.059 A 
ATOM     83  F   UNL A   1      34.981  32.092  32.212  1.00  0.00    -0.206 F 
ATOM     84  C   UNL A   1      34.488  34.571  29.627  1.00  0.00     0.060 A 
BRANCH  84  85
ATOM     85  S   UNL A   1      33.145  35.438  28.788  1.00  0.00     0.124 S 
ATOM     86  O   UNL A   1      32.531  34.358  28.024  1.00  0.00    -0.237 OA
ATOM     87  O   UNL A   1      32.365  35.952  29.910  1.00  0.00    -0.237 OA
ATOM     88  O   UNL A   1      33.841  36.452  28.001  1.00  0.00    -0.744 OA
ENDBRANCH  84  85
ENDBRANCH  52  77
BRANCH  64  89
ATOM     89  C   UNL A   1      39.817  33.900  37.036  1.00  0.00     0.058 A 
ATOM     90  C   UNL A   1      40.455  35.150  37.037  1.00  0.00     0.135 A 
ATOM     91  C   UNL A   1      38.961  33.601  38.108  1.00  0.00     0.135 A 
ATOM     92  F   UNL A   1      41.289  35.485  36.039  1.00  0.00    -0.206 F 
ATOM     93  C   UNL A   1      40.270  36.059  38.074  1.00  0.00     0.059 A 
ATOM     94  C   UNL A   1      38.737  34.507  39.139  1.00  0.00     0.059 A 
ATOM     95  F   UNL A   1      38.317  32.424  38.151  1.00  0.00    -0.206 F 
ATOM     96  C   UNL A   1      39.405  35.730  39.119  1.00  0.00     0.060 A 
BRANCH  96  97
ATOM     97  S   UNL A   1      39.146  36.933  40.439  1.00  0.00     0.124 S 
ATOM     98  O   UNL A   1      38.539  38.042  39.711  1.00  0.00    -0.237 OA
ATOM     99  O   UNL A   1      38.263  36.212  41.349  1.00  0.00    -0.237 OA
ATOM    100  O   UNL A   1      40.493  37.179  40.945  1.00  0.00    -0.744 OA
ENDBRANCH  96  97
ENDBRANCH  64  89
ENDBRANCH  38  39
ENDBRANCH  30  33
ENDBRANCH  28  29
ENDBRANCH  27  28
ENDBRANCH   1  27
TORSDOF 19
ENDMDL
