MODEL 1
REMARK VINA RESULT:      -9.9      0.000      0.000
REMARK SMILES COC(=O)[C@@H]1CCN(C(=O)NC(=O)COCC(=O)NCCCCCCNC(=O)c2ccc(-c3c4nc(c(-c5c(F)cc(S(=O)(=O)[O-])cc5F)c5ccc([nH]5)c(-c5c(F)cc(S(=O)(=O)[O-])cc5F)c5nc(c(-c6c(F)cc(S(=O)(=O)[O-])cc6F)c6ccc3[nH]6)C=C5)C=C4)cc2)C1
REMARK SMILES IDX 21 1 20 2 19 3 17 4 18 5 16 7 15 8 14 9 12 10 9 11 10 12
REMARK SMILES IDX 11 13 13 15 8 16 5 17 6 18 95 19 7 20 3 21 4 22 2 23 1 24
REMARK SMILES IDX 22 25 23 26 24 27 25 28 26 29 27 30 28 32 29 33 30 34 94 35
REMARK SMILES IDX 31 36 93 37 32 38 33 39 34 40 87 41 35 42 92 43 86 44 88 45
REMARK SMILES IDX 36 46 91 47 85 48 84 49 37 51 71 52 50 53 70 54 51 55 54 56
REMARK SMILES IDX 69 57 89 58 52 59 53 60 68 62 90 63 55 64 38 65 39 66 48 67
REMARK SMILES IDX 40 68 41 69 47 70 49 71 42 72 43 73 44 74 45 75 46 76 72 77
REMARK SMILES IDX 73 78 82 79 74 80 75 81 81 82 83 83 76 84 77 85 78 86 79 87
REMARK SMILES IDX 80 88 56 89 57 90 66 91 58 92 59 93 65 94 67 95 60 96 61 97
REMARK SMILES IDX 62 98 63 99 64 100
REMARK H PARENT 19 6 11 14 26 31 88 50 54 61
REMARK Flexibility Score: inf
ROOT
ATOM      1  C   UNL A   1      33.217  29.993  25.891  1.00  0.00     0.021 C 
ENDROOT
BRANCH   1   2
ATOM      2  C   UNL A   1      31.743  29.584  25.930  1.00  0.00     0.116 C 
BRANCH   2   3
ATOM      3  N   UNL A   1      31.527  28.390  26.725  1.00  0.00    -0.354 N 
ATOM      4  C   UNL A   1      31.552  27.084  26.324  1.00  0.00     0.246 C 
ATOM      5  O   UNL A   1      31.364  26.197  27.157  1.00  0.00    -0.272 OA
ATOM      6  H   UNL A   1      31.338  28.540  27.679  1.00  0.00     0.163 HD
BRANCH   4   7
ATOM      7  C   UNL A   1      31.821  26.761  24.852  1.00  0.00     0.260 C 
BRANCH   7   8
ATOM      8  O   UNL A   1      31.162  25.592  24.396  1.00  0.00    -0.362 OA
BRANCH   8   9
ATOM      9  C   UNL A   1      30.372  25.798  23.243  1.00  0.00     0.261 C 
BRANCH   9  10
ATOM     10  C   UNL A   1      30.977  26.807  22.287  1.00  0.00     0.254 C 
ATOM     11  C   UNL A   1      32.775  25.410  21.060  1.00  0.00     0.324 C 
ATOM     12  O   UNL A   1      33.058  25.392  19.857  1.00  0.00    -0.248 OA
ATOM     13  N   UNL A   1      32.072  26.503  21.501  1.00  0.00    -0.276 N 
ATOM     14  H   UNL A   1      32.472  27.329  21.145  1.00  0.00     0.174 HD
ATOM     15  O   UNL A   1      30.487  27.938  22.183  1.00  0.00    -0.272 OA
BRANCH  11  16
ATOM     16  N   UNL A   1      33.231  24.446  21.906  1.00  0.00    -0.324 N 
ATOM     17  C   UNL A   1      34.394  23.592  23.812  1.00  0.00     0.120 C 
ATOM     18  C   UNL A   1      33.165  22.732  23.529  1.00  0.00     0.039 C 
ATOM     19  C   UNL A   1      34.180  24.828  22.951  1.00  0.00     0.136 C 
ATOM     20  C   UNL A   1      32.812  23.072  22.088  1.00  0.00     0.122 C 
BRANCH  17  21
ATOM     21  C   UNL A   1      35.672  22.826  23.549  1.00  0.00     0.310 C 
ATOM     22  O   UNL A   1      36.477  23.168  22.690  1.00  0.00    -0.252 OA
BRANCH  21  23
ATOM     23  O   UNL A   1      35.861  21.785  24.399  1.00  0.00    -0.469 OA
ATOM     24  C   UNL A   1      36.620  22.115  25.566  1.00  0.00     0.282 C 
ENDBRANCH  21  23
ENDBRANCH  17  21
ENDBRANCH  11  16
ENDBRANCH   9  10
ENDBRANCH   8   9
ENDBRANCH   7   8
ENDBRANCH   4   7
ENDBRANCH   2   3
ENDBRANCH   1   2
BRANCH   1  25
ATOM     25  C   UNL A   1      33.964  29.816  27.218  1.00  0.00     0.002 C 
BRANCH  25  26
ATOM     26  C   UNL A   1      34.526  31.102  27.830  1.00  0.00     0.002 C 
BRANCH  26  27
ATOM     27  C   UNL A   1      33.479  32.144  28.230  1.00  0.00     0.021 C 
BRANCH  27  28
ATOM     28  C   UNL A   1      33.400  33.359  27.311  1.00  0.00     0.116 C 
BRANCH  28  29
ATOM     29  N   UNL A   1      32.870  34.531  27.992  1.00  0.00    -0.352 N 
ATOM     30  C   UNL A   1      33.189  35.050  29.223  1.00  0.00     0.251 C 
ATOM     31  H   UNL A   1      32.180  35.026  27.494  1.00  0.00     0.163 HD
ATOM     32  O   UNL A   1      32.493  35.937  29.708  1.00  0.00    -0.269 OA
BRANCH  30  33
ATOM     33  C   UNL A   1      34.354  34.528  29.970  1.00  0.00     0.039 A 
ATOM     34  C   UNL A   1      34.140  33.877  31.187  1.00  0.00     0.014 A 
ATOM     35  C   UNL A   1      35.653  34.688  29.481  1.00  0.00     0.014 A 
ATOM     36  C   UNL A   1      35.223  33.334  31.883  1.00  0.00     0.010 A 
ATOM     37  C   UNL A   1      36.722  34.080  30.136  1.00  0.00     0.010 A 
ATOM     38  C   UNL A   1      36.519  33.399  31.345  1.00  0.00    -0.014 A 
BRANCH  38  39
ATOM     39  C   UNL A   1      37.670  32.754  32.031  1.00  0.00     0.031 A 
ATOM     40  C   UNL A   1      38.340  31.552  31.421  1.00  0.00     0.074 A 
ATOM     41  C   UNL A   1      38.071  33.214  33.232  1.00  0.00     0.049 A 
ATOM     42  N   UNL A   1      39.315  30.820  31.897  1.00  0.00    -0.248 NA
ATOM     43  C   UNL A   1      37.833  31.097  30.116  1.00  0.00     0.031 C 
ATOM     44  C   UNL A   1      37.472  34.343  33.949  1.00  0.00     0.029 A 
ATOM     45  N   UNL A   1      39.071  32.785  34.070  1.00  0.00    -0.354 N 
ATOM     46  C   UNL A   1      39.531  29.816  30.959  1.00  0.00     0.074 A 
ATOM     47  C   UNL A   1      38.548  29.999  29.914  1.00  0.00     0.031 C 
ATOM     48  C   UNL A   1      38.129  34.531  35.104  1.00  0.00     0.029 A 
ATOM     49  C   UNL A   1      39.167  33.513  35.234  1.00  0.00     0.049 A 
ATOM     50  H   UNL A   1      39.665  32.029  33.857  1.00  0.00     0.167 HD
ATOM     51  C   UNL A   1      40.475  28.845  30.959  1.00  0.00     0.037 A 
ATOM     52  C   UNL A   1      39.989  33.370  36.292  1.00  0.00     0.037 A 
ATOM     53  C   UNL A   1      41.461  28.679  31.997  1.00  0.00     0.049 A 
ATOM     54  C   UNL A   1      41.021  32.274  36.275  1.00  0.00     0.074 A 
ATOM     55  C   UNL A   1      42.493  27.761  32.062  1.00  0.00     0.029 A 
ATOM     56  N   UNL A   1      41.532  29.443  33.153  1.00  0.00    -0.354 N 
ATOM     57  N   UNL A   1      41.254  31.374  35.348  1.00  0.00    -0.248 NA
ATOM     58  C   UNL A   1      41.906  32.176  37.443  1.00  0.00     0.031 C 
ATOM     59  C   UNL A   1      43.156  27.933  33.282  1.00  0.00     0.029 A 
ATOM     60  C   UNL A   1      42.576  28.999  33.950  1.00  0.00     0.049 A 
ATOM     61  H   UNL A   1      40.931  30.189  33.376  1.00  0.00     0.167 HD
ATOM     62  C   UNL A   1      42.331  30.624  35.808  1.00  0.00     0.074 A 
ATOM     63  C   UNL A   1      42.711  31.184  37.089  1.00  0.00     0.031 C 
ATOM     64  C   UNL A   1      42.949  29.569  35.221  1.00  0.00     0.037 A 
BRANCH  51  65
ATOM     65  C   UNL A   1      40.490  27.883  29.801  1.00  0.00     0.058 A 
ATOM     66  C   UNL A   1      41.439  27.981  28.770  1.00  0.00     0.135 A 
ATOM     67  C   UNL A   1      39.571  26.823  29.740  1.00  0.00     0.135 A 
ATOM     68  F   UNL A   1      42.333  28.983  28.768  1.00  0.00    -0.206 F 
ATOM     69  C   UNL A   1      41.457  27.084  27.707  1.00  0.00     0.059 A 
ATOM     70  C   UNL A   1      39.589  25.895  28.702  1.00  0.00     0.059 A 
ATOM     71  F   UNL A   1      38.640  26.678  30.698  1.00  0.00    -0.206 F 
ATOM     72  C   UNL A   1      40.527  26.043  27.682  1.00  0.00     0.060 A 
BRANCH  72  73
ATOM     73  S   UNL A   1      40.569  24.885  26.298  1.00  0.00     0.124 S 
ATOM     74  O   UNL A   1      41.099  25.729  25.230  1.00  0.00    -0.237 OA
ATOM     75  O   UNL A   1      41.467  23.845  26.788  1.00  0.00    -0.237 OA
ATOM     76  O   UNL A   1      39.174  24.485  26.145  1.00  0.00    -0.744 OA
ENDBRANCH  72  73
ENDBRANCH  51  65
BRANCH  52  77
ATOM     77  C   UNL A   1      39.881  34.300  37.450  1.00  0.00     0.058 A 
ATOM     78  C   UNL A   1      40.665  35.460  37.521  1.00  0.00     0.135 A 
ATOM     79  C   UNL A   1      38.984  34.053  38.500  1.00  0.00     0.135 A 
ATOM     80  F   UNL A   1      41.543  35.738  36.544  1.00  0.00    -0.206 F 
ATOM     81  C   UNL A   1      40.580  36.334  38.601  1.00  0.00     0.059 A 
ATOM     82  C   UNL A   1      38.859  34.927  39.576  1.00  0.00     0.059 A 
ATOM     83  F   UNL A   1      38.197  32.965  38.473  1.00  0.00    -0.206 F 
ATOM     84  C   UNL A   1      39.670  36.059  39.623  1.00  0.00     0.060 A 
BRANCH  84  85
ATOM     85  S   UNL A   1      39.532  37.224  40.996  1.00  0.00     0.124 S 
ATOM     86  O   UNL A   1      40.884  37.768  41.056  1.00  0.00    -0.237 OA
ATOM     87  O   UNL A   1      38.496  38.135  40.520  1.00  0.00    -0.237 OA
ATOM     88  O   UNL A   1      39.143  36.375  42.117  1.00  0.00    -0.744 OA
ENDBRANCH  84  85
ENDBRANCH  52  77
BRANCH  64  89
ATOM     89  C   UNL A   1      44.130  28.970  35.938  1.00  0.00     0.058 A 
ATOM     90  C   UNL A   1      44.004  27.841  36.761  1.00  0.00     0.135 A 
ATOM     91  C   UNL A   1      45.416  29.506  35.755  1.00  0.00     0.135 A 
ATOM     92  F   UNL A   1      42.797  27.292  36.976  1.00  0.00    -0.206 F 
ATOM     93  C   UNL A   1      45.106  27.279  37.398  1.00  0.00     0.059 A 
ATOM     94  C   UNL A   1      46.536  28.941  36.356  1.00  0.00     0.059 A 
ATOM     95  F   UNL A   1      45.596  30.580  34.969  1.00  0.00    -0.206 F 
ATOM     96  C   UNL A   1      46.369  27.834  37.187  1.00  0.00     0.060 A 
BRANCH  96  97
ATOM     97  S   UNL A   1      47.794  27.075  37.992  1.00  0.00     0.124 S 
ATOM     98  O   UNL A   1      47.236  26.707  39.291  1.00  0.00    -0.237 OA
ATOM     99  O   UNL A   1      48.103  25.964  37.098  1.00  0.00    -0.237 OA
ATOM    100  O   UNL A   1      48.784  28.148  38.016  1.00  0.00    -0.744 OA
ENDBRANCH  96  97
ENDBRANCH  64  89
ENDBRANCH  38  39
ENDBRANCH  30  33
ENDBRANCH  28  29
ENDBRANCH  27  28
ENDBRANCH  26  27
ENDBRANCH  25  26
ENDBRANCH   1  25
TORSDOF 22
ENDMDL
MODEL 2
REMARK VINA RESULT:      -9.7      2.568      8.944
REMARK SMILES COC(=O)[C@@H]1CCN(C(=O)NC(=O)COCC(=O)NCCCCCCNC(=O)c2ccc(-c3c4nc(c(-c5c(F)cc(S(=O)(=O)[O-])cc5F)c5ccc([nH]5)c(-c5c(F)cc(S(=O)(=O)[O-])cc5F)c5nc(c(-c6c(F)cc(S(=O)(=O)[O-])cc6F)c6ccc3[nH]6)C=C5)C=C4)cc2)C1
REMARK SMILES IDX 21 1 20 2 19 3 17 4 18 5 16 7 15 8 14 9 12 10 9 11 10 12
REMARK SMILES IDX 11 13 13 15 8 16 5 17 6 18 95 19 7 20 3 21 4 22 2 23 1 24
REMARK SMILES IDX 22 25 23 26 24 27 25 28 26 29 27 30 28 32 29 33 30 34 94 35
REMARK SMILES IDX 31 36 93 37 32 38 33 39 34 40 87 41 35 42 92 43 86 44 88 45
REMARK SMILES IDX 36 46 91 47 85 48 84 49 37 51 71 52 50 53 70 54 51 55 54 56
REMARK SMILES IDX 69 57 89 58 52 59 53 60 68 62 90 63 55 64 38 65 39 66 48 67
REMARK SMILES IDX 40 68 41 69 47 70 49 71 42 72 43 73 44 74 45 75 46 76 72 77
REMARK SMILES IDX 73 78 82 79 74 80 75 81 81 82 83 83 76 84 77 85 78 86 79 87
REMARK SMILES IDX 80 88 56 89 57 90 66 91 58 92 59 93 65 94 67 95 60 96 61 97
REMARK SMILES IDX 62 98 63 99 64 100
REMARK H PARENT 19 6 11 14 26 31 88 50 54 61
REMARK Flexibility Score: inf
ROOT
ATOM      1  C   UNL A   1      40.150  20.693  26.411  1.00  0.00     0.021 C 
ENDROOT
BRANCH   1   2
ATOM      2  C   UNL A   1      39.085  21.746  26.099  1.00  0.00     0.116 C 
BRANCH   2   3
ATOM      3  N   UNL A   1      38.093  21.261  25.158  1.00  0.00    -0.354 N 
ATOM      4  C   UNL A   1      36.759  21.549  25.103  1.00  0.00     0.246 C 
ATOM      5  O   UNL A   1      36.073  21.052  24.209  1.00  0.00    -0.272 OA
ATOM      6  H   UNL A   1      38.425  20.642  24.469  1.00  0.00     0.163 HD
BRANCH   4   7
ATOM      7  C   UNL A   1      36.156  22.490  26.150  1.00  0.00     0.260 C 
BRANCH   7   8
ATOM      8  O   UNL A   1      35.268  21.847  27.048  1.00  0.00    -0.362 OA
BRANCH   8   9
ATOM      9  C   UNL A   1      33.956  21.698  26.544  1.00  0.00     0.261 C 
BRANCH   9  10
ATOM     10  C   UNL A   1      32.929  22.481  27.339  1.00  0.00     0.254 C 
ATOM     11  C   UNL A   1      31.531  23.618  25.484  1.00  0.00     0.324 C 
ATOM     12  O   UNL A   1      30.304  23.751  25.407  1.00  0.00    -0.248 OA
ATOM     13  N   UNL A   1      32.032  23.338  26.730  1.00  0.00    -0.276 N 
ATOM     14  H   UNL A   1      31.626  23.934  27.400  1.00  0.00     0.174 HD
ATOM     15  O   UNL A   1      32.866  22.357  28.568  1.00  0.00    -0.272 OA
BRANCH  11  16
ATOM     16  N   UNL A   1      32.333  23.840  24.407  1.00  0.00    -0.324 N 
ATOM     17  C   UNL A   1      33.967  25.009  23.112  1.00  0.00     0.120 C 
ATOM     18  C   UNL A   1      34.092  23.507  22.868  1.00  0.00     0.039 C 
ATOM     19  C   UNL A   1      33.062  25.105  24.331  1.00  0.00     0.136 C 
ATOM     20  C   UNL A   1      32.757  22.952  23.343  1.00  0.00     0.122 C 
BRANCH  17  21
ATOM     21  C   UNL A   1      33.477  25.728  21.875  1.00  0.00     0.310 C 
ATOM     22  O   UNL A   1      33.620  26.935  21.718  1.00  0.00    -0.252 OA
BRANCH  21  23
ATOM     23  O   UNL A   1      32.940  24.897  20.946  1.00  0.00    -0.469 OA
ATOM     24  C   UNL A   1      32.554  25.549  19.733  1.00  0.00     0.282 C 
ENDBRANCH  21  23
ENDBRANCH  17  21
ENDBRANCH  11  16
ENDBRANCH   9  10
ENDBRANCH   8   9
ENDBRANCH   7   8
ENDBRANCH   4   7
ENDBRANCH   2   3
ENDBRANCH   1   2
BRANCH   1  25
ATOM     25  C   UNL A   1      40.985  20.982  27.664  1.00  0.00     0.002 C 
BRANCH  25  26
ATOM     26  C   UNL A   1      41.607  22.380  27.729  1.00  0.00     0.002 C 
BRANCH  26  27
ATOM     27  C   UNL A   1      43.088  22.452  27.351  1.00  0.00     0.021 C 
BRANCH  27  28
ATOM     28  C   UNL A   1      43.602  23.852  27.032  1.00  0.00     0.116 C 
BRANCH  28  29
ATOM     29  N   UNL A   1      42.862  24.476  25.945  1.00  0.00    -0.352 N 
ATOM     30  C   UNL A   1      41.984  25.532  25.973  1.00  0.00     0.251 C 
ATOM     31  H   UNL A   1      43.014  24.082  25.056  1.00  0.00     0.163 HD
ATOM     32  O   UNL A   1      41.310  25.789  24.981  1.00  0.00    -0.269 OA
BRANCH  30  33
ATOM     33  C   UNL A   1      41.836  26.342  27.203  1.00  0.00     0.039 A 
ATOM     34  C   UNL A   1      42.660  27.457  27.379  1.00  0.00     0.014 A 
ATOM     35  C   UNL A   1      40.901  26.000  28.183  1.00  0.00     0.014 A 
ATOM     36  C   UNL A   1      42.502  28.263  28.510  1.00  0.00     0.010 A 
ATOM     37  C   UNL A   1      40.693  26.847  29.270  1.00  0.00     0.010 A 
ATOM     38  C   UNL A   1      41.493  27.985  29.446  1.00  0.00    -0.014 A 
BRANCH  38  39
ATOM     39  C   UNL A   1      41.256  28.879  30.611  1.00  0.00     0.031 A 
ATOM     40  C   UNL A   1      42.096  28.745  31.854  1.00  0.00     0.074 A 
ATOM     41  C   UNL A   1      40.246  29.770  30.571  1.00  0.00     0.049 A 
ATOM     42  N   UNL A   1      42.001  29.391  32.988  1.00  0.00    -0.248 NA
ATOM     43  C   UNL A   1      43.167  27.736  31.827  1.00  0.00     0.031 C 
ATOM     44  C   UNL A   1      39.333  29.964  29.442  1.00  0.00     0.029 A 
ATOM     45  N   UNL A   1      39.809  30.675  31.507  1.00  0.00    -0.354 N 
ATOM     46  C   UNL A   1      42.988  28.861  33.811  1.00  0.00     0.074 A 
ATOM     47  C   UNL A   1      43.635  27.803  33.066  1.00  0.00     0.031 C 
ATOM     48  C   UNL A   1      38.461  30.939  29.742  1.00  0.00     0.029 A 
ATOM     49  C   UNL A   1      38.722  31.412  31.098  1.00  0.00     0.049 A 
ATOM     50  H   UNL A   1      40.234  30.786  32.388  1.00  0.00     0.167 HD
ATOM     51  C   UNL A   1      43.338  29.238  35.064  1.00  0.00     0.037 A 
ATOM     52  C   UNL A   1      38.008  32.355  31.744  1.00  0.00     0.037 A 
ATOM     53  C   UNL A   1      42.699  30.303  35.794  1.00  0.00     0.049 A 
ATOM     54  C   UNL A   1      38.408  32.746  33.142  1.00  0.00     0.074 A 
ATOM     55  C   UNL A   1      43.016  30.797  37.047  1.00  0.00     0.029 A 
ATOM     56  N   UNL A   1      41.610  31.034  35.340  1.00  0.00    -0.354 N 
ATOM     57  N   UNL A   1      39.388  32.281  33.880  1.00  0.00    -0.248 NA
ATOM     58  C   UNL A   1      37.610  33.794  33.793  1.00  0.00     0.031 C 
ATOM     59  C   UNL A   1      42.086  31.789  37.375  1.00  0.00     0.029 A 
ATOM     60  C   UNL A   1      41.227  31.958  36.301  1.00  0.00     0.049 A 
ATOM     61  H   UNL A   1      41.174  30.915  34.467  1.00  0.00     0.167 HD
ATOM     62  C   UNL A   1      39.343  33.000  35.069  1.00  0.00     0.074 A 
ATOM     63  C   UNL A   1      38.247  33.940  34.946  1.00  0.00     0.031 C 
ATOM     64  C   UNL A   1      40.138  32.894  36.163  1.00  0.00     0.037 A 
BRANCH  51  65
ATOM     65  C   UNL A   1      44.465  28.493  35.730  1.00  0.00     0.058 A 
ATOM     66  C   UNL A   1      45.803  28.894  35.586  1.00  0.00     0.135 A 
ATOM     67  C   UNL A   1      44.201  27.389  36.557  1.00  0.00     0.135 A 
ATOM     68  F   UNL A   1      46.117  29.934  34.797  1.00  0.00    -0.206 F 
ATOM     69  C   UNL A   1      46.841  28.210  36.212  1.00  0.00     0.059 A 
ATOM     70  C   UNL A   1      45.220  26.708  37.218  1.00  0.00     0.059 A 
ATOM     71  F   UNL A   1      42.941  26.960  36.733  1.00  0.00    -0.206 F 
ATOM     72  C   UNL A   1      46.539  27.117  37.026  1.00  0.00     0.060 A 
BRANCH  72  73
ATOM     73  S   UNL A   1      47.897  26.246  37.835  1.00  0.00     0.124 S 
ATOM     74  O   UNL A   1      48.644  25.743  36.685  1.00  0.00    -0.237 OA
ATOM     75  O   UNL A   1      48.544  27.311  38.594  1.00  0.00    -0.237 OA
ATOM     76  O   UNL A   1      47.222  25.229  38.636  1.00  0.00    -0.744 OA
ENDBRANCH  72  73
ENDBRANCH  51  65
BRANCH  52  77
ATOM     77  C   UNL A   1      36.852  33.006  31.069  1.00  0.00     0.058 A 
ATOM     78  C   UNL A   1      37.047  33.978  30.077  1.00  0.00     0.135 A 
ATOM     79  C   UNL A   1      35.531  32.662  31.394  1.00  0.00     0.135 A 
ATOM     80  F   UNL A   1      38.291  34.347  29.735  1.00  0.00    -0.206 F 
ATOM     81  C   UNL A   1      35.975  34.600  29.444  1.00  0.00     0.059 A 
ATOM     82  C   UNL A   1      34.443  33.248  30.754  1.00  0.00     0.059 A 
ATOM     83  F   UNL A   1      35.288  31.725  32.325  1.00  0.00    -0.206 F 
ATOM     84  C   UNL A   1      34.676  34.225  29.788  1.00  0.00     0.060 A 
BRANCH  84  85
ATOM     85  S   UNL A   1      33.293  35.004  28.926  1.00  0.00     0.124 S 
ATOM     86  O   UNL A   1      33.947  36.140  28.289  1.00  0.00    -0.237 OA
ATOM     87  O   UNL A   1      32.850  33.937  28.034  1.00  0.00    -0.237 OA
ATOM     88  O   UNL A   1      32.367  35.331  30.006  1.00  0.00    -0.744 OA
ENDBRANCH  84  85
ENDBRANCH  52  77
BRANCH  64  89
ATOM     89  C   UNL A   1      39.881  33.841  37.304  1.00  0.00     0.058 A 
ATOM     90  C   UNL A   1      40.491  35.103  37.372  1.00  0.00     0.135 A 
ATOM     91  C   UNL A   1      38.970  33.499  38.318  1.00  0.00     0.135 A 
ATOM     92  F   UNL A   1      41.374  35.479  36.434  1.00  0.00    -0.206 F 
ATOM     93  C   UNL A   1      40.226  35.982  38.418  1.00  0.00     0.059 A 
ATOM     94  C   UNL A   1      38.667  34.376  39.355  1.00  0.00     0.059 A 
ATOM     95  F   UNL A   1      38.350  32.309  38.296  1.00  0.00    -0.206 F 
ATOM     96  C   UNL A   1      39.310  35.611  39.403  1.00  0.00     0.060 A 
BRANCH  96  97
ATOM     97  S   UNL A   1      38.952  36.775  40.734  1.00  0.00     0.124 S 
ATOM     98  O   UNL A   1      38.270  37.846  40.014  1.00  0.00    -0.237 OA
ATOM     99  O   UNL A   1      38.116  35.979  41.628  1.00  0.00    -0.237 OA
ATOM    100  O   UNL A   1      40.274  37.113  41.257  1.00  0.00    -0.744 OA
ENDBRANCH  96  97
ENDBRANCH  64  89
ENDBRANCH  38  39
ENDBRANCH  30  33
ENDBRANCH  28  29
ENDBRANCH  27  28
ENDBRANCH  26  27
ENDBRANCH  25  26
ENDBRANCH   1  25
TORSDOF 22
ENDMDL
MODEL 3
REMARK VINA RESULT:      -9.6      2.674      8.739
REMARK SMILES COC(=O)[C@@H]1CCN(C(=O)NC(=O)COCC(=O)NCCCCCCNC(=O)c2ccc(-c3c4nc(c(-c5c(F)cc(S(=O)(=O)[O-])cc5F)c5ccc([nH]5)c(-c5c(F)cc(S(=O)(=O)[O-])cc5F)c5nc(c(-c6c(F)cc(S(=O)(=O)[O-])cc6F)c6ccc3[nH]6)C=C5)C=C4)cc2)C1
REMARK SMILES IDX 21 1 20 2 19 3 17 4 18 5 16 7 15 8 14 9 12 10 9 11 10 12
REMARK SMILES IDX 11 13 13 15 8 16 5 17 6 18 95 19 7 20 3 21 4 22 2 23 1 24
REMARK SMILES IDX 22 25 23 26 24 27 25 28 26 29 27 30 28 32 29 33 30 34 94 35
REMARK SMILES IDX 31 36 93 37 32 38 33 39 34 40 87 41 35 42 92 43 86 44 88 45
REMARK SMILES IDX 36 46 91 47 85 48 84 49 37 51 71 52 50 53 70 54 51 55 54 56
REMARK SMILES IDX 69 57 89 58 52 59 53 60 68 62 90 63 55 64 38 65 39 66 48 67
REMARK SMILES IDX 40 68 41 69 47 70 49 71 42 72 43 73 44 74 45 75 46 76 72 77
REMARK SMILES IDX 73 78 82 79 74 80 75 81 81 82 83 83 76 84 77 85 78 86 79 87
REMARK SMILES IDX 80 88 56 89 57 90 66 91 58 92 59 93 65 94 67 95 60 96 61 97
REMARK SMILES IDX 62 98 63 99 64 100
REMARK H PARENT 19 6 11 14 26 31 88 50 54 61
REMARK Flexibility Score: inf
ROOT
ATOM      1  C   UNL A   1      39.559  21.614  25.777  1.00  0.00     0.021 C 
ENDROOT
BRANCH   1   2
ATOM      2  C   UNL A   1      38.046  21.789  25.633  1.00  0.00     0.116 C 
BRANCH   2   3
ATOM      3  N   UNL A   1      37.668  22.219  24.301  1.00  0.00    -0.354 N 
ATOM      4  C   UNL A   1      36.438  22.602  23.847  1.00  0.00     0.246 C 
ATOM      5  O   UNL A   1      36.315  22.958  22.674  1.00  0.00    -0.272 OA
ATOM      6  H   UNL A   1      38.393  22.237  23.636  1.00  0.00     0.163 HD
BRANCH   4   7
ATOM      7  C   UNL A   1      35.249  22.586  24.810  1.00  0.00     0.260 C 
BRANCH   7   8
ATOM      8  O   UNL A   1      34.010  22.884  24.191  1.00  0.00    -0.362 OA
BRANCH   8   9
ATOM      9  C   UNL A   1      33.225  21.743  23.910  1.00  0.00     0.261 C 
BRANCH   9  10
ATOM     10  C   UNL A   1      32.738  21.041  25.162  1.00  0.00     0.254 C 
ATOM     11  C   UNL A   1      30.924  22.660  26.045  1.00  0.00     0.324 C 
ATOM     12  O   UNL A   1      29.807  22.399  26.505  1.00  0.00    -0.248 OA
ATOM     13  N   UNL A   1      31.826  21.625  26.020  1.00  0.00    -0.276 N 
ATOM     14  H   UNL A   1      31.820  21.151  26.882  1.00  0.00     0.174 HD
ATOM     15  O   UNL A   1      33.147  19.907  25.440  1.00  0.00    -0.272 OA
BRANCH  11  16
ATOM     16  N   UNL A   1      31.259  23.929  25.684  1.00  0.00    -0.324 N 
ATOM     17  C   UNL A   1      32.554  25.938  25.733  1.00  0.00     0.120 C 
ATOM     18  C   UNL A   1      32.021  25.701  24.322  1.00  0.00     0.039 C 
ATOM     19  C   UNL A   1      32.303  24.616  26.443  1.00  0.00     0.136 C 
ATOM     20  C   UNL A   1      30.879  24.716  24.529  1.00  0.00     0.122 C 
BRANCH  17  21
ATOM     21  C   UNL A   1      31.912  27.153  26.365  1.00  0.00     0.310 C 
ATOM     22  O   UNL A   1      31.041  27.062  27.223  1.00  0.00    -0.252 OA
BRANCH  21  23
ATOM     23  O   UNL A   1      32.447  28.326  25.943  1.00  0.00    -0.469 OA
ATOM     24  C   UNL A   1      31.520  29.183  25.270  1.00  0.00     0.282 C 
ENDBRANCH  21  23
ENDBRANCH  17  21
ENDBRANCH  11  16
ENDBRANCH   9  10
ENDBRANCH   8   9
ENDBRANCH   7   8
ENDBRANCH   4   7
ENDBRANCH   2   3
ENDBRANCH   1   2
BRANCH   1  25
ATOM     25  C   UNL A   1      40.107  21.925  27.175  1.00  0.00     0.002 C 
BRANCH  25  26
ATOM     26  C   UNL A   1      40.875  23.244  27.299  1.00  0.00     0.002 C 
BRANCH  26  27
ATOM     27  C   UNL A   1      40.056  24.503  27.008  1.00  0.00     0.021 C 
BRANCH  27  28
ATOM     28  C   UNL A   1      40.668  25.442  25.973  1.00  0.00     0.116 C 
BRANCH  28  29
ATOM     29  N   UNL A   1      42.088  25.194  25.776  1.00  0.00    -0.352 N 
ATOM     30  C   UNL A   1      43.174  25.781  26.378  1.00  0.00     0.251 C 
ATOM     31  H   UNL A   1      42.302  24.501  25.110  1.00  0.00     0.163 HD
ATOM     32  O   UNL A   1      44.300  25.574  25.938  1.00  0.00    -0.269 OA
BRANCH  30  33
ATOM     33  C   UNL A   1      42.985  26.675  27.542  1.00  0.00     0.039 A 
ATOM     34  C   UNL A   1      43.220  28.043  27.388  1.00  0.00     0.014 A 
ATOM     35  C   UNL A   1      42.588  26.168  28.782  1.00  0.00     0.014 A 
ATOM     36  C   UNL A   1      42.998  28.910  28.461  1.00  0.00     0.010 A 
ATOM     37  C   UNL A   1      42.295  27.042  29.828  1.00  0.00     0.010 A 
ATOM     38  C   UNL A   1      42.499  28.421  29.679  1.00  0.00    -0.014 A 
BRANCH  38  39
ATOM     39  C   UNL A   1      42.179  29.339  30.804  1.00  0.00     0.031 A 
ATOM     40  C   UNL A   1      40.940  30.194  30.758  1.00  0.00     0.074 A 
ATOM     41  C   UNL A   1      43.036  29.449  31.838  1.00  0.00     0.049 A 
ATOM     42  N   UNL A   1      40.526  31.094  31.612  1.00  0.00    -0.248 NA
ATOM     43  C   UNL A   1      40.063  30.032  29.587  1.00  0.00     0.031 C 
ATOM     44  C   UNL A   1      44.293  28.709  31.976  1.00  0.00     0.029 A 
ATOM     45  N   UNL A   1      42.988  30.230  32.966  1.00  0.00    -0.354 N 
ATOM     46  C   UNL A   1      39.351  31.613  31.079  1.00  0.00     0.074 A 
ATOM     47  C   UNL A   1      39.147  30.966  29.801  1.00  0.00     0.031 C 
ATOM     48  C   UNL A   1      44.883  29.054  33.131  1.00  0.00     0.029 A 
ATOM     49  C   UNL A   1      44.073  30.070  33.796  1.00  0.00     0.049 A 
ATOM     50  H   UNL A   1      42.246  30.846  33.163  1.00  0.00     0.167 HD
ATOM     51  C   UNL A   1      38.508  32.527  31.615  1.00  0.00     0.037 A 
ATOM     52  C   UNL A   1      44.388  30.679  34.956  1.00  0.00     0.037 A 
ATOM     53  C   UNL A   1      38.709  33.156  32.896  1.00  0.00     0.049 A 
ATOM     54  C   UNL A   1      43.442  31.703  35.526  1.00  0.00     0.074 A 
ATOM     55  C   UNL A   1      37.886  34.053  33.552  1.00  0.00     0.029 A 
ATOM     56  N   UNL A   1      39.815  32.958  33.712  1.00  0.00    -0.354 N 
ATOM     57  N   UNL A   1      42.301  32.132  35.039  1.00  0.00    -0.248 NA
ATOM     58  C   UNL A   1      43.821  32.321  36.803  1.00  0.00     0.031 C 
ATOM     59  C   UNL A   1      38.518  34.441  34.739  1.00  0.00     0.029 A 
ATOM     60  C   UNL A   1      39.706  33.738  34.853  1.00  0.00     0.049 A 
ATOM     61  H   UNL A   1      40.565  32.354  33.510  1.00  0.00     0.167 HD
ATOM     62  C   UNL A   1      41.813  33.047  35.966  1.00  0.00     0.074 A 
ATOM     63  C   UNL A   1      42.776  33.099  37.047  1.00  0.00     0.031 C 
ATOM     64  C   UNL A   1      40.669  33.775  35.926  1.00  0.00     0.037 A 
BRANCH  51  65
ATOM     65  C   UNL A   1      37.287  32.906  30.819  1.00  0.00     0.058 A 
ATOM     66  C   UNL A   1      37.344  33.856  29.786  1.00  0.00     0.135 A 
ATOM     67  C   UNL A   1      36.053  32.282  31.063  1.00  0.00     0.135 A 
ATOM     68  F   UNL A   1      38.493  34.495  29.517  1.00  0.00    -0.206 F 
ATOM     69  C   UNL A   1      36.216  34.196  29.045  1.00  0.00     0.059 A 
ATOM     70  C   UNL A   1      34.918  32.583  30.314  1.00  0.00     0.059 A 
ATOM     71  F   UNL A   1      35.938  31.365  32.037  1.00  0.00    -0.206 F 
ATOM     72  C   UNL A   1      35.007  33.553  29.317  1.00  0.00     0.060 A 
BRANCH  72  73
ATOM     73  S   UNL A   1      33.557  34.002  28.341  1.00  0.00     0.124 S 
ATOM     74  O   UNL A   1      34.122  34.978  27.413  1.00  0.00    -0.237 OA
ATOM     75  O   UNL A   1      33.166  32.724  27.756  1.00  0.00    -0.237 OA
ATOM     76  O   UNL A   1      32.632  34.544  29.332  1.00  0.00    -0.744 OA
ENDBRANCH  72  73
ENDBRANCH  51  65
BRANCH  52  77
ATOM     77  C   UNL A   1      45.648  30.326  35.665  1.00  0.00     0.058 A 
ATOM     78  C   UNL A   1      45.668  29.327  36.650  1.00  0.00     0.135 A 
ATOM     79  C   UNL A   1      46.858  30.971  35.366  1.00  0.00     0.135 A 
ATOM     80  F   UNL A   1      44.536  28.685  36.977  1.00  0.00    -0.206 F 
ATOM     81  C   UNL A   1      46.837  28.992  37.325  1.00  0.00     0.059 A 
ATOM     82  C   UNL A   1      48.046  30.632  36.007  1.00  0.00     0.059 A 
ATOM     83  F   UNL A   1      46.898  31.922  34.419  1.00  0.00    -0.206 F 
ATOM     84  C   UNL A   1      48.023  29.649  36.994  1.00  0.00     0.060 A 
BRANCH  84  85
ATOM     85  S   UNL A   1      49.544  29.173  37.843  1.00  0.00     0.124 S 
ATOM     86  O   UNL A   1      49.037  28.264  38.865  1.00  0.00    -0.237 OA
ATOM     87  O   UNL A   1      50.315  28.560  36.767  1.00  0.00    -0.237 OA
ATOM     88  O   UNL A   1      50.067  30.445  38.332  1.00  0.00    -0.744 OA
ENDBRANCH  84  85
ENDBRANCH  52  77
BRANCH  64  89
ATOM     89  C   UNL A   1      40.372  34.667  37.102  1.00  0.00     0.058 A 
ATOM     90  C   UNL A   1      40.807  36.000  37.153  1.00  0.00     0.135 A 
ATOM     91  C   UNL A   1      39.595  34.191  38.173  1.00  0.00     0.135 A 
ATOM     92  F   UNL A   1      41.557  36.503  36.160  1.00  0.00    -0.206 F 
ATOM     93  C   UNL A   1      40.504  36.823  38.233  1.00  0.00     0.059 A 
ATOM     94  C   UNL A   1      39.254  35.006  39.247  1.00  0.00     0.059 A 
ATOM     95  F   UNL A   1      39.144  32.927  38.171  1.00  0.00    -0.206 F 
ATOM     96  C   UNL A   1      39.724  36.318  39.274  1.00  0.00     0.060 A 
BRANCH  96  97
ATOM     97  S   UNL A   1      39.312  37.407  40.653  1.00  0.00     0.124 S 
ATOM     98  O   UNL A   1      38.213  38.188  40.092  1.00  0.00    -0.237 OA
ATOM     99  O   UNL A   1      38.946  36.459  41.700  1.00  0.00    -0.237 OA
ATOM    100  O   UNL A   1      40.550  38.145  40.887  1.00  0.00    -0.744 OA
ENDBRANCH  96  97
ENDBRANCH  64  89
ENDBRANCH  38  39
ENDBRANCH  30  33
ENDBRANCH  28  29
ENDBRANCH  27  28
ENDBRANCH  26  27
ENDBRANCH  25  26
ENDBRANCH   1  25
TORSDOF 22
ENDMDL
