MODEL 1
REMARK VINA RESULT:     -10.8      0.000      0.000
REMARK SMILES Cc1ccc(SCC[N@H+]2CC[C@@H](C(=O)NCCCCCCNC(=O)c3ccc(-c4c5nc(c(-c6c(F)cc(S(=O)(=O)[O-])cc6F)c6ccc([nH]6)c(-c6c(F)cc(S(=O)(=O)[O-])cc6F)c6nc(c(-c7c(F)cc(S(=O)(=O)[O-])cc7F)c7ccc4[nH]7)C=C6)C=C5)cc3)[C@@H]2C)cc1
REMARK SMILES IDX 18 1 17 2 16 3 15 4 13 5 14 6 12 8 9 9 10 10 91 11 11 13
REMARK SMILES IDX 92 14 8 15 7 16 6 17 5 18 1 19 2 20 3 21 94 22 4 23 93 24
REMARK SMILES IDX 19 25 20 26 21 27 22 28 23 29 24 31 25 32 26 33 90 34 27 35
REMARK SMILES IDX 89 36 28 37 29 38 30 39 83 40 31 41 88 42 82 43 84 44 32 45
REMARK SMILES IDX 87 46 81 47 80 48 33 50 67 51 46 52 66 53 47 54 50 55 65 56
REMARK SMILES IDX 85 57 48 58 49 59 64 61 86 62 51 63 34 64 35 65 44 66 36 67
REMARK SMILES IDX 37 68 43 69 45 70 38 71 39 72 40 73 41 74 42 75 68 76 69 77
REMARK SMILES IDX 78 78 70 79 71 80 77 81 79 82 72 83 73 84 74 85 75 86 76 87
REMARK SMILES IDX 52 88 53 89 62 90 54 91 55 92 61 93 63 94 56 95 57 96 58 97
REMARK SMILES IDX 59 98 60 99
REMARK H PARENT 15 7 9 12 22 30 84 49 50 60
REMARK Flexibility Score: inf
ROOT
ATOM      1  C   UNL A   1      39.350  21.508  25.622  1.00  0.00     0.002 C 
ENDROOT
BRANCH   1   2
ATOM      2  C   UNL A   1      38.204  22.346  26.228  1.00  0.00     0.021 C 
BRANCH   2   3
ATOM      3  C   UNL A   1      38.003  23.692  25.583  1.00  0.00     0.116 C 
BRANCH   3   4
ATOM      4  N   UNL A   1      37.087  23.636  24.461  1.00  0.00    -0.356 N 
ATOM      5  C   UNL A   1      35.747  23.853  24.407  1.00  0.00     0.229 C 
ATOM      6  O   UNL A   1      35.192  23.750  23.308  1.00  0.00    -0.275 OA
ATOM      7  H   UNL A   1      37.504  23.404  23.599  1.00  0.00     0.163 HD
BRANCH   5   8
ATOM      8  C   UNL A   1      34.935  24.226  25.642  1.00  0.00     0.142 C 
ATOM      9  N   UNL A   1      32.571  24.435  26.130  1.00  0.00    -0.331 N 
ATOM     10  C   UNL A   1      33.108  23.361  26.967  1.00  0.00     0.263 C 
ATOM     11  C   UNL A   1      33.656  24.996  25.306  1.00  0.00     0.193 C 
ATOM     12  H   UNL A   1      32.220  25.159  26.757  1.00  0.00     0.348 HD
ATOM     13  C   UNL A   1      34.519  23.044  26.500  1.00  0.00     0.081 C 
ATOM     14  C   UNL A   1      33.814  26.479  25.659  1.00  0.00     0.076 C 
BRANCH   9  15
ATOM     15  C   UNL A   1      31.373  24.072  25.347  1.00  0.00     0.273 C 
BRANCH  15  16
ATOM     16  C   UNL A   1      31.294  22.598  24.899  1.00  0.00     0.136 C 
BRANCH  16  17
ATOM     17  S   UNL A   1      32.021  22.213  23.253  1.00  0.00    -0.120 SA
BRANCH  17  18
ATOM     18  C   UNL A   1      32.607  20.542  23.432  1.00  0.00     0.007 A 
ATOM     19  C   UNL A   1      33.614  16.383  23.979  1.00  0.00     0.044 C 
ATOM     20  C   UNL A   1      33.303  17.831  23.756  1.00  0.00    -0.051 A 
ATOM     21  C   UNL A   1      32.504  18.232  22.681  1.00  0.00     0.004 A 
ATOM     22  C   UNL A   1      33.823  18.805  24.612  1.00  0.00     0.004 A 
ATOM     23  C   UNL A   1      32.154  19.577  22.525  1.00  0.00     0.015 A 
ATOM     24  C   UNL A   1      33.494  20.150  24.434  1.00  0.00     0.015 A 
ENDBRANCH  17  18
ENDBRANCH  16  17
ENDBRANCH  15  16
ENDBRANCH   9  15
ENDBRANCH   5   8
ENDBRANCH   3   4
ENDBRANCH   2   3
ENDBRANCH   1   2
BRANCH   1  25
ATOM     25  C   UNL A   1      40.239  20.578  26.512  1.00  0.00     0.002 C 
BRANCH  25  26
ATOM     26  C   UNL A   1      41.589  19.803  26.095  1.00  0.00     0.021 C 
BRANCH  26  27
ATOM     27  C   UNL A   1      42.951  20.640  25.965  1.00  0.00     0.116 C 
BRANCH  27  28
ATOM     28  N   UNL A   1      43.059  22.083  25.335  1.00  0.00    -0.352 N 
ATOM     29  C   UNL A   1      43.007  23.452  25.828  1.00  0.00     0.251 C 
ATOM     30  H   UNL A   1      43.196  22.050  24.361  1.00  0.00     0.163 HD
ATOM     31  O   UNL A   1      44.101  24.044  25.783  1.00  0.00    -0.269 OA
BRANCH  29  32
ATOM     32  C   UNL A   1      41.811  24.372  26.313  1.00  0.00     0.039 A 
ATOM     33  C   UNL A   1      41.533  25.617  25.663  1.00  0.00     0.014 A 
ATOM     34  C   UNL A   1      41.023  24.170  27.439  1.00  0.00     0.014 A 
ATOM     35  C   UNL A   1      40.991  26.749  26.399  1.00  0.00     0.010 A 
ATOM     36  C   UNL A   1      40.504  25.286  28.175  1.00  0.00     0.010 A 
ATOM     37  C   UNL A   1      40.698  26.617  27.767  1.00  0.00    -0.014 A 
BRANCH  37  38
ATOM     38  C   UNL A   1      40.857  27.733  28.804  1.00  0.00     0.031 A 
ATOM     39  C   UNL A   1      39.911  28.840  28.883  1.00  0.00     0.074 A 
ATOM     40  C   UNL A   1      41.715  27.801  29.870  1.00  0.00     0.049 A 
ATOM     41  N   UNL A   1      40.231  30.089  29.003  1.00  0.00    -0.248 NA
ATOM     42  C   UNL A   1      38.491  28.570  28.926  1.00  0.00     0.031 C 
ATOM     43  C   UNL A   1      41.844  28.703  31.031  1.00  0.00     0.029 A 
ATOM     44  N   UNL A   1      42.712  26.919  30.200  1.00  0.00    -0.354 N 
ATOM     45  C   UNL A   1      39.098  30.711  29.486  1.00  0.00     0.074 A 
ATOM     46  C   UNL A   1      38.022  29.795  29.164  1.00  0.00     0.031 C 
ATOM     47  C   UNL A   1      43.047  28.518  31.627  1.00  0.00     0.029 A 
ATOM     48  C   UNL A   1      43.773  27.531  30.859  1.00  0.00     0.049 A 
ATOM     49  H   UNL A   1      42.680  25.957  29.994  1.00  0.00     0.167 HD
ATOM     50  C   UNL A   1      39.179  31.769  30.358  1.00  0.00     0.037 A 
ATOM     51  C   UNL A   1      44.983  27.599  30.214  1.00  0.00     0.037 A 
ATOM     52  C   UNL A   1      40.566  31.991  30.841  1.00  0.00     0.049 A 
ATOM     53  C   UNL A   1      45.215  29.017  29.742  1.00  0.00     0.074 A 
ATOM     54  C   UNL A   1      41.194  31.911  32.079  1.00  0.00     0.029 A 
ATOM     55  N   UNL A   1      41.606  32.096  29.930  1.00  0.00    -0.354 N 
ATOM     56  N   UNL A   1      44.521  30.020  30.201  1.00  0.00    -0.248 NA
ATOM     57  C   UNL A   1      46.155  29.445  28.708  1.00  0.00     0.031 C 
ATOM     58  C   UNL A   1      42.609  31.988  31.888  1.00  0.00     0.029 A 
ATOM     59  C   UNL A   1      42.849  32.139  30.536  1.00  0.00     0.049 A 
ATOM     60  H   UNL A   1      41.473  32.133  28.955  1.00  0.00     0.167 HD
ATOM     61  C   UNL A   1      44.771  31.147  29.485  1.00  0.00     0.074 A 
ATOM     62  C   UNL A   1      45.852  30.756  28.595  1.00  0.00     0.031 C 
ATOM     63  C   UNL A   1      44.028  32.279  29.681  1.00  0.00     0.037 A 
BRANCH  50  64
ATOM     64  C   UNL A   1      37.960  32.436  31.007  1.00  0.00     0.058 A 
ATOM     65  C   UNL A   1      37.113  33.305  30.283  1.00  0.00     0.135 A 
ATOM     66  C   UNL A   1      37.525  32.213  32.333  1.00  0.00     0.135 A 
ATOM     67  F   UNL A   1      37.277  33.508  28.969  1.00  0.00    -0.206 F 
ATOM     68  C   UNL A   1      36.014  33.967  30.852  1.00  0.00     0.059 A 
ATOM     69  C   UNL A   1      36.490  32.920  32.949  1.00  0.00     0.059 A 
ATOM     70  F   UNL A   1      37.993  31.203  33.075  1.00  0.00    -0.206 F 
ATOM     71  C   UNL A   1      35.726  33.789  32.197  1.00  0.00     0.060 A 
BRANCH  71  72
ATOM     72  S   UNL A   1      34.283  34.589  32.922  1.00  0.00     0.124 S 
ATOM     73  O   UNL A   1      33.768  35.374  31.804  1.00  0.00    -0.237 OA
ATOM     74  O   UNL A   1      33.472  33.445  33.326  1.00  0.00    -0.237 OA
ATOM     75  O   UNL A   1      34.841  35.371  34.023  1.00  0.00    -0.744 OA
ENDBRANCH  71  72
ENDBRANCH  50  64
BRANCH  51  76
ATOM     76  C   UNL A   1      45.398  26.296  29.483  1.00  0.00     0.058 A 
ATOM     77  C   UNL A   1      45.756  26.513  28.138  1.00  0.00     0.135 A 
ATOM     78  C   UNL A   1      46.346  25.557  30.169  1.00  0.00     0.135 A 
ATOM     79  F   UNL A   1      44.802  26.720  27.220  1.00  0.00    -0.206 F 
ATOM     80  C   UNL A   1      47.092  26.697  27.754  1.00  0.00     0.059 A 
ATOM     81  C   UNL A   1      47.683  25.766  29.800  1.00  0.00     0.059 A 
ATOM     82  F   UNL A   1      46.082  25.112  31.410  1.00  0.00    -0.206 F 
ATOM     83  C   UNL A   1      48.069  26.518  28.711  1.00  0.00     0.060 A 
BRANCH  83  84
ATOM     84  S   UNL A   1      49.694  27.587  28.754  1.00  0.00     0.124 S 
ATOM     85  O   UNL A   1      50.563  26.735  29.500  1.00  0.00    -0.237 OA
ATOM     86  O   UNL A   1      50.146  27.707  27.380  1.00  0.00    -0.237 OA
ATOM     87  O   UNL A   1      49.382  28.850  29.400  1.00  0.00    -0.744 OA
ENDBRANCH  83  84
ENDBRANCH  51  76
BRANCH  63  88
ATOM     88  C   UNL A   1      44.313  33.620  29.057  1.00  0.00     0.058 A 
ATOM     89  C   UNL A   1      44.232  33.850  27.675  1.00  0.00     0.135 A 
ATOM     90  C   UNL A   1      44.831  34.695  29.822  1.00  0.00     0.135 A 
ATOM     91  F   UNL A   1      43.880  32.870  26.829  1.00  0.00    -0.206 F 
ATOM     92  C   UNL A   1      44.549  35.086  27.107  1.00  0.00     0.059 A 
ATOM     93  C   UNL A   1      45.195  35.916  29.273  1.00  0.00     0.059 A 
ATOM     94  F   UNL A   1      44.997  34.620  31.148  1.00  0.00    -0.206 F 
ATOM     95  C   UNL A   1      45.017  36.117  27.919  1.00  0.00     0.060 A 
BRANCH  95  96
ATOM     96  S   UNL A   1      45.403  37.718  27.199  1.00  0.00     0.124 S 
ATOM     97  O   UNL A   1      46.092  38.395  28.293  1.00  0.00    -0.237 OA
ATOM     98  O   UNL A   1      46.239  37.331  26.067  1.00  0.00    -0.237 OA
ATOM     99  O   UNL A   1      44.095  38.266  26.855  1.00  0.00    -0.744 OA
ENDBRANCH  95  96
ENDBRANCH  63  88
ENDBRANCH  37  38
ENDBRANCH  29  32
ENDBRANCH  27  28
ENDBRANCH  26  27
ENDBRANCH  25  26
ENDBRANCH   1  25
TORSDOF 20
ENDMDL
MODEL 2
REMARK VINA RESULT:     -10.4      1.903      3.476
REMARK SMILES Cc1ccc(SCC[N@H+]2CC[C@@H](C(=O)NCCCCCCNC(=O)c3ccc(-c4c5nc(c(-c6c(F)cc(S(=O)(=O)[O-])cc6F)c6ccc([nH]6)c(-c6c(F)cc(S(=O)(=O)[O-])cc6F)c6nc(c(-c7c(F)cc(S(=O)(=O)[O-])cc7F)c7ccc4[nH]7)C=C6)C=C5)cc3)[C@@H]2C)cc1
REMARK SMILES IDX 18 1 17 2 16 3 15 4 13 5 14 6 12 8 9 9 10 10 91 11 11 13
REMARK SMILES IDX 92 14 8 15 7 16 6 17 5 18 1 19 2 20 3 21 94 22 4 23 93 24
REMARK SMILES IDX 19 25 20 26 21 27 22 28 23 29 24 31 25 32 26 33 90 34 27 35
REMARK SMILES IDX 89 36 28 37 29 38 30 39 83 40 31 41 88 42 82 43 84 44 32 45
REMARK SMILES IDX 87 46 81 47 80 48 33 50 67 51 46 52 66 53 47 54 50 55 65 56
REMARK SMILES IDX 85 57 48 58 49 59 64 61 86 62 51 63 34 64 35 65 44 66 36 67
REMARK SMILES IDX 37 68 43 69 45 70 38 71 39 72 40 73 41 74 42 75 68 76 69 77
REMARK SMILES IDX 78 78 70 79 71 80 77 81 79 82 72 83 73 84 74 85 75 86 76 87
REMARK SMILES IDX 52 88 53 89 62 90 54 91 55 92 61 93 63 94 56 95 57 96 58 97
REMARK SMILES IDX 59 98 60 99
REMARK H PARENT 15 7 9 12 22 30 84 49 50 60
REMARK Flexibility Score: inf
ROOT
ATOM      1  C   UNL A   1      38.657  21.472  25.731  1.00  0.00     0.002 C 
ENDROOT
BRANCH   1   2
ATOM      2  C   UNL A   1      38.184  22.941  25.784  1.00  0.00     0.021 C 
BRANCH   2   3
ATOM      3  C   UNL A   1      36.927  23.223  25.004  1.00  0.00     0.116 C 
BRANCH   3   4
ATOM      4  N   UNL A   1      36.059  22.065  24.914  1.00  0.00    -0.356 N 
ATOM      5  C   UNL A   1      34.796  21.875  25.379  1.00  0.00     0.229 C 
ATOM      6  O   UNL A   1      34.264  20.781  25.161  1.00  0.00    -0.275 OA
ATOM      7  H   UNL A   1      36.448  21.293  24.441  1.00  0.00     0.163 HD
BRANCH   5   8
ATOM      8  C   UNL A   1      34.036  22.959  26.131  1.00  0.00     0.142 C 
ATOM      9  N   UNL A   1      32.022  24.239  25.706  1.00  0.00    -0.331 N 
ATOM     10  C   UNL A   1      31.794  23.430  26.903  1.00  0.00     0.263 C 
ATOM     11  C   UNL A   1      33.384  23.987  25.202  1.00  0.00     0.193 C 
ATOM     12  H   UNL A   1      31.946  25.217  25.983  1.00  0.00     0.348 HD
ATOM     13  C   UNL A   1      32.938  22.439  27.043  1.00  0.00     0.081 C 
ATOM     14  C   UNL A   1      34.163  25.306  25.230  1.00  0.00     0.076 C 
BRANCH   9  15
ATOM     15  C   UNL A   1      30.984  24.113  24.664  1.00  0.00     0.273 C 
BRANCH  15  16
ATOM     16  C   UNL A   1      30.206  25.405  24.341  1.00  0.00     0.136 C 
BRANCH  16  17
ATOM     17  S   UNL A   1      31.059  26.610  23.243  1.00  0.00    -0.120 SA
BRANCH  17  18
ATOM     18  C   UNL A   1      30.059  28.078  23.371  1.00  0.00     0.007 A 
ATOM     19  C   UNL A   1      27.610  31.626  23.241  1.00  0.00     0.044 C 
ATOM     20  C   UNL A   1      28.443  30.385  23.334  1.00  0.00    -0.051 A 
ATOM     21  C   UNL A   1      27.900  29.136  23.015  1.00  0.00     0.004 A 
ATOM     22  C   UNL A   1      29.772  30.456  23.757  1.00  0.00     0.004 A 
ATOM     23  C   UNL A   1      28.705  27.993  23.027  1.00  0.00     0.015 A 
ATOM     24  C   UNL A   1      30.563  29.306  23.796  1.00  0.00     0.015 A 
ENDBRANCH  17  18
ENDBRANCH  16  17
ENDBRANCH  15  16
ENDBRANCH   9  15
ENDBRANCH   5   8
ENDBRANCH   3   4
ENDBRANCH   2   3
ENDBRANCH   1   2
BRANCH   1  25
ATOM     25  C   UNL A   1      39.886  20.981  26.566  1.00  0.00     0.002 C 
BRANCH  25  26
ATOM     26  C   UNL A   1      41.033  19.939  26.122  1.00  0.00     0.021 C 
BRANCH  26  27
ATOM     27  C   UNL A   1      42.517  20.488  25.864  1.00  0.00     0.116 C 
BRANCH  27  28
ATOM     28  N   UNL A   1      42.860  21.954  25.391  1.00  0.00    -0.352 N 
ATOM     29  C   UNL A   1      42.882  23.277  25.998  1.00  0.00     0.251 C 
ATOM     30  H   UNL A   1      43.127  21.982  24.444  1.00  0.00     0.163 HD
ATOM     31  O   UNL A   1      44.027  23.741  26.150  1.00  0.00    -0.269 OA
BRANCH  29  32
ATOM     32  C   UNL A   1      41.733  24.287  26.409  1.00  0.00     0.039 A 
ATOM     33  C   UNL A   1      41.592  25.547  25.744  1.00  0.00     0.014 A 
ATOM     34  C   UNL A   1      40.864  24.151  27.484  1.00  0.00     0.014 A 
ATOM     35  C   UNL A   1      41.093  26.720  26.446  1.00  0.00     0.010 A 
ATOM     36  C   UNL A   1      40.386  25.306  28.187  1.00  0.00     0.010 A 
ATOM     37  C   UNL A   1      40.707  26.616  27.792  1.00  0.00    -0.014 A 
BRANCH  37  38
ATOM     38  C   UNL A   1      40.886  27.722  28.838  1.00  0.00     0.031 A 
ATOM     39  C   UNL A   1      39.940  28.826  28.950  1.00  0.00     0.074 A 
ATOM     40  C   UNL A   1      41.767  27.780  29.886  1.00  0.00     0.049 A 
ATOM     41  N   UNL A   1      40.261  30.074  29.076  1.00  0.00    -0.248 NA
ATOM     42  C   UNL A   1      38.522  28.553  29.020  1.00  0.00     0.031 C 
ATOM     43  C   UNL A   1      41.919  28.670  31.053  1.00  0.00     0.029 A 
ATOM     44  N   UNL A   1      42.772  26.896  30.185  1.00  0.00    -0.354 N 
ATOM     45  C   UNL A   1      39.137  30.689  29.590  1.00  0.00     0.074 A 
ATOM     46  C   UNL A   1      38.056  29.774  29.281  1.00  0.00     0.031 C 
ATOM     47  C   UNL A   1      43.135  28.481  31.621  1.00  0.00     0.029 A 
ATOM     48  C   UNL A   1      43.846  27.503  30.828  1.00  0.00     0.049 A 
ATOM     49  H   UNL A   1      42.737  25.937  29.969  1.00  0.00     0.167 HD
ATOM     50  C   UNL A   1      39.235  31.738  30.472  1.00  0.00     0.037 A 
ATOM     51  C   UNL A   1      45.042  27.581  30.158  1.00  0.00     0.037 A 
ATOM     52  C   UNL A   1      40.632  31.957  30.927  1.00  0.00     0.049 A 
ATOM     53  C   UNL A   1      45.261  29.003  29.697  1.00  0.00     0.074 A 
ATOM     54  C   UNL A   1      41.286  31.865  32.150  1.00  0.00     0.029 A 
ATOM     55  N   UNL A   1      41.652  32.074  29.995  1.00  0.00    -0.354 N 
ATOM     56  N   UNL A   1      44.575  30.000  30.181  1.00  0.00    -0.248 NA
ATOM     57  C   UNL A   1      46.178  29.445  28.647  1.00  0.00     0.031 C 
ATOM     58  C   UNL A   1      42.697  31.947  31.929  1.00  0.00     0.029 A 
ATOM     59  C   UNL A   1      42.908  32.113  30.575  1.00  0.00     0.049 A 
ATOM     60  H   UNL A   1      41.498  32.122  29.024  1.00  0.00     0.167 HD
ATOM     61  C   UNL A   1      44.808  31.136  29.472  1.00  0.00     0.074 A 
ATOM     62  C   UNL A   1      45.871  30.756  28.555  1.00  0.00     0.031 C 
ATOM     63  C   UNL A   1      44.068  32.264  29.696  1.00  0.00     0.037 A 
BRANCH  50  64
ATOM     64  C   UNL A   1      38.029  32.395  31.154  1.00  0.00     0.058 A 
ATOM     65  C   UNL A   1      37.167  31.668  32.006  1.00  0.00     0.135 A 
ATOM     66  C   UNL A   1      37.695  33.766  31.063  1.00  0.00     0.135 A 
ATOM     67  F   UNL A   1      37.421  30.395  32.337  1.00  0.00    -0.206 F 
ATOM     68  C   UNL A   1      36.031  32.224  32.613  1.00  0.00     0.059 A 
ATOM     69  C   UNL A   1      36.528  34.326  31.586  1.00  0.00     0.059 A 
ATOM     70  F   UNL A   1      38.546  34.674  30.574  1.00  0.00    -0.206 F 
ATOM     71  C   UNL A   1      35.702  33.550  32.375  1.00  0.00     0.060 A 
BRANCH  71  72
ATOM     72  S   UNL A   1      34.278  34.287  33.197  1.00  0.00     0.124 S 
ATOM     73  O   UNL A   1      33.884  35.333  32.258  1.00  0.00    -0.237 OA
ATOM     74  O   UNL A   1      33.369  33.151  33.304  1.00  0.00    -0.237 OA
ATOM     75  O   UNL A   1      34.824  34.766  34.465  1.00  0.00    -0.744 OA
ENDBRANCH  71  72
ENDBRANCH  50  64
BRANCH  51  76
ATOM     76  C   UNL A   1      45.443  26.286  29.404  1.00  0.00     0.058 A 
ATOM     77  C   UNL A   1      45.655  26.498  28.027  1.00  0.00     0.135 A 
ATOM     78  C   UNL A   1      46.487  25.602  30.000  1.00  0.00     0.135 A 
ATOM     79  F   UNL A   1      44.606  26.646  27.207  1.00  0.00    -0.206 F 
ATOM     80  C   UNL A   1      46.937  26.736  27.510  1.00  0.00     0.059 A 
ATOM     81  C   UNL A   1      47.770  25.866  29.497  1.00  0.00     0.059 A 
ATOM     82  F   UNL A   1      46.368  25.165  31.266  1.00  0.00    -0.206 F 
ATOM     83  C   UNL A   1      48.011  26.617  28.367  1.00  0.00     0.060 A 
BRANCH  83  84
ATOM     84  S   UNL A   1      49.580  27.759  28.236  1.00  0.00     0.124 S 
ATOM     85  O   UNL A   1      49.199  28.627  27.168  1.00  0.00    -0.237 OA
ATOM     86  O   UNL A   1      49.665  28.491  29.487  1.00  0.00    -0.237 OA
ATOM     87  O   UNL A   1      50.727  26.915  27.950  1.00  0.00    -0.744 OA
ENDBRANCH  83  84
ENDBRANCH  51  76
BRANCH  63  88
ATOM     88  C   UNL A   1      44.337  33.612  29.081  1.00  0.00     0.058 A 
ATOM     89  C   UNL A   1      44.239  33.854  27.702  1.00  0.00     0.135 A 
ATOM     90  C   UNL A   1      44.856  34.684  29.850  1.00  0.00     0.135 A 
ATOM     91  F   UNL A   1      43.884  32.878  26.851  1.00  0.00    -0.206 F 
ATOM     92  C   UNL A   1      44.542  35.096  27.141  1.00  0.00     0.059 A 
ATOM     93  C   UNL A   1      45.206  35.911  29.307  1.00  0.00     0.059 A 
ATOM     94  F   UNL A   1      45.038  34.599  31.172  1.00  0.00    -0.206 F 
ATOM     95  C   UNL A   1      45.012  36.124  27.957  1.00  0.00     0.060 A 
BRANCH  95  96
ATOM     96  S   UNL A   1      45.379  37.733  27.247  1.00  0.00     0.124 S 
ATOM     97  O   UNL A   1      46.065  38.410  28.344  1.00  0.00    -0.237 OA
ATOM     98  O   UNL A   1      46.217  37.362  26.110  1.00  0.00    -0.237 OA
ATOM     99  O   UNL A   1      44.065  38.270  26.911  1.00  0.00    -0.744 OA
ENDBRANCH  95  96
ENDBRANCH  63  88
ENDBRANCH  37  38
ENDBRANCH  29  32
ENDBRANCH  27  28
ENDBRANCH  26  27
ENDBRANCH  25  26
ENDBRANCH   1  25
TORSDOF 20
ENDMDL
MODEL 3
REMARK VINA RESULT:     -10.2      4.031     10.157
REMARK SMILES Cc1ccc(SCC[N@H+]2CC[C@@H](C(=O)NCCCCCCNC(=O)c3ccc(-c4c5nc(c(-c6c(F)cc(S(=O)(=O)[O-])cc6F)c6ccc([nH]6)c(-c6c(F)cc(S(=O)(=O)[O-])cc6F)c6nc(c(-c7c(F)cc(S(=O)(=O)[O-])cc7F)c7ccc4[nH]7)C=C6)C=C5)cc3)[C@@H]2C)cc1
REMARK SMILES IDX 18 1 17 2 16 3 15 4 13 5 14 6 12 8 9 9 10 10 91 11 11 13
REMARK SMILES IDX 92 14 8 15 7 16 6 17 5 18 1 19 2 20 3 21 94 22 4 23 93 24
REMARK SMILES IDX 19 25 20 26 21 27 22 28 23 29 24 31 25 32 26 33 90 34 27 35
REMARK SMILES IDX 89 36 28 37 29 38 30 39 83 40 31 41 88 42 82 43 84 44 32 45
REMARK SMILES IDX 87 46 81 47 80 48 33 50 67 51 46 52 66 53 47 54 50 55 65 56
REMARK SMILES IDX 85 57 48 58 49 59 64 61 86 62 51 63 34 64 35 65 44 66 36 67
REMARK SMILES IDX 37 68 43 69 45 70 38 71 39 72 40 73 41 74 42 75 68 76 69 77
REMARK SMILES IDX 78 78 70 79 71 80 77 81 79 82 72 83 73 84 74 85 75 86 76 87
REMARK SMILES IDX 52 88 53 89 62 90 54 91 55 92 61 93 63 94 56 95 57 96 58 97
REMARK SMILES IDX 59 98 60 99
REMARK H PARENT 15 7 9 12 22 30 84 49 50 60
REMARK Flexibility Score: inf
ROOT
ATOM      1  C   UNL A   1      33.819  29.639  26.848  1.00  0.00     0.002 C 
ENDROOT
BRANCH   1   2
ATOM      2  C   UNL A   1      32.860  30.154  25.753  1.00  0.00     0.021 C 
BRANCH   2   3
ATOM      3  C   UNL A   1      31.499  29.511  25.759  1.00  0.00     0.116 C 
BRANCH   3   4
ATOM      4  N   UNL A   1      31.485  28.250  26.473  1.00  0.00    -0.356 N 
ATOM      5  C   UNL A   1      31.293  26.984  26.019  1.00  0.00     0.229 C 
ATOM      6  O   UNL A   1      31.340  26.065  26.844  1.00  0.00    -0.275 OA
ATOM      7  H   UNL A   1      31.641  28.323  27.444  1.00  0.00     0.163 HD
BRANCH   5   8
ATOM      8  C   UNL A   1      31.042  26.679  24.548  1.00  0.00     0.142 C 
ATOM      9  N   UNL A   1      31.923  25.069  22.965  1.00  0.00    -0.331 N 
ATOM     10  C   UNL A   1      30.494  24.799  23.131  1.00  0.00     0.263 C 
ATOM     11  C   UNL A   1      32.301  26.216  23.810  1.00  0.00     0.193 C 
ATOM     12  H   UNL A   1      32.072  25.314  21.986  1.00  0.00     0.348 HD
ATOM     13  C   UNL A   1      29.978  25.624  24.298  1.00  0.00     0.081 C 
ATOM     14  C   UNL A   1      32.833  27.330  22.903  1.00  0.00     0.076 C 
BRANCH   9  15
ATOM     15  C   UNL A   1      32.802  23.897  23.146  1.00  0.00     0.273 C 
BRANCH  15  16
ATOM     16  C   UNL A   1      32.101  22.608  23.621  1.00  0.00     0.136 C 
BRANCH  16  17
ATOM     17  S   UNL A   1      32.513  22.043  25.323  1.00  0.00    -0.120 SA
BRANCH  17  18
ATOM     18  C   UNL A   1      34.291  22.117  25.373  1.00  0.00     0.007 A 
ATOM     19  C   UNL A   1      38.584  21.944  25.757  1.00  0.00     0.044 C 
ATOM     20  C   UNL A   1      37.099  22.028  25.579  1.00  0.00    -0.051 A 
ATOM     21  C   UNL A   1      36.412  21.050  24.853  1.00  0.00     0.004 A 
ATOM     22  C   UNL A   1      36.382  23.095  26.122  1.00  0.00     0.004 A 
ATOM     23  C   UNL A   1      35.017  21.092  24.757  1.00  0.00     0.015 A 
ATOM     24  C   UNL A   1      34.991  23.148  25.998  1.00  0.00     0.015 A 
ENDBRANCH  17  18
ENDBRANCH  16  17
ENDBRANCH  15  16
ENDBRANCH   9  15
ENDBRANCH   5   8
ENDBRANCH   3   4
ENDBRANCH   2   3
ENDBRANCH   1   2
BRANCH   1  25
ATOM     25  C   UNL A   1      34.430  30.605  27.917  1.00  0.00     0.002 C 
BRANCH  25  26
ATOM     26  C   UNL A   1      34.085  32.160  28.159  1.00  0.00     0.021 C 
BRANCH  26  27
ATOM     27  C   UNL A   1      34.930  32.978  29.249  1.00  0.00     0.116 C 
BRANCH  27  28
ATOM     28  N   UNL A   1      36.144  32.389  30.068  1.00  0.00    -0.352 N 
ATOM     29  C   UNL A   1      37.390  31.704  29.755  1.00  0.00     0.251 C 
ATOM     30  H   UNL A   1      36.029  32.516  31.038  1.00  0.00     0.163 HD
ATOM     31  O   UNL A   1      38.407  32.391  29.965  1.00  0.00    -0.269 OA
BRANCH  29  32
ATOM     32  C   UNL A   1      37.714  30.222  29.299  1.00  0.00     0.039 A 
ATOM     33  C   UNL A   1      37.834  29.168  30.261  1.00  0.00     0.014 A 
ATOM     34  C   UNL A   1      38.037  29.810  28.012  1.00  0.00     0.014 A 
ATOM     35  C   UNL A   1      38.742  28.052  30.047  1.00  0.00     0.010 A 
ATOM     36  C   UNL A   1      38.946  28.721  27.803  1.00  0.00     0.010 A 
ATOM     37  C   UNL A   1      39.493  27.979  28.863  1.00  0.00    -0.014 A 
BRANCH  37  38
ATOM     38  C   UNL A   1      40.915  27.414  28.765  1.00  0.00     0.031 A 
ATOM     39  C   UNL A   1      41.158  26.008  28.466  1.00  0.00     0.074 A 
ATOM     40  C   UNL A   1      42.108  28.088  28.750  1.00  0.00     0.049 A 
ATOM     41  N   UNL A   1      42.003  25.248  29.086  1.00  0.00    -0.248 NA
ATOM     42  C   UNL A   1      40.495  25.388  27.340  1.00  0.00     0.031 C 
ATOM     43  C   UNL A   1      43.505  27.699  28.476  1.00  0.00     0.029 A 
ATOM     44  N   UNL A   1      42.313  29.433  28.921  1.00  0.00    -0.354 N 
ATOM     45  C   UNL A   1      42.240  24.192  28.230  1.00  0.00     0.074 A 
ATOM     46  C   UNL A   1      41.107  24.205  27.325  1.00  0.00     0.031 C 
ATOM     47  C   UNL A   1      44.346  28.676  28.893  1.00  0.00     0.029 A 
ATOM     48  C   UNL A   1      43.546  29.718  29.498  1.00  0.00     0.049 A 
ATOM     49  H   UNL A   1      41.659  30.122  28.664  1.00  0.00     0.167 HD
ATOM     50  C   UNL A   1      43.474  23.593  28.155  1.00  0.00     0.037 A 
ATOM     51  C   UNL A   1      43.561  30.248  30.765  1.00  0.00     0.037 A 
ATOM     52  C   UNL A   1      44.504  24.339  28.922  1.00  0.00     0.049 A 
ATOM     53  C   UNL A   1      44.001  29.183  31.743  1.00  0.00     0.074 A 
ATOM     54  C   UNL A   1      45.665  25.027  28.585  1.00  0.00     0.029 A 
ATOM     55  N   UNL A   1      44.266  24.686  30.243  1.00  0.00    -0.354 N 
ATOM     56  N   UNL A   1      44.583  28.084  31.353  1.00  0.00    -0.248 NA
ATOM     57  C   UNL A   1      43.791  29.192  33.190  1.00  0.00     0.031 C 
ATOM     58  C   UNL A   1      46.115  25.765  29.725  1.00  0.00     0.029 A 
ATOM     59  C   UNL A   1      45.245  25.511  30.768  1.00  0.00     0.049 A 
ATOM     60  H   UNL A   1      43.482  24.378  30.753  1.00  0.00     0.167 HD
ATOM     61  C   UNL A   1      44.697  27.206  32.383  1.00  0.00     0.074 A 
ATOM     62  C   UNL A   1      44.242  27.968  33.535  1.00  0.00     0.031 C 
ATOM     63  C   UNL A   1      45.122  25.924  32.166  1.00  0.00     0.037 A 
BRANCH  50  64
ATOM     64  C   UNL A   1      43.827  22.486  27.155  1.00  0.00     0.058 A 
ATOM     65  C   UNL A   1      45.063  22.467  26.470  1.00  0.00     0.135 A 
ATOM     66  C   UNL A   1      43.014  21.366  26.867  1.00  0.00     0.135 A 
ATOM     67  F   UNL A   1      46.025  23.361  26.737  1.00  0.00    -0.206 F 
ATOM     68  C   UNL A   1      45.405  21.495  25.518  1.00  0.00     0.059 A 
ATOM     69  C   UNL A   1      43.290  20.433  25.865  1.00  0.00     0.059 A 
ATOM     70  F   UNL A   1      41.965  21.034  27.627  1.00  0.00    -0.206 F 
ATOM     71  C   UNL A   1      44.498  20.494  25.200  1.00  0.00     0.060 A 
BRANCH  71  72
ATOM     72  S   UNL A   1      44.951  19.210  24.021  1.00  0.00     0.124 S 
ATOM     73  O   UNL A   1      46.393  19.103  24.217  1.00  0.00    -0.237 OA
ATOM     74  O   UNL A   1      44.158  18.077  24.487  1.00  0.00    -0.237 OA
ATOM     75  O   UNL A   1      44.540  19.765  22.733  1.00  0.00    -0.744 OA
ENDBRANCH  71  72
ENDBRANCH  50  64
BRANCH  51  76
ATOM     76  C   UNL A   1      42.509  31.360  31.011  1.00  0.00     0.058 A 
ATOM     77  C   UNL A   1      41.629  31.056  32.069  1.00  0.00     0.135 A 
ATOM     78  C   UNL A   1      43.058  32.624  31.128  1.00  0.00     0.135 A 
ATOM     79  F   UNL A   1      40.643  30.169  31.880  1.00  0.00    -0.206 F 
ATOM     80  C   UNL A   1      41.859  31.522  33.371  1.00  0.00     0.059 A 
ATOM     81  C   UNL A   1      43.313  33.072  32.433  1.00  0.00     0.059 A 
ATOM     82  F   UNL A   1      43.781  33.139  30.118  1.00  0.00    -0.206 F 
ATOM     83  C   UNL A   1      42.897  32.407  33.566  1.00  0.00     0.060 A 
BRANCH  83  84
ATOM     84  S   UNL A   1      43.982  32.402  35.182  1.00  0.00     0.124 S 
ATOM     85  O   UNL A   1      43.789  33.737  35.646  1.00  0.00    -0.237 OA
ATOM     86  O   UNL A   1      43.370  31.448  36.088  1.00  0.00    -0.237 OA
ATOM     87  O   UNL A   1      45.348  32.084  34.803  1.00  0.00    -0.744 OA
ENDBRANCH  83  84
ENDBRANCH  51  76
BRANCH  63  88
ATOM     88  C   UNL A   1      45.428  24.919  33.245  1.00  0.00     0.058 A 
ATOM     89  C   UNL A   1      46.736  24.609  33.649  1.00  0.00     0.135 A 
ATOM     90  C   UNL A   1      44.410  24.111  33.812  1.00  0.00     0.135 A 
ATOM     91  F   UNL A   1      47.795  25.214  33.089  1.00  0.00    -0.206 F 
ATOM     92  C   UNL A   1      47.006  23.638  34.614  1.00  0.00     0.059 A 
ATOM     93  C   UNL A   1      44.660  23.110  34.739  1.00  0.00     0.059 A 
ATOM     94  F   UNL A   1      43.117  24.262  33.504  1.00  0.00    -0.206 F 
ATOM     95  C   UNL A   1      45.957  22.902  35.164  1.00  0.00     0.060 A 
BRANCH  95  96
ATOM     96  S   UNL A   1      46.293  21.668  36.425  1.00  0.00     0.124 S 
ATOM     97  O   UNL A   1      45.667  22.250  37.608  1.00  0.00    -0.237 OA
ATOM     98  O   UNL A   1      45.624  20.496  35.867  1.00  0.00    -0.237 OA
ATOM     99  O   UNL A   1      47.750  21.600  36.463  1.00  0.00    -0.744 OA
ENDBRANCH  95  96
ENDBRANCH  63  88
ENDBRANCH  37  38
ENDBRANCH  29  32
ENDBRANCH  27  28
ENDBRANCH  26  27
ENDBRANCH  25  26
ENDBRANCH   1  25
TORSDOF 20
ENDMDL
