MODEL 1
REMARK VINA RESULT:      -9.6      0.000      0.000
REMARK SMILES COCCS(=O)(=O)Cc1ccc(C(=O)NCCCCCCNC(=O)c2ccc(-c3c4nc(c(-c5c(F)cc(S(=O)(=O)[O-])cc5F)c5ccc([nH]5)c(-c5c(F)cc(S(=O)(=O)[O-])cc5F)c5nc(c(-c6c(F)cc(S(=O)(=O)[O-])cc6F)c6ccc3[nH]6)C=C5)C=C4)cc2)cn1
REMARK SMILES IDX 17 1 16 2 15 3 13 4 14 5 12 7 9 8 10 9 92 10 11 11 91 12
REMARK SMILES IDX 8 13 5 14 6 15 7 16 4 17 3 18 2 19 1 20 18 21 19 22 20 23
REMARK SMILES IDX 21 24 22 25 23 26 24 28 25 29 26 30 90 31 27 32 89 33 28 34
REMARK SMILES IDX 29 35 30 36 83 37 31 38 88 39 82 40 84 41 32 42 87 43 81 44
REMARK SMILES IDX 80 45 33 47 67 48 46 49 66 50 47 51 50 52 65 53 85 54 48 55
REMARK SMILES IDX 49 56 64 58 86 59 51 60 34 61 35 62 44 63 36 64 37 65 43 66
REMARK SMILES IDX 45 67 38 68 39 69 40 70 41 71 42 72 68 73 69 74 78 75 70 76
REMARK SMILES IDX 71 77 77 78 79 79 72 80 73 81 74 82 75 83 76 84 52 85 53 86
REMARK SMILES IDX 62 87 54 88 55 89 61 90 63 91 56 92 57 93 58 94 59 95 60 96
REMARK H PARENT 15 6 22 27 84 46 50 57
REMARK Flexibility Score: inf
ROOT
ATOM      1  C   UNL A   1      35.069  30.524  27.825  1.00  0.00     0.021 C 
ENDROOT
BRANCH   1   2
ATOM      2  C   UNL A   1      33.914  30.166  26.888  1.00  0.00     0.116 C 
BRANCH   2   3
ATOM      3  N   UNL A   1      32.891  29.438  27.616  1.00  0.00    -0.352 N 
ATOM      4  C   UNL A   1      32.225  28.278  27.328  1.00  0.00     0.252 C 
ATOM      5  O   UNL A   1      31.405  27.857  28.143  1.00  0.00    -0.269 OA
ATOM      6  H   UNL A   1      32.630  29.855  28.469  1.00  0.00     0.163 HD
BRANCH   4   7
ATOM      7  C   UNL A   1      32.497  27.484  26.108  1.00  0.00     0.058 A 
ATOM      8  C   UNL A   1      32.732  25.897  23.849  1.00  0.00     0.055 A 
ATOM      9  C   UNL A   1      33.880  26.338  24.496  1.00  0.00     0.026 A 
ATOM     10  N   UNL A   1      31.493  26.226  24.290  1.00  0.00    -0.259 NA
ATOM     11  C   UNL A   1      33.755  27.186  25.594  1.00  0.00     0.017 A 
ATOM     12  C   UNL A   1      31.403  26.999  25.404  1.00  0.00     0.125 A 
BRANCH   8  13
ATOM     13  C   UNL A   1      32.786  25.047  22.618  1.00  0.00     0.193 C 
BRANCH  13  14
ATOM     14  S   UNL A   1      33.486  23.442  22.972  1.00  0.00     0.158 S 
ATOM     15  O   UNL A   1      34.929  23.583  22.905  1.00  0.00    -0.228 OA
ATOM     16  O   UNL A   1      32.835  22.495  22.079  1.00  0.00    -0.228 OA
BRANCH  14  17
ATOM     17  C   UNL A   1      33.028  22.964  24.642  1.00  0.00     0.165 C 
BRANCH  17  18
ATOM     18  C   UNL A   1      31.686  22.267  24.752  1.00  0.00     0.176 C 
BRANCH  18  19
ATOM     19  O   UNL A   1      31.774  20.973  25.349  1.00  0.00    -0.384 OA
ATOM     20  C   UNL A   1      32.400  19.999  24.529  1.00  0.00     0.194 C 
ENDBRANCH  18  19
ENDBRANCH  17  18
ENDBRANCH  14  17
ENDBRANCH  13  14
ENDBRANCH   8  13
ENDBRANCH   4   7
ENDBRANCH   2   3
ENDBRANCH   1   2
BRANCH   1  21
ATOM     21  C   UNL A   1      35.207  32.034  28.042  1.00  0.00     0.002 C 
BRANCH  21  22
ATOM     22  C   UNL A   1      34.172  32.629  29.006  1.00  0.00     0.002 C 
BRANCH  22  23
ATOM     23  C   UNL A   1      33.353  33.790  28.432  1.00  0.00     0.021 C 
BRANCH  23  24
ATOM     24  C   UNL A   1      33.803  35.164  28.915  1.00  0.00     0.116 C 
BRANCH  24  25
ATOM     25  N   UNL A   1      32.974  35.635  30.014  1.00  0.00    -0.352 N 
ATOM     26  C   UNL A   1      33.031  35.300  31.344  1.00  0.00     0.251 C 
ATOM     27  H   UNL A   1      32.275  36.282  29.770  1.00  0.00     0.163 HD
ATOM     28  O   UNL A   1      32.093  35.573  32.085  1.00  0.00    -0.269 OA
BRANCH  26  29
ATOM     29  C   UNL A   1      34.224  34.608  31.870  1.00  0.00     0.039 A 
ATOM     30  C   UNL A   1      34.066  33.403  32.556  1.00  0.00     0.014 A 
ATOM     31  C   UNL A   1      35.497  35.161  31.697  1.00  0.00     0.014 A 
ATOM     32  C   UNL A   1      35.191  32.725  33.027  1.00  0.00     0.010 A 
ATOM     33  C   UNL A   1      36.621  34.448  32.101  1.00  0.00     0.010 A 
ATOM     34  C   UNL A   1      36.480  33.229  32.779  1.00  0.00    -0.014 A 
BRANCH  34  35
ATOM     35  C   UNL A   1      37.691  32.498  33.227  1.00  0.00     0.031 A 
ATOM     36  C   UNL A   1      38.378  32.890  34.507  1.00  0.00     0.074 A 
ATOM     37  C   UNL A   1      38.208  31.529  32.446  1.00  0.00     0.049 A 
ATOM     38  N   UNL A   1      39.480  32.418  35.030  1.00  0.00    -0.248 NA
ATOM     39  C   UNL A   1      37.762  33.976  35.285  1.00  0.00     0.031 C 
ATOM     40  C   UNL A   1      37.658  31.097  31.160  1.00  0.00     0.029 A 
ATOM     41  N   UNL A   1      39.317  30.739  32.615  1.00  0.00    -0.354 N 
ATOM     42  C   UNL A   1      39.695  33.156  36.188  1.00  0.00     0.074 A 
ATOM     43  C   UNL A   1      38.642  34.145  36.260  1.00  0.00     0.031 C 
ATOM     44  C   UNL A   1      38.419  30.107  30.667  1.00  0.00     0.029 A 
ATOM     45  C   UNL A   1      39.532  29.861  31.581  1.00  0.00     0.049 A 
ATOM     46  H   UNL A   1      39.905  30.797  33.403  1.00  0.00     0.167 HD
ATOM     47  C   UNL A   1      40.669  33.008  37.118  1.00  0.00     0.037 A 
ATOM     48  C   UNL A   1      40.516  28.963  31.385  1.00  0.00     0.037 A 
ATOM     49  C   UNL A   1      41.701  32.006  37.046  1.00  0.00     0.049 A 
ATOM     50  C   UNL A   1      41.587  28.813  32.431  1.00  0.00     0.074 A 
ATOM     51  C   UNL A   1      42.699  31.731  37.964  1.00  0.00     0.029 A 
ATOM     52  N   UNL A   1      41.873  31.119  35.993  1.00  0.00    -0.354 N 
ATOM     53  N   UNL A   1      41.738  29.473  33.554  1.00  0.00    -0.248 NA
ATOM     54  C   UNL A   1      42.616  27.793  32.188  1.00  0.00     0.031 C 
ATOM     55  C   UNL A   1      43.502  30.711  37.444  1.00  0.00     0.029 A 
ATOM     56  C   UNL A   1      42.973  30.311  36.226  1.00  0.00     0.049 A 
ATOM     57  H   UNL A   1      41.296  31.071  35.196  1.00  0.00     0.167 HD
ATOM     58  C   UNL A   1      42.863  28.930  34.166  1.00  0.00     0.074 A 
ATOM     59  C   UNL A   1      43.346  27.881  33.292  1.00  0.00     0.031 C 
ATOM     60  C   UNL A   1      43.440  29.268  35.346  1.00  0.00     0.037 A 
BRANCH  47  61
ATOM     61  C   UNL A   1      40.662  33.952  38.289  1.00  0.00     0.058 A 
ATOM     62  C   UNL A   1      39.914  33.688  39.449  1.00  0.00     0.135 A 
ATOM     63  C   UNL A   1      41.425  35.131  38.262  1.00  0.00     0.135 A 
ATOM     64  F   UNL A   1      39.155  32.583  39.526  1.00  0.00    -0.206 F 
ATOM     65  C   UNL A   1      39.889  34.576  40.520  1.00  0.00     0.059 A 
ATOM     66  C   UNL A   1      41.442  36.019  39.335  1.00  0.00     0.059 A 
ATOM     67  F   UNL A   1      42.162  35.435  37.181  1.00  0.00    -0.206 F 
ATOM     68  C   UNL A   1      40.654  35.741  40.451  1.00  0.00     0.060 A 
BRANCH  68  69
ATOM     69  S   UNL A   1      40.601  36.889  41.844  1.00  0.00     0.124 S 
ATOM     70  O   UNL A   1      40.825  35.989  42.971  1.00  0.00    -0.237 OA
ATOM     71  O   UNL A   1      41.695  37.804  41.537  1.00  0.00    -0.237 OA
ATOM     72  O   UNL A   1      39.262  37.465  41.758  1.00  0.00    -0.744 OA
ENDBRANCH  68  69
ENDBRANCH  47  61
BRANCH  48  73
ATOM     73  C   UNL A   1      40.513  28.121  30.159  1.00  0.00     0.058 A 
ATOM     74  C   UNL A   1      41.439  28.342  29.129  1.00  0.00     0.135 A 
ATOM     75  C   UNL A   1      39.612  27.055  30.010  1.00  0.00     0.135 A 
ATOM     76  F   UNL A   1      42.318  29.352  29.223  1.00  0.00    -0.206 F 
ATOM     77  C   UNL A   1      41.468  27.543  27.991  1.00  0.00     0.059 A 
ATOM     78  C   UNL A   1      39.638  26.226  28.893  1.00  0.00     0.059 A 
ATOM     79  F   UNL A   1      38.719  26.789  30.976  1.00  0.00    -0.206 F 
ATOM     80  C   UNL A   1      40.567  26.482  27.885  1.00  0.00     0.060 A 
BRANCH  80  81
ATOM     81  S   UNL A   1      40.659  25.410  26.435  1.00  0.00     0.124 S 
ATOM     82  O   UNL A   1      39.296  24.897  26.362  1.00  0.00    -0.237 OA
ATOM     83  O   UNL A   1      41.047  26.347  25.385  1.00  0.00    -0.237 OA
ATOM     84  O   UNL A   1      41.682  24.436  26.802  1.00  0.00    -0.744 OA
ENDBRANCH  80  81
ENDBRANCH  48  73
BRANCH  60  85
ATOM     85  C   UNL A   1      44.642  28.475  35.781  1.00  0.00     0.058 A 
ATOM     86  C   UNL A   1      44.521  27.312  36.556  1.00  0.00     0.135 A 
ATOM     87  C   UNL A   1      45.929  28.855  35.366  1.00  0.00     0.135 A 
ATOM     88  F   UNL A   1      43.314  26.908  36.984  1.00  0.00    -0.206 F 
ATOM     89  C   UNL A   1      45.635  26.564  36.924  1.00  0.00     0.059 A 
ATOM     90  C   UNL A   1      47.054  28.107  35.698  1.00  0.00     0.059 A 
ATOM     91  F   UNL A   1      46.102  29.955  34.614  1.00  0.00    -0.206 F 
ATOM     92  C   UNL A   1      46.898  26.969  36.488  1.00  0.00     0.060 A 
BRANCH  92  93
ATOM     93  S   UNL A   1      48.332  25.970  36.941  1.00  0.00     0.124 S 
ATOM     94  O   UNL A   1      47.720  24.939  37.772  1.00  0.00    -0.237 OA
ATOM     95  O   UNL A   1      48.826  25.526  35.641  1.00  0.00    -0.237 OA
ATOM     96  O   UNL A   1      49.195  26.914  37.645  1.00  0.00    -0.744 OA
ENDBRANCH  92  93
ENDBRANCH  60  85
ENDBRANCH  34  35
ENDBRANCH  26  29
ENDBRANCH  24  25
ENDBRANCH  23  24
ENDBRANCH  22  23
ENDBRANCH  21  22
ENDBRANCH   1  21
TORSDOF 21
ENDMDL
MODEL 2
REMARK VINA RESULT:      -9.5      6.446      8.698
REMARK SMILES COCCS(=O)(=O)Cc1ccc(C(=O)NCCCCCCNC(=O)c2ccc(-c3c4nc(c(-c5c(F)cc(S(=O)(=O)[O-])cc5F)c5ccc([nH]5)c(-c5c(F)cc(S(=O)(=O)[O-])cc5F)c5nc(c(-c6c(F)cc(S(=O)(=O)[O-])cc6F)c6ccc3[nH]6)C=C5)C=C4)cc2)cn1
REMARK SMILES IDX 17 1 16 2 15 3 13 4 14 5 12 7 9 8 10 9 92 10 11 11 91 12
REMARK SMILES IDX 8 13 5 14 6 15 7 16 4 17 3 18 2 19 1 20 18 21 19 22 20 23
REMARK SMILES IDX 21 24 22 25 23 26 24 28 25 29 26 30 90 31 27 32 89 33 28 34
REMARK SMILES IDX 29 35 30 36 83 37 31 38 88 39 82 40 84 41 32 42 87 43 81 44
REMARK SMILES IDX 80 45 33 47 67 48 46 49 66 50 47 51 50 52 65 53 85 54 48 55
REMARK SMILES IDX 49 56 64 58 86 59 51 60 34 61 35 62 44 63 36 64 37 65 43 66
REMARK SMILES IDX 45 67 38 68 39 69 40 70 41 71 42 72 68 73 69 74 78 75 70 76
REMARK SMILES IDX 71 77 77 78 79 79 72 80 73 81 74 82 75 83 76 84 52 85 53 86
REMARK SMILES IDX 62 87 54 88 55 89 61 90 63 91 56 92 57 93 58 94 59 95 60 96
REMARK H PARENT 15 6 22 27 84 46 50 57
REMARK Flexibility Score: inf
ROOT
ATOM      1  C   UNL A   1      35.474  31.259  28.410  1.00  0.00     0.021 C 
ENDROOT
BRANCH   1   2
ATOM      2  C   UNL A   1      34.477  30.418  27.610  1.00  0.00     0.116 C 
BRANCH   2   3
ATOM      3  N   UNL A   1      33.336  31.230  27.229  1.00  0.00    -0.352 N 
ATOM      4  C   UNL A   1      32.125  30.894  26.687  1.00  0.00     0.252 C 
ATOM      5  O   UNL A   1      31.310  31.791  26.477  1.00  0.00    -0.269 OA
ATOM      6  H   UNL A   1      33.456  32.194  27.388  1.00  0.00     0.163 HD
BRANCH   4   7
ATOM      7  C   UNL A   1      31.740  29.493  26.402  1.00  0.00     0.058 A 
ATOM      8  C   UNL A   1      31.108  26.807  26.139  1.00  0.00     0.055 A 
ATOM      9  C   UNL A   1      31.273  27.585  24.998  1.00  0.00     0.026 A 
ATOM     10  N   UNL A   1      31.241  27.329  27.383  1.00  0.00    -0.259 NA
ATOM     11  C   UNL A   1      31.530  28.947  25.138  1.00  0.00     0.017 A 
ATOM     12  C   UNL A   1      31.558  28.646  27.487  1.00  0.00     0.125 A 
BRANCH   8  13
ATOM     13  C   UNL A   1      30.756  25.355  26.069  1.00  0.00     0.193 C 
BRANCH  13  14
ATOM     14  S   UNL A   1      32.204  24.329  26.263  1.00  0.00     0.158 S 
ATOM     15  O   UNL A   1      31.967  23.469  27.409  1.00  0.00    -0.228 OA
ATOM     16  O   UNL A   1      33.352  25.224  26.289  1.00  0.00    -0.228 OA
BRANCH  14  17
ATOM     17  C   UNL A   1      32.390  23.304  24.799  1.00  0.00     0.165 C 
BRANCH  17  18
ATOM     18  C   UNL A   1      32.846  21.885  25.078  1.00  0.00     0.176 C 
BRANCH  18  19
ATOM     19  O   UNL A   1      33.946  21.819  25.988  1.00  0.00    -0.384 OA
ATOM     20  C   UNL A   1      35.025  21.018  25.533  1.00  0.00     0.194 C 
ENDBRANCH  18  19
ENDBRANCH  17  18
ENDBRANCH  14  17
ENDBRANCH  13  14
ENDBRANCH   8  13
ENDBRANCH   4   7
ENDBRANCH   2   3
ENDBRANCH   1   2
BRANCH   1  21
ATOM     21  C   UNL A   1      34.957  32.673  28.697  1.00  0.00     0.002 C 
BRANCH  21  22
ATOM     22  C   UNL A   1      35.234  33.167  30.123  1.00  0.00     0.002 C 
BRANCH  22  23
ATOM     23  C   UNL A   1      36.660  33.671  30.363  1.00  0.00     0.021 C 
BRANCH  23  24
ATOM     24  C   UNL A   1      37.342  33.047  31.575  1.00  0.00     0.116 C 
BRANCH  24  25
ATOM     25  N   UNL A   1      36.688  31.808  31.970  1.00  0.00    -0.352 N 
ATOM     26  C   UNL A   1      37.014  30.517  31.641  1.00  0.00     0.251 C 
ATOM     27  H   UNL A   1      35.904  31.912  32.553  1.00  0.00     0.163 HD
ATOM     28  O   UNL A   1      36.206  29.614  31.828  1.00  0.00    -0.269 OA
BRANCH  26  29
ATOM     29  C   UNL A   1      38.339  30.226  31.056  1.00  0.00     0.039 A 
ATOM     30  C   UNL A   1      39.393  29.873  31.899  1.00  0.00     0.014 A 
ATOM     31  C   UNL A   1      38.538  30.320  29.675  1.00  0.00     0.014 A 
ATOM     32  C   UNL A   1      40.640  29.565  31.351  1.00  0.00     0.010 A 
ATOM     33  C   UNL A   1      39.759  29.941  29.125  1.00  0.00     0.010 A 
ATOM     34  C   UNL A   1      40.824  29.570  29.958  1.00  0.00    -0.014 A 
BRANCH  34  35
ATOM     35  C   UNL A   1      42.127  29.196  29.353  1.00  0.00     0.031 A 
ATOM     36  C   UNL A   1      43.206  30.231  29.187  1.00  0.00     0.074 A 
ATOM     37  C   UNL A   1      42.310  27.943  28.893  1.00  0.00     0.049 A 
ATOM     38  N   UNL A   1      44.382  30.115  28.625  1.00  0.00    -0.248 NA
ATOM     39  C   UNL A   1      42.914  31.581  29.694  1.00  0.00     0.031 C 
ATOM     40  C   UNL A   1      41.317  26.868  28.951  1.00  0.00     0.029 A 
ATOM     41  N   UNL A   1      43.390  27.364  28.275  1.00  0.00    -0.354 N 
ATOM     42  C   UNL A   1      44.961  31.377  28.699  1.00  0.00     0.074 A 
ATOM     43  C   UNL A   1      43.986  32.255  29.307  1.00  0.00     0.031 C 
ATOM     44  C   UNL A   1      41.841  25.756  28.412  1.00  0.00     0.029 A 
ATOM     45  C   UNL A   1      43.191  26.048  27.934  1.00  0.00     0.049 A 
ATOM     46  H   UNL A   1      44.228  27.847  28.092  1.00  0.00     0.167 HD
ATOM     47  C   UNL A   1      46.202  31.762  28.314  1.00  0.00     0.037 A 
ATOM     48  C   UNL A   1      43.999  25.176  27.302  1.00  0.00     0.037 A 
ATOM     49  C   UNL A   1      47.172  30.874  27.727  1.00  0.00     0.049 A 
ATOM     50  C   UNL A   1      45.373  25.624  26.885  1.00  0.00     0.074 A 
ATOM     51  C   UNL A   1      48.477  31.147  27.358  1.00  0.00     0.029 A 
ATOM     52  N   UNL A   1      46.941  29.540  27.418  1.00  0.00    -0.354 N 
ATOM     53  N   UNL A   1      45.932  26.802  27.023  1.00  0.00    -0.248 NA
ATOM     54  C   UNL A   1      46.229  24.623  26.235  1.00  0.00     0.031 C 
ATOM     55  C   UNL A   1      49.018  29.994  26.781  1.00  0.00     0.029 A 
ATOM     56  C   UNL A   1      48.071  28.985  26.841  1.00  0.00     0.049 A 
ATOM     57  H   UNL A   1      46.097  29.061  27.584  1.00  0.00     0.167 HD
ATOM     58  C   UNL A   1      47.215  26.679  26.501  1.00  0.00     0.074 A 
ATOM     59  C   UNL A   1      47.352  25.307  26.055  1.00  0.00     0.031 C 
ATOM     60  C   UNL A   1      48.192  27.615  26.404  1.00  0.00     0.037 A 
BRANCH  47  61
ATOM     61  C   UNL A   1      46.576  33.206  28.515  1.00  0.00     0.058 A 
ATOM     62  C   UNL A   1      46.346  34.175  27.525  1.00  0.00     0.135 A 
ATOM     63  C   UNL A   1      47.159  33.631  29.720  1.00  0.00     0.135 A 
ATOM     64  F   UNL A   1      45.804  33.824  26.348  1.00  0.00    -0.206 F 
ATOM     65  C   UNL A   1      46.717  35.504  27.705  1.00  0.00     0.059 A 
ATOM     66  C   UNL A   1      47.508  34.962  29.935  1.00  0.00     0.059 A 
ATOM     67  F   UNL A   1      47.401  32.749  30.703  1.00  0.00    -0.206 F 
ATOM     68  C   UNL A   1      47.301  35.887  28.913  1.00  0.00     0.060 A 
BRANCH  68  69
ATOM     69  S   UNL A   1      47.789  37.612  29.125  1.00  0.00     0.124 S 
ATOM     70  O   UNL A   1      47.989  37.681  30.570  1.00  0.00    -0.237 OA
ATOM     71  O   UNL A   1      48.998  37.698  28.313  1.00  0.00    -0.237 OA
ATOM     72  O   UNL A   1      46.640  38.355  28.615  1.00  0.00    -0.744 OA
ENDBRANCH  68  69
ENDBRANCH  47  61
BRANCH  48  73
ATOM     73  C   UNL A   1      43.533  23.786  27.054  1.00  0.00     0.058 A 
ATOM     74  C   UNL A   1      43.388  22.873  28.110  1.00  0.00     0.135 A 
ATOM     75  C   UNL A   1      43.186  23.352  25.764  1.00  0.00     0.135 A 
ATOM     76  F   UNL A   1      43.712  23.238  29.360  1.00  0.00    -0.206 F 
ATOM     77  C   UNL A   1      42.925  21.580  27.897  1.00  0.00     0.059 A 
ATOM     78  C   UNL A   1      42.697  22.072  25.530  1.00  0.00     0.059 A 
ATOM     79  F   UNL A   1      43.288  24.193  24.723  1.00  0.00    -0.206 F 
ATOM     80  C   UNL A   1      42.575  21.190  26.603  1.00  0.00     0.060 A 
BRANCH  80  81
ATOM     81  S   UNL A   1      41.910  19.531  26.348  1.00  0.00     0.124 S 
ATOM     82  O   UNL A   1      40.475  19.769  26.452  1.00  0.00    -0.237 OA
ATOM     83  O   UNL A   1      42.409  19.202  25.017  1.00  0.00    -0.237 OA
ATOM     84  O   UNL A   1      42.502  18.760  27.438  1.00  0.00    -0.744 OA
ENDBRANCH  80  81
ENDBRANCH  48  73
BRANCH  60  85
ATOM     85  C   UNL A   1      49.509  27.183  25.821  1.00  0.00     0.058 A 
ATOM     86  C   UNL A   1      49.788  27.304  24.451  1.00  0.00     0.135 A 
ATOM     87  C   UNL A   1      50.527  26.694  26.656  1.00  0.00     0.135 A 
ATOM     88  F   UNL A   1      48.848  27.759  23.608  1.00  0.00    -0.206 F 
ATOM     89  C   UNL A   1      51.022  26.934  23.926  1.00  0.00     0.059 A 
ATOM     90  C   UNL A   1      51.778  26.346  26.157  1.00  0.00     0.059 A 
ATOM     91  F   UNL A   1      50.317  26.567  27.977  1.00  0.00    -0.206 F 
ATOM     92  C   UNL A   1      52.012  26.459  24.788  1.00  0.00     0.060 A 
BRANCH  92  93
ATOM     93  S   UNL A   1      53.622  26.018  24.099  1.00  0.00     0.124 S 
ATOM     94  O   UNL A   1      53.938  24.805  24.846  1.00  0.00    -0.237 OA
ATOM     95  O   UNL A   1      53.314  25.829  22.685  1.00  0.00    -0.237 OA
ATOM     96  O   UNL A   1      54.452  27.179  24.405  1.00  0.00    -0.744 OA
ENDBRANCH  92  93
ENDBRANCH  60  85
ENDBRANCH  34  35
ENDBRANCH  26  29
ENDBRANCH  24  25
ENDBRANCH  23  24
ENDBRANCH  22  23
ENDBRANCH  21  22
ENDBRANCH   1  21
TORSDOF 21
ENDMDL
MODEL 3
REMARK VINA RESULT:      -9.4      6.441      8.430
REMARK SMILES COCCS(=O)(=O)Cc1ccc(C(=O)NCCCCCCNC(=O)c2ccc(-c3c4nc(c(-c5c(F)cc(S(=O)(=O)[O-])cc5F)c5ccc([nH]5)c(-c5c(F)cc(S(=O)(=O)[O-])cc5F)c5nc(c(-c6c(F)cc(S(=O)(=O)[O-])cc6F)c6ccc3[nH]6)C=C5)C=C4)cc2)cn1
REMARK SMILES IDX 17 1 16 2 15 3 13 4 14 5 12 7 9 8 10 9 92 10 11 11 91 12
REMARK SMILES IDX 8 13 5 14 6 15 7 16 4 17 3 18 2 19 1 20 18 21 19 22 20 23
REMARK SMILES IDX 21 24 22 25 23 26 24 28 25 29 26 30 90 31 27 32 89 33 28 34
REMARK SMILES IDX 29 35 30 36 83 37 31 38 88 39 82 40 84 41 32 42 87 43 81 44
REMARK SMILES IDX 80 45 33 47 67 48 46 49 66 50 47 51 50 52 65 53 85 54 48 55
REMARK SMILES IDX 49 56 64 58 86 59 51 60 34 61 35 62 44 63 36 64 37 65 43 66
REMARK SMILES IDX 45 67 38 68 39 69 40 70 41 71 42 72 68 73 69 74 78 75 70 76
REMARK SMILES IDX 71 77 77 78 79 79 72 80 73 81 74 82 75 83 76 84 52 85 53 86
REMARK SMILES IDX 62 87 54 88 55 89 61 90 63 91 56 92 57 93 58 94 59 95 60 96
REMARK H PARENT 15 6 22 27 84 46 50 57
REMARK Flexibility Score: inf
ROOT
ATOM      1  C   UNL A   1      31.931  28.957  26.157  1.00  0.00     0.021 C 
ENDROOT
BRANCH   1   2
ATOM      2  C   UNL A   1      32.069  29.011  24.634  1.00  0.00     0.116 C 
BRANCH   2   3
ATOM      3  N   UNL A   1      30.759  28.951  24.015  1.00  0.00    -0.352 N 
ATOM      4  C   UNL A   1      29.972  27.888  23.659  1.00  0.00     0.252 C 
ATOM      5  O   UNL A   1      28.871  28.118  23.161  1.00  0.00    -0.269 OA
ATOM      6  H   UNL A   1      30.366  29.831  23.814  1.00  0.00     0.163 HD
BRANCH   4   7
ATOM      7  C   UNL A   1      30.369  26.484  23.906  1.00  0.00     0.058 A 
ATOM      8  C   UNL A   1      31.106  23.919  24.653  1.00  0.00     0.055 A 
ATOM      9  C   UNL A   1      31.357  24.351  23.356  1.00  0.00     0.026 A 
ATOM     10  N   UNL A   1      30.503  24.718  25.567  1.00  0.00    -0.259 NA
ATOM     11  C   UNL A   1      30.928  25.619  22.969  1.00  0.00     0.017 A 
ATOM     12  C   UNL A   1      30.158  25.974  25.180  1.00  0.00     0.125 A 
BRANCH   8  13
ATOM     13  C   UNL A   1      31.468  22.544  25.120  1.00  0.00     0.193 C 
BRANCH  13  14
ATOM     14  S   UNL A   1      33.062  22.534  25.924  1.00  0.00     0.158 S 
ATOM     15  O   UNL A   1      32.822  22.333  27.343  1.00  0.00    -0.228 OA
ATOM     16  O   UNL A   1      33.756  23.740  25.498  1.00  0.00    -0.228 OA
BRANCH  14  17
ATOM     17  C   UNL A   1      34.020  21.148  25.299  1.00  0.00     0.165 C 
BRANCH  17  18
ATOM     18  C   UNL A   1      33.324  19.805  25.401  1.00  0.00     0.176 C 
BRANCH  18  19
ATOM     19  O   UNL A   1      33.486  19.000  24.232  1.00  0.00    -0.384 OA
ATOM     20  C   UNL A   1      34.415  17.939  24.384  1.00  0.00     0.194 C 
ENDBRANCH  18  19
ENDBRANCH  17  18
ENDBRANCH  14  17
ENDBRANCH  13  14
ENDBRANCH   8  13
ENDBRANCH   4   7
ENDBRANCH   2   3
ENDBRANCH   1   2
BRANCH   1  21
ATOM     21  C   UNL A   1      32.351  30.265  26.835  1.00  0.00     0.002 C 
BRANCH  21  22
ATOM     22  C   UNL A   1      33.840  30.336  27.199  1.00  0.00     0.002 C 
BRANCH  22  23
ATOM     23  C   UNL A   1      34.263  31.618  27.923  1.00  0.00     0.021 C 
BRANCH  23  24
ATOM     24  C   UNL A   1      35.640  31.537  28.573  1.00  0.00     0.116 C 
BRANCH  24  25
ATOM     25  N   UNL A   1      35.535  31.360  30.013  1.00  0.00    -0.352 N 
ATOM     26  C   UNL A   1      36.339  30.634  30.856  1.00  0.00     0.251 C 
ATOM     27  H   UNL A   1      34.782  31.825  30.443  1.00  0.00     0.163 HD
ATOM     28  O   UNL A   1      35.957  30.367  31.989  1.00  0.00    -0.269 OA
BRANCH  26  29
ATOM     29  C   UNL A   1      37.662  30.176  30.384  1.00  0.00     0.039 A 
ATOM     30  C   UNL A   1      37.985  30.304  29.032  1.00  0.00     0.014 A 
ATOM     31  C   UNL A   1      38.573  29.606  31.278  1.00  0.00     0.014 A 
ATOM     32  C   UNL A   1      39.245  29.904  28.584  1.00  0.00     0.010 A 
ATOM     33  C   UNL A   1      39.854  29.277  30.845  1.00  0.00     0.010 A 
ATOM     34  C   UNL A   1      40.199  29.413  29.493  1.00  0.00    -0.014 A 
BRANCH  34  35
ATOM     35  C   UNL A   1      41.561  29.031  29.045  1.00  0.00     0.031 A 
ATOM     36  C   UNL A   1      42.652  30.065  28.980  1.00  0.00     0.074 A 
ATOM     37  C   UNL A   1      41.795  27.769  28.633  1.00  0.00     0.049 A 
ATOM     38  N   UNL A   1      43.883  29.942  28.555  1.00  0.00    -0.248 NA
ATOM     39  C   UNL A   1      42.304  31.425  29.424  1.00  0.00     0.031 C 
ATOM     40  C   UNL A   1      40.803  26.693  28.602  1.00  0.00     0.029 A 
ATOM     41  N   UNL A   1      42.937  27.181  28.151  1.00  0.00    -0.354 N 
ATOM     42  C   UNL A   1      44.450  31.206  28.668  1.00  0.00     0.074 A 
ATOM     43  C   UNL A   1      43.413  32.093  29.146  1.00  0.00     0.031 C 
ATOM     44  C   UNL A   1      41.384  25.572  28.147  1.00  0.00     0.029 A 
ATOM     45  C   UNL A   1      42.778  25.858  27.817  1.00  0.00     0.049 A 
ATOM     46  H   UNL A   1      43.790  27.663  28.054  1.00  0.00     0.167 HD
ATOM     47  C   UNL A   1      45.726  31.587  28.416  1.00  0.00     0.037 A 
ATOM     48  C   UNL A   1      43.652  24.976  27.297  1.00  0.00     0.037 A 
ATOM     49  C   UNL A   1      46.756  30.689  27.960  1.00  0.00     0.049 A 
ATOM     50  C   UNL A   1      45.064  25.419  27.028  1.00  0.00     0.074 A 
ATOM     51  C   UNL A   1      48.093  30.959  27.733  1.00  0.00     0.029 A 
ATOM     52  N   UNL A   1      46.561  29.350  27.653  1.00  0.00    -0.354 N 
ATOM     53  N   UNL A   1      45.604  26.601  27.203  1.00  0.00    -0.248 NA
ATOM     54  C   UNL A   1      45.989  24.408  26.497  1.00  0.00     0.031 C 
ATOM     55  C   UNL A   1      48.697  29.796  27.243  1.00  0.00     0.029 A 
ATOM     56  C   UNL A   1      47.749  28.785  27.217  1.00  0.00     0.049 A 
ATOM     57  H   UNL A   1      45.705  28.871  27.734  1.00  0.00     0.167 HD
ATOM     58  C   UNL A   1      46.937  26.471  26.831  1.00  0.00     0.074 A 
ATOM     59  C   UNL A   1      47.124  25.091  26.430  1.00  0.00     0.031 C 
ATOM     60  C   UNL A   1      47.918  27.408  26.824  1.00  0.00     0.037 A 
BRANCH  47  61
ATOM     61  C   UNL A   1      46.074  33.035  28.629  1.00  0.00     0.058 A 
ATOM     62  C   UNL A   1      46.531  33.511  29.870  1.00  0.00     0.135 A 
ATOM     63  C   UNL A   1      45.966  33.959  27.577  1.00  0.00     0.135 A 
ATOM     64  F   UNL A   1      46.641  32.677  30.916  1.00  0.00    -0.206 F 
ATOM     65  C   UNL A   1      46.828  34.856  30.070  1.00  0.00     0.059 A 
ATOM     66  C   UNL A   1      46.289  35.303  27.746  1.00  0.00     0.059 A 
ATOM     67  F   UNL A   1      45.537  33.560  26.369  1.00  0.00    -0.206 F 
ATOM     68  C   UNL A   1      46.700  35.744  29.002  1.00  0.00     0.060 A 
BRANCH  68  69
ATOM     69  S   UNL A   1      47.076  37.488  29.283  1.00  0.00     0.124 S 
ATOM     70  O   UNL A   1      48.216  37.685  28.392  1.00  0.00    -0.237 OA
ATOM     71  O   UNL A   1      45.837  38.144  28.880  1.00  0.00    -0.237 OA
ATOM     72  O   UNL A   1      47.378  37.545  30.710  1.00  0.00    -0.744 OA
ENDBRANCH  68  69
ENDBRANCH  47  61
BRANCH  48  73
ATOM     73  C   UNL A   1      43.218  23.580  27.026  1.00  0.00     0.058 A 
ATOM     74  C   UNL A   1      42.964  23.144  25.717  1.00  0.00     0.135 A 
ATOM     75  C   UNL A   1      43.085  22.643  28.064  1.00  0.00     0.135 A 
ATOM     76  F   UNL A   1      43.072  24.003  24.692  1.00  0.00    -0.206 F 
ATOM     77  C   UNL A   1      42.587  21.833  25.446  1.00  0.00     0.059 A 
ATOM     78  C   UNL A   1      42.734  21.321  27.815  1.00  0.00     0.059 A 
ATOM     79  F   UNL A   1      43.335  23.005  29.332  1.00  0.00    -0.206 F 
ATOM     80  C   UNL A   1      42.481  20.926  26.502  1.00  0.00     0.060 A 
BRANCH  80  81
ATOM     81  S   UNL A   1      42.057  19.211  26.130  1.00  0.00     0.124 S 
ATOM     82  O   UNL A   1      42.921  18.934  24.989  1.00  0.00    -0.237 OA
ATOM     83  O   UNL A   1      42.405  18.533  27.376  1.00  0.00    -0.237 OA
ATOM     84  O   UNL A   1      40.628  19.273  25.839  1.00  0.00    -0.744 OA
ENDBRANCH  80  81
ENDBRANCH  48  73
BRANCH  60  85
ATOM     85  C   UNL A   1      49.293  26.968  26.401  1.00  0.00     0.058 A 
ATOM     86  C   UNL A   1      49.712  27.033  25.064  1.00  0.00     0.135 A 
ATOM     87  C   UNL A   1      50.222  26.528  27.358  1.00  0.00     0.135 A 
ATOM     88  F   UNL A   1      48.861  27.439  24.108  1.00  0.00    -0.206 F 
ATOM     89  C   UNL A   1      50.997  26.657  24.686  1.00  0.00     0.059 A 
ATOM     90  C   UNL A   1      51.521  26.175  27.008  1.00  0.00     0.059 A 
ATOM     91  F   UNL A   1      49.877  26.457  28.654  1.00  0.00    -0.206 F 
ATOM     92  C   UNL A   1      51.895  26.232  25.666  1.00  0.00     0.060 A 
BRANCH  92  93
ATOM     93  S   UNL A   1      53.572  25.782  25.168  1.00  0.00     0.124 S 
ATOM     94  O   UNL A   1      53.810  24.594  25.981  1.00  0.00    -0.237 OA
ATOM     95  O   UNL A   1      53.420  25.550  23.735  1.00  0.00    -0.237 OA
ATOM     96  O   UNL A   1      54.360  26.957  25.528  1.00  0.00    -0.744 OA
ENDBRANCH  92  93
ENDBRANCH  60  85
ENDBRANCH  34  35
ENDBRANCH  26  29
ENDBRANCH  24  25
ENDBRANCH  23  24
ENDBRANCH  22  23
ENDBRANCH  21  22
ENDBRANCH   1  21
TORSDOF 21
ENDMDL
