MODEL 1
REMARK VINA RESULT:     -11.6      0.000      0.000
REMARK SMILES CC(C)(C)OC(=O)N1CCC[C@H]1C(=O)N1CCC[C@H]1C(=O)N1CCC[C@@H]1C(=O)NCCCCCCNC(=O)c1ccc(-c2c3nc(c(-c4c(F)cc(S(=O)(=O)[O-])cc4F)c4ccc([nH]4)c(-c4c(F)cc(S(=O)(=O)[O-])cc4F)c4nc(c(-c5c(F)cc(S(=O)(=O)[O-])cc5F)c5ccc2[nH]5)C=C4)C=C3)cc1
REMARK SMILES IDX 30 1 29 2 27 3 28 4 26 6 22 7 23 8 24 9 25 10 20 11 21 12
REMARK SMILES IDX 19 13 15 14 16 15 17 16 18 17 13 18 14 19 12 20 8 21 9 22
REMARK SMILES IDX 10 23 11 24 6 25 7 26 5 27 2 28 1 29 3 30 4 31 31 32 32 33
REMARK SMILES IDX 33 34 34 35 35 36 36 37 37 38 38 40 39 41 40 42 104 43 41 44
REMARK SMILES IDX 103 45 42 46 43 47 44 48 97 49 45 50 102 51 96 52 98 53
REMARK SMILES IDX 46 54 101 55 95 56 94 57 47 59 81 60 60 61 80 62 61 63 64 64
REMARK SMILES IDX 79 65 99 66 62 67 63 68 78 70 100 71 65 72 48 73 49 74 58 75
REMARK SMILES IDX 50 76 51 77 57 78 59 79 52 80 53 81 54 82 55 83 56 84 82 85
REMARK SMILES IDX 83 86 92 87 84 88 85 89 91 90 93 91 86 92 87 93 88 94 89 95
REMARK SMILES IDX 90 96 66 97 67 98 76 99 68 100 69 101 75 102 77 103 70 104
REMARK SMILES IDX 71 105 72 106 73 107 74 108
REMARK H PARENT 29 5 36 39 98 58 64 69
REMARK Flexibility Score: inf
ROOT
ATOM      1  C   UNL A   1      37.557  22.323  25.298  1.00  0.00     0.116 C 
ENDROOT
BRANCH   1   2
ATOM      2  N   UNL A   1      36.562  21.866  26.247  1.00  0.00    -0.354 N 
ATOM      3  C   UNL A   1      35.251  21.534  26.075  1.00  0.00     0.242 C 
ATOM      4  O   UNL A   1      34.549  21.485  27.090  1.00  0.00    -0.273 OA
ATOM      5  H   UNL A   1      36.888  21.779  27.171  1.00  0.00     0.163 HD
BRANCH   3   6
ATOM      6  C   UNL A   1      34.605  21.425  24.679  1.00  0.00     0.174 C 
ATOM      7  N   UNL A   1      33.686  22.513  24.348  1.00  0.00    -0.329 N 
ATOM      8  C   UNL A   1      32.523  21.972  23.666  1.00  0.00     0.120 C 
ATOM      9  C   UNL A   1      32.376  20.556  24.187  1.00  0.00     0.024 C 
ATOM     10  C   UNL A   1      33.799  20.126  24.523  1.00  0.00     0.037 C 
BRANCH   7  11
ATOM     11  C   UNL A   1      34.223  23.738  23.934  1.00  0.00     0.246 C 
ATOM     12  O   UNL A   1      35.019  23.822  23.002  1.00  0.00    -0.272 OA
BRANCH  11  13
ATOM     13  C   UNL A   1      33.661  24.953  24.715  1.00  0.00     0.174 C 
ATOM     14  N   UNL A   1      32.505  25.665  24.139  1.00  0.00    -0.329 N 
ATOM     15  C   UNL A   1      31.341  25.495  24.982  1.00  0.00     0.120 C 
ATOM     16  C   UNL A   1      31.913  25.295  26.367  1.00  0.00     0.024 C 
ATOM     17  C   UNL A   1      33.176  24.500  26.103  1.00  0.00     0.037 C 
BRANCH  14  18
ATOM     18  C   UNL A   1      32.669  26.497  23.038  1.00  0.00     0.246 C 
ATOM     19  O   UNL A   1      32.936  26.005  21.938  1.00  0.00    -0.272 OA
BRANCH  18  20
ATOM     20  C   UNL A   1      32.695  28.051  23.264  1.00  0.00     0.178 C 
ATOM     21  N   UNL A   1      31.384  28.632  23.608  1.00  0.00    -0.296 N 
ATOM     22  C   UNL A   1      31.403  29.286  24.900  1.00  0.00     0.124 C 
ATOM     23  C   UNL A   1      32.844  29.713  25.035  1.00  0.00     0.024 C 
ATOM     24  C   UNL A   1      33.597  28.545  24.410  1.00  0.00     0.037 C 
BRANCH  21  25
ATOM     25  C   UNL A   1      30.361  28.738  22.694  1.00  0.00     0.410 C 
ATOM     26  O   UNL A   1      29.839  27.779  22.143  1.00  0.00    -0.224 OA
BRANCH  25  27
ATOM     27  O   UNL A   1      30.062  30.039  22.443  1.00  0.00    -0.444 OA
BRANCH  27  28
ATOM     28  C   UNL A   1      28.763  30.641  22.682  1.00  0.00     0.106 C 
ATOM     29  C   UNL A   1      28.462  31.453  21.411  1.00  0.00     0.056 C 
ATOM     30  C   UNL A   1      28.909  31.596  23.868  1.00  0.00     0.056 C 
ATOM     31  C   UNL A   1      27.608  29.659  22.904  1.00  0.00     0.056 C 
ENDBRANCH  27  28
ENDBRANCH  25  27
ENDBRANCH  21  25
ENDBRANCH  18  20
ENDBRANCH  14  18
ENDBRANCH  11  13
ENDBRANCH   7  11
ENDBRANCH   3   6
ENDBRANCH   1   2
BRANCH   1  32
ATOM     32  C   UNL A   1      38.819  22.801  26.017  1.00  0.00     0.021 C 
BRANCH  32  33
ATOM     33  C   UNL A   1      39.635  21.671  26.654  1.00  0.00     0.002 C 
BRANCH  33  34
ATOM     34  C   UNL A   1      41.147  21.745  26.406  1.00  0.00     0.002 C 
BRANCH  34  35
ATOM     35  C   UNL A   1      42.004  21.976  27.655  1.00  0.00     0.021 C 
BRANCH  35  36
ATOM     36  C   UNL A   1      42.921  23.193  27.581  1.00  0.00     0.116 C 
BRANCH  36  37
ATOM     37  N   UNL A   1      42.812  23.876  26.302  1.00  0.00    -0.352 N 
ATOM     38  C   UNL A   1      42.332  25.131  26.022  1.00  0.00     0.251 C 
ATOM     39  H   UNL A   1      43.129  23.363  25.523  1.00  0.00     0.163 HD
ATOM     40  O   UNL A   1      42.118  25.460  24.860  1.00  0.00    -0.269 OA
BRANCH  38  41
ATOM     41  C   UNL A   1      42.065  26.081  27.123  1.00  0.00     0.039 A 
ATOM     42  C   UNL A   1      41.013  25.818  28.003  1.00  0.00     0.014 A 
ATOM     43  C   UNL A   1      42.833  27.240  27.272  1.00  0.00     0.014 A 
ATOM     44  C   UNL A   1      40.762  26.692  29.064  1.00  0.00     0.010 A 
ATOM     45  C   UNL A   1      42.622  28.076  28.366  1.00  0.00     0.010 A 
ATOM     46  C   UNL A   1      41.580  27.815  29.268  1.00  0.00    -0.014 A 
BRANCH  46  47
ATOM     47  C   UNL A   1      41.357  28.734  30.413  1.00  0.00     0.031 A 
ATOM     48  C   UNL A   1      42.220  28.630  31.640  1.00  0.00     0.074 A 
ATOM     49  C   UNL A   1      40.339  29.615  30.373  1.00  0.00     0.049 A 
ATOM     50  N   UNL A   1      42.129  29.280  32.772  1.00  0.00    -0.248 NA
ATOM     51  C   UNL A   1      43.313  27.645  31.601  1.00  0.00     0.031 C 
ATOM     52  C   UNL A   1      39.405  29.780  29.256  1.00  0.00     0.029 A 
ATOM     53  N   UNL A   1      39.907  30.528  31.302  1.00  0.00    -0.354 N 
ATOM     54  C   UNL A   1      43.137  28.773  33.584  1.00  0.00     0.074 A 
ATOM     55  C   UNL A   1      43.798  27.728  32.832  1.00  0.00     0.031 C 
ATOM     56  C   UNL A   1      38.522  30.745  29.558  1.00  0.00     0.029 A 
ATOM     57  C   UNL A   1      38.803  31.244  30.902  1.00  0.00     0.049 A 
ATOM     58  H   UNL A   1      40.347  30.659  32.172  1.00  0.00     0.167 HD
ATOM     59  C   UNL A   1      43.493  29.157  34.833  1.00  0.00     0.037 A 
ATOM     60  C   UNL A   1      38.092  32.188  31.548  1.00  0.00     0.037 A 
ATOM     61  C   UNL A   1      42.851  30.219  35.563  1.00  0.00     0.049 A 
ATOM     62  C   UNL A   1      38.512  32.607  32.930  1.00  0.00     0.074 A 
ATOM     63  C   UNL A   1      43.174  30.724  36.810  1.00  0.00     0.029 A 
ATOM     64  N   UNL A   1      41.755  30.941  35.111  1.00  0.00    -0.354 N 
ATOM     65  N   UNL A   1      39.503  32.154  33.661  1.00  0.00    -0.248 NA
ATOM     66  C   UNL A   1      37.725  33.668  33.573  1.00  0.00     0.031 C 
ATOM     67  C   UNL A   1      42.251  31.727  37.128  1.00  0.00     0.029 A 
ATOM     68  C   UNL A   1      41.380  31.876  36.061  1.00  0.00     0.049 A 
ATOM     69  H   UNL A   1      41.310  30.808  34.243  1.00  0.00     0.167 HD
ATOM     70  C   UNL A   1      39.474  32.892  34.838  1.00  0.00     0.074 A 
ATOM     71  C   UNL A   1      38.375  33.827  34.717  1.00  0.00     0.031 C 
ATOM     72  C   UNL A   1      40.286  32.805  35.921  1.00  0.00     0.037 A 
BRANCH  59  73
ATOM     73  C   UNL A   1      44.633  28.427  35.488  1.00  0.00     0.058 A 
ATOM     74  C   UNL A   1      44.419  27.288  36.282  1.00  0.00     0.135 A 
ATOM     75  C   UNL A   1      45.958  28.851  35.295  1.00  0.00     0.135 A 
ATOM     76  F   UNL A   1      43.172  26.848  36.511  1.00  0.00    -0.206 F 
ATOM     77  C   UNL A   1      45.475  26.616  36.889  1.00  0.00     0.059 A 
ATOM     78  C   UNL A   1      47.032  28.177  35.870  1.00  0.00     0.059 A 
ATOM     79  F   UNL A   1      46.220  29.932  34.545  1.00  0.00    -0.206 F 
ATOM     80  C   UNL A   1      46.778  27.070  36.678  1.00  0.00     0.060 A 
BRANCH  80  81
ATOM     81  S   UNL A   1      48.138  26.186  37.472  1.00  0.00     0.124 S 
ATOM     82  O   UNL A   1      48.056  26.695  38.838  1.00  0.00    -0.237 OA
ATOM     83  O   UNL A   1      47.752  24.790  37.293  1.00  0.00    -0.237 OA
ATOM     84  O   UNL A   1      49.310  26.612  36.712  1.00  0.00    -0.744 OA
ENDBRANCH  80  81
ENDBRANCH  59  73
BRANCH  60  85
ATOM     85  C   UNL A   1      36.919  32.815  30.883  1.00  0.00     0.058 A 
ATOM     86  C   UNL A   1      37.082  33.897  30.004  1.00  0.00     0.135 A 
ATOM     87  C   UNL A   1      35.618  32.338  31.096  1.00  0.00     0.135 A 
ATOM     88  F   UNL A   1      38.307  34.393  29.773  1.00  0.00    -0.206 F 
ATOM     89  C   UNL A   1      35.996  34.493  29.371  1.00  0.00     0.059 A 
ATOM     90  C   UNL A   1      34.517  32.902  30.457  1.00  0.00     0.059 A 
ATOM     91  F   UNL A   1      35.409  31.294  31.913  1.00  0.00    -0.206 F 
ATOM     92  C   UNL A   1      34.717  33.986  29.603  1.00  0.00     0.060 A 
BRANCH  92  93
ATOM     93  S   UNL A   1      33.317  34.730  28.737  1.00  0.00     0.124 S 
ATOM     94  O   UNL A   1      32.455  35.114  29.848  1.00  0.00    -0.237 OA
ATOM     95  O   UNL A   1      33.953  35.827  28.012  1.00  0.00    -0.237 OA
ATOM     96  O   UNL A   1      32.825  33.640  27.901  1.00  0.00    -0.744 OA
ENDBRANCH  92  93
ENDBRANCH  60  85
BRANCH  72  97
ATOM     97  C   UNL A   1      40.039  33.767  37.049  1.00  0.00     0.058 A 
ATOM     98  C   UNL A   1      40.704  34.999  37.127  1.00  0.00     0.135 A 
ATOM     99  C   UNL A   1      39.083  33.472  38.036  1.00  0.00     0.135 A 
ATOM    100  F   UNL A   1      41.632  35.325  36.213  1.00  0.00    -0.206 F 
ATOM    101  C   UNL A   1      40.446  35.899  38.156  1.00  0.00     0.059 A 
ATOM    102  C   UNL A   1      38.792  34.367  39.059  1.00  0.00     0.059 A 
ATOM    103  F   UNL A   1      38.412  32.310  38.002  1.00  0.00    -0.206 F 
ATOM    104  C   UNL A   1      39.487  35.575  39.117  1.00  0.00     0.060 A 
BRANCH 104 105
ATOM    105  S   UNL A   1      39.135  36.766  40.427  1.00  0.00     0.124 S 
ATOM    106  O   UNL A   1      40.476  37.079  40.907  1.00  0.00    -0.237 OA
ATOM    107  O   UNL A   1      38.455  37.836  39.702  1.00  0.00    -0.237 OA
ATOM    108  O   UNL A   1      38.295  36.014  41.353  1.00  0.00    -0.744 OA
ENDBRANCH 104 105
ENDBRANCH  72  97
ENDBRANCH  46  47
ENDBRANCH  38  41
ENDBRANCH  36  37
ENDBRANCH  35  36
ENDBRANCH  34  35
ENDBRANCH  33  34
ENDBRANCH  32  33
ENDBRANCH   1  32
TORSDOF 23
ENDMDL
MODEL 2
REMARK VINA RESULT:     -11.4      0.923      2.168
REMARK SMILES CC(C)(C)OC(=O)N1CCC[C@H]1C(=O)N1CCC[C@H]1C(=O)N1CCC[C@@H]1C(=O)NCCCCCCNC(=O)c1ccc(-c2c3nc(c(-c4c(F)cc(S(=O)(=O)[O-])cc4F)c4ccc([nH]4)c(-c4c(F)cc(S(=O)(=O)[O-])cc4F)c4nc(c(-c5c(F)cc(S(=O)(=O)[O-])cc5F)c5ccc2[nH]5)C=C4)C=C3)cc1
REMARK SMILES IDX 30 1 29 2 27 3 28 4 26 6 22 7 23 8 24 9 25 10 20 11 21 12
REMARK SMILES IDX 19 13 15 14 16 15 17 16 18 17 13 18 14 19 12 20 8 21 9 22
REMARK SMILES IDX 10 23 11 24 6 25 7 26 5 27 2 28 1 29 3 30 4 31 31 32 32 33
REMARK SMILES IDX 33 34 34 35 35 36 36 37 37 38 38 40 39 41 40 42 104 43 41 44
REMARK SMILES IDX 103 45 42 46 43 47 44 48 97 49 45 50 102 51 96 52 98 53
REMARK SMILES IDX 46 54 101 55 95 56 94 57 47 59 81 60 60 61 80 62 61 63 64 64
REMARK SMILES IDX 79 65 99 66 62 67 63 68 78 70 100 71 65 72 48 73 49 74 58 75
REMARK SMILES IDX 50 76 51 77 57 78 59 79 52 80 53 81 54 82 55 83 56 84 82 85
REMARK SMILES IDX 83 86 92 87 84 88 85 89 91 90 93 91 86 92 87 93 88 94 89 95
REMARK SMILES IDX 90 96 66 97 67 98 76 99 68 100 69 101 75 102 77 103 70 104
REMARK SMILES IDX 71 105 72 106 73 107 74 108
REMARK H PARENT 29 5 36 39 98 58 64 69
REMARK Flexibility Score: inf
ROOT
ATOM      1  C   UNL A   1      37.566  22.401  25.381  1.00  0.00     0.116 C 
ENDROOT
BRANCH   1   2
ATOM      2  N   UNL A   1      36.455  22.286  26.303  1.00  0.00    -0.354 N 
ATOM      3  C   UNL A   1      35.167  21.883  26.103  1.00  0.00     0.242 C 
ATOM      4  O   UNL A   1      34.347  22.180  26.978  1.00  0.00    -0.273 OA
ATOM      5  H   UNL A   1      36.664  22.540  27.230  1.00  0.00     0.163 HD
BRANCH   3   6
ATOM      6  C   UNL A   1      34.693  21.270  24.770  1.00  0.00     0.174 C 
ATOM      7  N   UNL A   1      33.711  22.077  24.047  1.00  0.00    -0.329 N 
ATOM      8  C   UNL A   1      32.691  21.207  23.487  1.00  0.00     0.120 C 
ATOM      9  C   UNL A   1      32.631  20.011  24.416  1.00  0.00     0.024 C 
ATOM     10  C   UNL A   1      34.045  19.893  24.973  1.00  0.00     0.037 C 
BRANCH   7  11
ATOM     11  C   UNL A   1      34.164  23.177  23.307  1.00  0.00     0.246 C 
ATOM     12  O   UNL A   1      35.270  23.197  22.775  1.00  0.00    -0.272 OA
BRANCH  11  13
ATOM     13  C   UNL A   1      33.111  24.308  23.178  1.00  0.00     0.174 C 
ATOM     14  N   UNL A   1      33.493  25.656  23.638  1.00  0.00    -0.329 N 
ATOM     15  C   UNL A   1      33.559  26.568  22.516  1.00  0.00     0.120 C 
ATOM     16  C   UNL A   1      32.578  25.999  21.518  1.00  0.00     0.024 C 
ATOM     17  C   UNL A   1      32.736  24.502  21.699  1.00  0.00     0.037 C 
BRANCH  14  18
ATOM     18  C   UNL A   1      33.574  25.939  24.996  1.00  0.00     0.246 C 
ATOM     19  O   UNL A   1      34.680  25.980  25.544  1.00  0.00    -0.272 OA
BRANCH  18  20
ATOM     20  C   UNL A   1      32.248  26.010  25.833  1.00  0.00     0.178 C 
ATOM     21  N   UNL A   1      31.115  26.624  25.114  1.00  0.00    -0.296 N 
ATOM     22  C   UNL A   1      29.997  25.711  24.984  1.00  0.00     0.124 C 
ATOM     23  C   UNL A   1      30.157  24.816  26.189  1.00  0.00     0.024 C 
ATOM     24  C   UNL A   1      31.669  24.657  26.287  1.00  0.00     0.037 C 
BRANCH  21  25
ATOM     25  C   UNL A   1      31.061  27.969  24.833  1.00  0.00     0.410 C 
ATOM     26  O   UNL A   1      31.951  28.759  25.115  1.00  0.00    -0.224 OA
BRANCH  25  27
ATOM     27  O   UNL A   1      29.872  28.303  24.266  1.00  0.00    -0.444 OA
BRANCH  27  28
ATOM     28  C   UNL A   1      29.723  29.257  23.181  1.00  0.00     0.106 C 
ATOM     29  C   UNL A   1      29.715  30.635  23.864  1.00  0.00     0.056 C 
ATOM     30  C   UNL A   1      28.359  29.007  22.535  1.00  0.00     0.056 C 
ATOM     31  C   UNL A   1      30.840  29.249  22.133  1.00  0.00     0.056 C 
ENDBRANCH  27  28
ENDBRANCH  25  27
ENDBRANCH  21  25
ENDBRANCH  18  20
ENDBRANCH  14  18
ENDBRANCH  11  13
ENDBRANCH   7  11
ENDBRANCH   3   6
ENDBRANCH   1   2
BRANCH   1  32
ATOM     32  C   UNL A   1      38.638  23.342  25.932  1.00  0.00     0.021 C 
BRANCH  32  33
ATOM     33  C   UNL A   1      39.468  22.739  27.070  1.00  0.00     0.002 C 
BRANCH  33  34
ATOM     34  C   UNL A   1      40.858  22.237  26.662  1.00  0.00     0.002 C 
BRANCH  34  35
ATOM     35  C   UNL A   1      41.929  22.316  27.754  1.00  0.00     0.021 C 
BRANCH  35  36
ATOM     36  C   UNL A   1      42.959  23.425  27.557  1.00  0.00     0.116 C 
BRANCH  36  37
ATOM     37  N   UNL A   1      42.783  24.107  26.285  1.00  0.00    -0.352 N 
ATOM     38  C   UNL A   1      42.234  25.338  26.026  1.00  0.00     0.251 C 
ATOM     39  H   UNL A   1      43.103  23.614  25.495  1.00  0.00     0.163 HD
ATOM     40  O   UNL A   1      41.973  25.661  24.871  1.00  0.00    -0.269 OA
BRANCH  38  41
ATOM     41  C   UNL A   1      41.950  26.269  27.139  1.00  0.00     0.039 A 
ATOM     42  C   UNL A   1      40.868  26.005  27.982  1.00  0.00     0.014 A 
ATOM     43  C   UNL A   1      42.733  27.411  27.335  1.00  0.00     0.014 A 
ATOM     44  C   UNL A   1      40.601  26.860  29.054  1.00  0.00     0.010 A 
ATOM     45  C   UNL A   1      42.503  28.227  28.440  1.00  0.00     0.010 A 
ATOM     46  C   UNL A   1      41.431  27.965  29.306  1.00  0.00    -0.014 A 
BRANCH  46  47
ATOM     47  C   UNL A   1      41.190  28.863  30.464  1.00  0.00     0.031 A 
ATOM     48  C   UNL A   1      42.012  28.716  31.714  1.00  0.00     0.074 A 
ATOM     49  C   UNL A   1      40.189  29.764  30.412  1.00  0.00     0.049 A 
ATOM     50  N   UNL A   1      41.898  29.343  32.857  1.00  0.00    -0.248 NA
ATOM     51  C   UNL A   1      43.088  27.712  31.686  1.00  0.00     0.031 C 
ATOM     52  C   UNL A   1      39.294  29.970  29.271  1.00  0.00     0.029 A 
ATOM     53  N   UNL A   1      39.745  30.664  31.348  1.00  0.00    -0.354 N 
ATOM     54  C   UNL A   1      42.871  28.800  33.688  1.00  0.00     0.074 A 
ATOM     55  C   UNL A   1      43.536  27.759  32.933  1.00  0.00     0.031 C 
ATOM     56  C   UNL A   1      38.419  30.945  29.568  1.00  0.00     0.029 A 
ATOM     57  C   UNL A   1      38.667  31.409  30.930  1.00  0.00     0.049 A 
ATOM     58  H   UNL A   1      40.161  30.768  32.234  1.00  0.00     0.167 HD
ATOM     59  C   UNL A   1      43.195  29.150  34.954  1.00  0.00     0.037 A 
ATOM     60  C   UNL A   1      37.954  32.352  31.575  1.00  0.00     0.037 A 
ATOM     61  C   UNL A   1      42.551  30.208  35.688  1.00  0.00     0.049 A 
ATOM     62  C   UNL A   1      38.339  32.733  32.978  1.00  0.00     0.074 A 
ATOM     63  C   UNL A   1      42.844  30.679  36.956  1.00  0.00     0.029 A 
ATOM     64  N   UNL A   1      41.483  30.960  35.219  1.00  0.00    -0.354 N 
ATOM     65  N   UNL A   1      39.299  32.246  33.728  1.00  0.00    -0.248 NA
ATOM     66  C   UNL A   1      37.552  33.794  33.620  1.00  0.00     0.031 C 
ATOM     67  C   UNL A   1      41.931  31.693  37.267  1.00  0.00     0.029 A 
ATOM     68  C   UNL A   1      41.095  31.881  36.178  1.00  0.00     0.049 A 
ATOM     69  H   UNL A   1      41.062  30.854  34.335  1.00  0.00     0.167 HD
ATOM     70  C   UNL A   1      39.247  32.959  34.921  1.00  0.00     0.074 A 
ATOM     71  C   UNL A   1      38.169  33.917  34.787  1.00  0.00     0.031 C 
ATOM     72  C   UNL A   1      40.024  32.834  36.025  1.00  0.00     0.037 A 
BRANCH  59  73
ATOM     73  C   UNL A   1      44.302  28.385  35.628  1.00  0.00     0.058 A 
ATOM     74  C   UNL A   1      45.634  28.827  35.586  1.00  0.00     0.135 A 
ATOM     75  C   UNL A   1      44.024  27.212  36.348  1.00  0.00     0.135 A 
ATOM     76  F   UNL A   1      45.958  29.935  34.899  1.00  0.00    -0.206 F 
ATOM     77  C   UNL A   1      46.656  28.117  36.208  1.00  0.00     0.059 A 
ATOM     78  C   UNL A   1      45.027  26.500  37.001  1.00  0.00     0.059 A 
ATOM     79  F   UNL A   1      42.768  26.744  36.421  1.00  0.00    -0.206 F 
ATOM     80  C   UNL A   1      46.342  26.953  36.911  1.00  0.00     0.060 A 
BRANCH  80  81
ATOM     81  S   UNL A   1      47.679  26.042  37.712  1.00  0.00     0.124 S 
ATOM     82  O   UNL A   1      46.941  25.228  38.673  1.00  0.00    -0.237 OA
ATOM     83  O   UNL A   1      48.278  25.317  36.597  1.00  0.00    -0.237 OA
ATOM     84  O   UNL A   1      48.510  27.096  38.289  1.00  0.00    -0.744 OA
ENDBRANCH  80  81
ENDBRANCH  59  73
BRANCH  60  85
ATOM     85  C   UNL A   1      36.814  33.016  30.888  1.00  0.00     0.058 A 
ATOM     86  C   UNL A   1      35.488  32.692  31.216  1.00  0.00     0.135 A 
ATOM     87  C   UNL A   1      37.024  33.996  29.908  1.00  0.00     0.135 A 
ATOM     88  F   UNL A   1      35.237  31.756  32.143  1.00  0.00    -0.206 F 
ATOM     89  C   UNL A   1      34.411  33.307  30.586  1.00  0.00     0.059 A 
ATOM     90  C   UNL A   1      35.963  34.642  29.280  1.00  0.00     0.059 A 
ATOM     91  F   UNL A   1      38.273  34.354  29.571  1.00  0.00    -0.206 F 
ATOM     92  C   UNL A   1      34.660  34.283  29.620  1.00  0.00     0.060 A 
BRANCH  92  93
ATOM     93  S   UNL A   1      33.256  35.115  28.845  1.00  0.00     0.124 S 
ATOM     94  O   UNL A   1      33.917  36.196  28.125  1.00  0.00    -0.237 OA
ATOM     95  O   UNL A   1      32.686  34.053  28.021  1.00  0.00    -0.237 OA
ATOM     96  O   UNL A   1      32.438  35.521  29.984  1.00  0.00    -0.744 OA
ENDBRANCH  92  93
ENDBRANCH  60  85
BRANCH  72  97
ATOM     97  C   UNL A   1      39.759  33.775  37.167  1.00  0.00     0.058 A 
ATOM     98  C   UNL A   1      38.899  33.433  38.221  1.00  0.00     0.135 A 
ATOM     99  C   UNL A   1      40.419  35.013  37.233  1.00  0.00     0.135 A 
ATOM    100  F   UNL A   1      38.240  32.263  38.202  1.00  0.00    -0.206 F 
ATOM    101  C   UNL A   1      38.685  34.294  39.291  1.00  0.00     0.059 A 
ATOM    102  C   UNL A   1      40.238  35.880  38.305  1.00  0.00     0.059 A 
ATOM    103  F   UNL A   1      41.260  35.385  36.254  1.00  0.00    -0.206 F 
ATOM    104  C   UNL A   1      39.361  35.515  39.326  1.00  0.00     0.060 A 
BRANCH 104 105
ATOM    105  S   UNL A   1      39.102  36.610  40.738  1.00  0.00     0.124 S 
ATOM    106  O   UNL A   1      38.246  35.792  41.590  1.00  0.00    -0.237 OA
ATOM    107  O   UNL A   1      40.463  36.822  41.223  1.00  0.00    -0.237 OA
ATOM    108  O   UNL A   1      38.465  37.782  40.146  1.00  0.00    -0.744 OA
ENDBRANCH 104 105
ENDBRANCH  72  97
ENDBRANCH  46  47
ENDBRANCH  38  41
ENDBRANCH  36  37
ENDBRANCH  35  36
ENDBRANCH  34  35
ENDBRANCH  33  34
ENDBRANCH  32  33
ENDBRANCH   1  32
TORSDOF 23
ENDMDL
MODEL 3
REMARK VINA RESULT:     -11.3      0.858      7.815
REMARK SMILES CC(C)(C)OC(=O)N1CCC[C@H]1C(=O)N1CCC[C@H]1C(=O)N1CCC[C@@H]1C(=O)NCCCCCCNC(=O)c1ccc(-c2c3nc(c(-c4c(F)cc(S(=O)(=O)[O-])cc4F)c4ccc([nH]4)c(-c4c(F)cc(S(=O)(=O)[O-])cc4F)c4nc(c(-c5c(F)cc(S(=O)(=O)[O-])cc5F)c5ccc2[nH]5)C=C4)C=C3)cc1
REMARK SMILES IDX 30 1 29 2 27 3 28 4 26 6 22 7 23 8 24 9 25 10 20 11 21 12
REMARK SMILES IDX 19 13 15 14 16 15 17 16 18 17 13 18 14 19 12 20 8 21 9 22
REMARK SMILES IDX 10 23 11 24 6 25 7 26 5 27 2 28 1 29 3 30 4 31 31 32 32 33
REMARK SMILES IDX 33 34 34 35 35 36 36 37 37 38 38 40 39 41 40 42 104 43 41 44
REMARK SMILES IDX 103 45 42 46 43 47 44 48 97 49 45 50 102 51 96 52 98 53
REMARK SMILES IDX 46 54 101 55 95 56 94 57 47 59 81 60 60 61 80 62 61 63 64 64
REMARK SMILES IDX 79 65 99 66 62 67 63 68 78 70 100 71 65 72 48 73 49 74 58 75
REMARK SMILES IDX 50 76 51 77 57 78 59 79 52 80 53 81 54 82 55 83 56 84 82 85
REMARK SMILES IDX 83 86 92 87 84 88 85 89 91 90 93 91 86 92 87 93 88 94 89 95
REMARK SMILES IDX 90 96 66 97 67 98 76 99 68 100 69 101 75 102 77 103 70 104
REMARK SMILES IDX 71 105 72 106 73 107 74 108
REMARK H PARENT 29 5 36 39 98 58 64 69
REMARK Flexibility Score: inf
ROOT
ATOM      1  C   UNL A   1      37.470  22.609  25.650  1.00  0.00     0.116 C 
ENDROOT
BRANCH   1   2
ATOM      2  N   UNL A   1      36.260  22.670  26.444  1.00  0.00    -0.354 N 
ATOM      3  C   UNL A   1      34.969  22.367  26.128  1.00  0.00     0.242 C 
ATOM      4  O   UNL A   1      34.092  22.807  26.878  1.00  0.00    -0.273 OA
ATOM      5  H   UNL A   1      36.392  22.983  27.368  1.00  0.00     0.163 HD
BRANCH   3   6
ATOM      6  C   UNL A   1      34.584  21.687  24.798  1.00  0.00     0.174 C 
ATOM      7  N   UNL A   1      33.628  22.440  23.987  1.00  0.00    -0.329 N 
ATOM      8  C   UNL A   1      32.659  21.525  23.409  1.00  0.00     0.120 C 
ATOM      9  C   UNL A   1      32.571  20.367  24.385  1.00  0.00     0.024 C 
ATOM     10  C   UNL A   1      33.953  20.305  25.025  1.00  0.00     0.037 C 
BRANCH   7  11
ATOM     11  C   UNL A   1      34.099  23.518  23.227  1.00  0.00     0.246 C 
ATOM     12  O   UNL A   1      35.297  23.704  23.028  1.00  0.00    -0.272 OA
BRANCH  11  13
ATOM     13  C   UNL A   1      32.967  24.387  22.620  1.00  0.00     0.174 C 
ATOM     14  N   UNL A   1      33.063  25.849  22.782  1.00  0.00    -0.329 N 
ATOM     15  C   UNL A   1      33.261  26.484  21.496  1.00  0.00     0.120 C 
ATOM     16  C   UNL A   1      32.607  25.541  20.514  1.00  0.00     0.024 C 
ATOM     17  C   UNL A   1      32.908  24.175  21.098  1.00  0.00     0.037 C 
BRANCH  14  18
ATOM     18  C   UNL A   1      32.804  26.439  24.013  1.00  0.00     0.246 C 
ATOM     19  O   UNL A   1      32.442  25.735  24.961  1.00  0.00    -0.272 OA
BRANCH  18  20
ATOM     20  C   UNL A   1      32.796  28.006  24.113  1.00  0.00     0.178 C 
ATOM     21  N   UNL A   1      31.461  28.587  24.345  1.00  0.00    -0.296 N 
ATOM     22  C   UNL A   1      31.405  29.343  25.580  1.00  0.00     0.124 C 
ATOM     23  C   UNL A   1      32.831  29.807  25.750  1.00  0.00     0.024 C 
ATOM     24  C   UNL A   1      33.632  28.607  25.259  1.00  0.00     0.037 C 
BRANCH  21  25
ATOM     25  C   UNL A   1      30.484  28.600  23.377  1.00  0.00     0.410 C 
ATOM     26  O   UNL A   1      30.259  27.663  22.625  1.00  0.00    -0.224 OA
BRANCH  25  27
ATOM     27  O   UNL A   1      29.857  29.805  23.329  1.00  0.00    -0.444 OA
BRANCH  27  28
ATOM     28  C   UNL A   1      28.475  29.994  22.926  1.00  0.00     0.106 C 
ATOM     29  C   UNL A   1      28.538  30.270  21.415  1.00  0.00     0.056 C 
ATOM     30  C   UNL A   1      27.952  31.238  23.645  1.00  0.00     0.056 C 
ATOM     31  C   UNL A   1      27.549  28.795  23.154  1.00  0.00     0.056 C 
ENDBRANCH  27  28
ENDBRANCH  25  27
ENDBRANCH  21  25
ENDBRANCH  18  20
ENDBRANCH  14  18
ENDBRANCH  11  13
ENDBRANCH   7  11
ENDBRANCH   3   6
ENDBRANCH   1   2
BRANCH   1  32
ATOM     32  C   UNL A   1      38.497  23.631  26.138  1.00  0.00     0.021 C 
BRANCH  32  33
ATOM     33  C   UNL A   1      39.488  23.073  27.165  1.00  0.00     0.002 C 
BRANCH  33  34
ATOM     34  C   UNL A   1      40.724  22.390  26.566  1.00  0.00     0.002 C 
BRANCH  34  35
ATOM     35  C   UNL A   1      41.934  22.293  27.501  1.00  0.00     0.021 C 
BRANCH  35  36
ATOM     36  C   UNL A   1      42.938  23.435  27.363  1.00  0.00     0.116 C 
BRANCH  36  37
ATOM     37  N   UNL A   1      42.663  24.259  26.197  1.00  0.00    -0.352 N 
ATOM     38  C   UNL A   1      42.086  25.502  26.125  1.00  0.00     0.251 C 
ATOM     39  H   UNL A   1      42.931  23.868  25.333  1.00  0.00     0.163 HD
ATOM     40  O   UNL A   1      41.739  25.954  25.038  1.00  0.00    -0.269 OA
BRANCH  38  41
ATOM     41  C   UNL A   1      41.874  26.290  27.358  1.00  0.00     0.039 A 
ATOM     42  C   UNL A   1      42.824  27.248  27.720  1.00  0.00     0.014 A 
ATOM     43  C   UNL A   1      40.755  26.068  28.167  1.00  0.00     0.014 A 
ATOM     44  C   UNL A   1      42.627  28.019  28.868  1.00  0.00     0.010 A 
ATOM     45  C   UNL A   1      40.530  26.880  29.276  1.00  0.00     0.010 A 
ATOM     46  C   UNL A   1      41.466  27.858  29.642  1.00  0.00    -0.014 A 
BRANCH  46  47
ATOM     47  C   UNL A   1      41.217  28.696  30.843  1.00  0.00     0.031 A 
ATOM     48  C   UNL A   1      40.111  29.715  30.833  1.00  0.00     0.074 A 
ATOM     49  C   UNL A   1      42.026  28.584  31.914  1.00  0.00     0.049 A 
ATOM     50  N   UNL A   1      39.791  30.596  31.745  1.00  0.00    -0.248 NA
ATOM     51  C   UNL A   1      39.271  29.770  29.625  1.00  0.00     0.031 C 
ATOM     52  C   UNL A   1      43.160  27.663  32.026  1.00  0.00     0.029 A 
ATOM     53  N   UNL A   1      42.031  29.261  33.108  1.00  0.00    -0.354 N 
ATOM     54  C   UNL A   1      38.728  31.320  31.218  1.00  0.00     0.074 A 
ATOM     55  C   UNL A   1      38.487  30.806  29.886  1.00  0.00     0.031 C 
ATOM     56  C   UNL A   1      43.740  27.822  33.227  1.00  0.00     0.029 A 
ATOM     57  C   UNL A   1      43.043  28.877  33.956  1.00  0.00     0.049 A 
ATOM     58  H   UNL A   1      41.370  29.954  33.336  1.00  0.00     0.167 HD
ATOM     59  C   UNL A   1      38.005  32.307  31.798  1.00  0.00     0.037 A 
ATOM     60  C   UNL A   1      43.377  29.331  35.179  1.00  0.00     0.037 A 
ATOM     61  C   UNL A   1      38.230  32.792  33.135  1.00  0.00     0.049 A 
ATOM     62  C   UNL A   1      42.553  30.420  35.809  1.00  0.00     0.074 A 
ATOM     63  C   UNL A   1      37.516  33.748  33.836  1.00  0.00     0.029 A 
ATOM     64  N   UNL A   1      39.246  32.357  33.974  1.00  0.00    -0.354 N 
ATOM     65  N   UNL A   1      41.515  31.055  35.317  1.00  0.00    -0.248 NA
ATOM     66  C   UNL A   1      42.938  30.851  37.160  1.00  0.00     0.031 C 
ATOM     67  C   UNL A   1      38.122  33.916  35.086  1.00  0.00     0.029 A 
ATOM     68  C   UNL A   1      39.187  33.035  35.181  1.00  0.00     0.049 A 
ATOM     69  H   UNL A   1      39.910  31.667  33.747  1.00  0.00     0.167 HD
ATOM     70  C   UNL A   1      41.108  31.942  36.308  1.00  0.00     0.074 A 
ATOM     71  C   UNL A   1      42.004  31.753  37.430  1.00  0.00     0.031 C 
ATOM     72  C   UNL A   1      40.083  32.830  36.291  1.00  0.00     0.037 A 
BRANCH  59  73
ATOM     73  C   UNL A   1      36.898  32.927  30.990  1.00  0.00     0.058 A 
ATOM     74  C   UNL A   1      37.156  33.897  30.008  1.00  0.00     0.135 A 
ATOM     75  C   UNL A   1      35.565  32.525  31.178  1.00  0.00     0.135 A 
ATOM     76  F   UNL A   1      38.411  34.327  29.797  1.00  0.00    -0.206 F 
ATOM     77  C   UNL A   1      36.131  34.469  29.263  1.00  0.00     0.059 A 
ATOM     78  C   UNL A   1      34.526  33.065  30.425  1.00  0.00     0.059 A 
ATOM     79  F   UNL A   1      35.261  31.601  32.103  1.00  0.00    -0.206 F 
ATOM     80  C   UNL A   1      34.818  34.048  29.481  1.00  0.00     0.060 A 
BRANCH  80  81
ATOM     81  S   UNL A   1      33.498  34.801  28.506  1.00  0.00     0.124 S 
ATOM     82  O   UNL A   1      33.001  33.652  27.755  1.00  0.00    -0.237 OA
ATOM     83  O   UNL A   1      32.604  35.319  29.536  1.00  0.00    -0.237 OA
ATOM     84  O   UNL A   1      34.193  35.814  27.717  1.00  0.00    -0.744 OA
ENDBRANCH  80  81
ENDBRANCH  59  73
BRANCH  60  85
ATOM     85  C   UNL A   1      44.537  28.739  35.897  1.00  0.00     0.058 A 
ATOM     86  C   UNL A   1      45.839  29.212  35.676  1.00  0.00     0.135 A 
ATOM     87  C   UNL A   1      44.367  27.704  36.829  1.00  0.00     0.135 A 
ATOM     88  F   UNL A   1      46.053  30.196  34.790  1.00  0.00    -0.206 F 
ATOM     89  C   UNL A   1      46.934  28.672  36.343  1.00  0.00     0.059 A 
ATOM     90  C   UNL A   1      45.444  27.163  37.525  1.00  0.00     0.059 A 
ATOM     91  F   UNL A   1      43.139  27.228  37.090  1.00  0.00    -0.206 F 
ATOM     92  C   UNL A   1      46.725  27.648  37.267  1.00  0.00     0.060 A 
BRANCH  92  93
ATOM     93  S   UNL A   1      48.145  26.988  38.168  1.00  0.00     0.124 S 
ATOM     94  O   UNL A   1      48.043  27.698  39.437  1.00  0.00    -0.237 OA
ATOM     95  O   UNL A   1      47.846  25.559  38.209  1.00  0.00    -0.237 OA
ATOM     96  O   UNL A   1      49.277  27.359  37.325  1.00  0.00    -0.744 OA
ENDBRANCH  92  93
ENDBRANCH  60  85
BRANCH  72  97
ATOM     97  C   UNL A   1      39.853  33.644  37.533  1.00  0.00     0.058 A 
ATOM     98  C   UNL A   1      40.547  34.840  37.770  1.00  0.00     0.135 A 
ATOM     99  C   UNL A   1      38.886  33.248  38.472  1.00  0.00     0.135 A 
ATOM    100  F   UNL A   1      41.486  35.258  36.906  1.00  0.00    -0.206 F 
ATOM    101  C   UNL A   1      40.305  35.606  38.905  1.00  0.00     0.059 A 
ATOM    102  C   UNL A   1      38.611  34.011  39.601  1.00  0.00     0.059 A 
ATOM    103  F   UNL A   1      38.188  32.116  38.287  1.00  0.00    -0.206 F 
ATOM    104  C   UNL A   1      39.333  35.185  39.814  1.00  0.00     0.060 A 
BRANCH 104 105
ATOM    105  S   UNL A   1      39.003  36.206  41.266  1.00  0.00     0.124 S 
ATOM    106  O   UNL A   1      40.273  36.121  41.979  1.00  0.00    -0.237 OA
ATOM    107  O   UNL A   1      38.695  37.504  40.672  1.00  0.00    -0.237 OA
ATOM    108  O   UNL A   1      37.876  35.534  41.904  1.00  0.00    -0.744 OA
ENDBRANCH 104 105
ENDBRANCH  72  97
ENDBRANCH  46  47
ENDBRANCH  38  41
ENDBRANCH  36  37
ENDBRANCH  35  36
ENDBRANCH  34  35
ENDBRANCH  33  34
ENDBRANCH  32  33
ENDBRANCH   1  32
TORSDOF 23
ENDMDL
