MODEL 1
REMARK VINA RESULT:     -12.2      0.000      0.000
REMARK SMILES O=C(NCCCCCCNC(=O)c1cn(C2CC2)c2cc(N3CC[NH2+]CC3)ccc2c1=O)c1ccc(-c2c3nc(c(-c4c(F)cc(S(=O)(=O)[O-])cc4F)c4ccc([nH]4)c(-c4c(F)cc(S(=O)(=O)[O-])cc4F)c4nc(c(-c5c(F)cc(S(=O)(=O)[O-])cc5F)c5ccc2[nH]5)C=C4)C=C3)cc1
REMARK SMILES IDX 5 1 4 2 3 3 1 4 2 5 33 7 34 8 98 9 35 10 97 11 36 12 37 13
REMARK SMILES IDX 38 14 91 15 39 16 96 17 90 18 92 19 40 20 95 21 89 22 88 23
REMARK SMILES IDX 41 25 75 26 54 27 74 28 55 29 58 30 73 31 93 32 56 33 57 34
REMARK SMILES IDX 72 36 94 37 59 38 42 39 43 40 52 41 44 42 45 43 51 44 53 45
REMARK SMILES IDX 46 46 47 47 48 48 49 49 50 50 76 51 77 52 86 53 78 54 79 55
REMARK SMILES IDX 85 56 87 57 80 58 81 59 82 60 83 61 84 62 60 63 61 64 70 65
REMARK SMILES IDX 62 66 63 67 69 68 71 69 64 70 65 71 66 72 67 73 68 74 6 75
REMARK SMILES IDX 7 76 8 77 9 78 10 79 11 80 12 82 13 83 14 84 31 85 15 86
REMARK SMILES IDX 30 87 32 88 19 89 29 90 20 91 28 92 21 93 16 94 17 95 18 96
REMARK SMILES IDX 22 97 23 98 27 99 24 100 26 101 25 102
REMARK H PARENT 3 6 92 24 58 35 10 81 25 103 25 104
REMARK Flexibility Score: inf
ROOT
ATOM      1  C   UNL A   1      38.031  23.731  26.054  1.00  0.00     0.021 C 
ENDROOT
BRANCH   1   2
ATOM      2  C   UNL A   1      39.398  23.755  26.735  1.00  0.00     0.116 C 
BRANCH   2   3
ATOM      3  N   UNL A   1      40.428  24.306  25.874  1.00  0.00    -0.352 N 
ATOM      4  O   UNL A   1      41.826  25.859  25.048  1.00  0.00    -0.269 OA
ATOM      5  C   UNL A   1      41.129  25.479  25.988  1.00  0.00     0.251 C 
ATOM      6  H   UNL A   1      40.659  23.756  25.091  1.00  0.00     0.163 HD
BRANCH   5   7
ATOM      7  C   UNL A   1      41.051  26.293  27.222  1.00  0.00     0.039 A 
ATOM      8  C   UNL A   1      40.097  25.955  28.188  1.00  0.00     0.014 A 
ATOM      9  C   UNL A   1      41.852  27.425  27.401  1.00  0.00     0.014 A 
ATOM     10  C   UNL A   1      39.964  26.734  29.341  1.00  0.00     0.010 A 
ATOM     11  C   UNL A   1      41.753  28.172  28.575  1.00  0.00     0.010 A 
ATOM     12  C   UNL A   1      40.797  27.844  29.548  1.00  0.00    -0.014 A 
BRANCH  12  13
ATOM     13  C   UNL A   1      40.638  28.715  30.741  1.00  0.00     0.031 A 
ATOM     14  C   UNL A   1      39.611  29.817  30.725  1.00  0.00     0.074 A 
ATOM     15  C   UNL A   1      41.420  28.535  31.823  1.00  0.00     0.049 A 
ATOM     16  N   UNL A   1      39.393  30.758  31.606  1.00  0.00    -0.248 NA
ATOM     17  C   UNL A   1      38.720  29.876  29.553  1.00  0.00     0.031 C 
ATOM     18  C   UNL A   1      42.441  27.496  31.968  1.00  0.00     0.029 A 
ATOM     19  N   UNL A   1      41.481  29.225  33.008  1.00  0.00    -0.354 N 
ATOM     20  C   UNL A   1      38.347  31.520  31.098  1.00  0.00     0.074 A 
ATOM     21  C   UNL A   1      38.002  30.961  29.810  1.00  0.00     0.031 C 
ATOM     22  C   UNL A   1      43.010  27.604  33.180  1.00  0.00     0.029 A 
ATOM     23  C   UNL A   1      42.428  28.745  33.881  1.00  0.00     0.049 A 
ATOM     24  H   UNL A   1      40.899  29.993  33.214  1.00  0.00     0.167 HD
ATOM     25  C   UNL A   1      37.716  32.574  31.665  1.00  0.00     0.037 A 
ATOM     26  C   UNL A   1      42.792  29.183  35.103  1.00  0.00     0.037 A 
ATOM     27  C   UNL A   1      38.044  33.114  32.959  1.00  0.00     0.049 A 
ATOM     28  C   UNL A   1      42.100  30.385  35.691  1.00  0.00     0.074 A 
ATOM     29  C   UNL A   1      37.473  34.194  33.611  1.00  0.00     0.029 A 
ATOM     30  N   UNL A   1      39.010  32.599  33.809  1.00  0.00    -0.354 N 
ATOM     31  N   UNL A   1      41.136  31.113  35.180  1.00  0.00    -0.248 NA
ATOM     32  C   UNL A   1      42.547  30.827  37.020  1.00  0.00     0.031 C 
ATOM     33  C   UNL A   1      38.108  34.345  34.848  1.00  0.00     0.029 A 
ATOM     34  C   UNL A   1      39.047  33.335  34.982  1.00  0.00     0.049 A 
ATOM     35  H   UNL A   1      39.585  31.826  33.608  1.00  0.00     0.167 HD
ATOM     36  C   UNL A   1      40.835  32.071  36.143  1.00  0.00     0.074 A 
ATOM     37  C   UNL A   1      41.716  31.831  37.265  1.00  0.00     0.031 C 
ATOM     38  C   UNL A   1      39.910  33.061  36.101  1.00  0.00     0.037 A 
BRANCH  25  39
ATOM     39  C   UNL A   1      36.584  33.211  30.908  1.00  0.00     0.058 A 
ATOM     40  C   UNL A   1      35.249  32.876  31.183  1.00  0.00     0.135 A 
ATOM     41  C   UNL A   1      36.827  34.226  29.969  1.00  0.00     0.135 A 
ATOM     42  F   UNL A   1      34.964  31.896  32.055  1.00  0.00    -0.206 F 
ATOM     43  C   UNL A   1      34.194  33.528  30.556  1.00  0.00     0.059 A 
ATOM     44  C   UNL A   1      35.786  34.907  29.346  1.00  0.00     0.059 A 
ATOM     45  F   UNL A   1      38.087  34.579  29.666  1.00  0.00    -0.206 F 
ATOM     46  C   UNL A   1      34.472  34.550  29.646  1.00  0.00     0.060 A 
BRANCH  46  47
ATOM     47  S   UNL A   1      33.088  35.427  28.888  1.00  0.00     0.124 S 
ATOM     48  O   UNL A   1      32.454  34.361  28.119  1.00  0.00    -0.237 OA
ATOM     49  O   UNL A   1      32.343  35.896  30.053  1.00  0.00    -0.237 OA
ATOM     50  O   UNL A   1      33.735  36.470  28.099  1.00  0.00    -0.744 OA
ENDBRANCH  46  47
ENDBRANCH  25  39
BRANCH  26  51
ATOM     51  C   UNL A   1      43.854  28.480  35.872  1.00  0.00     0.058 A 
ATOM     52  C   UNL A   1      43.531  27.422  36.737  1.00  0.00     0.135 A 
ATOM     53  C   UNL A   1      45.199  28.867  35.785  1.00  0.00     0.135 A 
ATOM     54  F   UNL A   1      42.257  27.021  36.859  1.00  0.00    -0.206 F 
ATOM     55  C   UNL A   1      44.500  26.795  37.513  1.00  0.00     0.059 A 
ATOM     56  C   UNL A   1      46.189  28.237  36.532  1.00  0.00     0.059 A 
ATOM     57  F   UNL A   1      45.561  29.862  34.961  1.00  0.00    -0.206 F 
ATOM     58  C   UNL A   1      45.827  27.213  37.406  1.00  0.00     0.060 A 
BRANCH  58  59
ATOM     59  S   UNL A   1      47.081  26.385  38.409  1.00  0.00     0.124 S 
ATOM     60  O   UNL A   1      46.298  25.958  39.562  1.00  0.00    -0.237 OA
ATOM     61  O   UNL A   1      47.537  25.325  37.516  1.00  0.00    -0.237 OA
ATOM     62  O   UNL A   1      48.056  27.443  38.663  1.00  0.00    -0.744 OA
ENDBRANCH  58  59
ENDBRANCH  26  51
BRANCH  38  63
ATOM     63  C   UNL A   1      39.755  33.919  37.325  1.00  0.00     0.058 A 
ATOM     64  C   UNL A   1      40.373  35.173  37.431  1.00  0.00     0.135 A 
ATOM     65  C   UNL A   1      38.930  33.499  38.381  1.00  0.00     0.135 A 
ATOM     66  F   UNL A   1      41.174  35.617  36.449  1.00  0.00    -0.206 F 
ATOM     67  C   UNL A   1      40.198  35.973  38.555  1.00  0.00     0.059 A 
ATOM     68  C   UNL A   1      38.722  34.293  39.504  1.00  0.00     0.059 A 
ATOM     69  F   UNL A   1      38.307  32.311  38.322  1.00  0.00    -0.206 F 
ATOM     70  C   UNL A   1      39.370  35.525  39.587  1.00  0.00     0.060 A 
BRANCH  70  71
ATOM     71  S   UNL A   1      39.130  36.587  41.026  1.00  0.00     0.124 S 
ATOM     72  O   UNL A   1      38.814  37.865  40.398  1.00  0.00    -0.237 OA
ATOM     73  O   UNL A   1      38.025  35.930  41.719  1.00  0.00    -0.237 OA
ATOM     74  O   UNL A   1      40.417  36.524  41.712  1.00  0.00    -0.744 OA
ENDBRANCH  70  71
ENDBRANCH  38  63
ENDBRANCH  12  13
ENDBRANCH   5   7
ENDBRANCH   2   3
ENDBRANCH   1   2
BRANCH   1  75
ATOM     75  C   UNL A   1      37.647  22.402  25.397  1.00  0.00     0.002 C 
BRANCH  75  76
ATOM     76  C   UNL A   1      36.867  22.511  24.084  1.00  0.00     0.002 C 
BRANCH  76  77
ATOM     77  C   UNL A   1      35.380  22.161  24.169  1.00  0.00     0.021 C 
BRANCH  77  78
ATOM     78  C   UNL A   1      34.465  23.306  24.591  1.00  0.00     0.116 C 
BRANCH  78  79
ATOM     79  N   UNL A   1      33.830  23.077  25.881  1.00  0.00    -0.352 N 
ATOM     80  C   UNL A   1      32.899  23.846  26.530  1.00  0.00     0.256 C 
ATOM     81  H   UNL A   1      34.106  22.258  26.352  1.00  0.00     0.163 HD
ATOM     82  O   UNL A   1      32.445  23.491  27.615  1.00  0.00    -0.269 OA
BRANCH  80  83
ATOM     83  C   UNL A   1      32.431  25.070  25.857  1.00  0.00     0.104 A 
ATOM     84  C   UNL A   1      33.154  26.190  25.997  1.00  0.00     0.104 A 
ATOM     85  C   UNL A   1      31.173  25.136  25.090  1.00  0.00     0.202 A 
ATOM     86  N   UNL A   1      32.798  27.447  25.550  1.00  0.00    -0.343 N 
ATOM     87  C   UNL A   1      30.811  26.452  24.505  1.00  0.00     0.047 A 
ATOM     88  O   UNL A   1      30.433  24.166  24.959  1.00  0.00    -0.288 OA
ATOM     89  C   UNL A   1      31.634  27.572  24.729  1.00  0.00     0.054 A 
ATOM     90  C   UNL A   1      29.627  26.563  23.768  1.00  0.00     0.016 A 
ATOM     91  C   UNL A   1      31.249  28.789  24.143  1.00  0.00     0.053 A 
ATOM     92  C   UNL A   1      29.243  27.799  23.252  1.00  0.00     0.027 A 
ATOM     93  C   UNL A   1      30.046  28.930  23.427  1.00  0.00     0.039 A 
BRANCH  86  94
ATOM     94  C   UNL A   1      33.478  28.648  26.103  1.00  0.00     0.087 C 
ATOM     95  C   UNL A   1      33.503  29.062  27.555  1.00  0.00     0.027 C 
ATOM     96  C   UNL A   1      34.746  28.527  26.905  1.00  0.00     0.027 C 
ENDBRANCH  86  94
BRANCH  93  97
ATOM     97  N   UNL A   1      29.686  30.163  22.930  1.00  0.00    -0.360 N 
ATOM     98  C   UNL A   1      29.539  30.348  21.485  1.00  0.00     0.178 C 
ATOM     99  C   UNL A   1      29.109  31.198  23.794  1.00  0.00     0.178 C 
ATOM    100  C   UNL A   1      28.073  30.701  21.142  1.00  0.00     0.282 C 
ATOM    101  C   UNL A   1      27.669  31.544  23.357  1.00  0.00     0.282 C 
ATOM    102  N   UNL A   1      27.540  31.847  21.913  1.00  0.00    -0.343 N 
ATOM    103  H   UNL A   1      26.558  31.993  21.679  1.00  0.00     0.346 HD
ATOM    104  H   UNL A   1      28.063  32.693  21.687  1.00  0.00     0.346 HD
ENDBRANCH  93  97
ENDBRANCH  80  83
ENDBRANCH  78  79
ENDBRANCH  77  78
ENDBRANCH  76  77
ENDBRANCH  75  76
ENDBRANCH   1  75
TORSDOF 18
ENDMDL
MODEL 2
REMARK VINA RESULT:     -12.2      6.526     11.873
REMARK SMILES O=C(NCCCCCCNC(=O)c1cn(C2CC2)c2cc(N3CC[NH2+]CC3)ccc2c1=O)c1ccc(-c2c3nc(c(-c4c(F)cc(S(=O)(=O)[O-])cc4F)c4ccc([nH]4)c(-c4c(F)cc(S(=O)(=O)[O-])cc4F)c4nc(c(-c5c(F)cc(S(=O)(=O)[O-])cc5F)c5ccc2[nH]5)C=C4)C=C3)cc1
REMARK SMILES IDX 5 1 4 2 3 3 1 4 2 5 33 7 34 8 98 9 35 10 97 11 36 12 37 13
REMARK SMILES IDX 38 14 91 15 39 16 96 17 90 18 92 19 40 20 95 21 89 22 88 23
REMARK SMILES IDX 41 25 75 26 54 27 74 28 55 29 58 30 73 31 93 32 56 33 57 34
REMARK SMILES IDX 72 36 94 37 59 38 42 39 43 40 52 41 44 42 45 43 51 44 53 45
REMARK SMILES IDX 46 46 47 47 48 48 49 49 50 50 76 51 77 52 86 53 78 54 79 55
REMARK SMILES IDX 85 56 87 57 80 58 81 59 82 60 83 61 84 62 60 63 61 64 70 65
REMARK SMILES IDX 62 66 63 67 69 68 71 69 64 70 65 71 66 72 67 73 68 74 6 75
REMARK SMILES IDX 7 76 8 77 9 78 10 79 11 80 12 82 13 83 14 84 31 85 15 86
REMARK SMILES IDX 30 87 32 88 19 89 29 90 20 91 28 92 21 93 16 94 17 95 18 96
REMARK SMILES IDX 22 97 23 98 27 99 24 100 26 101 25 102
REMARK H PARENT 3 6 92 24 58 35 10 81 25 103 25 104
REMARK Flexibility Score: inf
ROOT
ATOM      1  C   UNL A   1      34.007  30.534  27.395  1.00  0.00     0.021 C 
ENDROOT
BRANCH   1   2
ATOM      2  C   UNL A   1      35.405  30.659  27.998  1.00  0.00     0.116 C 
BRANCH   2   3
ATOM      3  N   UNL A   1      35.364  30.903  29.429  1.00  0.00    -0.352 N 
ATOM      4  O   UNL A   1      36.021  30.769  31.573  1.00  0.00    -0.269 OA
ATOM      5  C   UNL A   1      36.321  30.673  30.384  1.00  0.00     0.251 C 
ATOM      6  H   UNL A   1      34.523  31.291  29.764  1.00  0.00     0.163 HD
BRANCH   5   7
ATOM      7  C   UNL A   1      37.702  30.306  30.001  1.00  0.00     0.039 A 
ATOM      8  C   UNL A   1      38.038  30.283  28.643  1.00  0.00     0.014 A 
ATOM      9  C   UNL A   1      38.644  29.913  30.956  1.00  0.00     0.014 A 
ATOM     10  C   UNL A   1      39.319  29.892  28.245  1.00  0.00     0.010 A 
ATOM     11  C   UNL A   1      39.938  29.572  30.563  1.00  0.00     0.010 A 
ATOM     12  C   UNL A   1      40.283  29.541  29.203  1.00  0.00    -0.014 A 
BRANCH  12  13
ATOM     13  C   UNL A   1      41.635  29.074  28.800  1.00  0.00     0.031 A 
ATOM     14  C   UNL A   1      42.783  30.050  28.783  1.00  0.00     0.074 A 
ATOM     15  C   UNL A   1      41.830  27.793  28.432  1.00  0.00     0.049 A 
ATOM     16  N   UNL A   1      44.006  29.881  28.353  1.00  0.00    -0.248 NA
ATOM     17  C   UNL A   1      42.513  31.400  29.308  1.00  0.00     0.031 C 
ATOM     18  C   UNL A   1      40.805  26.749  28.419  1.00  0.00     0.029 A 
ATOM     19  N   UNL A   1      42.961  27.151  27.994  1.00  0.00    -0.354 N 
ATOM     20  C   UNL A   1      44.650  31.097  28.551  1.00  0.00     0.074 A 
ATOM     21  C   UNL A   1      43.671  32.011  29.098  1.00  0.00     0.031 C 
ATOM     22  C   UNL A   1      41.358  25.593  28.014  1.00  0.00     0.029 A 
ATOM     23  C   UNL A   1      42.765  25.823  27.698  1.00  0.00     0.049 A 
ATOM     24  H   UNL A   1      43.833  27.600  27.899  1.00  0.00     0.167 HD
ATOM     25  C   UNL A   1      45.945  31.416  28.321  1.00  0.00     0.037 A 
ATOM     26  C   UNL A   1      43.620  24.899  27.217  1.00  0.00     0.037 A 
ATOM     27  C   UNL A   1      46.924  30.497  27.800  1.00  0.00     0.049 A 
ATOM     28  C   UNL A   1      45.046  25.294  26.930  1.00  0.00     0.074 A 
ATOM     29  C   UNL A   1      48.258  30.733  27.514  1.00  0.00     0.029 A 
ATOM     30  N   UNL A   1      46.683  29.163  27.513  1.00  0.00    -0.354 N 
ATOM     31  N   UNL A   1      45.627  26.458  27.091  1.00  0.00    -0.248 NA
ATOM     32  C   UNL A   1      45.931  24.250  26.393  1.00  0.00     0.031 C 
ATOM     33  C   UNL A   1      48.820  29.545  27.035  1.00  0.00     0.029 A 
ATOM     34  C   UNL A   1      47.845  28.561  27.060  1.00  0.00     0.049 A 
ATOM     35  H   UNL A   1      45.815  28.711  27.615  1.00  0.00     0.167 HD
ATOM     36  C   UNL A   1      46.954  26.274  26.716  1.00  0.00     0.074 A 
ATOM     37  C   UNL A   1      47.090  24.889  26.320  1.00  0.00     0.031 C 
ATOM     38  C   UNL A   1      47.969  27.172  26.701  1.00  0.00     0.037 A 
BRANCH  25  39
ATOM     39  C   UNL A   1      46.399  32.810  28.650  1.00  0.00     0.058 A 
ATOM     40  C   UNL A   1      46.935  33.120  29.909  1.00  0.00     0.135 A 
ATOM     41  C   UNL A   1      46.384  33.820  27.675  1.00  0.00     0.135 A 
ATOM     42  F   UNL A   1      46.951  32.195  30.883  1.00  0.00    -0.206 F 
ATOM     43  C   UNL A   1      47.446  34.382  30.190  1.00  0.00     0.059 A 
ATOM     44  C   UNL A   1      46.910  35.084  27.927  1.00  0.00     0.059 A 
ATOM     45  F   UNL A   1      45.875  33.577  26.457  1.00  0.00    -0.206 F 
ATOM     46  C   UNL A   1      47.438  35.355  29.189  1.00  0.00     0.060 A 
BRANCH  46  47
ATOM     47  S   UNL A   1      48.161  36.969  29.553  1.00  0.00     0.124 S 
ATOM     48  O   UNL A   1      48.383  37.498  28.212  1.00  0.00    -0.237 OA
ATOM     49  O   UNL A   1      47.102  37.616  30.323  1.00  0.00    -0.237 OA
ATOM     50  O   UNL A   1      49.367  36.640  30.306  1.00  0.00    -0.744 OA
ENDBRANCH  46  47
ENDBRANCH  25  39
BRANCH  26  51
ATOM     51  C   UNL A   1      43.170  23.500  26.985  1.00  0.00     0.058 A 
ATOM     52  C   UNL A   1      43.037  22.603  28.056  1.00  0.00     0.135 A 
ATOM     53  C   UNL A   1      42.896  23.024  25.695  1.00  0.00     0.135 A 
ATOM     54  F   UNL A   1      43.296  23.011  29.308  1.00  0.00    -0.206 F 
ATOM     55  C   UNL A   1      42.680  21.274  27.854  1.00  0.00     0.059 A 
ATOM     56  C   UNL A   1      42.512  21.706  25.470  1.00  0.00     0.059 A 
ATOM     57  F   UNL A   1      42.993  23.845  24.639  1.00  0.00    -0.206 F 
ATOM     58  C   UNL A   1      42.423  20.834  26.555  1.00  0.00     0.060 A 
BRANCH  58  59
ATOM     59  S   UNL A   1      41.948  19.110  26.301  1.00  0.00     0.124 S 
ATOM     60  O   UNL A   1      40.572  19.249  25.844  1.00  0.00    -0.237 OA
ATOM     61  O   UNL A   1      42.915  18.669  25.300  1.00  0.00    -0.237 OA
ATOM     62  O   UNL A   1      42.118  18.518  27.626  1.00  0.00    -0.744 OA
ENDBRANCH  58  59
ENDBRANCH  26  51
BRANCH  38  63
ATOM     63  C   UNL A   1      49.331  26.675  26.306  1.00  0.00     0.058 A 
ATOM     64  C   UNL A   1      49.837  26.859  25.011  1.00  0.00     0.135 A 
ATOM     65  C   UNL A   1      50.158  26.055  27.256  1.00  0.00     0.135 A 
ATOM     66  F   UNL A   1      49.083  27.443  24.066  1.00  0.00    -0.206 F 
ATOM     67  C   UNL A   1      51.112  26.422  24.664  1.00  0.00     0.059 A 
ATOM     68  C   UNL A   1      51.445  25.632  26.937  1.00  0.00     0.059 A 
ATOM     69  F   UNL A   1      49.723  25.867  28.512  1.00  0.00    -0.206 F 
ATOM     70  C   UNL A   1      51.908  25.810  25.635  1.00  0.00     0.060 A 
BRANCH  70  71
ATOM     71  S   UNL A   1      53.570  25.275  25.177  1.00  0.00     0.124 S 
ATOM     72  O   UNL A   1      54.393  26.053  26.097  1.00  0.00    -0.237 OA
ATOM     73  O   UNL A   1      53.518  23.839  25.433  1.00  0.00    -0.237 OA
ATOM     74  O   UNL A   1      53.673  25.651  23.770  1.00  0.00    -0.744 OA
ENDBRANCH  70  71
ENDBRANCH  38  63
ENDBRANCH  12  13
ENDBRANCH   5   7
ENDBRANCH   2   3
ENDBRANCH   1   2
BRANCH   1  75
ATOM     75  C   UNL A   1      33.823  29.387  26.397  1.00  0.00     0.002 C 
BRANCH  75  76
ATOM     76  C   UNL A   1      33.280  28.079  26.980  1.00  0.00     0.002 C 
BRANCH  76  77
ATOM     77  C   UNL A   1      31.831  27.746  26.618  1.00  0.00     0.021 C 
BRANCH  77  78
ATOM     78  C   UNL A   1      31.656  26.821  25.419  1.00  0.00     0.116 C 
BRANCH  78  79
ATOM     79  N   UNL A   1      32.498  27.191  24.289  1.00  0.00    -0.352 N 
ATOM     80  C   UNL A   1      33.362  26.409  23.569  1.00  0.00     0.256 C 
ATOM     81  H   UNL A   1      32.436  28.131  24.004  1.00  0.00     0.163 HD
ATOM     82  O   UNL A   1      33.985  26.882  22.621  1.00  0.00    -0.269 OA
BRANCH  80  83
ATOM     83  C   UNL A   1      33.473  24.988  23.939  1.00  0.00     0.104 A 
ATOM     84  C   UNL A   1      34.410  24.631  24.828  1.00  0.00     0.104 A 
ATOM     85  C   UNL A   1      32.644  23.931  23.329  1.00  0.00     0.202 A 
ATOM     86  N   UNL A   1      34.739  23.340  25.187  1.00  0.00    -0.343 N 
ATOM     87  C   UNL A   1      32.900  22.537  23.771  1.00  0.00     0.047 A 
ATOM     88  O   UNL A   1      31.799  24.173  22.472  1.00  0.00    -0.288 OA
ATOM     89  C   UNL A   1      33.924  22.270  24.699  1.00  0.00     0.054 A 
ATOM     90  C   UNL A   1      32.136  21.502  23.222  1.00  0.00     0.016 A 
ATOM     91  C   UNL A   1      34.114  20.935  25.090  1.00  0.00     0.053 A 
ATOM     92  C   UNL A   1      32.393  20.180  23.585  1.00  0.00     0.027 A 
ATOM     93  C   UNL A   1      33.382  19.876  24.525  1.00  0.00     0.039 A 
BRANCH  86  94
ATOM     94  C   UNL A   1      36.034  23.067  25.866  1.00  0.00     0.087 C 
ATOM     95  C   UNL A   1      37.277  22.513  25.213  1.00  0.00     0.027 C 
ATOM     96  C   UNL A   1      37.232  23.950  25.643  1.00  0.00     0.027 C 
ENDBRANCH  86  94
BRANCH  93  97
ATOM     97  N   UNL A   1      33.657  18.578  24.897  1.00  0.00    -0.360 N 
ATOM     98  C   UNL A   1      32.761  17.884  25.824  1.00  0.00     0.178 C 
ATOM     99  C   UNL A   1      34.605  17.750  24.145  1.00  0.00     0.178 C 
ATOM    100  C   UNL A   1      32.108  16.670  25.122  1.00  0.00     0.282 C 
ATOM    101  C   UNL A   1      33.899  16.526  23.523  1.00  0.00     0.282 C 
ATOM    102  N   UNL A   1      33.084  15.753  24.488  1.00  0.00    -0.343 N 
ATOM    103  H   UNL A   1      32.588  15.007  24.001  1.00  0.00     0.346 HD
ATOM    104  H   UNL A   1      33.686  15.339  25.200  1.00  0.00     0.346 HD
ENDBRANCH  93  97
ENDBRANCH  80  83
ENDBRANCH  78  79
ENDBRANCH  77  78
ENDBRANCH  76  77
ENDBRANCH  75  76
ENDBRANCH   1  75
TORSDOF 18
ENDMDL
MODEL 3
REMARK VINA RESULT:     -12.1      6.616     12.296
REMARK SMILES O=C(NCCCCCCNC(=O)c1cn(C2CC2)c2cc(N3CC[NH2+]CC3)ccc2c1=O)c1ccc(-c2c3nc(c(-c4c(F)cc(S(=O)(=O)[O-])cc4F)c4ccc([nH]4)c(-c4c(F)cc(S(=O)(=O)[O-])cc4F)c4nc(c(-c5c(F)cc(S(=O)(=O)[O-])cc5F)c5ccc2[nH]5)C=C4)C=C3)cc1
REMARK SMILES IDX 5 1 4 2 3 3 1 4 2 5 33 7 34 8 98 9 35 10 97 11 36 12 37 13
REMARK SMILES IDX 38 14 91 15 39 16 96 17 90 18 92 19 40 20 95 21 89 22 88 23
REMARK SMILES IDX 41 25 75 26 54 27 74 28 55 29 58 30 73 31 93 32 56 33 57 34
REMARK SMILES IDX 72 36 94 37 59 38 42 39 43 40 52 41 44 42 45 43 51 44 53 45
REMARK SMILES IDX 46 46 47 47 48 48 49 49 50 50 76 51 77 52 86 53 78 54 79 55
REMARK SMILES IDX 85 56 87 57 80 58 81 59 82 60 83 61 84 62 60 63 61 64 70 65
REMARK SMILES IDX 62 66 63 67 69 68 71 69 64 70 65 71 66 72 67 73 68 74 6 75
REMARK SMILES IDX 7 76 8 77 9 78 10 79 11 80 12 82 13 83 14 84 31 85 15 86
REMARK SMILES IDX 30 87 32 88 19 89 29 90 20 91 28 92 21 93 16 94 17 95 18 96
REMARK SMILES IDX 22 97 23 98 27 99 24 100 26 101 25 102
REMARK H PARENT 3 6 92 24 58 35 10 81 25 103 25 104
REMARK Flexibility Score: inf
ROOT
ATOM      1  C   UNL A   1      34.189  31.382  27.495  1.00  0.00     0.021 C 
ENDROOT
BRANCH   1   2
ATOM      2  C   UNL A   1      35.421  30.721  28.111  1.00  0.00     0.116 C 
BRANCH   2   3
ATOM      3  N   UNL A   1      35.456  30.868  29.555  1.00  0.00    -0.352 N 
ATOM      4  O   UNL A   1      36.194  30.549  31.653  1.00  0.00    -0.269 OA
ATOM      5  C   UNL A   1      36.436  30.517  30.447  1.00  0.00     0.251 C 
ATOM      6  H   UNL A   1      34.657  31.282  29.954  1.00  0.00     0.163 HD
BRANCH   5   7
ATOM      7  C   UNL A   1      37.774  30.095  29.976  1.00  0.00     0.039 A 
ATOM      8  C   UNL A   1      38.770  29.842  30.926  1.00  0.00     0.014 A 
ATOM      9  C   UNL A   1      38.078  30.019  28.614  1.00  0.00     0.014 A 
ATOM     10  C   UNL A   1      40.058  29.491  30.513  1.00  0.00     0.010 A 
ATOM     11  C   UNL A   1      39.350  29.620  28.202  1.00  0.00     0.010 A 
ATOM     12  C   UNL A   1      40.357  29.369  29.147  1.00  0.00    -0.014 A 
BRANCH  12  13
ATOM     13  C   UNL A   1      41.731  29.046  28.685  1.00  0.00     0.031 A 
ATOM     14  C   UNL A   1      42.067  27.633  28.283  1.00  0.00     0.074 A 
ATOM     15  C   UNL A   1      42.678  30.004  28.646  1.00  0.00     0.049 A 
ATOM     16  N   UNL A   1      43.226  27.116  27.967  1.00  0.00    -0.248 NA
ATOM     17  C   UNL A   1      40.951  26.672  28.244  1.00  0.00     0.031 C 
ATOM     18  C   UNL A   1      42.476  31.411  28.996  1.00  0.00     0.029 A 
ATOM     19  N   UNL A   1      44.003  29.937  28.296  1.00  0.00    -0.354 N 
ATOM     20  C   UNL A   1      42.982  25.775  27.695  1.00  0.00     0.074 A 
ATOM     21  C   UNL A   1      41.573  25.545  27.927  1.00  0.00     0.031 C 
ATOM     22  C   UNL A   1      43.629  32.077  28.824  1.00  0.00     0.029 A 
ATOM     23  C   UNL A   1      44.663  31.140  28.393  1.00  0.00     0.049 A 
ATOM     24  H   UNL A   1      44.442  29.106  28.002  1.00  0.00     0.167 HD
ATOM     25  C   UNL A   1      43.848  24.827  27.268  1.00  0.00     0.037 A 
ATOM     26  C   UNL A   1      45.956  31.448  28.169  1.00  0.00     0.037 A 
ATOM     27  C   UNL A   1      45.246  25.064  27.014  1.00  0.00     0.049 A 
ATOM     28  C   UNL A   1      46.907  30.363  27.736  1.00  0.00     0.074 A 
ATOM     29  C   UNL A   1      46.210  24.162  26.597  1.00  0.00     0.029 A 
ATOM     30  N   UNL A   1      45.873  26.295  27.126  1.00  0.00    -0.354 N 
ATOM     31  N   UNL A   1      46.664  29.093  27.517  1.00  0.00    -0.248 NA
ATOM     32  C   UNL A   1      48.308  30.753  27.520  1.00  0.00     0.031 C 
ATOM     33  C   UNL A   1      47.425  24.843  26.476  1.00  0.00     0.029 A 
ATOM     34  C   UNL A   1      47.208  26.177  26.779  1.00  0.00     0.049 A 
ATOM     35  H   UNL A   1      45.434  27.129  27.410  1.00  0.00     0.167 HD
ATOM     36  C   UNL A   1      47.872  28.544  27.099  1.00  0.00     0.074 A 
ATOM     37  C   UNL A   1      48.842  29.617  27.094  1.00  0.00     0.031 C 
ATOM     38  C   UNL A   1      48.152  27.264  26.750  1.00  0.00     0.037 A 
BRANCH  25  39
ATOM     39  C   UNL A   1      43.317  23.443  27.021  1.00  0.00     0.058 A 
ATOM     40  C   UNL A   1      43.066  22.985  25.719  1.00  0.00     0.135 A 
ATOM     41  C   UNL A   1      43.145  22.539  28.081  1.00  0.00     0.135 A 
ATOM     42  F   UNL A   1      43.193  23.817  24.673  1.00  0.00    -0.206 F 
ATOM     43  C   UNL A   1      42.666  21.676  25.475  1.00  0.00     0.059 A 
ATOM     44  C   UNL A   1      42.767  21.218  27.858  1.00  0.00     0.059 A 
ATOM     45  F   UNL A   1      43.366  22.930  29.347  1.00  0.00    -0.206 F 
ATOM     46  C   UNL A   1      42.530  20.796  26.551  1.00  0.00     0.060 A 
BRANCH  46  47
ATOM     47  S   UNL A   1      42.069  19.085  26.208  1.00  0.00     0.124 S 
ATOM     48  O   UNL A   1      42.303  18.455  27.504  1.00  0.00    -0.237 OA
ATOM     49  O   UNL A   1      40.671  19.214  25.809  1.00  0.00    -0.237 OA
ATOM     50  O   UNL A   1      42.988  18.690  25.145  1.00  0.00    -0.744 OA
ENDBRANCH  46  47
ENDBRANCH  25  39
BRANCH  26  51
ATOM     51  C   UNL A   1      46.438  32.846  28.333  1.00  0.00     0.058 A 
ATOM     52  C   UNL A   1      46.969  33.282  29.557  1.00  0.00     0.135 A 
ATOM     53  C   UNL A   1      46.351  33.778  27.288  1.00  0.00     0.135 A 
ATOM     54  F   UNL A   1      47.066  32.429  30.587  1.00  0.00    -0.206 F 
ATOM     55  C   UNL A   1      47.366  34.601  29.750  1.00  0.00     0.059 A 
ATOM     56  C   UNL A   1      46.766  35.096  27.450  1.00  0.00     0.059 A 
ATOM     57  F   UNL A   1      45.865  33.407  26.094  1.00  0.00    -0.206 F 
ATOM     58  C   UNL A   1      47.256  35.502  28.690  1.00  0.00     0.060 A 
BRANCH  58  59
ATOM     59  S   UNL A   1      47.784  37.211  28.946  1.00  0.00     0.124 S 
ATOM     60  O   UNL A   1      46.747  37.947  28.234  1.00  0.00    -0.237 OA
ATOM     61  O   UNL A   1      47.766  37.324  30.401  1.00  0.00    -0.237 OA
ATOM     62  O   UNL A   1      49.113  37.244  28.339  1.00  0.00    -0.744 OA
ENDBRANCH  58  59
ENDBRANCH  26  51
BRANCH  38  63
ATOM     63  C   UNL A   1      49.544  26.964  26.271  1.00  0.00     0.058 A 
ATOM     64  C   UNL A   1      49.894  27.053  24.916  1.00  0.00     0.135 A 
ATOM     65  C   UNL A   1      50.552  26.636  27.193  1.00  0.00     0.135 A 
ATOM     66  F   UNL A   1      48.966  27.359  23.996  1.00  0.00    -0.206 F 
ATOM     67  C   UNL A   1      51.194  26.803  24.487  1.00  0.00     0.059 A 
ATOM     68  C   UNL A   1      51.863  26.406  26.789  1.00  0.00     0.059 A 
ATOM     69  F   UNL A   1      50.269  26.550  28.502  1.00  0.00    -0.206 F 
ATOM     70  C   UNL A   1      52.172  26.481  25.431  1.00  0.00     0.060 A 
BRANCH  70  71
ATOM     71  S   UNL A   1      53.859  26.187  24.862  1.00  0.00     0.124 S 
ATOM     72  O   UNL A   1      54.640  26.710  25.978  1.00  0.00    -0.237 OA
ATOM     73  O   UNL A   1      53.885  24.737  24.695  1.00  0.00    -0.237 OA
ATOM     74  O   UNL A   1      53.939  26.956  23.624  1.00  0.00    -0.744 OA
ENDBRANCH  70  71
ENDBRANCH  38  63
ENDBRANCH  12  13
ENDBRANCH   5   7
ENDBRANCH   2   3
ENDBRANCH   1   2
BRANCH   1  75
ATOM     75  C   UNL A   1      33.086  30.420  27.042  1.00  0.00     0.002 C 
BRANCH  75  76
ATOM     76  C   UNL A   1      33.315  28.943  27.371  1.00  0.00     0.002 C 
BRANCH  76  77
ATOM     77  C   UNL A   1      32.078  28.047  27.287  1.00  0.00     0.021 C 
BRANCH  77  78
ATOM     78  C   UNL A   1      32.154  26.928  26.254  1.00  0.00     0.116 C 
BRANCH  78  79
ATOM     79  N   UNL A   1      32.834  27.329  25.031  1.00  0.00    -0.352 N 
ATOM     80  C   UNL A   1      33.542  26.557  24.148  1.00  0.00     0.256 C 
ATOM     81  H   UNL A   1      32.777  28.286  24.808  1.00  0.00     0.163 HD
ATOM     82  O   UNL A   1      34.039  27.059  23.142  1.00  0.00    -0.269 OA
BRANCH  80  83
ATOM     83  C   UNL A   1      33.637  25.113  24.421  1.00  0.00     0.104 A 
ATOM     84  C   UNL A   1      34.614  24.679  25.229  1.00  0.00     0.104 A 
ATOM     85  C   UNL A   1      32.745  24.116  23.798  1.00  0.00     0.202 A 
ATOM     86  N   UNL A   1      34.929  23.360  25.486  1.00  0.00    -0.343 N 
ATOM     87  C   UNL A   1      32.989  22.691  24.137  1.00  0.00     0.047 A 
ATOM     88  O   UNL A   1      31.858  24.431  23.010  1.00  0.00    -0.288 OA
ATOM     89  C   UNL A   1      34.059  22.343  24.983  1.00  0.00     0.054 A 
ATOM     90  C   UNL A   1      32.168  21.711  23.571  1.00  0.00     0.016 A 
ATOM     91  C   UNL A   1      34.236  20.981  25.278  1.00  0.00     0.053 A 
ATOM     92  C   UNL A   1      32.410  20.364  23.836  1.00  0.00     0.027 A 
ATOM     93  C   UNL A   1      33.444  19.977  24.693  1.00  0.00     0.039 A 
BRANCH  86  94
ATOM     94  C   UNL A   1      36.254  23.016  26.068  1.00  0.00     0.087 C 
ATOM     95  C   UNL A   1      37.476  22.585  25.294  1.00  0.00     0.027 C 
ATOM     96  C   UNL A   1      37.431  23.943  25.930  1.00  0.00     0.027 C 
ENDBRANCH  86  94
BRANCH  93  97
ATOM     97  N   UNL A   1      33.706  18.652  24.967  1.00  0.00    -0.360 N 
ATOM     98  C   UNL A   1      32.814  17.906  25.857  1.00  0.00     0.178 C 
ATOM     99  C   UNL A   1      34.629  17.868  24.142  1.00  0.00     0.178 C 
ATOM    100  C   UNL A   1      32.132  16.754  25.080  1.00  0.00     0.282 C 
ATOM    101  C   UNL A   1      33.896  16.701  23.446  1.00  0.00     0.282 C 
ATOM    102  N   UNL A   1      33.084  15.872  24.367  1.00  0.00    -0.343 N 
ATOM    103  H   UNL A   1      32.570  15.170  23.835  1.00  0.00     0.346 HD
ATOM    104  H   UNL A   1      33.691  15.400  25.037  1.00  0.00     0.346 HD
ENDBRANCH  93  97
ENDBRANCH  80  83
ENDBRANCH  78  79
ENDBRANCH  77  78
ENDBRANCH  76  77
ENDBRANCH  75  76
ENDBRANCH   1  75
TORSDOF 18
ENDMDL
