MODEL 1
REMARK VINA RESULT:      -8.8      0.000      0.000
REMARK SMILES Nc1nc(Nc2ccc(C(=O)NCCCCCCNC(=O)c3ccc(-c4c5nc(c(-c6c(F)cc(S(=O)(=O)[O-])cc6F)c6ccc([nH]6)c(-c6c(F)cc(S(=O)(=O)[O-])cc6F)c6nc(c(-c7c(F)cc(S(=O)(=O)[O-])cc7F)c7ccc4[nH]7)C=C6)C=C5)cc3)cc2)ccc1[N+](=O)[O-]
REMARK SMILES IDX 15 1 14 2 13 3 12 4 10 5 11 6 9 8 6 9 7 10 89 11 8 12 88 13
REMARK SMILES IDX 5 14 4 16 2 17 3 18 92 19 91 20 90 21 1 22 93 25 94 26 95 27
REMARK SMILES IDX 16 28 17 29 18 30 19 31 20 32 21 34 22 35 23 36 87 37 24 38
REMARK SMILES IDX 86 39 25 40 26 41 27 42 80 43 28 44 85 45 79 46 81 47 29 48
REMARK SMILES IDX 84 49 78 50 77 51 30 53 64 54 43 55 63 56 44 57 47 58 62 59
REMARK SMILES IDX 82 60 45 61 46 62 61 64 83 65 48 66 31 67 32 68 41 69 33 70
REMARK SMILES IDX 34 71 40 72 42 73 35 74 36 75 37 76 38 77 39 78 65 79 66 80
REMARK SMILES IDX 75 81 67 82 68 83 74 84 76 85 69 86 70 87 71 88 72 89 73 90
REMARK SMILES IDX 49 91 50 92 59 93 51 94 52 95 58 96 60 97 53 98 54 99 55 100
REMARK SMILES IDX 56 101 57 102
REMARK H PARENT 12 7 5 15 1 23 1 24 19 33 81 52 47 63
REMARK Flexibility Score: inf
ROOT
ATOM      1  C   UNL A   1      42.829  23.399  27.349  1.00  0.00     0.002 C 
ENDROOT
BRANCH   1   2
ATOM      2  C   UNL A   1      44.069  22.755  27.985  1.00  0.00     0.021 C 
BRANCH   2   3
ATOM      3  C   UNL A   1      45.280  23.689  28.003  1.00  0.00     0.116 C 
BRANCH   3   4
ATOM      4  N   UNL A   1      45.779  23.861  26.652  1.00  0.00    -0.352 N 
ATOM      5  C   UNL A   1      45.688  24.891  25.753  1.00  0.00     0.251 C 
ATOM      6  O   UNL A   1      46.180  24.719  24.636  1.00  0.00    -0.269 OA
ATOM      7  H   UNL A   1      46.281  23.084  26.313  1.00  0.00     0.163 HD
BRANCH   5   8
ATOM      8  C   UNL A   1      45.105  26.219  26.089  1.00  0.00     0.039 A 
ATOM      9  C   UNL A   1      43.953  28.774  26.371  1.00  0.00     0.040 A 
ATOM     10  C   UNL A   1      43.245  27.752  25.741  1.00  0.00     0.027 A 
ATOM     11  C   UNL A   1      45.176  28.473  26.976  1.00  0.00     0.027 A 
ATOM     12  C   UNL A   1      43.827  26.492  25.578  1.00  0.00     0.016 A 
ATOM     13  C   UNL A   1      45.735  27.195  26.862  1.00  0.00     0.016 A 
BRANCH   9  14
ATOM     14  N   UNL A   1      43.386  30.053  26.489  1.00  0.00    -0.340 N 
ATOM     15  H   UNL A   1      42.456  30.168  26.185  1.00  0.00     0.168 HD
BRANCH  14  16
ATOM     16  C   UNL A   1      44.046  31.182  27.006  1.00  0.00     0.133 A 
ATOM     17  C   UNL A   1      45.391  33.076  26.656  1.00  0.00     0.204 A 
ATOM     18  N   UNL A   1      44.841  31.927  26.202  1.00  0.00    -0.207 NA
ATOM     19  C   UNL A   1      45.159  33.517  27.954  1.00  0.00     0.311 A 
ATOM     20  C   UNL A   1      44.349  32.749  28.799  1.00  0.00     0.093 A 
ATOM     21  C   UNL A   1      43.781  31.574  28.313  1.00  0.00     0.054 A 
BRANCH  17  22
ATOM     22  N   UNL A   1      46.239  33.678  25.754  1.00  0.00    -0.378 N 
ATOM     23  H   UNL A   1      45.895  34.363  25.137  1.00  0.00     0.158 HD
ATOM     24  H   UNL A   1      47.189  33.423  25.726  1.00  0.00     0.158 HD
ENDBRANCH  17  22
BRANCH  19  25
ATOM     25  N   UNL A   1      45.683  34.790  28.441  1.00  0.00     0.066 N 
ATOM     26  O   UNL A   1      45.308  35.819  27.857  1.00  0.00    -0.258 OA
ATOM     27  O   UNL A   1      46.510  34.782  29.366  1.00  0.00    -0.258 OA
ENDBRANCH  19  25
ENDBRANCH  14  16
ENDBRANCH   9  14
ENDBRANCH   5   8
ENDBRANCH   3   4
ENDBRANCH   2   3
ENDBRANCH   1   2
BRANCH   1  28
ATOM     28  C   UNL A   1      42.540  22.945  25.912  1.00  0.00     0.002 C 
BRANCH  28  29
ATOM     29  C   UNL A   1      41.732  21.650  25.802  1.00  0.00     0.021 C 
BRANCH  29  30
ATOM     30  C   UNL A   1      40.490  21.618  26.686  1.00  0.00     0.116 C 
BRANCH  30  31
ATOM     31  N   UNL A   1      39.298  22.002  25.943  1.00  0.00    -0.352 N 
ATOM     32  C   UNL A   1      38.559  23.156  26.035  1.00  0.00     0.251 C 
ATOM     33  H   UNL A   1      38.979  21.345  25.284  1.00  0.00     0.163 HD
ATOM     34  O   UNL A   1      37.448  23.219  25.524  1.00  0.00    -0.269 OA
BRANCH  32  35
ATOM     35  C   UNL A   1      39.115  24.313  26.768  1.00  0.00     0.039 A 
ATOM     36  C   UNL A   1      39.886  25.252  26.080  1.00  0.00     0.014 A 
ATOM     37  C   UNL A   1      38.870  24.466  28.136  1.00  0.00     0.014 A 
ATOM     38  C   UNL A   1      40.363  26.378  26.753  1.00  0.00     0.010 A 
ATOM     39  C   UNL A   1      39.284  25.623  28.786  1.00  0.00     0.010 A 
ATOM     40  C   UNL A   1      40.038  26.589  28.103  1.00  0.00    -0.014 A 
BRANCH  40  41
ATOM     41  C   UNL A   1      40.484  27.804  28.832  1.00  0.00     0.031 A 
ATOM     42  C   UNL A   1      41.847  27.833  29.469  1.00  0.00     0.074 A 
ATOM     43  C   UNL A   1      39.641  28.846  28.978  1.00  0.00     0.049 A 
ATOM     44  N   UNL A   1      42.374  28.739  30.250  1.00  0.00    -0.248 NA
ATOM     45  C   UNL A   1      42.726  26.679  29.212  1.00  0.00     0.031 C 
ATOM     46  C   UNL A   1      38.286  28.924  28.426  1.00  0.00     0.029 A 
ATOM     47  N   UNL A   1      39.792  30.035  29.647  1.00  0.00    -0.354 N 
ATOM     48  C   UNL A   1      43.640  28.266  30.579  1.00  0.00     0.074 A 
ATOM     49  C   UNL A   1      43.779  26.965  29.964  1.00  0.00     0.031 C 
ATOM     50  C   UNL A   1      37.739  30.103  28.765  1.00  0.00     0.029 A 
ATOM     51  C   UNL A   1      38.681  30.844  29.596  1.00  0.00     0.049 A 
ATOM     52  H   UNL A   1      40.619  30.285  30.118  1.00  0.00     0.167 HD
ATOM     53  C   UNL A   1      44.608  28.875  31.302  1.00  0.00     0.037 A 
ATOM     54  C   UNL A   1      38.443  32.039  30.172  1.00  0.00     0.037 A 
ATOM     55  C   UNL A   1      44.468  30.178  31.897  1.00  0.00     0.049 A 
ATOM     56  C   UNL A   1      39.521  32.672  31.015  1.00  0.00     0.074 A 
ATOM     57  C   UNL A   1      45.396  30.889  32.638  1.00  0.00     0.029 A 
ATOM     58  N   UNL A   1      43.333  30.970  31.810  1.00  0.00    -0.354 N 
ATOM     59  N   UNL A   1      40.723  32.223  31.290  1.00  0.00    -0.248 NA
ATOM     60  C   UNL A   1      39.215  33.975  31.624  1.00  0.00     0.031 C 
ATOM     61  C   UNL A   1      44.808  32.094  33.033  1.00  0.00     0.029 A 
ATOM     62  C   UNL A   1      43.535  32.158  32.491  1.00  0.00     0.049 A 
ATOM     63  H   UNL A   1      42.507  30.725  31.335  1.00  0.00     0.167 HD
ATOM     64  C   UNL A   1      41.331  33.209  32.059  1.00  0.00     0.074 A 
ATOM     65  C   UNL A   1      40.366  34.278  32.208  1.00  0.00     0.031 C 
ATOM     66  C   UNL A   1      42.577  33.231  32.591  1.00  0.00     0.037 A 
BRANCH  53  67
ATOM     67  C   UNL A   1      45.916  28.154  31.476  1.00  0.00     0.058 A 
ATOM     68  C   UNL A   1      46.085  27.176  32.471  1.00  0.00     0.135 A 
ATOM     69  C   UNL A   1      46.989  28.387  30.601  1.00  0.00     0.135 A 
ATOM     70  F   UNL A   1      45.099  26.925  33.346  1.00  0.00    -0.206 F 
ATOM     71  C   UNL A   1      47.274  26.466  32.600  1.00  0.00     0.059 A 
ATOM     72  C   UNL A   1      48.178  27.669  30.693  1.00  0.00     0.059 A 
ATOM     73  F   UNL A   1      46.884  29.313  29.635  1.00  0.00    -0.206 F 
ATOM     74  C   UNL A   1      48.312  26.715  31.701  1.00  0.00     0.060 A 
BRANCH  74  75
ATOM     75  S   UNL A   1      49.834  25.757  31.863  1.00  0.00     0.124 S 
ATOM     76  O   UNL A   1      50.765  26.771  32.349  1.00  0.00    -0.237 OA
ATOM     77  O   UNL A   1      49.454  24.731  32.828  1.00  0.00    -0.237 OA
ATOM     78  O   UNL A   1      50.081  25.278  30.507  1.00  0.00    -0.744 OA
ENDBRANCH  74  75
ENDBRANCH  53  67
BRANCH  54  79
ATOM     79  C   UNL A   1      37.138  32.730  29.976  1.00  0.00     0.058 A 
ATOM     80  C   UNL A   1      36.936  33.594  28.889  1.00  0.00     0.135 A 
ATOM     81  C   UNL A   1      36.082  32.573  30.888  1.00  0.00     0.135 A 
ATOM     82  F   UNL A   1      37.914  33.779  27.989  1.00  0.00    -0.206 F 
ATOM     83  C   UNL A   1      35.754  34.311  28.736  1.00  0.00     0.059 A 
ATOM     84  C   UNL A   1      34.880  33.255  30.739  1.00  0.00     0.059 A 
ATOM     85  F   UNL A   1      36.214  31.743  31.934  1.00  0.00    -0.206 F 
ATOM     86  C   UNL A   1      34.734  34.141  29.672  1.00  0.00     0.060 A 
BRANCH  86  87
ATOM     87  S   UNL A   1      33.207  35.085  29.470  1.00  0.00     0.124 S 
ATOM     88  O   UNL A   1      33.724  36.399  29.108  1.00  0.00    -0.237 OA
ATOM     89  O   UNL A   1      32.528  34.348  28.409  1.00  0.00    -0.237 OA
ATOM     90  O   UNL A   1      32.582  34.993  30.786  1.00  0.00    -0.744 OA
ENDBRANCH  86  87
ENDBRANCH  54  79
BRANCH  66  91
ATOM     91  C   UNL A   1      43.010  34.474  33.317  1.00  0.00     0.058 A 
ATOM     92  C   UNL A   1      42.826  34.632  34.699  1.00  0.00     0.135 A 
ATOM     93  C   UNL A   1      43.698  35.487  32.625  1.00  0.00     0.135 A 
ATOM     94  F   UNL A   1      42.168  33.699  35.404  1.00  0.00    -0.206 F 
ATOM     95  C   UNL A   1      43.301  35.755  35.368  1.00  0.00     0.059 A 
ATOM     96  C   UNL A   1      44.207  36.603  33.280  1.00  0.00     0.059 A 
ATOM     97  F   UNL A   1      43.907  35.379  31.303  1.00  0.00    -0.206 F 
ATOM     98  C   UNL A   1      43.999  36.730  34.652  1.00  0.00     0.060 A 
BRANCH  98  99
ATOM     99  S   UNL A   1      44.669  38.147  35.548  1.00  0.00     0.124 S 
ATOM    100  O   UNL A   1      44.139  39.264  34.773  1.00  0.00    -0.237 OA
ATOM    101  O   UNL A   1      44.096  37.971  36.880  1.00  0.00    -0.237 OA
ATOM    102  O   UNL A   1      46.113  37.953  35.463  1.00  0.00    -0.744 OA
ENDBRANCH  98  99
ENDBRANCH  66  91
ENDBRANCH  40  41
ENDBRANCH  32  35
ENDBRANCH  30  31
ENDBRANCH  29  30
ENDBRANCH  28  29
ENDBRANCH   1  28
TORSDOF 20
ENDMDL
MODEL 2
REMARK VINA RESULT:      -8.7      5.292     11.386
REMARK SMILES Nc1nc(Nc2ccc(C(=O)NCCCCCCNC(=O)c3ccc(-c4c5nc(c(-c6c(F)cc(S(=O)(=O)[O-])cc6F)c6ccc([nH]6)c(-c6c(F)cc(S(=O)(=O)[O-])cc6F)c6nc(c(-c7c(F)cc(S(=O)(=O)[O-])cc7F)c7ccc4[nH]7)C=C6)C=C5)cc3)cc2)ccc1[N+](=O)[O-]
REMARK SMILES IDX 15 1 14 2 13 3 12 4 10 5 11 6 9 8 6 9 7 10 89 11 8 12 88 13
REMARK SMILES IDX 5 14 4 16 2 17 3 18 92 19 91 20 90 21 1 22 93 25 94 26 95 27
REMARK SMILES IDX 16 28 17 29 18 30 19 31 20 32 21 34 22 35 23 36 87 37 24 38
REMARK SMILES IDX 86 39 25 40 26 41 27 42 80 43 28 44 85 45 79 46 81 47 29 48
REMARK SMILES IDX 84 49 78 50 77 51 30 53 64 54 43 55 63 56 44 57 47 58 62 59
REMARK SMILES IDX 82 60 45 61 46 62 61 64 83 65 48 66 31 67 32 68 41 69 33 70
REMARK SMILES IDX 34 71 40 72 42 73 35 74 36 75 37 76 38 77 39 78 65 79 66 80
REMARK SMILES IDX 75 81 67 82 68 83 74 84 76 85 69 86 70 87 71 88 72 89 73 90
REMARK SMILES IDX 49 91 50 92 59 93 51 94 52 95 58 96 60 97 53 98 54 99 55 100
REMARK SMILES IDX 56 101 57 102
REMARK H PARENT 12 7 5 15 1 23 1 24 19 33 81 52 47 63
REMARK Flexibility Score: inf
ROOT
ATOM      1  C   UNL A   1      32.200  25.245  26.533  1.00  0.00     0.002 C 
ENDROOT
BRANCH   1   2
ATOM      2  C   UNL A   1      32.578  23.759  26.466  1.00  0.00     0.021 C 
BRANCH   2   3
ATOM      3  C   UNL A   1      31.392  22.860  26.111  1.00  0.00     0.116 C 
BRANCH   3   4
ATOM      4  N   UNL A   1      31.681  22.140  24.885  1.00  0.00    -0.352 N 
ATOM      5  C   UNL A   1      31.769  22.535  23.576  1.00  0.00     0.251 C 
ATOM      6  O   UNL A   1      31.983  21.664  22.730  1.00  0.00    -0.269 OA
ATOM      7  H   UNL A   1      31.847  21.178  25.020  1.00  0.00     0.163 HD
BRANCH   5   8
ATOM      8  C   UNL A   1      31.701  23.959  23.147  1.00  0.00     0.039 A 
ATOM      9  C   UNL A   1      31.873  26.702  22.529  1.00  0.00     0.040 A 
ATOM     10  C   UNL A   1      32.930  25.847  22.220  1.00  0.00     0.027 A 
ATOM     11  C   UNL A   1      30.685  26.155  23.020  1.00  0.00     0.027 A 
ATOM     12  C   UNL A   1      32.855  24.491  22.549  1.00  0.00     0.016 A 
ATOM     13  C   UNL A   1      30.589  24.788  23.299  1.00  0.00     0.016 A 
BRANCH   9  14
ATOM     14  N   UNL A   1      31.971  28.073  22.242  1.00  0.00    -0.340 N 
ATOM     15  H   UNL A   1      32.805  28.393  21.827  1.00  0.00     0.168 HD
BRANCH  14  16
ATOM     16  C   UNL A   1      30.968  29.024  22.503  1.00  0.00     0.133 A 
ATOM     17  C   UNL A   1      28.973  30.087  21.864  1.00  0.00     0.204 A 
ATOM     18  N   UNL A   1      30.005  29.260  21.580  1.00  0.00    -0.207 NA
ATOM     19  C   UNL A   1      28.878  30.716  23.100  1.00  0.00     0.311 A 
ATOM     20  C   UNL A   1      29.874  30.489  24.057  1.00  0.00     0.093 A 
ATOM     21  C   UNL A   1      30.924  29.626  23.755  1.00  0.00     0.054 A 
BRANCH  17  22
ATOM     22  N   UNL A   1      28.122  30.292  20.802  1.00  0.00    -0.378 N 
ATOM     23  H   UNL A   1      28.459  30.698  19.971  1.00  0.00     0.158 HD
ATOM     24  H   UNL A   1      27.175  30.032  20.873  1.00  0.00     0.158 HD
ENDBRANCH  17  22
BRANCH  19  25
ATOM     25  N   UNL A   1      27.736  31.554  23.453  1.00  0.00     0.066 N 
ATOM     26  O   UNL A   1      26.887  31.066  24.216  1.00  0.00    -0.258 OA
ATOM     27  O   UNL A   1      27.637  32.678  22.937  1.00  0.00    -0.258 OA
ENDBRANCH  19  25
ENDBRANCH  14  16
ENDBRANCH   9  14
ENDBRANCH   5   8
ENDBRANCH   3   4
ENDBRANCH   2   3
ENDBRANCH   1   2
BRANCH   1  28
ATOM     28  C   UNL A   1      33.245  26.196  25.935  1.00  0.00     0.002 C 
BRANCH  28  29
ATOM     29  C   UNL A   1      32.943  27.684  26.135  1.00  0.00     0.021 C 
BRANCH  29  30
ATOM     30  C   UNL A   1      34.139  28.598  25.891  1.00  0.00     0.116 C 
BRANCH  30  31
ATOM     31  N   UNL A   1      33.848  29.969  26.283  1.00  0.00    -0.352 N 
ATOM     32  C   UNL A   1      34.414  30.717  27.287  1.00  0.00     0.251 C 
ATOM     33  H   UNL A   1      33.151  30.422  25.757  1.00  0.00     0.163 HD
ATOM     34  O   UNL A   1      33.887  31.762  27.649  1.00  0.00    -0.269 OA
BRANCH  32  35
ATOM     35  C   UNL A   1      35.655  30.240  27.932  1.00  0.00     0.039 A 
ATOM     36  C   UNL A   1      36.875  30.408  27.274  1.00  0.00     0.014 A 
ATOM     37  C   UNL A   1      35.608  29.628  29.188  1.00  0.00     0.014 A 
ATOM     38  C   UNL A   1      38.057  30.014  27.904  1.00  0.00     0.010 A 
ATOM     39  C   UNL A   1      36.790  29.304  29.843  1.00  0.00     0.010 A 
ATOM     40  C   UNL A   1      38.027  29.490  29.206  1.00  0.00    -0.014 A 
BRANCH  40  41
ATOM     41  C   UNL A   1      39.271  29.113  29.925  1.00  0.00     0.031 A 
ATOM     42  C   UNL A   1      39.703  29.900  31.132  1.00  0.00     0.074 A 
ATOM     43  C   UNL A   1      40.042  28.112  29.451  1.00  0.00     0.049 A 
ATOM     44  N   UNL A   1      40.811  29.813  31.821  1.00  0.00    -0.248 NA
ATOM     45  C   UNL A   1      38.775  30.936  31.617  1.00  0.00     0.031 C 
ATOM     46  C   UNL A   1      39.740  27.292  28.275  1.00  0.00     0.029 A 
ATOM     47  N   UNL A   1      41.246  27.621  29.893  1.00  0.00    -0.354 N 
ATOM     48  C   UNL A   1      40.716  30.782  32.814  1.00  0.00     0.074 A 
ATOM     49  C   UNL A   1      39.470  31.486  32.602  1.00  0.00     0.031 C 
ATOM     50  C   UNL A   1      40.722  26.394  28.100  1.00  0.00     0.029 A 
ATOM     51  C   UNL A   1      41.745  26.601  29.118  1.00  0.00     0.049 A 
ATOM     52  H   UNL A   1      41.707  27.968  30.691  1.00  0.00     0.167 HD
ATOM     53  C   UNL A   1      41.574  31.041  33.828  1.00  0.00     0.037 A 
ATOM     54  C   UNL A   1      42.908  25.924  29.208  1.00  0.00     0.037 A 
ATOM     55  C   UNL A   1      42.804  30.324  34.042  1.00  0.00     0.049 A 
ATOM     56  C   UNL A   1      43.869  26.267  30.317  1.00  0.00     0.074 A 
ATOM     57  C   UNL A   1      43.738  30.500  35.049  1.00  0.00     0.029 A 
ATOM     58  N   UNL A   1      43.266  29.288  33.244  1.00  0.00    -0.354 N 
ATOM     59  N   UNL A   1      43.748  27.166  31.265  1.00  0.00    -0.248 NA
ATOM     60  C   UNL A   1      45.124  25.502  30.374  1.00  0.00     0.031 C 
ATOM     61  C   UNL A   1      44.784  29.598  34.836  1.00  0.00     0.029 A 
ATOM     62  C   UNL A   1      44.475  28.822  33.731  1.00  0.00     0.049 A 
ATOM     63  H   UNL A   1      42.804  28.937  32.450  1.00  0.00     0.167 HD
ATOM     64  C   UNL A   1      44.884  27.039  32.057  1.00  0.00     0.074 A 
ATOM     65  C   UNL A   1      45.682  25.979  31.478  1.00  0.00     0.031 C 
ATOM     66  C   UNL A   1      45.234  27.734  33.167  1.00  0.00     0.037 A 
BRANCH  53  67
ATOM     67  C   UNL A   1      41.209  32.128  34.800  1.00  0.00     0.058 A 
ATOM     68  C   UNL A   1      40.386  31.871  35.909  1.00  0.00     0.135 A 
ATOM     69  C   UNL A   1      41.740  33.421  34.667  1.00  0.00     0.135 A 
ATOM     70  F   UNL A   1      39.837  30.658  36.076  1.00  0.00    -0.206 F 
ATOM     71  C   UNL A   1      40.091  32.859  36.842  1.00  0.00     0.059 A 
ATOM     72  C   UNL A   1      41.482  34.418  35.603  1.00  0.00     0.059 A 
ATOM     73  F   UNL A   1      42.530  33.724  33.624  1.00  0.00    -0.206 F 
ATOM     74  C   UNL A   1      40.651  34.128  36.684  1.00  0.00     0.060 A 
BRANCH  74  75
ATOM     75  S   UNL A   1      40.285  35.387  37.925  1.00  0.00     0.124 S 
ATOM     76  O   UNL A   1      41.598  35.591  38.529  1.00  0.00    -0.237 OA
ATOM     77  O   UNL A   1      39.784  36.490  37.111  1.00  0.00    -0.237 OA
ATOM     78  O   UNL A   1      39.294  34.744  38.782  1.00  0.00    -0.744 OA
ENDBRANCH  74  75
ENDBRANCH  53  67
BRANCH  54  79
ATOM     79  C   UNL A   1      43.236  24.849  28.232  1.00  0.00     0.058 A 
ATOM     80  C   UNL A   1      43.864  25.147  27.013  1.00  0.00     0.135 A 
ATOM     81  C   UNL A   1      42.895  23.509  28.477  1.00  0.00     0.135 A 
ATOM     82  F   UNL A   1      44.209  26.413  26.730  1.00  0.00    -0.206 F 
ATOM     83  C   UNL A   1      44.102  24.168  26.054  1.00  0.00     0.059 A 
ATOM     84  C   UNL A   1      43.152  22.507  27.547  1.00  0.00     0.059 A 
ATOM     85  F   UNL A   1      42.312  23.163  29.635  1.00  0.00    -0.206 F 
ATOM     86  C   UNL A   1      43.735  22.851  26.328  1.00  0.00     0.060 A 
BRANCH  86  87
ATOM     87  S   UNL A   1      44.039  21.588  25.073  1.00  0.00     0.124 S 
ATOM     88  O   UNL A   1      43.823  22.342  23.844  1.00  0.00    -0.237 OA
ATOM     89  O   UNL A   1      45.419  21.203  25.353  1.00  0.00    -0.237 OA
ATOM     90  O   UNL A   1      43.038  20.570  25.374  1.00  0.00    -0.744 OA
ENDBRANCH  86  87
ENDBRANCH  54  79
BRANCH  66  91
ATOM     91  C   UNL A   1      46.492  27.329  33.882  1.00  0.00     0.058 A 
ATOM     92  C   UNL A   1      47.731  27.928  33.608  1.00  0.00     0.135 A 
ATOM     93  C   UNL A   1      46.435  26.383  34.921  1.00  0.00     0.135 A 
ATOM     94  F   UNL A   1      47.843  28.830  32.622  1.00  0.00    -0.206 F 
ATOM     95  C   UNL A   1      48.871  27.596  34.333  1.00  0.00     0.059 A 
ATOM     96  C   UNL A   1      47.555  26.059  35.677  1.00  0.00     0.059 A 
ATOM     97  F   UNL A   1      45.271  25.788  35.228  1.00  0.00    -0.206 F 
ATOM     98  C   UNL A   1      48.771  26.668  35.372  1.00  0.00     0.060 A 
BRANCH  98  99
ATOM     99  S   UNL A   1      50.245  26.300  36.348  1.00  0.00     0.124 S 
ATOM    100  O   UNL A   1      51.006  25.460  35.428  1.00  0.00    -0.237 OA
ATOM    101  O   UNL A   1      50.794  27.631  36.593  1.00  0.00    -0.237 OA
ATOM    102  O   UNL A   1      49.714  25.620  37.525  1.00  0.00    -0.744 OA
ENDBRANCH  98  99
ENDBRANCH  66  91
ENDBRANCH  40  41
ENDBRANCH  32  35
ENDBRANCH  30  31
ENDBRANCH  29  30
ENDBRANCH  28  29
ENDBRANCH   1  28
TORSDOF 20
ENDMDL
MODEL 3
REMARK VINA RESULT:      -8.7      4.653     10.952
REMARK SMILES Nc1nc(Nc2ccc(C(=O)NCCCCCCNC(=O)c3ccc(-c4c5nc(c(-c6c(F)cc(S(=O)(=O)[O-])cc6F)c6ccc([nH]6)c(-c6c(F)cc(S(=O)(=O)[O-])cc6F)c6nc(c(-c7c(F)cc(S(=O)(=O)[O-])cc7F)c7ccc4[nH]7)C=C6)C=C5)cc3)cc2)ccc1[N+](=O)[O-]
REMARK SMILES IDX 15 1 14 2 13 3 12 4 10 5 11 6 9 8 6 9 7 10 89 11 8 12 88 13
REMARK SMILES IDX 5 14 4 16 2 17 3 18 92 19 91 20 90 21 1 22 93 25 94 26 95 27
REMARK SMILES IDX 16 28 17 29 18 30 19 31 20 32 21 34 22 35 23 36 87 37 24 38
REMARK SMILES IDX 86 39 25 40 26 41 27 42 80 43 28 44 85 45 79 46 81 47 29 48
REMARK SMILES IDX 84 49 78 50 77 51 30 53 64 54 43 55 63 56 44 57 47 58 62 59
REMARK SMILES IDX 82 60 45 61 46 62 61 64 83 65 48 66 31 67 32 68 41 69 33 70
REMARK SMILES IDX 34 71 40 72 42 73 35 74 36 75 37 76 38 77 39 78 65 79 66 80
REMARK SMILES IDX 75 81 67 82 68 83 74 84 76 85 69 86 70 87 71 88 72 89 73 90
REMARK SMILES IDX 49 91 50 92 59 93 51 94 52 95 58 96 60 97 53 98 54 99 55 100
REMARK SMILES IDX 56 101 57 102
REMARK H PARENT 12 7 5 15 1 23 1 24 19 33 81 52 47 63
REMARK Flexibility Score: inf
ROOT
ATOM      1  C   UNL A   1      37.503  23.082  25.745  1.00  0.00     0.002 C 
ENDROOT
BRANCH   1   2
ATOM      2  C   UNL A   1      36.052  22.751  25.372  1.00  0.00     0.021 C 
BRANCH   2   3
ATOM      3  C   UNL A   1      35.446  21.658  26.254  1.00  0.00     0.116 C 
BRANCH   3   4
ATOM      4  N   UNL A   1      34.860  20.629  25.415  1.00  0.00    -0.352 N 
ATOM      5  C   UNL A   1      33.631  20.503  24.824  1.00  0.00     0.251 C 
ATOM      6  O   UNL A   1      33.403  19.466  24.198  1.00  0.00    -0.269 OA
ATOM      7  H   UNL A   1      35.465  19.873  25.235  1.00  0.00     0.163 HD
BRANCH   5   8
ATOM      8  C   UNL A   1      32.605  21.582  24.833  1.00  0.00     0.039 A 
ATOM      9  C   UNL A   1      30.941  23.855  24.821  1.00  0.00     0.040 A 
ATOM     10  C   UNL A   1      31.804  23.613  23.753  1.00  0.00     0.027 A 
ATOM     11  C   UNL A   1      30.818  22.887  25.821  1.00  0.00     0.027 A 
ATOM     12  C   UNL A   1      32.648  22.500  23.772  1.00  0.00     0.016 A 
ATOM     13  C   UNL A   1      31.623  21.743  25.812  1.00  0.00     0.016 A 
BRANCH   9  14
ATOM     14  N   UNL A   1      30.130  25.001  24.824  1.00  0.00    -0.340 N 
ATOM     15  H   UNL A   1      29.194  24.897  24.535  1.00  0.00     0.168 HD
BRANCH  14  16
ATOM     16  C   UNL A   1      30.553  26.287  25.207  1.00  0.00     0.133 A 
ATOM     17  C   UNL A   1      31.331  27.746  26.875  1.00  0.00     0.204 A 
ATOM     18  N   UNL A   1      30.816  26.550  26.509  1.00  0.00    -0.207 NA
ATOM     19  C   UNL A   1      31.597  28.731  25.930  1.00  0.00     0.311 A 
ATOM     20  C   UNL A   1      31.317  28.474  24.583  1.00  0.00     0.093 A 
ATOM     21  C   UNL A   1      30.798  27.234  24.220  1.00  0.00     0.054 A 
BRANCH  17  22
ATOM     22  N   UNL A   1      31.467  27.896  28.236  1.00  0.00    -0.378 N 
ATOM     23  H   UNL A   1      32.008  27.255  28.751  1.00  0.00     0.158 HD
ATOM     24  H   UNL A   1      31.023  28.645  28.696  1.00  0.00     0.158 HD
ENDBRANCH  17  22
BRANCH  19  25
ATOM     25  N   UNL A   1      32.220  30.001  26.294  1.00  0.00     0.066 N 
ATOM     26  O   UNL A   1      31.575  31.036  26.063  1.00  0.00    -0.258 OA
ATOM     27  O   UNL A   1      33.370  29.992  26.757  1.00  0.00    -0.258 OA
ENDBRANCH  19  25
ENDBRANCH  14  16
ENDBRANCH   9  14
ENDBRANCH   5   8
ENDBRANCH   3   4
ENDBRANCH   2   3
ENDBRANCH   1   2
BRANCH   1  28
ATOM     28  C   UNL A   1      38.447  21.872  25.769  1.00  0.00     0.002 C 
BRANCH  28  29
ATOM     29  C   UNL A   1      39.730  22.079  26.577  1.00  0.00     0.021 C 
BRANCH  29  30
ATOM     30  C   UNL A   1      39.976  23.526  26.989  1.00  0.00     0.116 C 
BRANCH  30  31
ATOM     31  N   UNL A   1      40.781  24.231  26.002  1.00  0.00    -0.352 N 
ATOM     32  C   UNL A   1      41.224  25.531  26.019  1.00  0.00     0.251 C 
ATOM     33  H   UNL A   1      41.044  23.703  25.214  1.00  0.00     0.163 HD
ATOM     34  O   UNL A   1      41.675  26.042  25.001  1.00  0.00    -0.269 OA
BRANCH  32  35
ATOM     35  C   UNL A   1      41.138  26.306  27.274  1.00  0.00     0.039 A 
ATOM     36  C   UNL A   1      42.080  27.305  27.525  1.00  0.00     0.014 A 
ATOM     37  C   UNL A   1      40.123  26.043  28.198  1.00  0.00     0.014 A 
ATOM     38  C   UNL A   1      41.969  28.082  28.680  1.00  0.00     0.010 A 
ATOM     39  C   UNL A   1      39.972  26.864  29.310  1.00  0.00     0.010 A 
ATOM     40  C   UNL A   1      40.895  27.890  29.565  1.00  0.00    -0.014 A 
BRANCH  40  41
ATOM     41  C   UNL A   1      40.718  28.735  30.773  1.00  0.00     0.031 A 
ATOM     42  C   UNL A   1      39.688  29.832  30.771  1.00  0.00     0.074 A 
ATOM     43  C   UNL A   1      41.526  28.560  31.838  1.00  0.00     0.049 A 
ATOM     44  N   UNL A   1      39.463  30.754  31.670  1.00  0.00    -0.248 NA
ATOM     45  C   UNL A   1      38.809  29.916  29.593  1.00  0.00     0.031 C 
ATOM     46  C   UNL A   1      42.577  27.545  31.948  1.00  0.00     0.029 A 
ATOM     47  N   UNL A   1      41.600  29.239  33.029  1.00  0.00    -0.354 N 
ATOM     48  C   UNL A   1      38.422  31.528  31.166  1.00  0.00     0.074 A 
ATOM     49  C   UNL A   1      38.102  31.006  29.856  1.00  0.00     0.031 C 
ATOM     50  C   UNL A   1      43.178  27.660  33.144  1.00  0.00     0.029 A 
ATOM     51  C   UNL A   1      42.591  28.782  33.867  1.00  0.00     0.049 A 
ATOM     52  H   UNL A   1      41.000  29.984  33.261  1.00  0.00     0.167 HD
ATOM     53  C   UNL A   1      37.775  32.560  31.755  1.00  0.00     0.037 A 
ATOM     54  C   UNL A   1      42.992  29.232  35.072  1.00  0.00     0.037 A 
ATOM     55  C   UNL A   1      38.089  33.063  33.067  1.00  0.00     0.049 A 
ATOM     56  C   UNL A   1      42.286  30.416  35.683  1.00  0.00     0.074 A 
ATOM     57  C   UNL A   1      37.482  34.097  33.759  1.00  0.00     0.029 A 
ATOM     58  N   UNL A   1      39.089  32.563  33.888  1.00  0.00    -0.354 N 
ATOM     59  N   UNL A   1      41.284  31.115  35.205  1.00  0.00    -0.248 NA
ATOM     60  C   UNL A   1      42.759  30.870  36.999  1.00  0.00     0.031 C 
ATOM     61  C   UNL A   1      38.141  34.248  34.982  1.00  0.00     0.029 A 
ATOM     62  C   UNL A   1      39.121  33.272  35.076  1.00  0.00     0.049 A 
ATOM     63  H   UNL A   1      39.686  31.815  33.660  1.00  0.00     0.167 HD
ATOM     64  C   UNL A   1      40.977  32.056  36.181  1.00  0.00     0.074 A 
ATOM     65  C   UNL A   1      41.899  31.839  37.276  1.00  0.00     0.031 C 
ATOM     66  C   UNL A   1      40.017  33.012  36.174  1.00  0.00     0.037 A 
BRANCH  53  67
ATOM     67  C   UNL A   1      36.645  33.205  31.001  1.00  0.00     0.058 A 
ATOM     68  C   UNL A   1      35.307  32.998  31.373  1.00  0.00     0.135 A 
ATOM     69  C   UNL A   1      36.900  34.091  29.942  1.00  0.00     0.135 A 
ATOM     70  F   UNL A   1      35.004  32.148  32.366  1.00  0.00    -0.206 F 
ATOM     71  C   UNL A   1      34.261  33.637  30.714  1.00  0.00     0.059 A 
ATOM     72  C   UNL A   1      35.872  34.763  29.287  1.00  0.00     0.059 A 
ATOM     73  F   UNL A   1      38.160  34.322  29.541  1.00  0.00    -0.206 F 
ATOM     74  C   UNL A   1      34.555  34.524  29.677  1.00  0.00     0.060 A 
BRANCH  74  75
ATOM     75  S   UNL A   1      33.186  35.370  28.859  1.00  0.00     0.124 S 
ATOM     76  O   UNL A   1      33.895  36.352  28.045  1.00  0.00    -0.237 OA
ATOM     77  O   UNL A   1      32.545  34.284  28.124  1.00  0.00    -0.237 OA
ATOM     78  O   UNL A   1      32.411  35.916  29.968  1.00  0.00    -0.744 OA
ENDBRANCH  74  75
ENDBRANCH  53  67
BRANCH  54  79
ATOM     79  C   UNL A   1      44.111  28.567  35.796  1.00  0.00     0.058 A 
ATOM     80  C   UNL A   1      43.863  27.556  36.737  1.00  0.00     0.135 A 
ATOM     81  C   UNL A   1      45.446  28.953  35.593  1.00  0.00     0.135 A 
ATOM     82  F   UNL A   1      42.604  27.152  36.969  1.00  0.00    -0.206 F 
ATOM     83  C   UNL A   1      44.888  26.983  37.482  1.00  0.00     0.059 A 
ATOM     84  C   UNL A   1      46.491  28.373  36.303  1.00  0.00     0.059 A 
ATOM     85  F   UNL A   1      45.743  29.900  34.690  1.00  0.00    -0.206 F 
ATOM     86  C   UNL A   1      46.200  27.405  37.263  1.00  0.00     0.060 A 
BRANCH  86  87
ATOM     87  S   UNL A   1      47.522  26.662  38.243  1.00  0.00     0.124 S 
ATOM     88  O   UNL A   1      48.471  26.277  37.206  1.00  0.00    -0.237 OA
ATOM     89  O   UNL A   1      47.927  27.771  39.102  1.00  0.00    -0.237 OA
ATOM     90  O   UNL A   1      46.852  25.561  38.928  1.00  0.00    -0.744 OA
ENDBRANCH  86  87
ENDBRANCH  54  79
BRANCH  66  91
ATOM     91  C   UNL A   1      39.850  33.849  37.411  1.00  0.00     0.058 A 
ATOM     92  C   UNL A   1      40.484  35.092  37.562  1.00  0.00     0.135 A 
ATOM     93  C   UNL A   1      38.969  33.434  38.426  1.00  0.00     0.135 A 
ATOM     94  F   UNL A   1      41.341  35.531  36.628  1.00  0.00    -0.206 F 
ATOM     95  C   UNL A   1      40.258  35.889  38.679  1.00  0.00     0.059 A 
ATOM     96  C   UNL A   1      38.705  34.229  39.536  1.00  0.00     0.059 A 
ATOM     97  F   UNL A   1      38.330  32.258  38.325  1.00  0.00    -0.206 F 
ATOM     98  C   UNL A   1      39.359  35.454  39.656  1.00  0.00     0.060 A 
BRANCH  98  99
ATOM     99  S   UNL A   1      39.025  36.532  41.065  1.00  0.00     0.124 S 
ATOM    100  O   UNL A   1      38.607  37.763  40.403  1.00  0.00    -0.237 OA
ATOM    101  O   UNL A   1      37.973  35.803  41.770  1.00  0.00    -0.237 OA
ATOM    102  O   UNL A   1      40.307  36.595  41.758  1.00  0.00    -0.744 OA
ENDBRANCH  98  99
ENDBRANCH  66  91
ENDBRANCH  40  41
ENDBRANCH  32  35
ENDBRANCH  30  31
ENDBRANCH  29  30
ENDBRANCH  28  29
ENDBRANCH   1  28
TORSDOF 20
ENDMDL
