MODEL 1
REMARK VINA RESULT:     -11.8      0.000      0.000
REMARK SMILES CC(C)CSc1cc2c(cc1Cl)C=C(C(=O)NCCCCCCNC(=O)c1ccc(-c3c4nc(c(-c5c(F)cc(S(=O)(=O)[O-])cc5F)c5ccc([nH]5)c(-c5c(F)cc(S(=O)(=O)[O-])cc5F)c5nc(c(-c6c(F)cc(S(=O)(=O)[O-])cc6F)c6ccc3[nH]6)C=C5)C=C4)cc1)[C@H](C(F)(F)F)O2
REMARK SMILES IDX 20 1 19 2 18 3 17 4 15 5 16 6 14 8 6 9 7 10 11 11 8 12 10 13
REMARK SMILES IDX 12 14 9 15 98 16 13 17 93 18 5 19 4 20 2 21 1 22 3 23 94 24
REMARK SMILES IDX 95 25 96 26 97 27 21 28 22 29 23 30 24 31 25 32 26 34 27 35
REMARK SMILES IDX 28 36 92 37 29 38 91 39 30 40 31 41 32 42 85 43 33 44 90 45
REMARK SMILES IDX 84 46 86 47 34 48 89 49 83 50 82 51 35 53 69 54 48 55 68 56
REMARK SMILES IDX 49 57 52 58 67 59 87 60 50 61 51 62 66 64 88 65 53 66 36 67
REMARK SMILES IDX 37 68 46 69 38 70 39 71 45 72 47 73 40 74 41 75 42 76 43 77
REMARK SMILES IDX 44 78 70 79 71 80 80 81 72 82 73 83 79 84 81 85 74 86 75 87
REMARK SMILES IDX 76 88 77 89 78 90 54 91 55 92 64 93 56 94 57 95 63 96 65 97
REMARK SMILES IDX 58 98 59 99 60 100 61 101 62 102
REMARK H PARENT 17 7 24 33 86 52 52 63
REMARK Flexibility Score: inf
ROOT
ATOM      1  C   UNL A   1      31.821  28.860  27.189  1.00  0.00     0.002 C 
ENDROOT
BRANCH   1   2
ATOM      2  C   UNL A   1      31.574  29.785  25.995  1.00  0.00     0.021 C 
BRANCH   2   3
ATOM      3  C   UNL A   1      31.411  29.043  24.670  1.00  0.00     0.116 C 
BRANCH   3   4
ATOM      4  N   UNL A   1      32.555  29.257  23.801  1.00  0.00    -0.352 N 
ATOM      5  C   UNL A   1      33.495  28.502  23.188  1.00  0.00     0.251 C 
ATOM      6  O   UNL A   1      34.325  29.134  22.525  1.00  0.00    -0.270 OA
ATOM      7  H   UNL A   1      32.680  30.214  23.605  1.00  0.00     0.163 HD
BRANCH   5   8
ATOM      8  C   UNL A   1      33.581  27.012  23.246  1.00  0.00     0.067 C 
ATOM      9  C   UNL A   1      34.190  22.251  24.822  1.00  0.00     0.030 A 
ATOM     10  C   UNL A   1      34.129  22.873  23.570  1.00  0.00     0.063 A 
ATOM     11  C   UNL A   1      34.195  23.065  25.970  1.00  0.00     0.055 A 
ATOM     12  C   UNL A   1      33.977  24.254  23.470  1.00  0.00     0.129 A 
ATOM     13  C   UNL A   1      34.083  24.458  25.861  1.00  0.00     0.033 A 
ATOM     14  Cl  UNL A   1      34.314  22.415  27.572  1.00  0.00    -0.083 Cl
ATOM     15  C   UNL A   1      33.957  25.055  24.607  1.00  0.00     0.019 A 
ATOM     16  O   UNL A   1      33.879  24.752  22.206  1.00  0.00    -0.475 OA
ATOM     17  C   UNL A   1      33.854  26.498  24.460  1.00  0.00     0.025 C 
ATOM     18  C   UNL A   1      33.360  26.101  22.069  1.00  0.00     0.314 C 
BRANCH   9  19
ATOM     19  S   UNL A   1      34.245  20.464  24.914  1.00  0.00    -0.124 SA
BRANCH  19  20
ATOM     20  C   UNL A   1      32.546  19.979  24.411  1.00  0.00     0.078 C 
BRANCH  20  21
ATOM     21  C   UNL A   1      32.387  18.519  23.943  1.00  0.00    -0.007 C 
ATOM     22  C   UNL A   1      32.334  18.358  22.422  1.00  0.00     0.008 C 
ATOM     23  C   UNL A   1      33.561  17.693  24.480  1.00  0.00     0.008 C 
ENDBRANCH  20  21
ENDBRANCH  19  20
ENDBRANCH   9  19
BRANCH  18  24
ATOM     24  C   UNL A   1      31.887  26.048  21.618  1.00  0.00     0.429 C 
ATOM     25  F   UNL A   1      31.760  25.828  20.288  1.00  0.00    -0.167 F 
ATOM     26  F   UNL A   1      31.182  25.074  22.240  1.00  0.00    -0.167 F 
ATOM     27  F   UNL A   1      31.260  27.218  21.896  1.00  0.00    -0.167 F 
ENDBRANCH  18  24
ENDBRANCH   5   8
ENDBRANCH   3   4
ENDBRANCH   2   3
ENDBRANCH   1   2
BRANCH   1  28
ATOM     28  C   UNL A   1      33.266  28.370  27.341  1.00  0.00     0.002 C 
BRANCH  28  29
ATOM     29  C   UNL A   1      34.342  29.407  27.016  1.00  0.00     0.021 C 
BRANCH  29  30
ATOM     30  C   UNL A   1      35.580  29.328  27.901  1.00  0.00     0.116 C 
BRANCH  30  31
ATOM     31  N   UNL A   1      35.396  30.035  29.159  1.00  0.00    -0.352 N 
ATOM     32  C   UNL A   1      36.298  30.288  30.165  1.00  0.00     0.251 C 
ATOM     33  H   UNL A   1      34.488  30.386  29.313  1.00  0.00     0.163 HD
ATOM     34  O   UNL A   1      35.907  30.708  31.247  1.00  0.00    -0.269 OA
BRANCH  32  35
ATOM     35  C   UNL A   1      37.737  30.033  29.938  1.00  0.00     0.039 A 
ATOM     36  C   UNL A   1      38.405  30.640  28.873  1.00  0.00     0.014 A 
ATOM     37  C   UNL A   1      38.427  29.175  30.799  1.00  0.00     0.014 A 
ATOM     38  C   UNL A   1      39.703  30.255  28.565  1.00  0.00     0.010 A 
ATOM     39  C   UNL A   1      39.769  28.870  30.547  1.00  0.00     0.010 A 
ATOM     40  C   UNL A   1      40.405  29.370  29.400  1.00  0.00    -0.014 A 
BRANCH  40  41
ATOM     41  C   UNL A   1      41.804  29.002  29.051  1.00  0.00     0.031 A 
ATOM     42  C   UNL A   1      42.139  27.619  28.556  1.00  0.00     0.074 A 
ATOM     43  C   UNL A   1      42.763  29.947  29.117  1.00  0.00     0.049 A 
ATOM     44  N   UNL A   1      43.292  27.148  28.155  1.00  0.00    -0.248 NA
ATOM     45  C   UNL A   1      41.044  26.636  28.508  1.00  0.00     0.031 C 
ATOM     46  C   UNL A   1      42.557  31.323  29.578  1.00  0.00     0.029 A 
ATOM     47  N   UNL A   1      44.089  29.913  28.767  1.00  0.00    -0.354 N 
ATOM     48  C   UNL A   1      43.066  25.819  27.815  1.00  0.00     0.074 A 
ATOM     49  C   UNL A   1      41.675  25.543  28.101  1.00  0.00     0.031 C 
ATOM     50  C   UNL A   1      43.692  32.017  29.419  1.00  0.00     0.029 A 
ATOM     51  C   UNL A   1      44.728  31.123  28.914  1.00  0.00     0.049 A 
ATOM     52  H   UNL A   1      44.540  29.101  28.442  1.00  0.00     0.167 HD
ATOM     53  C   UNL A   1      43.934  24.918  27.295  1.00  0.00     0.037 A 
ATOM     54  C   UNL A   1      46.007  31.475  28.679  1.00  0.00     0.037 A 
ATOM     55  C   UNL A   1      45.315  25.206  27.001  1.00  0.00     0.049 A 
ATOM     56  C   UNL A   1      46.962  30.442  28.156  1.00  0.00     0.074 A 
ATOM     57  C   UNL A   1      46.269  24.365  26.456  1.00  0.00     0.029 A 
ATOM     58  N   UNL A   1      45.938  26.425  27.226  1.00  0.00    -0.354 N 
ATOM     59  N   UNL A   1      46.724  29.196  27.823  1.00  0.00    -0.248 NA
ATOM     60  C   UNL A   1      48.362  30.854  27.987  1.00  0.00     0.031 C 
ATOM     61  C   UNL A   1      47.482  25.058  26.401  1.00  0.00     0.029 A 
ATOM     62  C   UNL A   1      47.272  26.349  26.857  1.00  0.00     0.049 A 
ATOM     63  H   UNL A   1      45.500  27.225  27.595  1.00  0.00     0.167 HD
ATOM     64  C   UNL A   1      47.939  28.679  27.389  1.00  0.00     0.074 A 
ATOM     65  C   UNL A   1      48.907  29.753  27.486  1.00  0.00     0.031 C 
ATOM     66  C   UNL A   1      48.225  27.427  26.953  1.00  0.00     0.037 A 
BRANCH  53  67
ATOM     67  C   UNL A   1      43.424  23.531  27.006  1.00  0.00     0.058 A 
ATOM     68  C   UNL A   1      43.150  23.105  25.697  1.00  0.00     0.135 A 
ATOM     69  C   UNL A   1      43.268  22.595  28.043  1.00  0.00     0.135 A 
ATOM     70  F   UNL A   1      43.267  23.961  24.669  1.00  0.00    -0.206 F 
ATOM     71  C   UNL A   1      42.721  21.810  25.426  1.00  0.00     0.059 A 
ATOM     72  C   UNL A   1      42.867  21.285  27.792  1.00  0.00     0.059 A 
ATOM     73  F   UNL A   1      43.517  22.947  29.314  1.00  0.00    -0.206 F 
ATOM     74  C   UNL A   1      42.585  20.906  26.482  1.00  0.00     0.060 A 
BRANCH  74  75
ATOM     75  S   UNL A   1      42.036  19.227  26.107  1.00  0.00     0.124 S 
ATOM     76  O   UNL A   1      42.814  18.928  24.908  1.00  0.00    -0.237 OA
ATOM     77  O   UNL A   1      42.424  18.499  27.310  1.00  0.00    -0.237 OA
ATOM     78  O   UNL A   1      40.599  19.375  25.899  1.00  0.00    -0.744 OA
ENDBRANCH  74  75
ENDBRANCH  53  67
BRANCH  54  79
ATOM     79  C   UNL A   1      46.444  32.875  28.934  1.00  0.00     0.058 A 
ATOM     80  C   UNL A   1      46.387  33.843  27.923  1.00  0.00     0.135 A 
ATOM     81  C   UNL A   1      46.885  33.280  30.204  1.00  0.00     0.135 A 
ATOM     82  F   UNL A   1      45.979  33.505  26.690  1.00  0.00    -0.206 F 
ATOM     83  C   UNL A   1      46.755  35.164  28.158  1.00  0.00     0.059 A 
ATOM     84  C   UNL A   1      47.229  34.601  30.472  1.00  0.00     0.059 A 
ATOM     85  F   UNL A   1      46.944  32.394  31.210  1.00  0.00    -0.206 F 
ATOM     86  C   UNL A   1      47.167  35.535  29.439  1.00  0.00     0.060 A 
BRANCH  86  87
ATOM     87  S   UNL A   1      47.582  37.265  29.747  1.00  0.00     0.124 S 
ATOM     88  O   UNL A   1      48.678  37.474  28.808  1.00  0.00    -0.237 OA
ATOM     89  O   UNL A   1      46.327  37.938  29.425  1.00  0.00    -0.237 OA
ATOM     90  O   UNL A   1      47.948  37.278  31.159  1.00  0.00    -0.744 OA
ENDBRANCH  86  87
ENDBRANCH  54  79
BRANCH  66  91
ATOM     91  C   UNL A   1      49.638  27.139  26.529  1.00  0.00     0.058 A 
ATOM     92  C   UNL A   1      50.598  26.681  27.444  1.00  0.00     0.135 A 
ATOM     93  C   UNL A   1      50.007  27.227  25.177  1.00  0.00     0.135 A 
ATOM     94  F   UNL A   1      50.300  26.589  28.749  1.00  0.00    -0.206 F 
ATOM     95  C   UNL A   1      51.877  26.320  27.032  1.00  0.00     0.059 A 
ATOM     96  C   UNL A   1      51.271  26.845  24.739  1.00  0.00     0.059 A 
ATOM     97  F   UNL A   1      49.124  27.653  24.261  1.00  0.00    -0.206 F 
ATOM     98  C   UNL A   1      52.200  26.394  25.676  1.00  0.00     0.060 A 
BRANCH  98  99
ATOM     99  S   UNL A   1      53.841  25.853  25.152  1.00  0.00     0.124 S 
ATOM    100  O   UNL A   1      54.577  25.881  26.410  1.00  0.00    -0.237 OA
ATOM    101  O   UNL A   1      53.568  24.529  24.604  1.00  0.00    -0.237 OA
ATOM    102  O   UNL A   1      54.237  26.862  24.173  1.00  0.00    -0.744 OA
ENDBRANCH  98  99
ENDBRANCH  66  91
ENDBRANCH  40  41
ENDBRANCH  32  35
ENDBRANCH  30  31
ENDBRANCH  29  30
ENDBRANCH  28  29
ENDBRANCH   1  28
TORSDOF 20
ENDMDL
MODEL 2
REMARK VINA RESULT:     -11.8      6.619     11.607
REMARK SMILES CC(C)CSc1cc2c(cc1Cl)C=C(C(=O)NCCCCCCNC(=O)c1ccc(-c3c4nc(c(-c5c(F)cc(S(=O)(=O)[O-])cc5F)c5ccc([nH]5)c(-c5c(F)cc(S(=O)(=O)[O-])cc5F)c5nc(c(-c6c(F)cc(S(=O)(=O)[O-])cc6F)c6ccc3[nH]6)C=C5)C=C4)cc1)[C@H](C(F)(F)F)O2
REMARK SMILES IDX 20 1 19 2 18 3 17 4 15 5 16 6 14 8 6 9 7 10 11 11 8 12 10 13
REMARK SMILES IDX 12 14 9 15 98 16 13 17 93 18 5 19 4 20 2 21 1 22 3 23 94 24
REMARK SMILES IDX 95 25 96 26 97 27 21 28 22 29 23 30 24 31 25 32 26 34 27 35
REMARK SMILES IDX 28 36 92 37 29 38 91 39 30 40 31 41 32 42 85 43 33 44 90 45
REMARK SMILES IDX 84 46 86 47 34 48 89 49 83 50 82 51 35 53 69 54 48 55 68 56
REMARK SMILES IDX 49 57 52 58 67 59 87 60 50 61 51 62 66 64 88 65 53 66 36 67
REMARK SMILES IDX 37 68 46 69 38 70 39 71 45 72 47 73 40 74 41 75 42 76 43 77
REMARK SMILES IDX 44 78 70 79 71 80 80 81 72 82 73 83 79 84 81 85 74 86 75 87
REMARK SMILES IDX 76 88 77 89 78 90 54 91 55 92 64 93 56 94 57 95 63 96 65 97
REMARK SMILES IDX 58 98 59 99 60 100 61 101 62 102
REMARK H PARENT 17 7 24 33 86 52 52 63
REMARK Flexibility Score: inf
ROOT
ATOM      1  C   UNL A   1      37.290  21.044  24.914  1.00  0.00     0.002 C 
ENDROOT
BRANCH   1   2
ATOM      2  C   UNL A   1      35.833  21.498  25.024  1.00  0.00     0.021 C 
BRANCH   2   3
ATOM      3  C   UNL A   1      34.839  20.344  25.136  1.00  0.00     0.116 C 
BRANCH   3   4
ATOM      4  N   UNL A   1      33.755  20.486  24.181  1.00  0.00    -0.352 N 
ATOM      5  C   UNL A   1      32.892  21.452  23.792  1.00  0.00     0.251 C 
ATOM      6  O   UNL A   1      32.089  21.115  22.914  1.00  0.00    -0.270 OA
ATOM      7  H   UNL A   1      33.609  19.653  23.678  1.00  0.00     0.163 HD
BRANCH   5   8
ATOM      8  C   UNL A   1      32.857  22.848  24.323  1.00  0.00     0.067 C 
ATOM      9  C   UNL A   1      33.355  27.847  24.849  1.00  0.00     0.030 A 
ATOM     10  C   UNL A   1      33.093  26.787  25.724  1.00  0.00     0.063 A 
ATOM     11  C   UNL A   1      33.669  27.544  23.511  1.00  0.00     0.055 A 
ATOM     12  C   UNL A   1      33.046  25.476  25.256  1.00  0.00     0.129 A 
ATOM     13  C   UNL A   1      33.660  26.218  23.055  1.00  0.00     0.033 A 
ATOM     14  Cl  UNL A   1      34.057  28.766  22.345  1.00  0.00    -0.083 Cl
ATOM     15  C   UNL A   1      33.331  25.180  23.928  1.00  0.00     0.019 A 
ATOM     16  O   UNL A   1      32.733  24.526  26.181  1.00  0.00    -0.475 OA
ATOM     17  C   UNL A   1      33.327  23.793  23.490  1.00  0.00     0.025 C 
ATOM     18  C   UNL A   1      32.318  23.228  25.675  1.00  0.00     0.314 C 
BRANCH   9  19
ATOM     19  S   UNL A   1      33.271  29.530  25.456  1.00  0.00    -0.124 SA
BRANCH  19  20
ATOM     20  C   UNL A   1      33.415  29.313  27.275  1.00  0.00     0.078 C 
BRANCH  20  21
ATOM     21  C   UNL A   1      34.675  29.927  27.915  1.00  0.00    -0.007 C 
ATOM     22  C   UNL A   1      35.985  29.471  27.266  1.00  0.00     0.008 C 
ATOM     23  C   UNL A   1      34.589  31.454  27.818  1.00  0.00     0.008 C 
ENDBRANCH  20  21
ENDBRANCH  19  20
ENDBRANCH   9  19
BRANCH  18  24
ATOM     24  C   UNL A   1      30.785  23.101  25.771  1.00  0.00     0.429 C 
ATOM     25  F   UNL A   1      30.389  21.854  26.120  1.00  0.00    -0.167 F 
ATOM     26  F   UNL A   1      30.243  23.947  26.677  1.00  0.00    -0.167 F 
ATOM     27  F   UNL A   1      30.207  23.388  24.578  1.00  0.00    -0.167 F 
ENDBRANCH  18  24
ENDBRANCH   5   8
ENDBRANCH   3   4
ENDBRANCH   2   3
ENDBRANCH   1   2
BRANCH   1  28
ATOM     28  C   UNL A   1      38.305  21.944  25.629  1.00  0.00     0.002 C 
BRANCH  28  29
ATOM     29  C   UNL A   1      37.849  23.387  25.855  1.00  0.00     0.021 C 
BRANCH  29  30
ATOM     30  C   UNL A   1      38.812  24.228  26.684  1.00  0.00     0.116 C 
BRANCH  30  31
ATOM     31  N   UNL A   1      40.047  24.506  25.968  1.00  0.00    -0.352 N 
ATOM     32  C   UNL A   1      40.982  25.492  26.178  1.00  0.00     0.251 C 
ATOM     33  H   UNL A   1      40.244  23.896  25.220  1.00  0.00     0.163 HD
ATOM     34  O   UNL A   1      41.847  25.704  25.338  1.00  0.00    -0.269 OA
BRANCH  32  35
ATOM     35  C   UNL A   1      40.923  26.305  27.413  1.00  0.00     0.039 A 
ATOM     36  C   UNL A   1      40.098  25.925  28.472  1.00  0.00     0.014 A 
ATOM     37  C   UNL A   1      41.700  27.462  27.511  1.00  0.00     0.014 A 
ATOM     38  C   UNL A   1      39.916  26.787  29.546  1.00  0.00     0.010 A 
ATOM     39  C   UNL A   1      41.594  28.276  28.644  1.00  0.00     0.010 A 
ATOM     40  C   UNL A   1      40.665  27.970  29.650  1.00  0.00    -0.014 A 
BRANCH  40  41
ATOM     41  C   UNL A   1      40.460  28.855  30.829  1.00  0.00     0.031 A 
ATOM     42  C   UNL A   1      41.373  28.774  32.024  1.00  0.00     0.074 A 
ATOM     43  C   UNL A   1      39.484  29.784  30.785  1.00  0.00     0.049 A 
ATOM     44  N   UNL A   1      41.371  29.506  33.109  1.00  0.00    -0.248 NA
ATOM     45  C   UNL A   1      42.418  27.738  32.006  1.00  0.00     0.031 C 
ATOM     46  C   UNL A   1      38.540  29.959  29.678  1.00  0.00     0.029 A 
ATOM     47  N   UNL A   1      39.141  30.775  31.669  1.00  0.00    -0.354 N 
ATOM     48  C   UNL A   1      42.404  29.019  33.902  1.00  0.00     0.074 A 
ATOM     49  C   UNL A   1      42.982  27.897  33.196  1.00  0.00     0.031 C 
ATOM     50  C   UNL A   1      37.773  31.032  29.916  1.00  0.00     0.029 A 
ATOM     51  C   UNL A   1      38.118  31.581  31.224  1.00  0.00     0.049 A 
ATOM     52  H   UNL A   1      39.584  30.898  32.539  1.00  0.00     0.167 HD
ATOM     53  C   UNL A   1      42.841  29.478  35.100  1.00  0.00     0.037 A 
ATOM     54  C   UNL A   1      37.516  32.637  31.803  1.00  0.00     0.037 A 
ATOM     55  C   UNL A   1      42.267  30.605  35.790  1.00  0.00     0.049 A 
ATOM     56  C   UNL A   1      37.983  33.089  33.157  1.00  0.00     0.074 A 
ATOM     57  C   UNL A   1      42.652  31.156  36.999  1.00  0.00     0.029 A 
ATOM     58  N   UNL A   1      41.190  31.352  35.334  1.00  0.00    -0.354 N 
ATOM     59  N   UNL A   1      38.973  32.627  33.881  1.00  0.00    -0.248 NA
ATOM     60  C   UNL A   1      37.246  34.197  33.780  1.00  0.00     0.031 C 
ATOM     61  C   UNL A   1      41.775  32.203  37.300  1.00  0.00     0.029 A 
ATOM     62  C   UNL A   1      40.879  32.342  36.252  1.00  0.00     0.049 A 
ATOM     63  H   UNL A   1      40.716  31.201  34.485  1.00  0.00     0.167 HD
ATOM     64  C   UNL A   1      38.990  33.397  35.038  1.00  0.00     0.074 A 
ATOM     65  C   UNL A   1      37.922  34.367  34.909  1.00  0.00     0.031 C 
ATOM     66  C   UNL A   1      39.816  33.306  36.109  1.00  0.00     0.037 A 
BRANCH  53  67
ATOM     67  C   UNL A   1      43.998  28.766  35.749  1.00  0.00     0.058 A 
ATOM     68  C   UNL A   1      43.802  27.678  36.614  1.00  0.00     0.135 A 
ATOM     69  C   UNL A   1      45.322  29.133  35.452  1.00  0.00     0.135 A 
ATOM     70  F   UNL A   1      42.559  27.292  36.945  1.00  0.00    -0.206 F 
ATOM     71  C   UNL A   1      44.873  26.993  37.178  1.00  0.00     0.059 A 
ATOM     72  C   UNL A   1      46.410  28.443  35.982  1.00  0.00     0.059 A 
ATOM     73  F   UNL A   1      45.568  30.164  34.629  1.00  0.00    -0.206 F 
ATOM     74  C   UNL A   1      46.175  27.382  36.852  1.00  0.00     0.060 A 
BRANCH  74  75
ATOM     75  S   UNL A   1      47.550  26.471  37.587  1.00  0.00     0.124 S 
ATOM     76  O   UNL A   1      47.202  25.095  37.248  1.00  0.00    -0.237 OA
ATOM     77  O   UNL A   1      48.700  27.026  36.881  1.00  0.00    -0.237 OA
ATOM     78  O   UNL A   1      47.464  26.808  39.005  1.00  0.00    -0.744 OA
ENDBRANCH  74  75
ENDBRANCH  53  67
BRANCH  54  79
ATOM     79  C   UNL A   1      36.411  33.336  31.092  1.00  0.00     0.058 A 
ATOM     80  C   UNL A   1      35.091  33.259  31.557  1.00  0.00     0.135 A 
ATOM     81  C   UNL A   1      36.661  34.129  29.961  1.00  0.00     0.135 A 
ATOM     82  F   UNL A   1      34.800  32.509  32.631  1.00  0.00    -0.206 F 
ATOM     83  C   UNL A   1      34.055  33.940  30.926  1.00  0.00     0.059 A 
ATOM     84  C   UNL A   1      35.647  34.844  29.330  1.00  0.00     0.059 A 
ATOM     85  F   UNL A   1      37.909  34.248  29.484  1.00  0.00    -0.206 F 
ATOM     86  C   UNL A   1      34.346  34.737  29.817  1.00  0.00     0.060 A 
BRANCH  86  87
ATOM     87  S   UNL A   1      33.003  35.664  29.045  1.00  0.00     0.124 S 
ATOM     88  O   UNL A   1      32.228  36.081  30.208  1.00  0.00    -0.237 OA
ATOM     89  O   UNL A   1      33.728  36.722  28.348  1.00  0.00    -0.237 OA
ATOM     90  O   UNL A   1      32.363  34.677  28.182  1.00  0.00    -0.744 OA
ENDBRANCH  86  87
ENDBRANCH  54  79
BRANCH  66  91
ATOM     91  C   UNL A   1      39.617  34.285  37.232  1.00  0.00     0.058 A 
ATOM     92  C   UNL A   1      38.902  33.938  38.389  1.00  0.00     0.135 A 
ATOM     93  C   UNL A   1      40.231  35.548  37.193  1.00  0.00     0.135 A 
ATOM     94  F   UNL A   1      38.287  32.749  38.473  1.00  0.00    -0.206 F 
ATOM     95  C   UNL A   1      38.803  34.811  39.468  1.00  0.00     0.059 A 
ATOM     96  C   UNL A   1      40.169  36.423  38.272  1.00  0.00     0.059 A 
ATOM     97  F   UNL A   1      40.932  35.925  36.112  1.00  0.00    -0.206 F 
ATOM     98  C   UNL A   1      39.451  36.046  39.405  1.00  0.00     0.060 A 
BRANCH  98  99
ATOM     99  S   UNL A   1      39.370  37.134  40.843  1.00  0.00     0.124 S 
ATOM    100  O   UNL A   1      38.722  36.275  41.828  1.00  0.00    -0.237 OA
ATOM    101  O   UNL A   1      40.779  37.427  41.086  1.00  0.00    -0.237 OA
ATOM    102  O   UNL A   1      38.571  38.262  40.374  1.00  0.00    -0.744 OA
ENDBRANCH  98  99
ENDBRANCH  66  91
ENDBRANCH  40  41
ENDBRANCH  32  35
ENDBRANCH  30  31
ENDBRANCH  29  30
ENDBRANCH  28  29
ENDBRANCH   1  28
TORSDOF 20
ENDMDL
MODEL 3
REMARK VINA RESULT:     -11.7      2.908      8.776
REMARK SMILES CC(C)CSc1cc2c(cc1Cl)C=C(C(=O)NCCCCCCNC(=O)c1ccc(-c3c4nc(c(-c5c(F)cc(S(=O)(=O)[O-])cc5F)c5ccc([nH]5)c(-c5c(F)cc(S(=O)(=O)[O-])cc5F)c5nc(c(-c6c(F)cc(S(=O)(=O)[O-])cc6F)c6ccc3[nH]6)C=C5)C=C4)cc1)[C@H](C(F)(F)F)O2
REMARK SMILES IDX 20 1 19 2 18 3 17 4 15 5 16 6 14 8 6 9 7 10 11 11 8 12 10 13
REMARK SMILES IDX 12 14 9 15 98 16 13 17 93 18 5 19 4 20 2 21 1 22 3 23 94 24
REMARK SMILES IDX 95 25 96 26 97 27 21 28 22 29 23 30 24 31 25 32 26 34 27 35
REMARK SMILES IDX 28 36 92 37 29 38 91 39 30 40 31 41 32 42 85 43 33 44 90 45
REMARK SMILES IDX 84 46 86 47 34 48 89 49 83 50 82 51 35 53 69 54 48 55 68 56
REMARK SMILES IDX 49 57 52 58 67 59 87 60 50 61 51 62 66 64 88 65 53 66 36 67
REMARK SMILES IDX 37 68 46 69 38 70 39 71 45 72 47 73 40 74 41 75 42 76 43 77
REMARK SMILES IDX 44 78 70 79 71 80 80 81 72 82 73 83 79 84 81 85 74 86 75 87
REMARK SMILES IDX 76 88 77 89 78 90 54 91 55 92 64 93 56 94 57 95 63 96 65 97
REMARK SMILES IDX 58 98 59 99 60 100 61 101 62 102
REMARK H PARENT 17 7 24 33 86 52 52 63
REMARK Flexibility Score: inf
ROOT
ATOM      1  C   UNL A   1      35.816  21.033  25.349  1.00  0.00     0.002 C 
ENDROOT
BRANCH   1   2
ATOM      2  C   UNL A   1      35.460  22.242  26.217  1.00  0.00     0.021 C 
BRANCH   2   3
ATOM      3  C   UNL A   1      34.272  22.001  27.145  1.00  0.00     0.116 C 
BRANCH   3   4
ATOM      4  N   UNL A   1      33.209  21.281  26.467  1.00  0.00    -0.352 N 
ATOM      5  C   UNL A   1      32.179  21.573  25.641  1.00  0.00     0.251 C 
ATOM      6  O   UNL A   1      31.487  20.606  25.303  1.00  0.00    -0.270 OA
ATOM      7  H   UNL A   1      33.251  20.317  26.660  1.00  0.00     0.163 HD
BRANCH   5   8
ATOM      8  C   UNL A   1      31.844  22.933  25.122  1.00  0.00     0.067 C 
ATOM      9  C   UNL A   1      30.924  27.886  24.746  1.00  0.00     0.030 A 
ATOM     10  C   UNL A   1      30.684  26.776  23.929  1.00  0.00     0.063 A 
ATOM     11  C   UNL A   1      31.445  27.665  26.035  1.00  0.00     0.055 A 
ATOM     12  C   UNL A   1      31.045  25.497  24.345  1.00  0.00     0.129 A 
ATOM     13  C   UNL A   1      31.768  26.369  26.463  1.00  0.00     0.033 A 
ATOM     14  Cl  UNL A   1      31.741  28.953  27.154  1.00  0.00    -0.083 Cl
ATOM     15  C   UNL A   1      31.583  25.282  25.610  1.00  0.00     0.019 A 
ATOM     16  O   UNL A   1      30.813  24.494  23.454  1.00  0.00    -0.475 OA
ATOM     17  C   UNL A   1      31.895  23.925  26.030  1.00  0.00     0.025 C 
ATOM     18  C   UNL A   1      31.497  23.234  23.689  1.00  0.00     0.314 C 
BRANCH   9  19
ATOM     19  S   UNL A   1      30.575  29.528  24.123  1.00  0.00    -0.124 SA
BRANCH  19  20
ATOM     20  C   UNL A   1      29.775  29.187  22.505  1.00  0.00     0.078 C 
BRANCH  20  21
ATOM     21  C   UNL A   1      28.269  29.506  22.432  1.00  0.00    -0.007 C 
ATOM     22  C   UNL A   1      27.385  28.495  23.166  1.00  0.00     0.008 C 
ATOM     23  C   UNL A   1      28.025  30.895  23.034  1.00  0.00     0.008 C 
ENDBRANCH  20  21
ENDBRANCH  19  20
ENDBRANCH   9  19
BRANCH  18  24
ATOM     24  C   UNL A   1      32.704  23.113  22.738  1.00  0.00     0.429 C 
ATOM     25  F   UNL A   1      32.738  21.923  22.093  1.00  0.00    -0.167 F 
ATOM     26  F   UNL A   1      32.718  24.072  21.783  1.00  0.00    -0.167 F 
ATOM     27  F   UNL A   1      33.867  23.233  23.426  1.00  0.00    -0.167 F 
ENDBRANCH  18  24
ENDBRANCH   5   8
ENDBRANCH   3   4
ENDBRANCH   2   3
ENDBRANCH   1   2
BRANCH   1  28
ATOM     28  C   UNL A   1      37.155  21.139  24.609  1.00  0.00     0.002 C 
BRANCH  28  29
ATOM     29  C   UNL A   1      38.178  20.055  24.957  1.00  0.00     0.021 C 
BRANCH  29  30
ATOM     30  C   UNL A   1      39.365  20.550  25.774  1.00  0.00     0.116 C 
BRANCH  30  31
ATOM     31  N   UNL A   1      40.307  19.481  26.066  1.00  0.00    -0.352 N 
ATOM     32  C   UNL A   1      41.666  19.539  26.268  1.00  0.00     0.251 C 
ATOM     33  H   UNL A   1      39.913  18.581  26.129  1.00  0.00     0.163 HD
ATOM     34  O   UNL A   1      42.327  18.508  26.285  1.00  0.00    -0.269 OA
BRANCH  32  35
ATOM     35  C   UNL A   1      42.325  20.852  26.445  1.00  0.00     0.039 A 
ATOM     36  C   UNL A   1      42.555  21.362  27.723  1.00  0.00     0.014 A 
ATOM     37  C   UNL A   1      42.714  21.583  25.319  1.00  0.00     0.014 A 
ATOM     38  C   UNL A   1      43.006  22.667  27.872  1.00  0.00     0.010 A 
ATOM     39  C   UNL A   1      43.268  22.857  25.476  1.00  0.00     0.010 A 
ATOM     40  C   UNL A   1      43.376  23.430  26.752  1.00  0.00    -0.014 A 
BRANCH  40  41
ATOM     41  C   UNL A   1      43.880  24.815  26.955  1.00  0.00     0.031 A 
ATOM     42  C   UNL A   1      42.973  25.900  27.473  1.00  0.00     0.074 A 
ATOM     43  C   UNL A   1      45.185  25.073  26.734  1.00  0.00     0.049 A 
ATOM     44  N   UNL A   1      43.263  27.144  27.759  1.00  0.00    -0.248 NA
ATOM     45  C   UNL A   1      41.561  25.551  27.693  1.00  0.00     0.031 C 
ATOM     46  C   UNL A   1      46.161  24.099  26.235  1.00  0.00     0.029 A 
ATOM     47  N   UNL A   1      45.926  26.210  26.930  1.00  0.00    -0.354 N 
ATOM     48  C   UNL A   1      42.074  27.726  28.185  1.00  0.00     0.074 A 
ATOM     49  C   UNL A   1      41.047  26.712  28.076  1.00  0.00     0.031 C 
ATOM     50  C   UNL A   1      47.379  24.658  26.228  1.00  0.00     0.029 A 
ATOM     51  C   UNL A   1      47.265  26.050  26.652  1.00  0.00     0.049 A 
ATOM     52  H   UNL A   1      45.538  27.060  27.238  1.00  0.00     0.167 HD
ATOM     53  C   UNL A   1      41.863  28.984  28.644  1.00  0.00     0.037 A 
ATOM     54  C   UNL A   1      48.287  26.924  26.720  1.00  0.00     0.037 A 
ATOM     55  C   UNL A   1      42.894  29.982  28.762  1.00  0.00     0.049 A 
ATOM     56  C   UNL A   1      48.014  28.328  27.178  1.00  0.00     0.074 A 
ATOM     57  C   UNL A   1      42.782  31.279  29.232  1.00  0.00     0.029 A 
ATOM     58  N   UNL A   1      44.223  29.798  28.409  1.00  0.00    -0.354 N 
ATOM     59  N   UNL A   1      46.887  28.852  27.595  1.00  0.00    -0.248 NA
ATOM     60  C   UNL A   1      49.146  29.265  27.165  1.00  0.00     0.031 C 
ATOM     61  C   UNL A   1      44.032  31.895  29.114  1.00  0.00     0.029 A 
ATOM     62  C   UNL A   1      44.936  30.966  28.625  1.00  0.00     0.049 A 
ATOM     63  H   UNL A   1      44.605  28.962  28.057  1.00  0.00     0.167 HD
ATOM     64  C   UNL A   1      47.176  30.175  27.910  1.00  0.00     0.074 A 
ATOM     65  C   UNL A   1      48.589  30.366  27.651  1.00  0.00     0.031 C 
ATOM     66  C   UNL A   1      46.344  31.142  28.369  1.00  0.00     0.037 A 
BRANCH  53  67
ATOM     67  C   UNL A   1      40.464  29.359  29.056  1.00  0.00     0.058 A 
ATOM     68  C   UNL A   1      40.107  29.503  30.405  1.00  0.00     0.135 A 
ATOM     69  C   UNL A   1      39.485  29.642  28.088  1.00  0.00     0.135 A 
ATOM     70  F   UNL A   1      40.998  29.232  31.373  1.00  0.00    -0.206 F 
ATOM     71  C   UNL A   1      38.827  29.893  30.783  1.00  0.00     0.059 A 
ATOM     72  C   UNL A   1      38.205  30.061  28.442  1.00  0.00     0.059 A 
ATOM     73  F   UNL A   1      39.771  29.522  26.782  1.00  0.00    -0.206 F 
ATOM     74  C   UNL A   1      37.882  30.173  29.793  1.00  0.00     0.060 A 
BRANCH  74  75
ATOM     75  S   UNL A   1      36.230  30.688  30.306  1.00  0.00     0.124 S 
ATOM     76  O   UNL A   1      35.435  30.322  29.137  1.00  0.00    -0.237 OA
ATOM     77  O   UNL A   1      36.010  29.877  31.499  1.00  0.00    -0.237 OA
ATOM     78  O   UNL A   1      36.375  32.121  30.540  1.00  0.00    -0.744 OA
ENDBRANCH  74  75
ENDBRANCH  53  67
BRANCH  54  79
ATOM     79  C   UNL A   1      49.659  26.483  26.351  1.00  0.00     0.058 A 
ATOM     80  C   UNL A   1      50.457  25.773  27.258  1.00  0.00     0.135 A 
ATOM     81  C   UNL A   1      50.182  26.725  25.070  1.00  0.00     0.135 A 
ATOM     82  F   UNL A   1      50.006  25.523  28.497  1.00  0.00    -0.206 F 
ATOM     83  C   UNL A   1      51.727  25.320  26.913  1.00  0.00     0.059 A 
ATOM     84  C   UNL A   1      51.435  26.256  24.690  1.00  0.00     0.059 A 
ATOM     85  F   UNL A   1      49.451  27.387  24.160  1.00  0.00    -0.206 F 
ATOM     86  C   UNL A   1      52.203  25.560  25.622  1.00  0.00     0.060 A 
BRANCH  86  87
ATOM     87  S   UNL A   1      53.826  24.913  25.167  1.00  0.00     0.124 S 
ATOM     88  O   UNL A   1      53.564  23.479  25.107  1.00  0.00    -0.237 OA
ATOM     89  O   UNL A   1      54.066  25.573  23.888  1.00  0.00    -0.237 OA
ATOM     90  O   UNL A   1      54.684  25.352  26.263  1.00  0.00    -0.744 OA
ENDBRANCH  86  87
ENDBRANCH  54  79
BRANCH  66  91
ATOM     91  C   UNL A   1      46.931  32.500  28.640  1.00  0.00     0.058 A 
ATOM     92  C   UNL A   1      47.520  32.810  29.875  1.00  0.00     0.135 A 
ATOM     93  C   UNL A   1      46.995  33.464  27.620  1.00  0.00     0.135 A 
ATOM     94  F   UNL A   1      47.478  31.928  30.885  1.00  0.00    -0.206 F 
ATOM     95  C   UNL A   1      48.151  34.032  30.090  1.00  0.00     0.059 A 
ATOM     96  C   UNL A   1      47.645  34.679  27.805  1.00  0.00     0.059 A 
ATOM     97  F   UNL A   1      46.453  33.213  26.418  1.00  0.00    -0.206 F 
ATOM     98  C   UNL A   1      48.219  34.954  29.045  1.00  0.00     0.060 A 
BRANCH  98  99
ATOM     99  S   UNL A   1      49.104  36.503  29.322  1.00  0.00     0.124 S 
ATOM    100  O   UNL A   1      50.494  36.066  29.255  1.00  0.00    -0.237 OA
ATOM    101  O   UNL A   1      48.642  37.325  28.208  1.00  0.00    -0.237 OA
ATOM    102  O   UNL A   1      48.644  36.928  30.641  1.00  0.00    -0.744 OA
ENDBRANCH  98  99
ENDBRANCH  66  91
ENDBRANCH  40  41
ENDBRANCH  32  35
ENDBRANCH  30  31
ENDBRANCH  29  30
ENDBRANCH  28  29
ENDBRANCH   1  28
TORSDOF 20
ENDMDL
