MODEL 1
REMARK VINA RESULT:     -12.2      0.000      0.000
REMARK SMILES Cc1cc(C(=O)NCCCCCCNC(=O)c2ccc(-c3c4nc(c(-c5c(F)cc(S(=O)(=O)[O-])cc5F)c5ccc([nH]5)c(-c5c(F)cc(S(=O)(=O)[O-])cc5F)c5nc(c(-c6c(F)cc(S(=O)(=O)[O-])cc6F)c6ccc3[nH]6)C=C5)C=C4)cc2)ccc1NC(=O)c1ccc(=O)n(CCOc2ccccc2)n1
REMARK SMILES IDX 9 1 8 2 7 3 5 4 6 5 4 7 1 8 2 9 3 10 85 11 84 12 83 13 86 14
REMARK SMILES IDX 87 15 88 17 89 18 90 19 104 20 91 21 94 22 92 23 93 24 95 25
REMARK SMILES IDX 96 26 97 27 98 28 99 29 103 30 100 31 102 32 101 33 10 34
REMARK SMILES IDX 11 35 12 36 13 37 14 38 15 39 16 41 17 42 18 43 82 44 19 45
REMARK SMILES IDX 81 46 20 47 21 48 22 49 75 50 23 51 80 52 74 53 76 54 24 55
REMARK SMILES IDX 79 56 73 57 72 58 25 60 59 61 38 62 58 63 39 64 42 65 57 66
REMARK SMILES IDX 77 67 40 68 41 69 56 71 78 72 43 73 26 74 27 75 36 76 28 77
REMARK SMILES IDX 29 78 35 79 37 80 30 81 31 82 32 83 33 84 34 85 60 86 61 87
REMARK SMILES IDX 70 88 62 89 63 90 69 91 71 92 64 93 65 94 66 95 67 96 68 97
REMARK SMILES IDX 44 98 45 99 54 100 46 101 47 102 53 103 55 104 48 105 49 106
REMARK SMILES IDX 50 107 51 108 52 109
REMARK H PARENT 7 6 86 16 14 40 76 59 42 70
REMARK Flexibility Score: inf
ROOT
ATOM      1  C   UNL A   1      35.689  30.000  27.887  1.00  0.00     0.021 C 
ENDROOT
BRANCH   1   2
ATOM      2  C   UNL A   1      34.332  29.350  27.601  1.00  0.00     0.116 C 
BRANCH   2   3
ATOM      3  N   UNL A   1      33.273  30.335  27.401  1.00  0.00    -0.352 N 
ATOM      4  C   UNL A   1      32.239  30.387  26.493  1.00  0.00     0.251 C 
ATOM      5  O   UNL A   1      31.334  31.204  26.656  1.00  0.00    -0.269 OA
ATOM      6  H   UNL A   1      33.303  31.096  28.025  1.00  0.00     0.163 HD
BRANCH   4   7
ATOM      7  C   UNL A   1      32.161  29.456  25.340  1.00  0.00     0.040 A 
ATOM      8  C   UNL A   1      34.418  28.431  22.456  1.00  0.00     0.046 C 
ATOM      9  C   UNL A   1      33.161  28.572  23.272  1.00  0.00    -0.027 A 
ATOM     10  C   UNL A   1      33.231  29.375  24.436  1.00  0.00     0.019 A 
ATOM     11  C   UNL A   1      31.961  27.899  22.991  1.00  0.00     0.044 A 
ATOM     12  C   UNL A   1      31.023  27.805  24.019  1.00  0.00     0.027 A 
ATOM     13  C   UNL A   1      31.107  28.574  25.178  1.00  0.00     0.016 A 
BRANCH  11  14
ATOM     14  N   UNL A   1      31.721  27.354  21.706  1.00  0.00    -0.320 N 
ATOM     15  C   UNL A   1      31.863  26.049  21.252  1.00  0.00     0.276 C 
ATOM     16  H   UNL A   1      31.406  27.998  21.031  1.00  0.00     0.170 HD
ATOM     17  O   UNL A   1      31.596  25.732  20.098  1.00  0.00    -0.267 OA
BRANCH  15  18
ATOM     18  C   UNL A   1      32.330  24.972  22.212  1.00  0.00     0.149 A 
ATOM     19  C   UNL A   1      31.269  24.372  23.045  1.00  0.00     0.042 A 
ATOM     20  N   UNL A   1      33.579  24.605  22.216  1.00  0.00    -0.164 NA
ATOM     21  C   UNL A   1      31.516  23.126  23.456  1.00  0.00     0.076 A 
ATOM     22  N   UNL A   1      33.843  23.408  22.877  1.00  0.00    -0.226 N 
ATOM     23  C   UNL A   1      32.828  22.502  23.163  1.00  0.00     0.266 A 
ATOM     24  O   UNL A   1      32.956  21.285  23.244  1.00  0.00    -0.268 OA
BRANCH  22  25
ATOM     25  C   UNL A   1      35.244  23.027  23.061  1.00  0.00     0.190 C 
BRANCH  25  26
ATOM     26  C   UNL A   1      35.562  22.701  24.534  1.00  0.00     0.253 C 
BRANCH  26  27
ATOM     27  O   UNL A   1      36.725  21.859  24.652  1.00  0.00    -0.492 OA
BRANCH  27  28
ATOM     28  C   UNL A   1      37.682  22.405  25.459  1.00  0.00     0.119 A 
ATOM     29  C   UNL A   1      38.789  21.672  25.879  1.00  0.00     0.046 A 
ATOM     30  C   UNL A   1      37.491  23.700  25.929  1.00  0.00     0.046 A 
ATOM     31  C   UNL A   1      39.753  22.284  26.686  1.00  0.00     0.004 A 
ATOM     32  C   UNL A   1      38.477  24.332  26.681  1.00  0.00     0.004 A 
ATOM     33  C   UNL A   1      39.616  23.625  27.054  1.00  0.00     0.000 A 
ENDBRANCH  27  28
ENDBRANCH  26  27
ENDBRANCH  25  26
ENDBRANCH  22  25
ENDBRANCH  15  18
ENDBRANCH  11  14
ENDBRANCH   4   7
ENDBRANCH   2   3
ENDBRANCH   1   2
BRANCH   1  34
ATOM     34  C   UNL A   1      35.643  31.288  28.722  1.00  0.00     0.002 C 
BRANCH  34  35
ATOM     35  C   UNL A   1      36.088  32.584  28.024  1.00  0.00     0.002 C 
BRANCH  35  36
ATOM     36  C   UNL A   1      36.148  33.838  28.899  1.00  0.00     0.021 C 
BRANCH  36  37
ATOM     37  C   UNL A   1      37.310  33.847  29.889  1.00  0.00     0.116 C 
BRANCH  37  38
ATOM     38  N   UNL A   1      36.900  33.527  31.249  1.00  0.00    -0.352 N 
ATOM     39  C   UNL A   1      36.945  32.294  31.878  1.00  0.00     0.251 C 
ATOM     40  H   UNL A   1      36.548  34.273  31.784  1.00  0.00     0.163 HD
ATOM     41  O   UNL A   1      36.330  32.058  32.903  1.00  0.00    -0.269 OA
BRANCH  39  42
ATOM     42  C   UNL A   1      37.901  31.309  31.332  1.00  0.00     0.039 A 
ATOM     43  C   UNL A   1      37.924  30.044  31.933  1.00  0.00     0.014 A 
ATOM     44  C   UNL A   1      38.901  31.705  30.450  1.00  0.00     0.014 A 
ATOM     45  C   UNL A   1      39.042  29.230  31.775  1.00  0.00     0.010 A 
ATOM     46  C   UNL A   1      40.041  30.928  30.354  1.00  0.00     0.010 A 
ATOM     47  C   UNL A   1      40.133  29.712  31.050  1.00  0.00    -0.014 A 
BRANCH  47  48
ATOM     48  C   UNL A   1      41.440  29.061  31.028  1.00  0.00     0.031 A 
ATOM     49  C   UNL A   1      41.651  27.822  30.241  1.00  0.00     0.074 A 
ATOM     50  C   UNL A   1      42.489  29.644  31.648  1.00  0.00     0.049 A 
ATOM     51  N   UNL A   1      42.672  27.041  30.360  1.00  0.00    -0.248 NA
ATOM     52  C   UNL A   1      40.679  27.347  29.263  1.00  0.00     0.031 C 
ATOM     53  C   UNL A   1      43.906  29.345  31.460  1.00  0.00     0.029 A 
ATOM     54  N   UNL A   1      42.457  30.493  32.757  1.00  0.00    -0.354 N 
ATOM     55  C   UNL A   1      42.621  26.111  29.348  1.00  0.00     0.074 A 
ATOM     56  C   UNL A   1      41.345  26.331  28.705  1.00  0.00     0.031 C 
ATOM     57  C   UNL A   1      44.584  29.765  32.538  1.00  0.00     0.029 A 
ATOM     58  C   UNL A   1      43.610  30.207  33.519  1.00  0.00     0.049 A 
ATOM     59  H   UNL A   1      41.765  31.162  32.965  1.00  0.00     0.167 HD
ATOM     60  C   UNL A   1      43.703  25.317  29.100  1.00  0.00     0.037 A 
ATOM     61  C   UNL A   1      43.491  29.702  34.785  1.00  0.00     0.037 A 
ATOM     62  C   UNL A   1      44.751  25.504  30.099  1.00  0.00     0.049 A 
ATOM     63  C   UNL A   1      44.037  28.299  34.961  1.00  0.00     0.074 A 
ATOM     64  C   UNL A   1      45.901  26.274  30.164  1.00  0.00     0.029 A 
ATOM     65  N   UNL A   1      44.526  25.044  31.383  1.00  0.00    -0.354 N 
ATOM     66  N   UNL A   1      44.567  27.584  34.007  1.00  0.00    -0.248 NA
ATOM     67  C   UNL A   1      43.956  27.561  36.225  1.00  0.00     0.031 C 
ATOM     68  C   UNL A   1      46.327  26.320  31.523  1.00  0.00     0.029 A 
ATOM     69  C   UNL A   1      45.439  25.572  32.275  1.00  0.00     0.049 A 
ATOM     70  H   UNL A   1      43.806  24.418  31.629  1.00  0.00     0.167 HD
ATOM     71  C   UNL A   1      44.821  26.323  34.476  1.00  0.00     0.074 A 
ATOM     72  C   UNL A   1      44.450  26.361  35.877  1.00  0.00     0.031 C 
ATOM     73  C   UNL A   1      45.269  25.306  33.689  1.00  0.00     0.037 A 
BRANCH  60  74
ATOM     74  C   UNL A   1      43.887  24.531  27.822  1.00  0.00     0.058 A 
ATOM     75  C   UNL A   1      43.314  23.250  27.679  1.00  0.00     0.135 A 
ATOM     76  C   UNL A   1      44.664  24.958  26.727  1.00  0.00     0.135 A 
ATOM     77  F   UNL A   1      42.483  22.747  28.602  1.00  0.00    -0.206 F 
ATOM     78  C   UNL A   1      43.586  22.414  26.594  1.00  0.00     0.059 A 
ATOM     79  C   UNL A   1      45.003  24.117  25.661  1.00  0.00     0.059 A 
ATOM     80  F   UNL A   1      45.094  26.224  26.634  1.00  0.00    -0.206 F 
ATOM     81  C   UNL A   1      44.467  22.839  25.610  1.00  0.00     0.060 A 
BRANCH  81  82
ATOM     82  S   UNL A   1      44.911  21.693  24.290  1.00  0.00     0.124 S 
ATOM     83  O   UNL A   1      44.111  20.518  24.618  1.00  0.00    -0.237 OA
ATOM     84  O   UNL A   1      44.500  22.430  23.100  1.00  0.00    -0.237 OA
ATOM     85  O   UNL A   1      46.352  21.524  24.458  1.00  0.00    -0.744 OA
ENDBRANCH  81  82
ENDBRANCH  60  74
BRANCH  61  86
ATOM     86  C   UNL A   1      42.332  30.280  35.520  1.00  0.00     0.058 A 
ATOM     87  C   UNL A   1      42.473  31.581  36.043  1.00  0.00     0.135 A 
ATOM     88  C   UNL A   1      41.032  29.789  35.341  1.00  0.00     0.135 A 
ATOM     89  F   UNL A   1      43.698  32.092  36.250  1.00  0.00    -0.206 F 
ATOM     90  C   UNL A   1      41.380  32.421  36.213  1.00  0.00     0.059 A 
ATOM     91  C   UNL A   1      39.919  30.610  35.523  1.00  0.00     0.059 A 
ATOM     92  F   UNL A   1      40.836  28.554  34.855  1.00  0.00    -0.206 F 
ATOM     93  C   UNL A   1      40.113  31.944  35.886  1.00  0.00     0.060 A 
BRANCH  93  94
ATOM     94  S   UNL A   1      38.762  33.142  35.779  1.00  0.00     0.124 S 
ATOM     95  O   UNL A   1      37.595  32.306  36.040  1.00  0.00    -0.237 OA
ATOM     96  O   UNL A   1      39.113  34.083  36.841  1.00  0.00    -0.237 OA
ATOM     97  O   UNL A   1      38.880  33.655  34.420  1.00  0.00    -0.744 OA
ENDBRANCH  93  94
ENDBRANCH  61  86
BRANCH  73  98
ATOM     98  C   UNL A   1      45.579  23.954  34.240  1.00  0.00     0.058 A 
ATOM     99  C   UNL A   1      44.563  23.012  34.466  1.00  0.00     0.135 A 
ATOM    100  C   UNL A   1      46.874  23.616  34.673  1.00  0.00     0.135 A 
ATOM    101  F   UNL A   1      43.298  23.275  34.102  1.00  0.00    -0.206 F 
ATOM    102  C   UNL A   1      44.821  21.787  35.077  1.00  0.00     0.059 A 
ATOM    103  C   UNL A   1      47.149  22.412  35.315  1.00  0.00     0.059 A 
ATOM    104  F   UNL A   1      47.908  24.447  34.463  1.00  0.00    -0.206 F 
ATOM    105  C   UNL A   1      46.118  21.497  35.499  1.00  0.00     0.060 A 
BRANCH 105 106
ATOM    106  S   UNL A   1      46.454  19.931  36.330  1.00  0.00     0.124 S 
ATOM    107  O   UNL A   1      45.703  20.055  37.577  1.00  0.00    -0.237 OA
ATOM    108  O   UNL A   1      45.920  18.972  35.367  1.00  0.00    -0.237 OA
ATOM    109  O   UNL A   1      47.906  19.937  36.478  1.00  0.00    -0.744 OA
ENDBRANCH 105 106
ENDBRANCH  73  98
ENDBRANCH  47  48
ENDBRANCH  39  42
ENDBRANCH  37  38
ENDBRANCH  36  37
ENDBRANCH  35  36
ENDBRANCH  34  35
ENDBRANCH   1  34
TORSDOF 22
ENDMDL
MODEL 2
REMARK VINA RESULT:     -12.0      2.193      4.027
REMARK SMILES Cc1cc(C(=O)NCCCCCCNC(=O)c2ccc(-c3c4nc(c(-c5c(F)cc(S(=O)(=O)[O-])cc5F)c5ccc([nH]5)c(-c5c(F)cc(S(=O)(=O)[O-])cc5F)c5nc(c(-c6c(F)cc(S(=O)(=O)[O-])cc6F)c6ccc3[nH]6)C=C5)C=C4)cc2)ccc1NC(=O)c1ccc(=O)n(CCOc2ccccc2)n1
REMARK SMILES IDX 9 1 8 2 7 3 5 4 6 5 4 7 1 8 2 9 3 10 85 11 84 12 83 13 86 14
REMARK SMILES IDX 87 15 88 17 89 18 90 19 104 20 91 21 94 22 92 23 93 24 95 25
REMARK SMILES IDX 96 26 97 27 98 28 99 29 103 30 100 31 102 32 101 33 10 34
REMARK SMILES IDX 11 35 12 36 13 37 14 38 15 39 16 41 17 42 18 43 82 44 19 45
REMARK SMILES IDX 81 46 20 47 21 48 22 49 75 50 23 51 80 52 74 53 76 54 24 55
REMARK SMILES IDX 79 56 73 57 72 58 25 60 59 61 38 62 58 63 39 64 42 65 57 66
REMARK SMILES IDX 77 67 40 68 41 69 56 71 78 72 43 73 26 74 27 75 36 76 28 77
REMARK SMILES IDX 29 78 35 79 37 80 30 81 31 82 32 83 33 84 34 85 60 86 61 87
REMARK SMILES IDX 70 88 62 89 63 90 69 91 71 92 64 93 65 94 66 95 67 96 68 97
REMARK SMILES IDX 44 98 45 99 54 100 46 101 47 102 53 103 55 104 48 105 49 106
REMARK SMILES IDX 50 107 51 108 52 109
REMARK H PARENT 7 6 86 16 14 40 76 59 42 70
REMARK Flexibility Score: inf
ROOT
ATOM      1  C   UNL A   1      31.710  28.773  24.576  1.00  0.00     0.021 C 
ENDROOT
BRANCH   1   2
ATOM      2  C   UNL A   1      31.891  27.275  24.837  1.00  0.00     0.116 C 
BRANCH   2   3
ATOM      3  N   UNL A   1      30.709  26.667  25.441  1.00  0.00    -0.352 N 
ATOM      4  C   UNL A   1      30.479  25.392  25.907  1.00  0.00     0.251 C 
ATOM      5  O   UNL A   1      29.475  25.167  26.580  1.00  0.00    -0.269 OA
ATOM      6  H   UNL A   1      29.941  27.276  25.532  1.00  0.00     0.163 HD
BRANCH   4   7
ATOM      7  C   UNL A   1      31.431  24.281  25.653  1.00  0.00     0.040 A 
ATOM      8  C   UNL A   1      32.462  22.148  22.678  1.00  0.00     0.046 C 
ATOM      9  C   UNL A   1      32.331  22.586  24.112  1.00  0.00    -0.027 A 
ATOM     10  C   UNL A   1      31.507  23.707  24.375  1.00  0.00     0.019 A 
ATOM     11  C   UNL A   1      33.031  22.001  25.179  1.00  0.00     0.044 A 
ATOM     12  C   UNL A   1      33.125  22.734  26.362  1.00  0.00     0.027 A 
ATOM     13  C   UNL A   1      32.335  23.856  26.610  1.00  0.00     0.016 A 
BRANCH  11  14
ATOM     14  N   UNL A   1      33.601  20.712  25.051  1.00  0.00    -0.320 N 
ATOM     15  C   UNL A   1      34.931  20.338  24.900  1.00  0.00     0.276 C 
ATOM     16  H   UNL A   1      32.959  19.966  25.071  1.00  0.00     0.170 HD
ATOM     17  O   UNL A   1      35.268  19.162  24.815  1.00  0.00    -0.267 OA
BRANCH  15  18
ATOM     18  C   UNL A   1      36.007  21.406  24.869  1.00  0.00     0.149 A 
ATOM     19  C   UNL A   1      35.594  22.695  24.282  1.00  0.00     0.042 A 
ATOM     20  N   UNL A   1      37.175  21.164  25.391  1.00  0.00    -0.164 NA
ATOM     21  C   UNL A   1      36.274  23.756  24.721  1.00  0.00     0.076 A 
ATOM     22  N   UNL A   1      37.971  22.286  25.611  1.00  0.00    -0.226 N 
ATOM     23  C   UNL A   1      37.425  23.564  25.636  1.00  0.00     0.266 A 
ATOM     24  O   UNL A   1      37.849  24.511  26.289  1.00  0.00    -0.268 OA
BRANCH  22  25
ATOM     25  C   UNL A   1      39.354  22.067  26.036  1.00  0.00     0.190 C 
BRANCH  25  26
ATOM     26  C   UNL A   1      39.662  20.572  26.245  1.00  0.00     0.253 C 
BRANCH  26  27
ATOM     27  O   UNL A   1      40.591  20.368  27.328  1.00  0.00    -0.492 OA
BRANCH  27  28
ATOM     28  C   UNL A   1      41.696  19.666  26.938  1.00  0.00     0.119 A 
ATOM     29  C   UNL A   1      42.206  18.622  27.704  1.00  0.00     0.046 A 
ATOM     30  C   UNL A   1      42.364  20.069  25.787  1.00  0.00     0.046 A 
ATOM     31  C   UNL A   1      43.326  17.919  27.250  1.00  0.00     0.004 A 
ATOM     32  C   UNL A   1      43.442  19.335  25.300  1.00  0.00     0.004 A 
ATOM     33  C   UNL A   1      43.920  18.251  26.030  1.00  0.00     0.000 A 
ENDBRANCH  27  28
ENDBRANCH  26  27
ENDBRANCH  25  26
ENDBRANCH  22  25
ENDBRANCH  15  18
ENDBRANCH  11  14
ENDBRANCH   4   7
ENDBRANCH   2   3
ENDBRANCH   1   2
BRANCH   1  34
ATOM     34  C   UNL A   1      31.682  29.664  25.827  1.00  0.00     0.002 C 
BRANCH  34  35
ATOM     35  C   UNL A   1      31.919  28.970  27.179  1.00  0.00     0.002 C 
BRANCH  35  36
ATOM     36  C   UNL A   1      33.377  28.840  27.626  1.00  0.00     0.021 C 
BRANCH  36  37
ATOM     37  C   UNL A   1      34.290  29.938  27.088  1.00  0.00     0.116 C 
BRANCH  37  38
ATOM     38  N   UNL A   1      34.437  31.056  28.009  1.00  0.00    -0.352 N 
ATOM     39  C   UNL A   1      35.267  31.139  29.114  1.00  0.00     0.251 C 
ATOM     40  H   UNL A   1      33.880  31.846  27.826  1.00  0.00     0.163 HD
ATOM     41  O   UNL A   1      35.124  31.984  29.980  1.00  0.00    -0.269 OA
BRANCH  39  42
ATOM     42  C   UNL A   1      36.441  30.244  29.126  1.00  0.00     0.039 A 
ATOM     43  C   UNL A   1      36.633  29.462  30.272  1.00  0.00     0.014 A 
ATOM     44  C   UNL A   1      37.439  30.370  28.165  1.00  0.00     0.014 A 
ATOM     45  C   UNL A   1      37.894  28.932  30.537  1.00  0.00     0.010 A 
ATOM     46  C   UNL A   1      38.707  29.907  28.466  1.00  0.00     0.010 A 
ATOM     47  C   UNL A   1      38.948  29.227  29.671  1.00  0.00    -0.014 A 
BRANCH  47  48
ATOM     48  C   UNL A   1      40.348  28.942  29.974  1.00  0.00     0.031 A 
ATOM     49  C   UNL A   1      40.986  27.697  29.483  1.00  0.00     0.074 A 
ATOM     50  C   UNL A   1      41.093  29.864  30.622  1.00  0.00     0.049 A 
ATOM     51  N   UNL A   1      42.116  27.235  29.905  1.00  0.00    -0.248 NA
ATOM     52  C   UNL A   1      40.359  26.845  28.479  1.00  0.00     0.031 C 
ATOM     53  C   UNL A   1      42.549  29.918  30.713  1.00  0.00     0.029 A 
ATOM     54  N   UNL A   1      40.651  30.831  31.528  1.00  0.00    -0.354 N 
ATOM     55  C   UNL A   1      42.477  26.183  29.096  1.00  0.00     0.074 A 
ATOM     56  C   UNL A   1      41.336  25.966  28.235  1.00  0.00     0.031 C 
ATOM     57  C   UNL A   1      42.889  30.655  31.781  1.00  0.00     0.029 A 
ATOM     58  C   UNL A   1      41.667  30.971  32.498  1.00  0.00     0.049 A 
ATOM     59  H   UNL A   1      39.798  31.321  31.496  1.00  0.00     0.167 HD
ATOM     60  C   UNL A   1      43.740  25.670  29.173  1.00  0.00     0.037 A 
ATOM     61  C   UNL A   1      41.422  30.648  33.804  1.00  0.00     0.037 A 
ATOM     62  C   UNL A   1      44.501  26.270  30.265  1.00  0.00     0.049 A 
ATOM     63  C   UNL A   1      42.230  29.477  34.329  1.00  0.00     0.074 A 
ATOM     64  C   UNL A   1      45.409  27.313  30.355  1.00  0.00     0.029 A 
ATOM     65  N   UNL A   1      44.141  25.964  31.564  1.00  0.00    -0.354 N 
ATOM     66  N   UNL A   1      43.086  28.790  33.623  1.00  0.00    -0.248 NA
ATOM     67  C   UNL A   1      42.075  28.941  35.684  1.00  0.00     0.031 C 
ATOM     68  C   UNL A   1      45.539  27.670  31.728  1.00  0.00     0.029 A 
ATOM     69  C   UNL A   1      44.716  26.839  32.466  1.00  0.00     0.049 A 
ATOM     70  H   UNL A   1      43.550  25.217  31.815  1.00  0.00     0.167 HD
ATOM     71  C   UNL A   1      43.525  27.723  34.360  1.00  0.00     0.074 A 
ATOM     72  C   UNL A   1      42.889  27.872  35.654  1.00  0.00     0.031 C 
ATOM     73  C   UNL A   1      44.339  26.752  33.862  1.00  0.00     0.037 A 
BRANCH  60  74
ATOM     74  C   UNL A   1      44.345  24.777  28.115  1.00  0.00     0.058 A 
ATOM     75  C   UNL A   1      45.343  25.269  27.247  1.00  0.00     0.135 A 
ATOM     76  C   UNL A   1      43.945  23.449  27.866  1.00  0.00     0.135 A 
ATOM     77  F   UNL A   1      45.881  26.485  27.415  1.00  0.00    -0.206 F 
ATOM     78  C   UNL A   1      45.818  24.547  26.150  1.00  0.00     0.059 A 
ATOM     79  C   UNL A   1      44.359  22.729  26.739  1.00  0.00     0.059 A 
ATOM     80  F   UNL A   1      43.165  22.786  28.731  1.00  0.00    -0.206 F 
ATOM     81  C   UNL A   1      45.289  23.294  25.878  1.00  0.00     0.060 A 
BRANCH  81  82
ATOM     82  S   UNL A   1      45.815  22.435  24.382  1.00  0.00     0.124 S 
ATOM     83  O   UNL A   1      46.688  23.421  23.751  1.00  0.00    -0.237 OA
ATOM     84  O   UNL A   1      46.479  21.256  24.928  1.00  0.00    -0.237 OA
ATOM     85  O   UNL A   1      44.562  22.182  23.677  1.00  0.00    -0.744 OA
ENDBRANCH  81  82
ENDBRANCH  60  74
BRANCH  61  86
ATOM     86  C   UNL A   1      40.041  31.007  34.228  1.00  0.00     0.058 A 
ATOM     87  C   UNL A   1      39.810  32.335  34.642  1.00  0.00     0.135 A 
ATOM     88  C   UNL A   1      38.932  30.247  33.836  1.00  0.00     0.135 A 
ATOM     89  F   UNL A   1      40.837  33.101  35.045  1.00  0.00    -0.206 F 
ATOM     90  C   UNL A   1      38.565  32.936  34.505  1.00  0.00     0.059 A 
ATOM     91  C   UNL A   1      37.669  30.825  33.708  1.00  0.00     0.059 A 
ATOM     92  F   UNL A   1      39.090  28.974  33.441  1.00  0.00    -0.206 F 
ATOM     93  C   UNL A   1      37.517  32.187  33.973  1.00  0.00     0.060 A 
BRANCH  93  94
ATOM     94  S   UNL A   1      36.017  33.068  33.479  1.00  0.00     0.124 S 
ATOM     95  O   UNL A   1      36.551  34.112  32.610  1.00  0.00    -0.237 OA
ATOM     96  O   UNL A   1      35.260  32.015  32.806  1.00  0.00    -0.237 OA
ATOM     97  O   UNL A   1      35.465  33.525  34.749  1.00  0.00    -0.744 OA
ENDBRANCH  93  94
ENDBRANCH  61  86
BRANCH  73  98
ATOM     98  C   UNL A   1      44.836  25.624  34.705  1.00  0.00     0.058 A 
ATOM     99  C   UNL A   1      44.049  24.485  34.931  1.00  0.00     0.135 A 
ATOM    100  C   UNL A   1      46.052  25.713  35.406  1.00  0.00     0.135 A 
ATOM    101  F   UNL A   1      42.864  24.343  34.315  1.00  0.00    -0.206 F 
ATOM    102  C   UNL A   1      44.454  23.473  35.798  1.00  0.00     0.059 A 
ATOM    103  C   UNL A   1      46.463  24.730  36.303  1.00  0.00     0.059 A 
ATOM    104  F   UNL A   1      46.880  26.753  35.220  1.00  0.00    -0.206 F 
ATOM    105  C   UNL A   1      45.663  23.606  36.481  1.00  0.00     0.060 A 
BRANCH 105 106
ATOM    106  S   UNL A   1      46.176  22.321  37.639  1.00  0.00     0.124 S 
ATOM    107  O   UNL A   1      45.503  21.131  37.124  1.00  0.00    -0.237 OA
ATOM    108  O   UNL A   1      47.626  22.345  37.473  1.00  0.00    -0.237 OA
ATOM    109  O   UNL A   1      45.676  22.809  38.920  1.00  0.00    -0.744 OA
ENDBRANCH 105 106
ENDBRANCH  73  98
ENDBRANCH  47  48
ENDBRANCH  39  42
ENDBRANCH  37  38
ENDBRANCH  36  37
ENDBRANCH  35  36
ENDBRANCH  34  35
ENDBRANCH   1  34
TORSDOF 22
ENDMDL
MODEL 3
REMARK VINA RESULT:     -11.4      4.065      5.466
REMARK SMILES Cc1cc(C(=O)NCCCCCCNC(=O)c2ccc(-c3c4nc(c(-c5c(F)cc(S(=O)(=O)[O-])cc5F)c5ccc([nH]5)c(-c5c(F)cc(S(=O)(=O)[O-])cc5F)c5nc(c(-c6c(F)cc(S(=O)(=O)[O-])cc6F)c6ccc3[nH]6)C=C5)C=C4)cc2)ccc1NC(=O)c1ccc(=O)n(CCOc2ccccc2)n1
REMARK SMILES IDX 9 1 8 2 7 3 5 4 6 5 4 7 1 8 2 9 3 10 85 11 84 12 83 13 86 14
REMARK SMILES IDX 87 15 88 17 89 18 90 19 104 20 91 21 94 22 92 23 93 24 95 25
REMARK SMILES IDX 96 26 97 27 98 28 99 29 103 30 100 31 102 32 101 33 10 34
REMARK SMILES IDX 11 35 12 36 13 37 14 38 15 39 16 41 17 42 18 43 82 44 19 45
REMARK SMILES IDX 81 46 20 47 21 48 22 49 75 50 23 51 80 52 74 53 76 54 24 55
REMARK SMILES IDX 79 56 73 57 72 58 25 60 59 61 38 62 58 63 39 64 42 65 57 66
REMARK SMILES IDX 77 67 40 68 41 69 56 71 78 72 43 73 26 74 27 75 36 76 28 77
REMARK SMILES IDX 29 78 35 79 37 80 30 81 31 82 32 83 33 84 34 85 60 86 61 87
REMARK SMILES IDX 70 88 62 89 63 90 69 91 71 92 64 93 65 94 66 95 67 96 68 97
REMARK SMILES IDX 44 98 45 99 54 100 46 101 47 102 53 103 55 104 48 105 49 106
REMARK SMILES IDX 50 107 51 108 52 109
REMARK H PARENT 7 6 86 16 14 40 76 59 42 70
REMARK Flexibility Score: inf
ROOT
ATOM      1  C   UNL A   1      36.046  30.678  28.649  1.00  0.00     0.021 C 
ENDROOT
BRANCH   1   2
ATOM      2  C   UNL A   1      34.994  30.001  27.766  1.00  0.00     0.116 C 
BRANCH   2   3
ATOM      3  N   UNL A   1      33.907  30.905  27.401  1.00  0.00    -0.352 N 
ATOM      4  C   UNL A   1      32.672  30.663  26.843  1.00  0.00     0.251 C 
ATOM      5  O   UNL A   1      31.830  31.560  26.829  1.00  0.00    -0.269 OA
ATOM      6  H   UNL A   1      34.089  31.854  27.586  1.00  0.00     0.163 HD
BRANCH   4   7
ATOM      7  C   UNL A   1      32.308  29.334  26.291  1.00  0.00     0.040 A 
ATOM      8  C   UNL A   1      32.970  27.396  23.087  1.00  0.00     0.046 C 
ATOM      9  C   UNL A   1      32.331  27.758  24.400  1.00  0.00    -0.027 A 
ATOM     10  C   UNL A   1      32.733  28.974  25.003  1.00  0.00     0.019 A 
ATOM     11  C   UNL A   1      31.430  26.932  25.090  1.00  0.00     0.044 A 
ATOM     12  C   UNL A   1      31.227  27.196  26.444  1.00  0.00     0.027 A 
ATOM     13  C   UNL A   1      31.648  28.381  27.046  1.00  0.00     0.016 A 
BRANCH  11  14
ATOM     14  N   UNL A   1      30.749  25.886  24.421  1.00  0.00    -0.320 N 
ATOM     15  C   UNL A   1      31.119  24.559  24.238  1.00  0.00     0.276 C 
ATOM     16  H   UNL A   1      29.884  26.136  24.024  1.00  0.00     0.170 HD
ATOM     17  O   UNL A   1      30.402  23.765  23.639  1.00  0.00    -0.267 OA
BRANCH  15  18
ATOM     18  C   UNL A   1      32.428  24.062  24.819  1.00  0.00     0.149 A 
ATOM     19  C   UNL A   1      32.462  23.961  26.291  1.00  0.00     0.042 A 
ATOM     20  N   UNL A   1      33.397  23.711  24.024  1.00  0.00    -0.164 NA
ATOM     21  C   UNL A   1      33.320  23.058  26.772  1.00  0.00     0.076 A 
ATOM     22  N   UNL A   1      34.415  22.971  24.621  1.00  0.00    -0.226 N 
ATOM     23  C   UNL A   1      34.225  22.338  25.844  1.00  0.00     0.266 A 
ATOM     24  O   UNL A   1      34.777  21.306  26.210  1.00  0.00    -0.268 OA
BRANCH  22  25
ATOM     25  C   UNL A   1      35.611  22.690  23.824  1.00  0.00     0.190 C 
BRANCH  25  26
ATOM     26  C   UNL A   1      36.893  23.187  24.519  1.00  0.00     0.253 C 
BRANCH  26  27
ATOM     27  O   UNL A   1      37.745  22.091  24.906  1.00  0.00    -0.492 OA
BRANCH  27  28
ATOM     28  C   UNL A   1      38.646  22.448  25.869  1.00  0.00     0.119 A 
ATOM     29  C   UNL A   1      38.608  23.699  26.477  1.00  0.00     0.046 A 
ATOM     30  C   UNL A   1      39.668  21.558  26.181  1.00  0.00     0.046 A 
ATOM     31  C   UNL A   1      39.538  24.008  27.475  1.00  0.00     0.004 A 
ATOM     32  C   UNL A   1      40.558  21.836  27.215  1.00  0.00     0.004 A 
ATOM     33  C   UNL A   1      40.488  23.062  27.870  1.00  0.00     0.000 A 
ENDBRANCH  27  28
ENDBRANCH  26  27
ENDBRANCH  25  26
ENDBRANCH  22  25
ENDBRANCH  15  18
ENDBRANCH  11  14
ENDBRANCH   4   7
ENDBRANCH   2   3
ENDBRANCH   1   2
BRANCH   1  34
ATOM     34  C   UNL A   1      35.587  31.032  30.072  1.00  0.00     0.002 C 
BRANCH  34  35
ATOM     35  C   UNL A   1      36.677  31.462  31.066  1.00  0.00     0.002 C 
BRANCH  35  36
ATOM     36  C   UNL A   1      36.419  31.133  32.539  1.00  0.00     0.021 C 
BRANCH  36  37
ATOM     37  C   UNL A   1      37.673  30.731  33.312  1.00  0.00     0.116 C 
BRANCH  37  38
ATOM     38  N   UNL A   1      37.775  29.294  33.522  1.00  0.00    -0.352 N 
ATOM     39  C   UNL A   1      38.427  28.366  32.727  1.00  0.00     0.251 C 
ATOM     40  H   UNL A   1      37.326  28.939  34.323  1.00  0.00     0.163 HD
ATOM     41  O   UNL A   1      38.227  27.168  32.820  1.00  0.00    -0.269 OA
BRANCH  39  42
ATOM     42  C   UNL A   1      39.499  28.884  31.854  1.00  0.00     0.039 A 
ATOM     43  C   UNL A   1      39.123  29.332  30.582  1.00  0.00     0.014 A 
ATOM     44  C   UNL A   1      40.837  28.688  32.181  1.00  0.00     0.014 A 
ATOM     45  C   UNL A   1      40.083  29.430  29.578  1.00  0.00     0.010 A 
ATOM     46  C   UNL A   1      41.775  28.715  31.166  1.00  0.00     0.010 A 
ATOM     47  C   UNL A   1      41.394  29.042  29.854  1.00  0.00    -0.014 A 
BRANCH  47  48
ATOM     48  C   UNL A   1      42.419  28.864  28.829  1.00  0.00     0.031 A 
ATOM     49  C   UNL A   1      42.925  27.510  28.499  1.00  0.00     0.074 A 
ATOM     50  C   UNL A   1      42.838  29.927  28.109  1.00  0.00     0.049 A 
ATOM     51  N   UNL A   1      43.991  27.272  27.810  1.00  0.00    -0.248 NA
ATOM     52  C   UNL A   1      42.263  26.297  28.965  1.00  0.00     0.031 C 
ATOM     53  C   UNL A   1      43.576  29.907  26.849  1.00  0.00     0.029 A 
ATOM     54  N   UNL A   1      42.865  31.266  28.506  1.00  0.00    -0.354 N 
ATOM     55  C   UNL A   1      44.038  25.922  27.545  1.00  0.00     0.074 A 
ATOM     56  C   UNL A   1      42.948  25.356  28.308  1.00  0.00     0.031 C 
ATOM     57  C   UNL A   1      44.201  31.083  26.694  1.00  0.00     0.029 A 
ATOM     58  C   UNL A   1      44.013  31.840  27.918  1.00  0.00     0.049 A 
ATOM     59  H   UNL A   1      42.210  31.722  29.083  1.00  0.00     0.167 HD
ATOM     60  C   UNL A   1      44.932  25.440  26.634  1.00  0.00     0.037 A 
ATOM     61  C   UNL A   1      45.025  32.318  28.705  1.00  0.00     0.037 A 
ATOM     62  C   UNL A   1      45.840  26.483  26.163  1.00  0.00     0.049 A 
ATOM     63  C   UNL A   1      46.340  31.576  28.565  1.00  0.00     0.074 A 
ATOM     64  C   UNL A   1      45.862  27.323  25.062  1.00  0.00     0.029 A 
ATOM     65  N   UNL A   1      46.783  26.980  27.043  1.00  0.00    -0.354 N 
ATOM     66  N   UNL A   1      46.532  30.547  27.786  1.00  0.00    -0.248 NA
ATOM     67  C   UNL A   1      47.528  31.898  29.360  1.00  0.00     0.031 C 
ATOM     68  C   UNL A   1      46.791  28.371  25.323  1.00  0.00     0.029 A 
ATOM     69  C   UNL A   1      47.334  28.159  26.578  1.00  0.00     0.049 A 
ATOM     70  H   UNL A   1      47.032  26.548  27.892  1.00  0.00     0.167 HD
ATOM     71  C   UNL A   1      47.783  30.038  28.012  1.00  0.00     0.074 A 
ATOM     72  C   UNL A   1      48.383  30.931  28.983  1.00  0.00     0.031 C 
ATOM     73  C   UNL A   1      48.242  28.893  27.436  1.00  0.00     0.037 A 
BRANCH  60  74
ATOM     74  C   UNL A   1      44.835  24.065  26.015  1.00  0.00     0.058 A 
ATOM     75  C   UNL A   1      43.623  23.618  25.448  1.00  0.00     0.135 A 
ATOM     76  C   UNL A   1      45.880  23.120  26.001  1.00  0.00     0.135 A 
ATOM     77  F   UNL A   1      42.568  24.434  25.316  1.00  0.00    -0.206 F 
ATOM     78  C   UNL A   1      43.427  22.306  25.013  1.00  0.00     0.059 A 
ATOM     79  C   UNL A   1      45.691  21.784  25.630  1.00  0.00     0.059 A 
ATOM     80  F   UNL A   1      47.136  23.470  26.313  1.00  0.00    -0.206 F 
ATOM     81  C   UNL A   1      44.454  21.383  25.148  1.00  0.00     0.060 A 
BRANCH  81  82
ATOM     82  S   UNL A   1      44.138  19.663  24.707  1.00  0.00     0.124 S 
ATOM     83  O   UNL A   1      44.352  19.670  23.263  1.00  0.00    -0.237 OA
ATOM     84  O   UNL A   1      45.144  18.959  25.495  1.00  0.00    -0.237 OA
ATOM     85  O   UNL A   1      42.754  19.454  25.124  1.00  0.00    -0.744 OA
ENDBRANCH  81  82
ENDBRANCH  60  74
BRANCH  61  86
ATOM     86  C   UNL A   1      44.520  32.961  29.950  1.00  0.00     0.058 A 
ATOM     87  C   UNL A   1      43.913  34.228  29.830  1.00  0.00     0.135 A 
ATOM     88  C   UNL A   1      44.241  32.213  31.100  1.00  0.00     0.135 A 
ATOM     89  F   UNL A   1      44.162  34.993  28.754  1.00  0.00    -0.206 F 
ATOM     90  C   UNL A   1      42.938  34.657  30.721  1.00  0.00     0.059 A 
ATOM     91  C   UNL A   1      43.279  32.633  32.018  1.00  0.00     0.059 A 
ATOM     92  F   UNL A   1      44.797  31.004  31.273  1.00  0.00    -0.206 F 
ATOM     93  C   UNL A   1      42.583  33.819  31.776  1.00  0.00     0.060 A 
BRANCH  93  94
ATOM     94  S   UNL A   1      41.089  34.228  32.710  1.00  0.00     0.124 S 
ATOM     95  O   UNL A   1      40.816  32.976  33.408  1.00  0.00    -0.237 OA
ATOM     96  O   UNL A   1      41.555  35.329  33.552  1.00  0.00    -0.237 OA
ATOM     97  O   UNL A   1      40.135  34.592  31.670  1.00  0.00    -0.744 OA
ENDBRANCH  93  94
ENDBRANCH  61  86
BRANCH  73  98
ATOM     98  C   UNL A   1      49.628  28.389  27.668  1.00  0.00     0.058 A 
ATOM     99  C   UNL A   1      50.714  28.886  26.931  1.00  0.00     0.135 A 
ATOM    100  C   UNL A   1      49.881  27.312  28.537  1.00  0.00     0.135 A 
ATOM    101  F   UNL A   1      50.542  29.897  26.064  1.00  0.00    -0.206 F 
ATOM    102  C   UNL A   1      51.994  28.353  27.061  1.00  0.00     0.059 A 
ATOM    103  C   UNL A   1      51.145  26.741  28.658  1.00  0.00     0.059 A 
ATOM    104  F   UNL A   1      48.905  26.801  29.303  1.00  0.00    -0.206 F 
ATOM    105  C   UNL A   1      52.200  27.279  27.926  1.00  0.00     0.060 A 
BRANCH 105 106
ATOM    106  S   UNL A   1      53.845  26.554  28.069  1.00  0.00     0.124 S 
ATOM    107  O   UNL A   1      54.719  27.641  27.633  1.00  0.00    -0.237 OA
ATOM    108  O   UNL A   1      53.899  26.236  29.492  1.00  0.00    -0.237 OA
ATOM    109  O   UNL A   1      53.784  25.409  27.166  1.00  0.00    -0.744 OA
ENDBRANCH 105 106
ENDBRANCH  73  98
ENDBRANCH  47  48
ENDBRANCH  39  42
ENDBRANCH  37  38
ENDBRANCH  36  37
ENDBRANCH  35  36
ENDBRANCH  34  35
ENDBRANCH   1  34
TORSDOF 22
ENDMDL
