MODEL 1
REMARK VINA RESULT:     -10.5      0.000      0.000
REMARK SMILES O=C(NCCCCCCNC(=O)[C@@H](F)Oc1ccc(F)c(Cl)c1)c1ccc(-c2c3nc(c(-c4c(F)cc(S(=O)(=O)[O-])cc4F)c4ccc([nH]4)c(-c4c(F)cc(S(=O)(=O)[O-])cc4F)c4nc(c(-c5c(F)cc(S(=O)(=O)[O-])cc5F)c5ccc2[nH]5)C=C4)C=C3)cc1
REMARK SMILES IDX 6 1 5 2 4 3 3 4 1 5 2 6 24 8 25 9 89 10 26 11 88 12 27 13
REMARK SMILES IDX 28 14 29 15 82 16 30 17 87 18 81 19 83 20 31 21 86 22 80 23
REMARK SMILES IDX 79 24 32 26 66 27 45 28 65 29 46 30 49 31 64 32 84 33 47 34
REMARK SMILES IDX 48 35 63 37 85 38 50 39 33 40 34 41 43 42 35 43 36 44 42 45
REMARK SMILES IDX 44 46 37 47 38 48 39 49 40 50 41 51 67 52 68 53 77 54 69 55
REMARK SMILES IDX 70 56 76 57 78 58 71 59 72 60 73 61 74 62 75 63 51 64 52 65
REMARK SMILES IDX 61 66 53 67 54 68 60 69 62 70 55 71 56 72 57 73 58 74 59 75
REMARK SMILES IDX 7 76 8 77 9 78 10 79 11 80 12 82 13 83 14 84 15 85 16 86
REMARK SMILES IDX 17 87 23 88 18 89 21 90 19 91 22 92 20 93
REMARK H PARENT 3 7 83 25 49 36 10 81
REMARK Flexibility Score: inf
ROOT
ATOM      1  C   UNL A   1      31.806  27.592  26.238  1.00  0.00     0.002 C 
ENDROOT
BRANCH   1   2
ATOM      2  C   UNL A   1      33.242  27.102  26.413  1.00  0.00     0.021 C 
BRANCH   2   3
ATOM      3  C   UNL A   1      34.319  28.176  26.437  1.00  0.00     0.116 C 
BRANCH   3   4
ATOM      4  N   UNL A   1      33.885  29.430  27.027  1.00  0.00    -0.352 N 
ATOM      5  O   UNL A   1      34.026  31.267  28.327  1.00  0.00    -0.269 OA
ATOM      6  C   UNL A   1      34.586  30.289  27.849  1.00  0.00     0.251 C 
ATOM      7  H   UNL A   1      32.965  29.705  26.811  1.00  0.00     0.163 HD
BRANCH   6   8
ATOM      8  C   UNL A   1      36.005  30.006  28.179  1.00  0.00     0.039 A 
ATOM      9  C   UNL A   1      37.019  30.242  27.250  1.00  0.00     0.014 A 
ATOM     10  C   UNL A   1      36.325  29.490  29.439  1.00  0.00     0.014 A 
ATOM     11  C   UNL A   1      38.316  29.816  27.516  1.00  0.00     0.010 A 
ATOM     12  C   UNL A   1      37.651  29.152  29.743  1.00  0.00     0.010 A 
ATOM     13  C   UNL A   1      38.653  29.282  28.772  1.00  0.00    -0.014 A 
BRANCH  13  14
ATOM     14  C   UNL A   1      40.078  28.947  29.044  1.00  0.00     0.031 A 
ATOM     15  C   UNL A   1      40.661  27.611  28.669  1.00  0.00     0.074 A 
ATOM     16  C   UNL A   1      40.863  29.902  29.581  1.00  0.00     0.049 A 
ATOM     17  N   UNL A   1      41.899  27.198  28.778  1.00  0.00    -0.248 NA
ATOM     18  C   UNL A   1      39.744  26.606  28.113  1.00  0.00     0.031 C 
ATOM     19  C   UNL A   1      40.400  31.224  30.015  1.00  0.00     0.029 A 
ATOM     20  N   UNL A   1      42.212  29.929  29.826  1.00  0.00    -0.354 N 
ATOM     21  C   UNL A   1      41.912  25.889  28.310  1.00  0.00     0.074 A 
ATOM     22  C   UNL A   1      40.548  25.564  27.948  1.00  0.00     0.031 C 
ATOM     23  C   UNL A   1      41.453  31.951  30.414  1.00  0.00     0.029 A 
ATOM     24  C   UNL A   1      42.655  31.132  30.322  1.00  0.00     0.049 A 
ATOM     25  H   UNL A   1      42.805  29.161  29.662  1.00  0.00     0.167 HD
ATOM     26  C   UNL A   1      42.964  25.044  28.185  1.00  0.00     0.037 A 
ATOM     27  C   UNL A   1      43.890  31.534  30.674  1.00  0.00     0.037 A 
ATOM     28  C   UNL A   1      44.321  25.380  28.539  1.00  0.00     0.049 A 
ATOM     29  C   UNL A   1      45.039  30.583  30.509  1.00  0.00     0.074 A 
ATOM     30  C   UNL A   1      45.457  24.593  28.449  1.00  0.00     0.029 A 
ATOM     31  N   UNL A   1      44.729  26.605  29.048  1.00  0.00    -0.354 N 
ATOM     32  N   UNL A   1      45.028  29.353  30.054  1.00  0.00    -0.248 NA
ATOM     33  C   UNL A   1      46.366  31.073  30.901  1.00  0.00     0.031 C 
ATOM     34  C   UNL A   1      46.545  25.331  28.927  1.00  0.00     0.029 A 
ATOM     35  C   UNL A   1      46.095  26.594  29.280  1.00  0.00     0.049 A 
ATOM     36  H   UNL A   1      44.135  27.371  29.218  1.00  0.00     0.167 HD
ATOM     37  C   UNL A   1      46.347  28.919  30.107  1.00  0.00     0.074 A 
ATOM     38  C   UNL A   1      47.132  30.031  30.604  1.00  0.00     0.031 C 
ATOM     39  C   UNL A   1      46.859  27.706  29.786  1.00  0.00     0.037 A 
BRANCH  26  40
ATOM     40  C   UNL A   1      42.697  23.666  27.640  1.00  0.00     0.058 A 
ATOM     41  C   UNL A   1      42.768  23.394  26.264  1.00  0.00     0.135 A 
ATOM     42  C   UNL A   1      42.429  22.592  28.504  1.00  0.00     0.135 A 
ATOM     43  F   UNL A   1      43.008  24.386  25.391  1.00  0.00    -0.206 F 
ATOM     44  C   UNL A   1      42.565  22.111  25.763  1.00  0.00     0.059 A 
ATOM     45  C   UNL A   1      42.246  21.296  28.027  1.00  0.00     0.059 A 
ATOM     46  F   UNL A   1      42.353  22.793  29.828  1.00  0.00    -0.206 F 
ATOM     47  C   UNL A   1      42.306  21.068  26.652  1.00  0.00     0.060 A 
BRANCH  47  48
ATOM     48  S   UNL A   1      42.063  19.406  25.989  1.00  0.00     0.124 S 
ATOM     49  O   UNL A   1      42.592  18.580  27.070  1.00  0.00    -0.237 OA
ATOM     50  O   UNL A   1      40.617  19.351  25.799  1.00  0.00    -0.237 OA
ATOM     51  O   UNL A   1      42.852  19.411  24.760  1.00  0.00    -0.744 OA
ENDBRANCH  47  48
ENDBRANCH  26  40
BRANCH  27  52
ATOM     52  C   UNL A   1      44.091  32.898  31.230  1.00  0.00     0.058 A 
ATOM     53  C   UNL A   1      44.068  33.132  32.612  1.00  0.00     0.135 A 
ATOM     54  C   UNL A   1      44.338  33.990  30.384  1.00  0.00     0.135 A 
ATOM     55  F   UNL A   1      43.835  32.120  33.461  1.00  0.00    -0.206 F 
ATOM     56  C   UNL A   1      44.264  34.406  33.137  1.00  0.00     0.059 A 
ATOM     57  C   UNL A   1      44.567  35.266  30.884  1.00  0.00     0.059 A 
ATOM     58  F   UNL A   1      44.393  33.813  29.055  1.00  0.00    -0.206 F 
ATOM     59  C   UNL A   1      44.514  35.467  32.263  1.00  0.00     0.060 A 
BRANCH  59  60
ATOM     60  S   UNL A   1      44.817  37.110  32.948  1.00  0.00     0.124 S 
ATOM     61  O   UNL A   1      43.930  37.934  32.135  1.00  0.00    -0.237 OA
ATOM     62  O   UNL A   1      44.429  36.941  34.346  1.00  0.00    -0.237 OA
ATOM     63  O   UNL A   1      46.246  37.305  32.723  1.00  0.00    -0.744 OA
ENDBRANCH  59  60
ENDBRANCH  27  52
BRANCH  39  64
ATOM     64  C   UNL A   1      48.341  27.532  29.960  1.00  0.00     0.058 A 
ATOM     65  C   UNL A   1      48.883  27.023  31.153  1.00  0.00     0.135 A 
ATOM     66  C   UNL A   1      49.228  27.875  28.929  1.00  0.00     0.135 A 
ATOM     67  F   UNL A   1      48.077  26.687  32.171  1.00  0.00    -0.206 F 
ATOM     68  C   UNL A   1      50.257  26.896  31.328  1.00  0.00     0.059 A 
ATOM     69  C   UNL A   1      50.604  27.732  29.074  1.00  0.00     0.059 A 
ATOM     70  F   UNL A   1      48.760  28.358  27.767  1.00  0.00    -0.206 F 
ATOM     71  C   UNL A   1      51.110  27.260  30.285  1.00  0.00     0.060 A 
BRANCH  71  72
ATOM     72  S   UNL A   1      52.891  27.095  30.524  1.00  0.00     0.124 S 
ATOM     73  O   UNL A   1      53.276  26.332  29.342  1.00  0.00    -0.237 OA
ATOM     74  O   UNL A   1      53.335  28.485  30.555  1.00  0.00    -0.237 OA
ATOM     75  O   UNL A   1      52.997  26.382  31.793  1.00  0.00    -0.744 OA
ENDBRANCH  71  72
ENDBRANCH  39  64
ENDBRANCH  13  14
ENDBRANCH   6   8
ENDBRANCH   3   4
ENDBRANCH   2   3
ENDBRANCH   1   2
BRANCH   1  76
ATOM     76  C   UNL A   1      31.194  27.444  24.841  1.00  0.00     0.002 C 
BRANCH  76  77
ATOM     77  C   UNL A   1      30.089  26.394  24.666  1.00  0.00     0.021 C 
BRANCH  77  78
ATOM     78  C   UNL A   1      30.531  24.934  24.676  1.00  0.00     0.116 C 
BRANCH  78  79
ATOM     79  N   UNL A   1      29.984  24.170  25.779  1.00  0.00    -0.350 N 
ATOM     80  C   UNL A   1      30.653  23.408  26.698  1.00  0.00     0.294 C 
ATOM     81  H   UNL A   1      29.006  24.203  25.880  1.00  0.00     0.163 HD
ATOM     82  O   UNL A   1      29.998  22.978  27.657  1.00  0.00    -0.267 OA
BRANCH  80  83
ATOM     83  C   UNL A   1      32.172  23.118  26.578  1.00  0.00     0.440 C 
ATOM     84  F   UNL A   1      32.818  23.002  27.776  1.00  0.00    -0.191 F 
BRANCH  83  85
ATOM     85  O   UNL A   1      32.529  22.024  25.729  1.00  0.00    -0.452 OA
BRANCH  85  86
ATOM     86  C   UNL A   1      33.680  22.245  25.030  1.00  0.00     0.125 A 
ATOM     87  C   UNL A   1      33.716  23.295  24.112  1.00  0.00     0.050 A 
ATOM     88  C   UNL A   1      34.817  21.475  25.280  1.00  0.00     0.070 A 
ATOM     89  C   UNL A   1      34.878  23.523  23.374  1.00  0.00     0.044 A 
ATOM     90  C   UNL A   1      35.978  21.707  24.542  1.00  0.00     0.080 A 
ATOM     91  C   UNL A   1      35.998  22.720  23.583  1.00  0.00     0.142 A 
ATOM     92  Cl  UNL A   1      37.361  20.722  24.813  1.00  0.00    -0.081 Cl
ATOM     93  F   UNL A   1      37.086  22.930  22.830  1.00  0.00    -0.205 F 
ENDBRANCH  85  86
ENDBRANCH  83  85
ENDBRANCH  80  83
ENDBRANCH  78  79
ENDBRANCH  77  78
ENDBRANCH  76  77
ENDBRANCH   1  76
TORSDOF 18
ENDMDL
MODEL 2
REMARK VINA RESULT:     -10.3      4.410     10.859
REMARK SMILES O=C(NCCCCCCNC(=O)[C@@H](F)Oc1ccc(F)c(Cl)c1)c1ccc(-c2c3nc(c(-c4c(F)cc(S(=O)(=O)[O-])cc4F)c4ccc([nH]4)c(-c4c(F)cc(S(=O)(=O)[O-])cc4F)c4nc(c(-c5c(F)cc(S(=O)(=O)[O-])cc5F)c5ccc2[nH]5)C=C4)C=C3)cc1
REMARK SMILES IDX 6 1 5 2 4 3 3 4 1 5 2 6 24 8 25 9 89 10 26 11 88 12 27 13
REMARK SMILES IDX 28 14 29 15 82 16 30 17 87 18 81 19 83 20 31 21 86 22 80 23
REMARK SMILES IDX 79 24 32 26 66 27 45 28 65 29 46 30 49 31 64 32 84 33 47 34
REMARK SMILES IDX 48 35 63 37 85 38 50 39 33 40 34 41 43 42 35 43 36 44 42 45
REMARK SMILES IDX 44 46 37 47 38 48 39 49 40 50 41 51 67 52 68 53 77 54 69 55
REMARK SMILES IDX 70 56 76 57 78 58 71 59 72 60 73 61 74 62 75 63 51 64 52 65
REMARK SMILES IDX 61 66 53 67 54 68 60 69 62 70 55 71 56 72 57 73 58 74 59 75
REMARK SMILES IDX 7 76 8 77 9 78 10 79 11 80 12 82 13 83 14 84 15 85 16 86
REMARK SMILES IDX 17 87 23 88 18 89 21 90 19 91 22 92 20 93
REMARK H PARENT 3 7 83 25 49 36 10 81
REMARK Flexibility Score: inf
ROOT
ATOM      1  C   UNL A   1      42.482  20.690  26.981  1.00  0.00     0.002 C 
ENDROOT
BRANCH   1   2
ATOM      2  C   UNL A   1      41.464  21.593  26.287  1.00  0.00     0.021 C 
BRANCH   2   3
ATOM      3  C   UNL A   1      40.043  21.543  26.829  1.00  0.00     0.116 C 
BRANCH   3   4
ATOM      4  N   UNL A   1      39.042  22.034  25.898  1.00  0.00    -0.352 N 
ATOM      5  O   UNL A   1      37.618  23.522  24.982  1.00  0.00    -0.269 OA
ATOM      6  C   UNL A   1      38.529  23.308  25.771  1.00  0.00     0.251 C 
ATOM      7  H   UNL A   1      38.680  21.366  25.273  1.00  0.00     0.163 HD
BRANCH   6   8
ATOM      8  C   UNL A   1      39.058  24.408  26.617  1.00  0.00     0.039 A 
ATOM      9  C   UNL A   1      38.649  24.555  27.942  1.00  0.00     0.014 A 
ATOM     10  C   UNL A   1      39.975  25.312  26.069  1.00  0.00     0.014 A 
ATOM     11  C   UNL A   1      39.024  25.683  28.662  1.00  0.00     0.010 A 
ATOM     12  C   UNL A   1      40.431  26.396  26.831  1.00  0.00     0.010 A 
ATOM     13  C   UNL A   1      39.935  26.610  28.123  1.00  0.00    -0.014 A 
BRANCH  13  14
ATOM     14  C   UNL A   1      40.391  27.739  28.978  1.00  0.00     0.031 A 
ATOM     15  C   UNL A   1      39.523  28.942  29.228  1.00  0.00     0.074 A 
ATOM     16  C   UNL A   1      41.590  27.631  29.586  1.00  0.00     0.049 A 
ATOM     17  N   UNL A   1      39.753  29.972  30.004  1.00  0.00    -0.248 NA
ATOM     18  C   UNL A   1      38.240  29.010  28.514  1.00  0.00     0.031 C 
ATOM     19  C   UNL A   1      42.533  26.525  29.392  1.00  0.00     0.029 A 
ATOM     20  N   UNL A   1      42.211  28.435  30.507  1.00  0.00    -0.354 N 
ATOM     21  C   UNL A   1      38.652  30.811  29.871  1.00  0.00     0.074 A 
ATOM     22  C   UNL A   1      37.767  30.184  28.910  1.00  0.00     0.031 C 
ATOM     23  C   UNL A   1      43.579  26.688  30.214  1.00  0.00     0.029 A 
ATOM     24  C   UNL A   1      43.414  27.936  30.948  1.00  0.00     0.049 A 
ATOM     25  H   UNL A   1      41.830  29.286  30.824  1.00  0.00     0.167 HD
ATOM     26  C   UNL A   1      38.400  31.985  30.499  1.00  0.00     0.037 A 
ATOM     27  C   UNL A   1      44.295  28.430  31.837  1.00  0.00     0.037 A 
ATOM     28  C   UNL A   1      39.283  32.596  31.461  1.00  0.00     0.049 A 
ATOM     29  C   UNL A   1      43.981  29.724  32.529  1.00  0.00     0.074 A 
ATOM     30  C   UNL A   1      39.116  33.785  32.153  1.00  0.00     0.029 A 
ATOM     31  N   UNL A   1      40.497  32.067  31.874  1.00  0.00    -0.354 N 
ATOM     32  N   UNL A   1      42.929  30.494  32.394  1.00  0.00    -0.248 NA
ATOM     33  C   UNL A   1      44.972  30.216  33.495  1.00  0.00     0.031 C 
ATOM     34  C   UNL A   1      40.241  33.987  32.961  1.00  0.00     0.029 A 
ATOM     35  C   UNL A   1      41.092  32.905  32.804  1.00  0.00     0.049 A 
ATOM     36  H   UNL A   1      40.881  31.219  31.553  1.00  0.00     0.167 HD
ATOM     37  C   UNL A   1      43.130  31.564  33.257  1.00  0.00     0.074 A 
ATOM     38  C   UNL A   1      44.387  31.322  33.934  1.00  0.00     0.031 C 
ATOM     39  C   UNL A   1      42.350  32.654  33.460  1.00  0.00     0.037 A 
BRANCH  26  40
ATOM     40  C   UNL A   1      37.114  32.696  30.169  1.00  0.00     0.058 A 
ATOM     41  C   UNL A   1      35.957  32.519  30.945  1.00  0.00     0.135 A 
ATOM     42  C   UNL A   1      37.051  33.610  29.105  1.00  0.00     0.135 A 
ATOM     43  F   UNL A   1      35.957  31.647  31.966  1.00  0.00    -0.206 F 
ATOM     44  C   UNL A   1      34.781  33.209  30.668  1.00  0.00     0.059 A 
ATOM     45  C   UNL A   1      35.892  34.329  28.823  1.00  0.00     0.059 A 
ATOM     46  F   UNL A   1      38.128  33.821  28.331  1.00  0.00    -0.206 F 
ATOM     47  C   UNL A   1      34.758  34.113  29.605  1.00  0.00     0.060 A 
BRANCH  47  48
ATOM     48  S   UNL A   1      33.229  35.014  29.270  1.00  0.00     0.124 S 
ATOM     49  O   UNL A   1      33.744  36.307  28.829  1.00  0.00    -0.237 OA
ATOM     50  O   UNL A   1      32.602  34.197  28.236  1.00  0.00    -0.237 OA
ATOM     51  O   UNL A   1      32.545  35.019  30.561  1.00  0.00    -0.744 OA
ENDBRANCH  47  48
ENDBRANCH  26  40
BRANCH  27  52
ATOM     52  C   UNL A   1      45.560  27.698  32.104  1.00  0.00     0.058 A 
ATOM     53  C   UNL A   1      45.660  26.771  33.151  1.00  0.00     0.135 A 
ATOM     54  C   UNL A   1      46.689  27.896  31.294  1.00  0.00     0.135 A 
ATOM     55  F   UNL A   1      44.607  26.547  33.952  1.00  0.00    -0.206 F 
ATOM     56  C   UNL A   1      46.841  26.077  33.398  1.00  0.00     0.059 A 
ATOM     57  C   UNL A   1      47.871  27.194  31.502  1.00  0.00     0.059 A 
ATOM     58  F   UNL A   1      46.637  28.756  30.266  1.00  0.00    -0.206 F 
ATOM     59  C   UNL A   1      47.941  26.296  32.566  1.00  0.00     0.060 A 
BRANCH  59  60
ATOM     60  S   UNL A   1      49.457  25.359  32.859  1.00  0.00     0.124 S 
ATOM     61  O   UNL A   1      50.274  26.339  33.565  1.00  0.00    -0.237 OA
ATOM     62  O   UNL A   1      48.978  24.234  33.656  1.00  0.00    -0.237 OA
ATOM     63  O   UNL A   1      49.901  25.017  31.511  1.00  0.00    -0.744 OA
ENDBRANCH  59  60
ENDBRANCH  27  52
BRANCH  39  64
ATOM     64  C   UNL A   1      42.843  33.659  34.463  1.00  0.00     0.058 A 
ATOM     65  C   UNL A   1      42.530  33.545  35.827  1.00  0.00     0.135 A 
ATOM     66  C   UNL A   1      43.636  34.743  34.058  1.00  0.00     0.135 A 
ATOM     67  F   UNL A   1      41.768  32.530  36.263  1.00  0.00    -0.206 F 
ATOM     68  C   UNL A   1      42.955  34.495  36.750  1.00  0.00     0.059 A 
ATOM     69  C   UNL A   1      44.094  35.691  34.968  1.00  0.00     0.059 A 
ATOM     70  F   UNL A   1      43.971  34.891  32.766  1.00  0.00    -0.206 F 
ATOM     71  C   UNL A   1      43.731  35.568  36.309  1.00  0.00     0.060 A 
BRANCH  71  72
ATOM     72  S   UNL A   1      44.275  36.797  37.513  1.00  0.00     0.124 S 
ATOM     73  O   UNL A   1      43.029  37.098  38.209  1.00  0.00    -0.237 OA
ATOM     74  O   UNL A   1      45.272  36.062  38.286  1.00  0.00    -0.237 OA
ATOM     75  O   UNL A   1      44.806  37.874  36.682  1.00  0.00    -0.744 OA
ENDBRANCH  71  72
ENDBRANCH  39  64
ENDBRANCH  13  14
ENDBRANCH   6   8
ENDBRANCH   3   4
ENDBRANCH   2   3
ENDBRANCH   1   2
BRANCH   1  76
ATOM     76  C   UNL A   1      42.203  19.185  26.948  1.00  0.00     0.002 C 
BRANCH  76  77
ATOM     77  C   UNL A   1      43.249  18.292  26.268  1.00  0.00     0.021 C 
BRANCH  77  78
ATOM     78  C   UNL A   1      43.807  18.790  24.938  1.00  0.00     0.116 C 
BRANCH  78  79
ATOM     79  N   UNL A   1      45.253  18.743  24.862  1.00  0.00    -0.350 N 
ATOM     80  C   UNL A   1      46.134  19.788  24.790  1.00  0.00     0.294 C 
ATOM     81  H   UNL A   1      45.654  17.844  24.862  1.00  0.00     0.163 HD
ATOM     82  O   UNL A   1      47.337  19.519  24.904  1.00  0.00    -0.267 OA
BRANCH  80  83
ATOM     83  C   UNL A   1      45.659  21.254  24.613  1.00  0.00     0.440 C 
ATOM     84  F   UNL A   1      44.902  21.467  23.496  1.00  0.00    -0.191 F 
BRANCH  83  85
ATOM     85  O   UNL A   1      45.017  21.839  25.750  1.00  0.00    -0.452 OA
BRANCH  85  86
ATOM     86  C   UNL A   1      45.663  22.949  26.213  1.00  0.00     0.125 A 
ATOM     87  C   UNL A   1      45.529  23.290  27.559  1.00  0.00     0.050 A 
ATOM     88  C   UNL A   1      46.493  23.687  25.368  1.00  0.00     0.070 A 
ATOM     89  C   UNL A   1      46.165  24.433  28.044  1.00  0.00     0.044 A 
ATOM     90  C   UNL A   1      47.129  24.828  25.857  1.00  0.00     0.080 A 
ATOM     91  C   UNL A   1      46.951  25.202  27.188  1.00  0.00     0.142 A 
ATOM     92  Cl  UNL A   1      48.107  25.767  24.799  1.00  0.00    -0.081 Cl
ATOM     93  F   UNL A   1      47.514  26.320  27.667  1.00  0.00    -0.205 F 
ENDBRANCH  85  86
ENDBRANCH  83  85
ENDBRANCH  80  83
ENDBRANCH  78  79
ENDBRANCH  77  78
ENDBRANCH  76  77
ENDBRANCH   1  76
TORSDOF 18
ENDMDL
MODEL 3
REMARK VINA RESULT:     -10.2      4.218      9.702
REMARK SMILES O=C(NCCCCCCNC(=O)[C@@H](F)Oc1ccc(F)c(Cl)c1)c1ccc(-c2c3nc(c(-c4c(F)cc(S(=O)(=O)[O-])cc4F)c4ccc([nH]4)c(-c4c(F)cc(S(=O)(=O)[O-])cc4F)c4nc(c(-c5c(F)cc(S(=O)(=O)[O-])cc5F)c5ccc2[nH]5)C=C4)C=C3)cc1
REMARK SMILES IDX 6 1 5 2 4 3 3 4 1 5 2 6 24 8 25 9 89 10 26 11 88 12 27 13
REMARK SMILES IDX 28 14 29 15 82 16 30 17 87 18 81 19 83 20 31 21 86 22 80 23
REMARK SMILES IDX 79 24 32 26 66 27 45 28 65 29 46 30 49 31 64 32 84 33 47 34
REMARK SMILES IDX 48 35 63 37 85 38 50 39 33 40 34 41 43 42 35 43 36 44 42 45
REMARK SMILES IDX 44 46 37 47 38 48 39 49 40 50 41 51 67 52 68 53 77 54 69 55
REMARK SMILES IDX 70 56 76 57 78 58 71 59 72 60 73 61 74 62 75 63 51 64 52 65
REMARK SMILES IDX 61 66 53 67 54 68 60 69 62 70 55 71 56 72 57 73 58 74 59 75
REMARK SMILES IDX 7 76 8 77 9 78 10 79 11 80 12 82 13 83 14 84 15 85 16 86
REMARK SMILES IDX 17 87 23 88 18 89 21 90 19 91 22 92 20 93
REMARK H PARENT 3 7 83 25 49 36 10 81
REMARK Flexibility Score: inf
ROOT
ATOM      1  C   UNL A   1      42.437  21.057  27.310  1.00  0.00     0.002 C 
ENDROOT
BRANCH   1   2
ATOM      2  C   UNL A   1      41.376  21.592  26.351  1.00  0.00     0.021 C 
BRANCH   2   3
ATOM      3  C   UNL A   1      39.935  21.514  26.833  1.00  0.00     0.116 C 
BRANCH   3   4
ATOM      4  N   UNL A   1      38.970  22.058  25.894  1.00  0.00    -0.352 N 
ATOM      5  O   UNL A   1      37.618  23.613  24.979  1.00  0.00    -0.269 OA
ATOM      6  C   UNL A   1      38.505  23.351  25.782  1.00  0.00     0.251 C 
ATOM      7  H   UNL A   1      38.597  21.414  25.250  1.00  0.00     0.163 HD
BRANCH   6   8
ATOM      8  C   UNL A   1      39.056  24.416  26.658  1.00  0.00     0.039 A 
ATOM      9  C   UNL A   1      38.643  24.540  27.984  1.00  0.00     0.014 A 
ATOM     10  C   UNL A   1      40.000  25.309  26.138  1.00  0.00     0.014 A 
ATOM     11  C   UNL A   1      39.043  25.640  28.734  1.00  0.00     0.010 A 
ATOM     12  C   UNL A   1      40.478  26.362  26.929  1.00  0.00     0.010 A 
ATOM     13  C   UNL A   1      39.979  26.556  28.225  1.00  0.00    -0.014 A 
BRANCH  13  14
ATOM     14  C   UNL A   1      40.459  27.652  29.110  1.00  0.00     0.031 A 
ATOM     15  C   UNL A   1      41.841  27.641  29.704  1.00  0.00     0.074 A 
ATOM     16  C   UNL A   1      39.641  28.703  29.319  1.00  0.00     0.049 A 
ATOM     17  N   UNL A   1      42.426  28.556  30.436  1.00  0.00    -0.248 NA
ATOM     18  C   UNL A   1      42.672  26.453  29.460  1.00  0.00     0.031 C 
ATOM     19  C   UNL A   1      38.266  28.809  28.820  1.00  0.00     0.029 A 
ATOM     20  N   UNL A   1      39.846  29.891  29.971  1.00  0.00    -0.354 N 
ATOM     21  C   UNL A   1      43.688  28.057  30.743  1.00  0.00     0.074 A 
ATOM     22  C   UNL A   1      43.770  26.741  30.146  1.00  0.00     0.031 C 
ATOM     23  C   UNL A   1      37.776  30.017  29.131  1.00  0.00     0.029 A 
ATOM     24  C   UNL A   1      38.774  30.749  29.900  1.00  0.00     0.049 A 
ATOM     25  H   UNL A   1      40.682  30.109  30.444  1.00  0.00     0.167 HD
ATOM     26  C   UNL A   1      44.684  28.648  31.447  1.00  0.00     0.037 A 
ATOM     27  C   UNL A   1      38.605  31.985  30.405  1.00  0.00     0.037 A 
ATOM     28  C   UNL A   1      44.596  29.964  32.030  1.00  0.00     0.049 A 
ATOM     29  C   UNL A   1      39.731  32.620  31.165  1.00  0.00     0.074 A 
ATOM     30  C   UNL A   1      45.552  30.651  32.761  1.00  0.00     0.029 A 
ATOM     31  N   UNL A   1      43.490  30.798  31.946  1.00  0.00    -0.354 N 
ATOM     32  N   UNL A   1      40.918  32.133  31.435  1.00  0.00    -0.248 NA
ATOM     33  C   UNL A   1      39.497  33.972  31.689  1.00  0.00     0.031 C 
ATOM     34  C   UNL A   1      45.014  31.885  33.141  1.00  0.00     0.029 A 
ATOM     35  C   UNL A   1      43.736  31.986  32.614  1.00  0.00     0.049 A 
ATOM     36  H   UNL A   1      42.652  30.578  31.478  1.00  0.00     0.167 HD
ATOM     37  C   UNL A   1      41.575  33.118  32.162  1.00  0.00     0.074 A 
ATOM     38  C   UNL A   1      40.665  34.241  32.258  1.00  0.00     0.031 C 
ATOM     39  C   UNL A   1      42.814  33.090  32.710  1.00  0.00     0.037 A 
BRANCH  26  40
ATOM     40  C   UNL A   1      45.966  27.879  31.630  1.00  0.00     0.058 A 
ATOM     41  C   UNL A   1      46.136  26.978  32.695  1.00  0.00     0.135 A 
ATOM     42  C   UNL A   1      47.011  27.994  30.700  1.00  0.00     0.135 A 
ATOM     43  F   UNL A   1      45.173  26.838  33.620  1.00  0.00    -0.206 F 
ATOM     44  C   UNL A   1      47.302  26.233  32.840  1.00  0.00     0.059 A 
ATOM     45  C   UNL A   1      48.178  27.242  30.813  1.00  0.00     0.059 A 
ATOM     46  F   UNL A   1      46.902  28.837  29.662  1.00  0.00    -0.206 F 
ATOM     47  C   UNL A   1      48.318  26.371  31.893  1.00  0.00     0.060 A 
BRANCH  47  48
ATOM     48  S   UNL A   1      49.818  25.384  32.085  1.00  0.00     0.124 S 
ATOM     49  O   UNL A   1      50.759  26.379  32.591  1.00  0.00    -0.237 OA
ATOM     50  O   UNL A   1      49.402  24.362  33.041  1.00  0.00    -0.237 OA
ATOM     51  O   UNL A   1      50.084  24.900  30.733  1.00  0.00    -0.744 OA
ENDBRANCH  47  48
ENDBRANCH  26  40
BRANCH  27  52
ATOM     52  C   UNL A   1      37.309  32.687  30.214  1.00  0.00     0.058 A 
ATOM     53  C   UNL A   1      36.265  32.555  31.141  1.00  0.00     0.135 A 
ATOM     54  C   UNL A   1      37.103  33.529  29.110  1.00  0.00     0.135 A 
ATOM     55  F   UNL A   1      36.414  31.762  32.212  1.00  0.00    -0.206 F 
ATOM     56  C   UNL A   1      35.053  33.219  30.970  1.00  0.00     0.059 A 
ATOM     57  C   UNL A   1      35.913  34.225  28.933  1.00  0.00     0.059 A 
ATOM     58  F   UNL A   1      38.080  33.705  28.207  1.00  0.00    -0.206 F 
ATOM     59  C   UNL A   1      34.888  34.053  29.862  1.00  0.00     0.060 A 
BRANCH  59  60
ATOM     60  S   UNL A   1      33.334  34.951  29.668  1.00  0.00     0.124 S 
ATOM     61  O   UNL A   1      33.796  36.218  29.114  1.00  0.00    -0.237 OA
ATOM     62  O   UNL A   1      32.589  34.089  28.755  1.00  0.00    -0.237 OA
ATOM     63  O   UNL A   1      32.811  35.008  31.029  1.00  0.00    -0.744 OA
ENDBRANCH  59  60
ENDBRANCH  27  52
BRANCH  39  64
ATOM     64  C   UNL A   1      43.249  34.319  33.457  1.00  0.00     0.058 A 
ATOM     65  C   UNL A   1      43.906  35.377  32.806  1.00  0.00     0.135 A 
ATOM     66  C   UNL A   1      43.008  34.442  34.833  1.00  0.00     0.135 A 
ATOM     67  F   UNL A   1      44.166  35.303  31.492  1.00  0.00    -0.206 F 
ATOM     68  C   UNL A   1      44.341  36.498  33.504  1.00  0.00     0.059 A 
ATOM     69  C   UNL A   1      43.413  35.566  35.546  1.00  0.00     0.059 A 
ATOM     70  F   UNL A   1      42.377  33.462  35.500  1.00  0.00    -0.206 F 
ATOM     71  C   UNL A   1      44.096  36.581  34.876  1.00  0.00     0.060 A 
BRANCH  71  72
ATOM     72  S   UNL A   1      44.668  38.038  35.773  1.00  0.00     0.124 S 
ATOM     73  O   UNL A   1      44.023  37.857  37.069  1.00  0.00    -0.237 OA
ATOM     74  O   UNL A   1      46.118  37.870  35.757  1.00  0.00    -0.237 OA
ATOM     75  O   UNL A   1      44.165  39.149  34.970  1.00  0.00    -0.744 OA
ENDBRANCH  71  72
ENDBRANCH  39  64
ENDBRANCH  13  14
ENDBRANCH   6   8
ENDBRANCH   3   4
ENDBRANCH   2   3
ENDBRANCH   1   2
BRANCH   1  76
ATOM     76  C   UNL A   1      42.521  19.535  27.464  1.00  0.00     0.002 C 
BRANCH  76  77
ATOM     77  C   UNL A   1      42.442  18.694  26.183  1.00  0.00     0.021 C 
BRANCH  77  78
ATOM     78  C   UNL A   1      43.447  19.030  25.086  1.00  0.00     0.116 C 
BRANCH  78  79
ATOM     79  N   UNL A   1      44.760  18.459  25.308  1.00  0.00    -0.350 N 
ATOM     80  C   UNL A   1      45.964  19.106  25.394  1.00  0.00     0.294 C 
ATOM     81  H   UNL A   1      44.791  17.481  25.411  1.00  0.00     0.163 HD
ATOM     82  O   UNL A   1      46.939  18.434  25.757  1.00  0.00    -0.267 OA
BRANCH  80  83
ATOM     83  C   UNL A   1      46.108  20.619  25.090  1.00  0.00     0.440 C 
ATOM     84  F   UNL A   1      47.074  20.918  24.171  1.00  0.00    -0.191 F 
BRANCH  83  85
ATOM     85  O   UNL A   1      44.896  21.302  24.755  1.00  0.00    -0.452 OA
BRANCH  85  86
ATOM     86  C   UNL A   1      44.829  22.558  25.284  1.00  0.00     0.125 A 
ATOM     87  C   UNL A   1      44.059  23.521  24.632  1.00  0.00     0.050 A 
ATOM     88  C   UNL A   1      45.468  22.851  26.490  1.00  0.00     0.070 A 
ATOM     89  C   UNL A   1      43.997  24.816  25.147  1.00  0.00     0.044 A 
ATOM     90  C   UNL A   1      45.401  24.146  27.004  1.00  0.00     0.080 A 
ATOM     91  C   UNL A   1      44.678  25.125  26.323  1.00  0.00     0.142 A 
ATOM     92  Cl  UNL A   1      46.234  24.519  28.462  1.00  0.00    -0.081 Cl
ATOM     93  F   UNL A   1      44.639  26.387  26.773  1.00  0.00    -0.205 F 
ENDBRANCH  85  86
ENDBRANCH  83  85
ENDBRANCH  80  83
ENDBRANCH  78  79
ENDBRANCH  77  78
ENDBRANCH  76  77
ENDBRANCH   1  76
TORSDOF 18
ENDMDL
