MODEL 1
REMARK VINA RESULT:     -11.7      0.000      0.000
REMARK SMILES N#C/C(=C\c1ccc(Oc2ccccc2Cl)c([N+](=O)[O-])c1)C(=O)NCCCCCCNC(=O)c1ccc(-c2c3nc(c(-c4c(F)cc(S(=O)(=O)[O-])cc4F)c4ccc([nH]4)c(-c4c(F)cc(S(=O)(=O)[O-])cc4F)c4nc(c(-c5c(F)cc(S(=O)(=O)[O-])cc5F)c5ccc2[nH]5)C=C4)C=C3)cc1
REMARK SMILES IDX 27 1 26 2 25 3 24 4 22 5 23 6 3 8 4 9 2 10 1 11 5 12 6 13
REMARK SMILES IDX 21 14 7 15 17 16 8 17 18 18 19 19 20 20 9 21 10 22 11 23
REMARK SMILES IDX 15 24 12 25 14 26 16 27 13 28 28 29 29 30 30 31 31 32 32 33
REMARK SMILES IDX 33 35 34 36 35 37 99 38 36 39 98 40 37 41 38 42 39 43 92 44
REMARK SMILES IDX 40 45 97 46 91 47 93 48 41 49 96 50 90 51 89 52 42 54 76 55
REMARK SMILES IDX 55 56 75 57 56 58 59 59 74 60 94 61 57 62 58 63 73 65 95 66
REMARK SMILES IDX 60 67 43 68 44 69 53 70 45 71 46 72 52 73 54 74 47 75 48 76
REMARK SMILES IDX 49 77 50 78 51 79 77 80 78 81 87 82 79 83 80 84 86 85 88 86
REMARK SMILES IDX 81 87 82 88 83 89 84 90 85 91 61 92 62 93 71 94 63 95 64 96
REMARK SMILES IDX 70 97 72 98 65 99 66 100 67 101 68 102 69 103
REMARK H PARENT 24 7 31 34 93 53 59 64
REMARK Flexibility Score: inf
ROOT
ATOM      1  C   UNL A   1      31.596  28.852  26.942  1.00  0.00     0.002 C 
ENDROOT
BRANCH   1   2
ATOM      2  C   UNL A   1      31.534  29.931  25.853  1.00  0.00     0.021 C 
BRANCH   2   3
ATOM      3  C   UNL A   1      31.454  29.339  24.444  1.00  0.00     0.116 C 
BRANCH   3   4
ATOM      4  N   UNL A   1      32.744  29.422  23.788  1.00  0.00    -0.351 N 
ATOM      5  C   UNL A   1      33.682  28.495  23.463  1.00  0.00     0.261 C 
ATOM      6  O   UNL A   1      34.702  28.904  22.907  1.00  0.00    -0.268 OA
ATOM      7  H   UNL A   1      32.990  30.338  23.523  1.00  0.00     0.163 HD
BRANCH   5   8
ATOM      8  C   UNL A   1      33.518  27.040  23.723  1.00  0.00     0.117 C 
ATOM      9  C   UNL A   1      33.630  26.377  24.901  1.00  0.00     0.033 C 
BRANCH   8  10
ATOM     10  C   UNL A   1      33.437  26.135  22.504  1.00  0.00     0.105 C 
ATOM     11  N   UNL A   1      33.369  25.384  21.493  1.00  0.00    -0.192 NA
ENDBRANCH   8  10
BRANCH   9  12
ATOM     12  C   UNL A   1      33.470  24.911  25.088  1.00  0.00    -0.017 A 
ATOM     13  C   UNL A   1      32.191  24.352  25.182  1.00  0.00     0.012 A 
ATOM     14  C   UNL A   1      34.568  24.050  25.138  1.00  0.00     0.098 A 
ATOM     15  C   UNL A   1      32.025  22.964  25.324  1.00  0.00     0.055 A 
ATOM     16  C   UNL A   1      34.388  22.654  25.181  1.00  0.00     0.312 A 
ATOM     17  C   UNL A   1      33.122  22.084  25.333  1.00  0.00     0.204 A 
BRANCH  16  18
ATOM     18  N   UNL A   1      35.589  21.884  24.927  1.00  0.00     0.066 N 
ATOM     19  O   UNL A   1      36.259  22.191  23.932  1.00  0.00    -0.258 OA
ATOM     20  O   UNL A   1      35.898  21.029  25.768  1.00  0.00    -0.258 OA
ENDBRANCH  16  18
BRANCH  17  21
ATOM     21  O   UNL A   1      32.741  20.770  25.503  1.00  0.00    -0.449 OA
BRANCH  21  22
ATOM     22  C   UNL A   1      32.552  19.941  24.428  1.00  0.00     0.146 A 
ATOM     23  C   UNL A   1      32.283  20.577  23.211  1.00  0.00     0.049 A 
ATOM     24  C   UNL A   1      32.572  18.543  24.493  1.00  0.00     0.083 A 
ATOM     25  C   UNL A   1      32.155  19.827  22.042  1.00  0.00     0.004 A 
ATOM     26  C   UNL A   1      32.469  17.797  23.315  1.00  0.00     0.024 A 
ATOM     27  Cl  UNL A   1      32.755  17.698  25.986  1.00  0.00    -0.080 Cl
ATOM     28  C   UNL A   1      32.277  18.440  22.091  1.00  0.00     0.002 A 
ENDBRANCH  21  22
ENDBRANCH  17  21
ENDBRANCH   9  12
ENDBRANCH   5   8
ENDBRANCH   3   4
ENDBRANCH   2   3
ENDBRANCH   1   2
BRANCH   1  29
ATOM     29  C   UNL A   1      32.973  28.694  27.600  1.00  0.00     0.002 C 
BRANCH  29  30
ATOM     30  C   UNL A   1      33.988  29.773  27.214  1.00  0.00     0.021 C 
BRANCH  30  31
ATOM     31  C   UNL A   1      35.381  29.530  27.781  1.00  0.00     0.116 C 
BRANCH  31  32
ATOM     32  N   UNL A   1      35.456  29.928  29.179  1.00  0.00    -0.352 N 
ATOM     33  C   UNL A   1      36.479  29.744  30.074  1.00  0.00     0.251 C 
ATOM     34  H   UNL A   1      34.663  30.394  29.530  1.00  0.00     0.163 HD
ATOM     35  O   UNL A   1      36.282  29.876  31.275  1.00  0.00    -0.269 OA
BRANCH  33  36
ATOM     36  C   UNL A   1      37.816  29.379  29.566  1.00  0.00     0.039 A 
ATOM     37  C   UNL A   1      38.121  29.595  28.221  1.00  0.00     0.014 A 
ATOM     38  C   UNL A   1      38.767  28.832  30.432  1.00  0.00     0.014 A 
ATOM     39  C   UNL A   1      39.405  29.310  27.755  1.00  0.00     0.010 A 
ATOM     40  C   UNL A   1      40.064  28.623  29.985  1.00  0.00     0.010 A 
ATOM     41  C   UNL A   1      40.395  28.853  28.642  1.00  0.00    -0.014 A 
BRANCH  41  42
ATOM     42  C   UNL A   1      41.786  28.604  28.191  1.00  0.00     0.031 A 
ATOM     43  C   UNL A   1      42.202  27.219  27.780  1.00  0.00     0.074 A 
ATOM     44  C   UNL A   1      42.692  29.601  28.242  1.00  0.00     0.049 A 
ATOM     45  N   UNL A   1      43.390  26.772  27.466  1.00  0.00    -0.248 NA
ATOM     46  C   UNL A   1      41.147  26.192  27.751  1.00  0.00     0.031 C 
ATOM     47  C   UNL A   1      42.415  30.972  28.673  1.00  0.00     0.029 A 
ATOM     48  N   UNL A   1      44.033  29.608  27.952  1.00  0.00    -0.354 N 
ATOM     49  C   UNL A   1      43.231  25.412  27.225  1.00  0.00     0.074 A 
ATOM     50  C   UNL A   1      41.843  25.097  27.480  1.00  0.00     0.031 C 
ATOM     51  C   UNL A   1      43.549  31.688  28.615  1.00  0.00     0.029 A 
ATOM     52  C   UNL A   1      44.640  30.818  28.186  1.00  0.00     0.049 A 
ATOM     53  H   UNL A   1      44.515  28.821  27.610  1.00  0.00     0.167 HD
ATOM     54  C   UNL A   1      44.156  24.514  26.811  1.00  0.00     0.037 A 
ATOM     55  C   UNL A   1      45.934  31.183  28.091  1.00  0.00     0.037 A 
ATOM     56  C   UNL A   1      45.530  24.847  26.542  1.00  0.00     0.049 A 
ATOM     57  C   UNL A   1      46.946  30.170  27.628  1.00  0.00     0.074 A 
ATOM     58  C   UNL A   1      46.531  24.030  26.048  1.00  0.00     0.029 A 
ATOM     59  N   UNL A   1      46.101  26.094  26.754  1.00  0.00    -0.354 N 
ATOM     60  N   UNL A   1      46.765  28.906  27.326  1.00  0.00    -0.248 NA
ATOM     61  C   UNL A   1      48.334  30.630  27.486  1.00  0.00     0.031 C 
ATOM     62  C   UNL A   1      47.720  24.766  26.018  1.00  0.00     0.029 A 
ATOM     63  C   UNL A   1      47.446  26.060  26.432  1.00  0.00     0.049 A 
ATOM     64  H   UNL A   1      45.619  26.886  27.085  1.00  0.00     0.167 HD
ATOM     65  C   UNL A   1      48.009  28.427  26.934  1.00  0.00     0.074 A 
ATOM     66  C   UNL A   1      48.933  29.538  27.030  1.00  0.00     0.031 C 
ATOM     67  C   UNL A   1      48.353  27.180  26.526  1.00  0.00     0.037 A 
BRANCH  54  68
ATOM     68  C   UNL A   1      43.713  23.085  26.638  1.00  0.00     0.058 A 
ATOM     69  C   UNL A   1      43.415  22.261  27.735  1.00  0.00     0.135 A 
ATOM     70  C   UNL A   1      43.567  22.538  25.352  1.00  0.00     0.135 A 
ATOM     71  F   UNL A   1      43.549  22.727  28.987  1.00  0.00    -0.206 F 
ATOM     72  C   UNL A   1      43.033  20.935  27.567  1.00  0.00     0.059 A 
ATOM     73  C   UNL A   1      43.153  21.223  25.160  1.00  0.00     0.059 A 
ATOM     74  F   UNL A   1      43.836  23.280  24.267  1.00  0.00    -0.206 F 
ATOM     75  C   UNL A   1      42.908  20.423  26.274  1.00  0.00     0.060 A 
BRANCH  75  76
ATOM     76  S   UNL A   1      42.426  18.696  26.074  1.00  0.00     0.124 S 
ATOM     77  O   UNL A   1      43.347  18.257  25.029  1.00  0.00    -0.237 OA
ATOM     78  O   UNL A   1      42.671  18.147  27.404  1.00  0.00    -0.237 OA
ATOM     79  O   UNL A   1      41.024  18.777  25.679  1.00  0.00    -0.744 OA
ENDBRANCH  75  76
ENDBRANCH  54  68
BRANCH  55  80
ATOM     80  C   UNL A   1      46.333  32.573  28.440  1.00  0.00     0.058 A 
ATOM     81  C   UNL A   1      46.802  32.894  29.722  1.00  0.00     0.135 A 
ATOM     82  C   UNL A   1      46.298  33.598  27.482  1.00  0.00     0.135 A 
ATOM     83  F   UNL A   1      46.850  31.951  30.674  1.00  0.00    -0.206 F 
ATOM     84  C   UNL A   1      47.215  34.183  30.045  1.00  0.00     0.059 A 
ATOM     85  C   UNL A   1      46.729  34.887  27.772  1.00  0.00     0.059 A 
ATOM     86  F   UNL A   1      45.876  33.338  26.234  1.00  0.00    -0.206 F 
ATOM     87  C   UNL A   1      47.181  35.172  29.060  1.00  0.00     0.060 A 
BRANCH  87  88
ATOM     88  S   UNL A   1      47.788  36.823  29.468  1.00  0.00     0.124 S 
ATOM     89  O   UNL A   1      49.151  36.536  29.903  1.00  0.00    -0.237 OA
ATOM     90  O   UNL A   1      47.656  37.520  28.194  1.00  0.00    -0.237 OA
ATOM     91  O   UNL A   1      46.872  37.267  30.515  1.00  0.00    -0.744 OA
ENDBRANCH  87  88
ENDBRANCH  55  80
BRANCH  67  92
ATOM     92  C   UNL A   1      49.782  26.944  26.117  1.00  0.00     0.058 A 
ATOM     93  C   UNL A   1      50.733  26.431  27.011  1.00  0.00     0.135 A 
ATOM     94  C   UNL A   1      50.177  27.152  24.785  1.00  0.00     0.135 A 
ATOM     95  F   UNL A   1      50.410  26.224  28.298  1.00  0.00    -0.206 F 
ATOM     96  C   UNL A   1      52.029  26.138  26.601  1.00  0.00     0.059 A 
ATOM     97  C   UNL A   1      51.459  26.838  24.346  1.00  0.00     0.059 A 
ATOM     98  F   UNL A   1      49.303  27.635  23.888  1.00  0.00    -0.206 F 
ATOM     99  C   UNL A   1      52.380  26.334  25.263  1.00  0.00     0.060 A 
BRANCH  99 100
ATOM    100  S   UNL A   1      54.045  25.885  24.731  1.00  0.00     0.124 S 
ATOM    101  O   UNL A   1      54.869  26.671  25.642  1.00  0.00    -0.237 OA
ATOM    102  O   UNL A   1      54.061  24.441  24.947  1.00  0.00    -0.237 OA
ATOM    103  O   UNL A   1      54.080  26.303  23.332  1.00  0.00    -0.744 OA
ENDBRANCH  99 100
ENDBRANCH  67  92
ENDBRANCH  41  42
ENDBRANCH  33  36
ENDBRANCH  31  32
ENDBRANCH  30  31
ENDBRANCH  29  30
ENDBRANCH   1  29
TORSDOF 21
ENDMDL
MODEL 2
REMARK VINA RESULT:     -11.5      1.528      8.171
REMARK SMILES N#C/C(=C\c1ccc(Oc2ccccc2Cl)c([N+](=O)[O-])c1)C(=O)NCCCCCCNC(=O)c1ccc(-c2c3nc(c(-c4c(F)cc(S(=O)(=O)[O-])cc4F)c4ccc([nH]4)c(-c4c(F)cc(S(=O)(=O)[O-])cc4F)c4nc(c(-c5c(F)cc(S(=O)(=O)[O-])cc5F)c5ccc2[nH]5)C=C4)C=C3)cc1
REMARK SMILES IDX 27 1 26 2 25 3 24 4 22 5 23 6 3 8 4 9 2 10 1 11 5 12 6 13
REMARK SMILES IDX 21 14 7 15 17 16 8 17 18 18 19 19 20 20 9 21 10 22 11 23
REMARK SMILES IDX 15 24 12 25 14 26 16 27 13 28 28 29 29 30 30 31 31 32 32 33
REMARK SMILES IDX 33 35 34 36 35 37 99 38 36 39 98 40 37 41 38 42 39 43 92 44
REMARK SMILES IDX 40 45 97 46 91 47 93 48 41 49 96 50 90 51 89 52 42 54 76 55
REMARK SMILES IDX 55 56 75 57 56 58 59 59 74 60 94 61 57 62 58 63 73 65 95 66
REMARK SMILES IDX 60 67 43 68 44 69 53 70 45 71 46 72 52 73 54 74 47 75 48 76
REMARK SMILES IDX 49 77 50 78 51 79 77 80 78 81 87 82 79 83 80 84 86 85 88 86
REMARK SMILES IDX 81 87 82 88 83 89 84 90 85 91 61 92 62 93 71 94 63 95 64 96
REMARK SMILES IDX 70 97 72 98 65 99 66 100 67 101 68 102 69 103
REMARK H PARENT 24 7 31 34 93 53 59 64
REMARK Flexibility Score: inf
ROOT
ATOM      1  C   UNL A   1      32.730  29.163  27.614  1.00  0.00     0.002 C 
ENDROOT
BRANCH   1   2
ATOM      2  C   UNL A   1      31.484  29.731  26.922  1.00  0.00     0.021 C 
BRANCH   2   3
ATOM      3  C   UNL A   1      31.832  30.683  25.775  1.00  0.00     0.116 C 
BRANCH   3   4
ATOM      4  N   UNL A   1      30.953  30.454  24.645  1.00  0.00    -0.351 N 
ATOM      5  C   UNL A   1      30.638  29.348  23.923  1.00  0.00     0.261 C 
ATOM      6  O   UNL A   1      29.844  29.496  22.993  1.00  0.00    -0.268 OA
ATOM      7  H   UNL A   1      30.489  31.267  24.340  1.00  0.00     0.163 HD
BRANCH   5   8
ATOM      8  C   UNL A   1      31.179  27.995  24.221  1.00  0.00     0.117 C 
ATOM      9  C   UNL A   1      32.469  27.576  24.179  1.00  0.00     0.033 C 
BRANCH   8  10
ATOM     10  C   UNL A   1      30.164  26.874  24.376  1.00  0.00     0.105 C 
ATOM     11  N   UNL A   1      29.323  25.944  24.505  1.00  0.00    -0.192 NA
ENDBRANCH   8  10
BRANCH   9  12
ATOM     12  C   UNL A   1      32.940  26.198  24.473  1.00  0.00    -0.017 A 
ATOM     13  C   UNL A   1      33.145  25.795  25.797  1.00  0.00     0.012 A 
ATOM     14  C   UNL A   1      33.157  25.260  23.461  1.00  0.00     0.098 A 
ATOM     15  C   UNL A   1      33.559  24.484  26.091  1.00  0.00     0.055 A 
ATOM     16  C   UNL A   1      33.474  23.924  23.772  1.00  0.00     0.312 A 
ATOM     17  C   UNL A   1      33.739  23.521  25.083  1.00  0.00     0.204 A 
BRANCH  16  18
ATOM     18  N   UNL A   1      33.374  23.005  22.656  1.00  0.00     0.066 N 
ATOM     19  O   UNL A   1      32.612  22.037  22.785  1.00  0.00    -0.258 OA
ATOM     20  O   UNL A   1      33.995  23.301  21.625  1.00  0.00    -0.258 OA
ENDBRANCH  16  18
BRANCH  17  21
ATOM     21  O   UNL A   1      34.164  22.309  25.584  1.00  0.00    -0.449 OA
BRANCH  21  22
ATOM     22  C   UNL A   1      35.461  21.892  25.427  1.00  0.00     0.146 A 
ATOM     23  C   UNL A   1      36.442  22.867  25.637  1.00  0.00     0.049 A 
ATOM     24  C   UNL A   1      35.835  20.600  25.040  1.00  0.00     0.083 A 
ATOM     25  C   UNL A   1      37.792  22.526  25.581  1.00  0.00     0.004 A 
ATOM     26  C   UNL A   1      37.190  20.255  25.010  1.00  0.00     0.024 A 
ATOM     27  Cl  UNL A   1      34.673  19.393  24.627  1.00  0.00    -0.080 Cl
ATOM     28  C   UNL A   1      38.165  21.214  25.296  1.00  0.00     0.002 A 
ENDBRANCH  21  22
ENDBRANCH  17  21
ENDBRANCH   9  12
ENDBRANCH   5   8
ENDBRANCH   3   4
ENDBRANCH   2   3
ENDBRANCH   1   2
BRANCH   1  29
ATOM     29  C   UNL A   1      33.987  29.137  26.734  1.00  0.00     0.002 C 
BRANCH  29  30
ATOM     30  C   UNL A   1      35.300  29.319  27.499  1.00  0.00     0.021 C 
BRANCH  30  31
ATOM     31  C   UNL A   1      35.546  30.753  27.954  1.00  0.00     0.116 C 
BRANCH  31  32
ATOM     32  N   UNL A   1      35.470  30.864  29.403  1.00  0.00    -0.352 N 
ATOM     33  C   UNL A   1      36.312  30.344  30.352  1.00  0.00     0.251 C 
ATOM     34  H   UNL A   1      34.709  31.384  29.749  1.00  0.00     0.163 HD
ATOM     35  O   UNL A   1      35.961  30.281  31.523  1.00  0.00    -0.269 OA
BRANCH  33  36
ATOM     36  C   UNL A   1      37.644  29.859  29.938  1.00  0.00     0.039 A 
ATOM     37  C   UNL A   1      38.122  30.172  28.665  1.00  0.00     0.014 A 
ATOM     38  C   UNL A   1      38.417  29.101  30.822  1.00  0.00     0.014 A 
ATOM     39  C   UNL A   1      39.406  29.769  28.297  1.00  0.00     0.010 A 
ATOM     40  C   UNL A   1      39.721  28.769  30.483  1.00  0.00     0.010 A 
ATOM     41  C   UNL A   1      40.227  29.092  29.215  1.00  0.00    -0.014 A 
BRANCH  41  42
ATOM     42  C   UNL A   1      41.619  28.707  28.877  1.00  0.00     0.031 A 
ATOM     43  C   UNL A   1      42.695  29.755  28.835  1.00  0.00     0.074 A 
ATOM     44  C   UNL A   1      41.890  27.437  28.516  1.00  0.00     0.049 A 
ATOM     45  N   UNL A   1      43.941  29.646  28.454  1.00  0.00    -0.248 NA
ATOM     46  C   UNL A   1      42.311  31.115  29.248  1.00  0.00     0.031 C 
ATOM     47  C   UNL A   1      40.915  26.346  28.468  1.00  0.00     0.029 A 
ATOM     48  N   UNL A   1      43.059  26.855  28.098  1.00  0.00    -0.354 N 
ATOM     49  C   UNL A   1      44.482  30.922  28.557  1.00  0.00     0.074 A 
ATOM     50  C   UNL A   1      43.416  31.799  28.987  1.00  0.00     0.031 C 
ATOM     51  C   UNL A   1      41.527  25.227  28.050  1.00  0.00     0.029 A 
ATOM     52  C   UNL A   1      42.925  25.530  27.757  1.00  0.00     0.049 A 
ATOM     53  H   UNL A   1      43.915  27.340  28.046  1.00  0.00     0.167 HD
ATOM     54  C   UNL A   1      45.756  31.321  28.331  1.00  0.00     0.037 A 
ATOM     55  C   UNL A   1      43.818  24.662  27.244  1.00  0.00     0.037 A 
ATOM     56  C   UNL A   1      46.812  30.431  27.923  1.00  0.00     0.049 A 
ATOM     57  C   UNL A   1      45.230  25.123  27.002  1.00  0.00     0.074 A 
ATOM     58  C   UNL A   1      48.153  30.717  27.739  1.00  0.00     0.029 A 
ATOM     59  N   UNL A   1      46.645  29.086  27.624  1.00  0.00    -0.354 N 
ATOM     60  N   UNL A   1      45.746  26.316  27.181  1.00  0.00    -0.248 NA
ATOM     61  C   UNL A   1      46.181  24.126  26.494  1.00  0.00     0.031 C 
ATOM     62  C   UNL A   1      48.785  29.560  27.271  1.00  0.00     0.029 A 
ATOM     63  C   UNL A   1      47.852  28.536  27.227  1.00  0.00     0.049 A 
ATOM     64  H   UNL A   1      45.794  28.595  27.687  1.00  0.00     0.167 HD
ATOM     65  C   UNL A   1      47.088  26.206  26.834  1.00  0.00     0.074 A 
ATOM     66  C   UNL A   1      47.304  24.828  26.441  1.00  0.00     0.031 C 
ATOM     67  C   UNL A   1      48.053  27.158  26.844  1.00  0.00     0.037 A 
BRANCH  54  68
ATOM     68  C   UNL A   1      46.073  32.781  28.509  1.00  0.00     0.058 A 
ATOM     69  C   UNL A   1      46.475  33.310  29.747  1.00  0.00     0.135 A 
ATOM     70  C   UNL A   1      45.990  33.664  27.419  1.00  0.00     0.135 A 
ATOM     71  F   UNL A   1      46.560  32.516  30.825  1.00  0.00    -0.206 F 
ATOM     72  C   UNL A   1      46.739  34.666  29.908  1.00  0.00     0.059 A 
ATOM     73  C   UNL A   1      46.283  35.018  27.550  1.00  0.00     0.059 A 
ATOM     74  F   UNL A   1      45.614  33.214  26.212  1.00  0.00    -0.206 F 
ATOM     75  C   UNL A   1      46.638  35.513  28.803  1.00  0.00     0.060 A 
BRANCH  75  76
ATOM     76  S   UNL A   1      46.969  37.272  29.034  1.00  0.00     0.124 S 
ATOM     77  O   UNL A   1      45.989  37.872  28.133  1.00  0.00    -0.237 OA
ATOM     78  O   UNL A   1      46.713  37.454  30.459  1.00  0.00    -0.237 OA
ATOM     79  O   UNL A   1      48.363  37.412  28.626  1.00  0.00    -0.744 OA
ENDBRANCH  75  76
ENDBRANCH  54  68
BRANCH  55  80
ATOM     80  C   UNL A   1      43.395  23.270  26.933  1.00  0.00     0.058 A 
ATOM     81  C   UNL A   1      43.227  22.841  25.608  1.00  0.00     0.135 A 
ATOM     82  C   UNL A   1      43.193  22.329  27.955  1.00  0.00     0.135 A 
ATOM     83  F   UNL A   1      43.403  23.703  24.596  1.00  0.00    -0.206 F 
ATOM     84  C   UNL A   1      42.870  21.530  25.307  1.00  0.00     0.059 A 
ATOM     85  C   UNL A   1      42.862  21.007  27.679  1.00  0.00     0.059 A 
ATOM     86  F   UNL A   1      43.360  22.684  29.239  1.00  0.00    -0.206 F 
ATOM     87  C   UNL A   1      42.697  20.619  26.350  1.00  0.00     0.060 A 
BRANCH  87  88
ATOM     88  S   UNL A   1      42.305  18.902  25.946  1.00  0.00     0.124 S 
ATOM     89  O   UNL A   1      43.143  18.678  24.773  1.00  0.00    -0.237 OA
ATOM     90  O   UNL A   1      42.706  18.203  27.162  1.00  0.00    -0.237 OA
ATOM     91  O   UNL A   1      40.867  18.937  25.697  1.00  0.00    -0.744 OA
ENDBRANCH  87  88
ENDBRANCH  55  80
BRANCH  67  92
ATOM     92  C   UNL A   1      49.447  26.749  26.453  1.00  0.00     0.058 A 
ATOM     93  C   UNL A   1      50.271  26.011  27.317  1.00  0.00     0.135 A 
ATOM     94  C   UNL A   1      49.927  27.023  25.162  1.00  0.00     0.135 A 
ATOM     95  F   UNL A   1      49.864  25.731  28.565  1.00  0.00    -0.206 F 
ATOM     96  C   UNL A   1      51.526  25.565  26.916  1.00  0.00     0.059 A 
ATOM     97  C   UNL A   1      51.166  26.562  24.730  1.00  0.00     0.059 A 
ATOM     98  F   UNL A   1      49.174  27.720  24.295  1.00  0.00    -0.206 F 
ATOM     99  C   UNL A   1      51.960  25.836  25.616  1.00  0.00     0.060 A 
BRANCH  99 100
ATOM    100  S   UNL A   1      53.562  25.192  25.088  1.00  0.00     0.124 S 
ATOM    101  O   UNL A   1      54.481  26.003  25.879  1.00  0.00    -0.237 OA
ATOM    102  O   UNL A   1      53.470  23.785  25.466  1.00  0.00    -0.237 OA
ATOM    103  O   UNL A   1      53.575  25.449  23.651  1.00  0.00    -0.744 OA
ENDBRANCH  99 100
ENDBRANCH  67  92
ENDBRANCH  41  42
ENDBRANCH  33  36
ENDBRANCH  31  32
ENDBRANCH  30  31
ENDBRANCH  29  30
ENDBRANCH   1  29
TORSDOF 21
ENDMDL
MODEL 3
REMARK VINA RESULT:     -11.5      1.397      8.157
REMARK SMILES N#C/C(=C\c1ccc(Oc2ccccc2Cl)c([N+](=O)[O-])c1)C(=O)NCCCCCCNC(=O)c1ccc(-c2c3nc(c(-c4c(F)cc(S(=O)(=O)[O-])cc4F)c4ccc([nH]4)c(-c4c(F)cc(S(=O)(=O)[O-])cc4F)c4nc(c(-c5c(F)cc(S(=O)(=O)[O-])cc5F)c5ccc2[nH]5)C=C4)C=C3)cc1
REMARK SMILES IDX 27 1 26 2 25 3 24 4 22 5 23 6 3 8 4 9 2 10 1 11 5 12 6 13
REMARK SMILES IDX 21 14 7 15 17 16 8 17 18 18 19 19 20 20 9 21 10 22 11 23
REMARK SMILES IDX 15 24 12 25 14 26 16 27 13 28 28 29 29 30 30 31 31 32 32 33
REMARK SMILES IDX 33 35 34 36 35 37 99 38 36 39 98 40 37 41 38 42 39 43 92 44
REMARK SMILES IDX 40 45 97 46 91 47 93 48 41 49 96 50 90 51 89 52 42 54 76 55
REMARK SMILES IDX 55 56 75 57 56 58 59 59 74 60 94 61 57 62 58 63 73 65 95 66
REMARK SMILES IDX 60 67 43 68 44 69 53 70 45 71 46 72 52 73 54 74 47 75 48 76
REMARK SMILES IDX 49 77 50 78 51 79 77 80 78 81 87 82 79 83 80 84 86 85 88 86
REMARK SMILES IDX 81 87 82 88 83 89 84 90 85 91 61 92 62 93 71 94 63 95 64 96
REMARK SMILES IDX 70 97 72 98 65 99 66 100 67 101 68 102 69 103
REMARK H PARENT 24 7 31 34 93 53 59 64
REMARK Flexibility Score: inf
ROOT
ATOM      1  C   UNL A   1      33.726  29.635  27.151  1.00  0.00     0.002 C 
ENDROOT
BRANCH   1   2
ATOM      2  C   UNL A   1      33.030  30.679  26.267  1.00  0.00     0.021 C 
BRANCH   2   3
ATOM      3  C   UNL A   1      31.505  30.547  26.292  1.00  0.00     0.116 C 
BRANCH   3   4
ATOM      4  N   UNL A   1      30.993  30.368  24.948  1.00  0.00    -0.351 N 
ATOM      5  C   UNL A   1      31.023  29.329  24.073  1.00  0.00     0.261 C 
ATOM      6  O   UNL A   1      30.492  29.508  22.976  1.00  0.00    -0.268 OA
ATOM      7  H   UNL A   1      30.528  31.162  24.598  1.00  0.00     0.163 HD
BRANCH   5   8
ATOM      8  C   UNL A   1      31.631  28.010  24.390  1.00  0.00     0.117 C 
ATOM      9  C   UNL A   1      32.936  27.646  24.319  1.00  0.00     0.033 C 
BRANCH   8  10
ATOM     10  C   UNL A   1      30.672  26.851  24.607  1.00  0.00     0.105 C 
ATOM     11  N   UNL A   1      29.876  25.890  24.787  1.00  0.00    -0.192 NA
ENDBRANCH   8  10
BRANCH   9  12
ATOM     12  C   UNL A   1      33.477  26.298  24.635  1.00  0.00    -0.017 A 
ATOM     13  C   UNL A   1      33.351  25.779  25.928  1.00  0.00     0.012 A 
ATOM     14  C   UNL A   1      34.085  25.500  23.664  1.00  0.00     0.098 A 
ATOM     15  C   UNL A   1      33.827  24.492  26.232  1.00  0.00     0.055 A 
ATOM     16  C   UNL A   1      34.468  24.177  23.954  1.00  0.00     0.312 A 
ATOM     17  C   UNL A   1      34.403  23.664  25.252  1.00  0.00     0.204 A 
BRANCH  16  18
ATOM     18  N   UNL A   1      34.802  23.377  22.793  1.00  0.00     0.066 N 
ATOM     19  O   UNL A   1      35.972  22.982  22.694  1.00  0.00    -0.258 OA
ATOM     20  O   UNL A   1      33.874  23.081  22.028  1.00  0.00    -0.258 OA
ENDBRANCH  16  18
BRANCH  17  21
ATOM     21  O   UNL A   1      34.821  22.454  25.764  1.00  0.00    -0.449 OA
BRANCH  21  22
ATOM     22  C   UNL A   1      34.254  21.276  25.354  1.00  0.00     0.146 A 
ATOM     23  C   UNL A   1      32.856  21.227  25.395  1.00  0.00     0.049 A 
ATOM     24  C   UNL A   1      34.978  20.148  24.950  1.00  0.00     0.083 A 
ATOM     25  C   UNL A   1      32.181  20.103  24.923  1.00  0.00     0.004 A 
ATOM     26  C   UNL A   1      34.297  19.033  24.454  1.00  0.00     0.024 A 
ATOM     27  Cl  UNL A   1      36.702  20.094  25.014  1.00  0.00    -0.080 Cl
ATOM     28  C   UNL A   1      32.900  19.018  24.426  1.00  0.00     0.002 A 
ENDBRANCH  21  22
ENDBRANCH  17  21
ENDBRANCH   9  12
ENDBRANCH   5   8
ENDBRANCH   3   4
ENDBRANCH   2   3
ENDBRANCH   1   2
BRANCH   1  29
ATOM     29  C   UNL A   1      35.028  30.122  27.801  1.00  0.00     0.002 C 
BRANCH  29  30
ATOM     30  C   UNL A   1      35.034  31.607  28.173  1.00  0.00     0.021 C 
BRANCH  30  31
ATOM     31  C   UNL A   1      36.152  31.990  29.135  1.00  0.00     0.116 C 
BRANCH  31  32
ATOM     32  N   UNL A   1      35.947  31.388  30.444  1.00  0.00    -0.352 N 
ATOM     33  C   UNL A   1      36.710  30.449  31.090  1.00  0.00     0.251 C 
ATOM     34  H   UNL A   1      35.150  31.698  30.933  1.00  0.00     0.163 HD
ATOM     35  O   UNL A   1      36.257  29.838  32.050  1.00  0.00    -0.269 OA
BRANCH  33  36
ATOM     36  C   UNL A   1      38.080  30.186  30.607  1.00  0.00     0.039 A 
ATOM     37  C   UNL A   1      39.098  29.945  31.532  1.00  0.00     0.014 A 
ATOM     38  C   UNL A   1      38.346  30.168  29.235  1.00  0.00     0.014 A 
ATOM     39  C   UNL A   1      40.378  29.632  31.074  1.00  0.00     0.010 A 
ATOM     40  C   UNL A   1      39.599  29.781  28.783  1.00  0.00     0.010 A 
ATOM     41  C   UNL A   1      40.630  29.516  29.697  1.00  0.00    -0.014 A 
BRANCH  41  42
ATOM     42  C   UNL A   1      41.964  29.121  29.182  1.00  0.00     0.031 A 
ATOM     43  C   UNL A   1      43.033  30.162  28.999  1.00  0.00     0.074 A 
ATOM     44  C   UNL A   1      42.178  27.849  28.792  1.00  0.00     0.049 A 
ATOM     45  N   UNL A   1      44.219  30.044  28.460  1.00  0.00    -0.248 NA
ATOM     46  C   UNL A   1      42.714  31.526  29.455  1.00  0.00     0.031 C 
ATOM     47  C   UNL A   1      41.198  26.765  28.873  1.00  0.00     0.029 A 
ATOM     48  N   UNL A   1      43.280  27.258  28.228  1.00  0.00    -0.354 N 
ATOM     49  C   UNL A   1      44.776  31.317  28.490  1.00  0.00     0.074 A 
ATOM     50  C   UNL A   1      43.780  32.202  29.052  1.00  0.00     0.031 C 
ATOM     51  C   UNL A   1      41.744  25.641  28.382  1.00  0.00     0.029 A 
ATOM     52  C   UNL A   1      43.094  25.934  27.910  1.00  0.00     0.049 A 
ATOM     53  H   UNL A   1      44.125  27.737  28.065  1.00  0.00     0.167 HD
ATOM     54  C   UNL A   1      46.013  31.706  28.100  1.00  0.00     0.037 A 
ATOM     55  C   UNL A   1      43.908  25.059  27.288  1.00  0.00     0.037 A 
ATOM     56  C   UNL A   1      47.001  30.809  27.562  1.00  0.00     0.049 A 
ATOM     57  C   UNL A   1      45.279  25.510  26.864  1.00  0.00     0.074 A 
ATOM     58  C   UNL A   1      48.309  31.086  27.205  1.00  0.00     0.029 A 
ATOM     59  N   UNL A   1      46.789  29.464  27.290  1.00  0.00    -0.354 N 
ATOM     60  N   UNL A   1      45.823  26.700  26.973  1.00  0.00    -0.248 NA
ATOM     61  C   UNL A   1      46.150  24.506  26.241  1.00  0.00     0.031 C 
ATOM     62  C   UNL A   1      48.868  29.924  26.662  1.00  0.00     0.029 A 
ATOM     63  C   UNL A   1      47.930  28.906  26.741  1.00  0.00     0.049 A 
ATOM     64  H   UNL A   1      45.950  28.980  27.463  1.00  0.00     0.167 HD
ATOM     65  C   UNL A   1      47.107  26.580  26.455  1.00  0.00     0.074 A 
ATOM     66  C   UNL A   1      47.262  25.201  26.041  1.00  0.00     0.031 C 
ATOM     67  C   UNL A   1      48.072  27.527  26.339  1.00  0.00     0.037 A 
BRANCH  54  68
ATOM     68  C   UNL A   1      46.360  33.165  28.232  1.00  0.00     0.058 A 
ATOM     69  C   UNL A   1      46.153  34.076  27.183  1.00  0.00     0.135 A 
ATOM     70  C   UNL A   1      46.891  33.664  29.433  1.00  0.00     0.135 A 
ATOM     71  F   UNL A   1      45.660  33.653  26.008  1.00  0.00    -0.206 F 
ATOM     72  C   UNL A   1      46.501  35.417  27.303  1.00  0.00     0.059 A 
ATOM     73  C   UNL A   1      47.214  35.008  29.587  1.00  0.00     0.059 A 
ATOM     74  F   UNL A   1      47.108  32.840  30.470  1.00  0.00    -0.206 F 
ATOM     75  C   UNL A   1      47.035  35.873  28.510  1.00  0.00     0.060 A 
BRANCH  75  76
ATOM     76  S   UNL A   1      47.495  37.613  28.644  1.00  0.00     0.124 S 
ATOM     77  O   UNL A   1      48.952  37.532  28.592  1.00  0.00    -0.237 OA
ATOM     78  O   UNL A   1      46.852  38.198  27.471  1.00  0.00    -0.237 OA
ATOM     79  O   UNL A   1      46.936  38.015  29.930  1.00  0.00    -0.744 OA
ENDBRANCH  75  76
ENDBRANCH  54  68
BRANCH  55  80
ATOM     80  C   UNL A   1      43.439  23.670  27.038  1.00  0.00     0.058 A 
ATOM     81  C   UNL A   1      43.382  22.724  28.072  1.00  0.00     0.135 A 
ATOM     82  C   UNL A   1      42.995  23.274  25.766  1.00  0.00     0.135 A 
ATOM     83  F   UNL A   1      43.800  23.052  29.304  1.00  0.00    -0.206 F 
ATOM     84  C   UNL A   1      42.908  21.434  27.855  1.00  0.00     0.059 A 
ATOM     85  C   UNL A   1      42.491  22.000  25.529  1.00  0.00     0.059 A 
ATOM     86  F   UNL A   1      43.010  24.147  24.746  1.00  0.00    -0.206 F 
ATOM     87  C   UNL A   1      42.457  21.084  26.581  1.00  0.00     0.060 A 
BRANCH  87  88
ATOM     88  S   UNL A   1      41.775  19.431  26.327  1.00  0.00     0.124 S 
ATOM     89  O   UNL A   1      42.204  18.746  27.541  1.00  0.00    -0.237 OA
ATOM     90  O   UNL A   1      40.346  19.705  26.217  1.00  0.00    -0.237 OA
ATOM     91  O   UNL A   1      42.417  18.990  25.092  1.00  0.00    -0.744 OA
ENDBRANCH  87  88
ENDBRANCH  55  80
BRANCH  67  92
ATOM     92  C   UNL A   1      49.401  27.108  25.772  1.00  0.00     0.058 A 
ATOM     93  C   UNL A   1      49.708  27.265  24.412  1.00  0.00     0.135 A 
ATOM     94  C   UNL A   1      50.410  26.627  26.622  1.00  0.00     0.135 A 
ATOM     95  F   UNL A   1      48.776  27.712  23.555  1.00  0.00    -0.206 F 
ATOM     96  C   UNL A   1      50.968  26.954  23.913  1.00  0.00     0.059 A 
ATOM     97  C   UNL A   1      51.686  26.337  26.150  1.00  0.00     0.059 A 
ATOM     98  F   UNL A   1      50.170  26.464  27.933  1.00  0.00    -0.206 F 
ATOM     99  C   UNL A   1      51.955  26.500  24.792  1.00  0.00     0.060 A 
BRANCH  99 100
ATOM    100  S   UNL A   1      53.605  26.165  24.142  1.00  0.00     0.124 S 
ATOM    101  O   UNL A   1      53.958  24.940  24.850  1.00  0.00    -0.237 OA
ATOM    102  O   UNL A   1      53.351  26.020  22.711  1.00  0.00    -0.237 OA
ATOM    103  O   UNL A   1      54.367  27.351  24.520  1.00  0.00    -0.744 OA
ENDBRANCH  99 100
ENDBRANCH  67  92
ENDBRANCH  41  42
ENDBRANCH  33  36
ENDBRANCH  31  32
ENDBRANCH  30  31
ENDBRANCH  29  30
ENDBRANCH   1  29
TORSDOF 21
ENDMDL
