MODEL 1
REMARK VINA RESULT:     -11.7      0.000      0.000
REMARK SMILES CCc1ccc2c(CC(=O)NCCCCCCNC(=O)c3ccc(-c4c5nc(c(-c6c(F)cc(S(=O)(=O)[O-])cc6F)c6ccc([nH]6)c(-c6c(F)cc(S(=O)(=O)[O-])cc6F)c6nc(c(-c7c(F)cc(S(=O)(=O)[O-])cc7F)c7ccc4[nH]7)C=C6)C=C5)cc3)c(C(=O)c3cc(C)ccn3)[nH]c2c1
REMARK SMILES IDX 14 1 13 2 12 3 11 4 9 5 10 6 8 8 7 9 3 10 4 11 99 12 5 13
REMARK SMILES IDX 98 14 6 15 97 16 87 17 2 19 1 20 88 21 89 22 90 23 91 24
REMARK SMILES IDX 96 25 92 26 95 27 93 28 94 29 15 30 16 31 17 32 18 33 19 34
REMARK SMILES IDX 20 36 21 37 22 38 86 39 23 40 85 41 24 42 25 43 26 44 79 45
REMARK SMILES IDX 27 46 84 47 78 48 80 49 28 50 83 51 77 52 76 53 29 55 63 56
REMARK SMILES IDX 42 57 62 58 43 59 46 60 61 61 81 62 44 63 45 64 60 66 82 67
REMARK SMILES IDX 47 68 30 69 31 70 40 71 32 72 33 73 39 74 41 75 34 76 35 77
REMARK SMILES IDX 36 78 37 79 38 80 64 81 65 82 74 83 66 84 67 85 73 86 75 87
REMARK SMILES IDX 68 88 69 89 70 90 71 91 72 92 48 93 49 94 58 95 50 96 51 97
REMARK SMILES IDX 57 98 59 99 52 100 53 101 54 102 55 103 56 104
REMARK H PARENT 11 7 97 18 18 35 80 54 46 65
REMARK Flexibility Score: inf
ROOT
ATOM      1  C   UNL A   1      38.502  22.303  26.046  1.00  0.00     0.002 C 
ENDROOT
BRANCH   1   2
ATOM      2  C   UNL A   1      37.693  21.564  24.972  1.00  0.00     0.021 C 
BRANCH   2   3
ATOM      3  C   UNL A   1      36.181  21.648  25.176  1.00  0.00     0.116 C 
BRANCH   3   4
ATOM      4  N   UNL A   1      35.577  22.642  24.315  1.00  0.00    -0.356 N 
ATOM      5  C   UNL A   1      34.716  23.654  24.622  1.00  0.00     0.224 C 
ATOM      6  O   UNL A   1      34.478  24.474  23.729  1.00  0.00    -0.275 OA
ATOM      7  H   UNL A   1      35.826  22.578  23.365  1.00  0.00     0.163 HD
BRANCH   5   8
ATOM      8  C   UNL A   1      34.193  23.851  26.041  1.00  0.00     0.138 C 
BRANCH   8   9
ATOM      9  C   UNL A   1      33.026  24.794  26.189  1.00  0.00    -0.002 A 
ATOM     10  C   UNL A   1      32.659  28.981  26.685  1.00  0.00    -0.046 A 
ATOM     11  C   UNL A   1      33.960  28.500  26.510  1.00  0.00     0.004 A 
ATOM     12  C   UNL A   1      31.576  28.085  26.687  1.00  0.00     0.030 A 
ATOM     13  C   UNL A   1      34.203  27.136  26.314  1.00  0.00     0.011 A 
ATOM     14  C   UNL A   1      31.843  26.721  26.496  1.00  0.00     0.046 A 
ATOM     15  C   UNL A   1      33.126  26.223  26.310  1.00  0.00     0.004 A 
ATOM     16  N   UNL A   1      30.989  25.645  26.464  1.00  0.00    -0.352 N 
ATOM     17  C   UNL A   1      31.667  24.473  26.191  1.00  0.00     0.093 A 
ATOM     18  H   UNL A   1      30.019  25.701  26.617  1.00  0.00     0.167 HD
BRANCH  10  19
ATOM     19  C   UNL A   1      32.428  30.459  26.889  1.00  0.00     0.032 C 
ATOM     20  C   UNL A   1      33.620  31.147  27.535  1.00  0.00     0.009 C 
ENDBRANCH  10  19
BRANCH  17  21
ATOM     21  C   UNL A   1      31.052  23.165  25.982  1.00  0.00     0.227 C 
ATOM     22  O   UNL A   1      30.149  22.726  26.688  1.00  0.00    -0.285 OA
BRANCH  21  23
ATOM     23  C   UNL A   1      31.571  22.272  24.910  1.00  0.00     0.113 A 
ATOM     24  C   UNL A   1      32.074  21.016  25.237  1.00  0.00     0.036 A 
ATOM     25  N   UNL A   1      31.466  22.736  23.639  1.00  0.00    -0.253 NA
ATOM     26  C   UNL A   1      32.504  20.184  24.202  1.00  0.00    -0.047 A 
ATOM     27  C   UNL A   1      31.865  21.903  22.657  1.00  0.00     0.112 A 
ATOM     28  C   UNL A   1      33.058  18.819  24.481  1.00  0.00     0.044 C 
ATOM     29  C   UNL A   1      32.386  20.639  22.886  1.00  0.00     0.023 A 
ENDBRANCH  21  23
ENDBRANCH  17  21
ENDBRANCH   8   9
ENDBRANCH   5   8
ENDBRANCH   3   4
ENDBRANCH   2   3
ENDBRANCH   1   2
BRANCH   1  30
ATOM     30  C   UNL A   1      39.898  21.730  26.316  1.00  0.00     0.002 C 
BRANCH  30  31
ATOM     31  C   UNL A   1      40.568  22.234  27.596  1.00  0.00     0.021 C 
BRANCH  31  32
ATOM     32  C   UNL A   1      41.825  23.064  27.365  1.00  0.00     0.116 C 
BRANCH  32  33
ATOM     33  N   UNL A   1      41.723  23.883  26.165  1.00  0.00    -0.352 N 
ATOM     34  C   UNL A   1      41.398  25.210  26.048  1.00  0.00     0.251 C 
ATOM     35  H   UNL A   1      41.914  23.418  25.319  1.00  0.00     0.163 HD
ATOM     36  O   UNL A   1      41.153  25.689  24.942  1.00  0.00    -0.269 OA
BRANCH  34  37
ATOM     37  C   UNL A   1      41.327  26.058  27.256  1.00  0.00     0.039 A 
ATOM     38  C   UNL A   1      42.354  26.970  27.507  1.00  0.00     0.014 A 
ATOM     39  C   UNL A   1      40.245  25.955  28.135  1.00  0.00     0.014 A 
ATOM     40  C   UNL A   1      42.265  27.823  28.610  1.00  0.00     0.010 A 
ATOM     41  C   UNL A   1      40.121  26.858  29.188  1.00  0.00     0.010 A 
ATOM     42  C   UNL A   1      41.130  27.800  29.439  1.00  0.00    -0.014 A 
BRANCH  42  43
ATOM     43  C   UNL A   1      40.978  28.753  30.567  1.00  0.00     0.031 A 
ATOM     44  C   UNL A   1      41.856  28.634  31.783  1.00  0.00     0.074 A 
ATOM     45  C   UNL A   1      40.005  29.686  30.524  1.00  0.00     0.049 A 
ATOM     46  N   UNL A   1      41.828  29.325  32.893  1.00  0.00    -0.248 NA
ATOM     47  C   UNL A   1      42.884  27.580  31.760  1.00  0.00     0.031 C 
ATOM     48  C   UNL A   1      39.059  29.870  29.420  1.00  0.00     0.029 A 
ATOM     49  N   UNL A   1      39.640  30.646  31.434  1.00  0.00    -0.354 N 
ATOM     50  C   UNL A   1      42.821  28.785  33.701  1.00  0.00     0.074 A 
ATOM     51  C   UNL A   1      43.396  27.672  32.978  1.00  0.00     0.031 C 
ATOM     52  C   UNL A   1      38.241  30.895  29.707  1.00  0.00     0.029 A 
ATOM     53  C   UNL A   1      38.571  31.413  31.032  1.00  0.00     0.049 A 
ATOM     54  H   UNL A   1      40.102  30.775  32.295  1.00  0.00     0.167 HD
ATOM     55  C   UNL A   1      43.233  29.195  34.925  1.00  0.00     0.037 A 
ATOM     56  C   UNL A   1      37.923  32.413  31.661  1.00  0.00     0.037 A 
ATOM     57  C   UNL A   1      42.668  30.319  35.629  1.00  0.00     0.049 A 
ATOM     58  C   UNL A   1      38.392  32.844  33.025  1.00  0.00     0.074 A 
ATOM     59  C   UNL A   1      43.052  30.849  36.849  1.00  0.00     0.029 A 
ATOM     60  N   UNL A   1      41.600  31.081  35.180  1.00  0.00    -0.354 N 
ATOM     61  N   UNL A   1      39.376  32.364  33.749  1.00  0.00    -0.248 NA
ATOM     62  C   UNL A   1      37.669  33.956  33.657  1.00  0.00     0.031 C 
ATOM     63  C   UNL A   1      42.180  31.897  37.162  1.00  0.00     0.029 A 
ATOM     64  C   UNL A   1      41.294  32.061  36.110  1.00  0.00     0.049 A 
ATOM     65  H   UNL A   1      41.128  30.945  34.327  1.00  0.00     0.167 HD
ATOM     66  C   UNL A   1      39.411  33.136  34.904  1.00  0.00     0.074 A 
ATOM     67  C   UNL A   1      38.355  34.119  34.781  1.00  0.00     0.031 C 
ATOM     68  C   UNL A   1      40.246  33.042  35.969  1.00  0.00     0.037 A 
BRANCH  55  69
ATOM     69  C   UNL A   1      44.349  28.428  35.584  1.00  0.00     0.058 A 
ATOM     70  C   UNL A   1      45.697  28.756  35.372  1.00  0.00     0.135 A 
ATOM     71  C   UNL A   1      44.065  27.374  36.468  1.00  0.00     0.135 A 
ATOM     72  F   UNL A   1      46.028  29.744  34.525  1.00  0.00    -0.206 F 
ATOM     73  C   UNL A   1      46.725  28.048  35.986  1.00  0.00     0.059 A 
ATOM     74  C   UNL A   1      45.076  26.673  37.119  1.00  0.00     0.059 A 
ATOM     75  F   UNL A   1      42.793  27.017  36.708  1.00  0.00    -0.206 F 
ATOM     76  C   UNL A   1      46.404  27.007  36.859  1.00  0.00     0.060 A 
BRANCH  76  77
ATOM     77  S   UNL A   1      47.749  26.101  37.650  1.00  0.00     0.124 S 
ATOM     78  O   UNL A   1      48.706  25.985  36.554  1.00  0.00    -0.237 OA
ATOM     79  O   UNL A   1      48.134  26.998  38.734  1.00  0.00    -0.237 OA
ATOM     80  O   UNL A   1      47.119  24.852  38.067  1.00  0.00    -0.744 OA
ENDBRANCH  76  77
ENDBRANCH  55  69
BRANCH  56  81
ATOM     81  C   UNL A   1      36.774  33.087  30.997  1.00  0.00     0.058 A 
ATOM     82  C   UNL A   1      35.455  32.837  31.406  1.00  0.00     0.135 A 
ATOM     83  C   UNL A   1      36.971  34.004  29.953  1.00  0.00     0.135 A 
ATOM     84  F   UNL A   1      35.215  31.964  32.397  1.00  0.00    -0.206 F 
ATOM     85  C   UNL A   1      34.372  33.456  30.794  1.00  0.00     0.059 A 
ATOM     86  C   UNL A   1      35.905  34.657  29.343  1.00  0.00     0.059 A 
ATOM     87  F   UNL A   1      38.213  34.291  29.535  1.00  0.00    -0.206 F 
ATOM     88  C   UNL A   1      34.608  34.369  29.764  1.00  0.00     0.060 A 
BRANCH  88  89
ATOM     89  S   UNL A   1      33.196  35.202  29.005  1.00  0.00     0.124 S 
ATOM     90  O   UNL A   1      32.727  34.189  28.068  1.00  0.00    -0.237 OA
ATOM     91  O   UNL A   1      32.337  35.455  30.157  1.00  0.00    -0.237 OA
ATOM     92  O   UNL A   1      33.792  36.391  28.404  1.00  0.00    -0.744 OA
ENDBRANCH  88  89
ENDBRANCH  56  81
BRANCH  68  93
ATOM     93  C   UNL A   1      40.088  34.054  37.070  1.00  0.00     0.058 A 
ATOM     94  C   UNL A   1      39.269  33.816  38.185  1.00  0.00     0.135 A 
ATOM     95  C   UNL A   1      40.826  35.250  37.043  1.00  0.00     0.135 A 
ATOM     96  F   UNL A   1      38.537  32.693  38.259  1.00  0.00    -0.206 F 
ATOM     97  C   UNL A   1      39.173  34.736  39.225  1.00  0.00     0.059 A 
ATOM     98  C   UNL A   1      40.768  36.169  38.085  1.00  0.00     0.059 A 
ATOM     99  F   UNL A   1      41.632  35.522  36.005  1.00  0.00    -0.206 F 
ATOM    100  C   UNL A   1      39.932  35.906  39.168  1.00  0.00     0.060 A 
BRANCH 100 101
ATOM    101  S   UNL A   1      39.835  37.066  40.549  1.00  0.00     0.124 S 
ATOM    102  O   UNL A   1      38.394  37.260  40.672  1.00  0.00    -0.237 OA
ATOM    103  O   UNL A   1      40.469  36.318  41.629  1.00  0.00    -0.237 OA
ATOM    104  O   UNL A   1      40.585  38.226  40.073  1.00  0.00    -0.744 OA
ENDBRANCH 100 101
ENDBRANCH  68  93
ENDBRANCH  42  43
ENDBRANCH  34  37
ENDBRANCH  32  33
ENDBRANCH  31  32
ENDBRANCH  30  31
ENDBRANCH   1  30
TORSDOF 20
ENDMDL
MODEL 2
REMARK VINA RESULT:     -11.7      6.265     11.410
REMARK SMILES CCc1ccc2c(CC(=O)NCCCCCCNC(=O)c3ccc(-c4c5nc(c(-c6c(F)cc(S(=O)(=O)[O-])cc6F)c6ccc([nH]6)c(-c6c(F)cc(S(=O)(=O)[O-])cc6F)c6nc(c(-c7c(F)cc(S(=O)(=O)[O-])cc7F)c7ccc4[nH]7)C=C6)C=C5)cc3)c(C(=O)c3cc(C)ccn3)[nH]c2c1
REMARK SMILES IDX 14 1 13 2 12 3 11 4 9 5 10 6 8 8 7 9 3 10 4 11 99 12 5 13
REMARK SMILES IDX 98 14 6 15 97 16 87 17 2 19 1 20 88 21 89 22 90 23 91 24
REMARK SMILES IDX 96 25 92 26 95 27 93 28 94 29 15 30 16 31 17 32 18 33 19 34
REMARK SMILES IDX 20 36 21 37 22 38 86 39 23 40 85 41 24 42 25 43 26 44 79 45
REMARK SMILES IDX 27 46 84 47 78 48 80 49 28 50 83 51 77 52 76 53 29 55 63 56
REMARK SMILES IDX 42 57 62 58 43 59 46 60 61 61 81 62 44 63 45 64 60 66 82 67
REMARK SMILES IDX 47 68 30 69 31 70 40 71 32 72 33 73 39 74 41 75 34 76 35 77
REMARK SMILES IDX 36 78 37 79 38 80 64 81 65 82 74 83 66 84 67 85 73 86 75 87
REMARK SMILES IDX 68 88 69 89 70 90 71 91 72 92 48 93 49 94 58 95 50 96 51 97
REMARK SMILES IDX 57 98 59 99 52 100 53 101 54 102 55 103 56 104
REMARK H PARENT 11 7 97 18 18 35 80 54 46 65
REMARK Flexibility Score: inf
ROOT
ATOM      1  C   UNL A   1      33.173  28.242  27.008  1.00  0.00     0.002 C 
ENDROOT
BRANCH   1   2
ATOM      2  C   UNL A   1      32.590  27.266  25.978  1.00  0.00     0.021 C 
BRANCH   2   3
ATOM      3  C   UNL A   1      33.644  26.613  25.085  1.00  0.00     0.116 C 
BRANCH   3   4
ATOM      4  N   UNL A   1      34.394  25.598  25.791  1.00  0.00    -0.356 N 
ATOM      5  C   UNL A   1      35.061  24.511  25.307  1.00  0.00     0.224 C 
ATOM      6  O   UNL A   1      35.769  23.890  26.107  1.00  0.00    -0.275 OA
ATOM      7  H   UNL A   1      34.429  25.709  26.768  1.00  0.00     0.163 HD
BRANCH   5   8
ATOM      8  C   UNL A   1      35.055  24.170  23.821  1.00  0.00     0.138 C 
BRANCH   8   9
ATOM      9  C   UNL A   1      33.939  23.271  23.355  1.00  0.00    -0.002 A 
ATOM     10  C   UNL A   1      32.900  19.235  24.090  1.00  0.00    -0.046 A 
ATOM     11  C   UNL A   1      34.005  19.718  24.798  1.00  0.00     0.004 A 
ATOM     12  C   UNL A   1      32.213  20.081  23.203  1.00  0.00     0.030 A 
ATOM     13  C   UNL A   1      34.429  21.044  24.654  1.00  0.00     0.011 A 
ATOM     14  C   UNL A   1      32.659  21.404  23.067  1.00  0.00     0.046 A 
ATOM     15  C   UNL A   1      33.747  21.907  23.769  1.00  0.00     0.004 A 
ATOM     16  N   UNL A   1      32.188  22.424  22.277  1.00  0.00    -0.352 N 
ATOM     17  C   UNL A   1      32.888  23.594  22.495  1.00  0.00     0.093 A 
ATOM     18  H   UNL A   1      31.446  22.333  21.637  1.00  0.00     0.167 HD
BRANCH  10  19
ATOM     19  C   UNL A   1      32.463  17.801  24.271  1.00  0.00     0.032 C 
ATOM     20  C   UNL A   1      32.553  17.348  25.720  1.00  0.00     0.009 C 
ENDBRANCH  10  19
BRANCH  17  21
ATOM     21  C   UNL A   1      32.580  24.892  21.900  1.00  0.00     0.227 C 
ATOM     22  O   UNL A   1      33.188  25.353  20.939  1.00  0.00    -0.285 OA
BRANCH  21  23
ATOM     23  C   UNL A   1      31.526  25.748  22.510  1.00  0.00     0.113 A 
ATOM     24  C   UNL A   1      31.436  27.092  22.160  1.00  0.00     0.036 A 
ATOM     25  N   UNL A   1      30.662  25.127  23.353  1.00  0.00    -0.253 NA
ATOM     26  C   UNL A   1      30.404  27.853  22.712  1.00  0.00    -0.047 A 
ATOM     27  C   UNL A   1      29.660  25.879  23.852  1.00  0.00     0.112 A 
ATOM     28  C   UNL A   1      30.247  29.307  22.381  1.00  0.00     0.044 C 
ATOM     29  C   UNL A   1      29.494  27.225  23.568  1.00  0.00     0.023 A 
ENDBRANCH  21  23
ENDBRANCH  17  21
ENDBRANCH   8   9
ENDBRANCH   5   8
ENDBRANCH   3   4
ENDBRANCH   2   3
ENDBRANCH   1   2
BRANCH   1  30
ATOM     30  C   UNL A   1      33.700  29.560  26.428  1.00  0.00     0.002 C 
BRANCH  30  31
ATOM     31  C   UNL A   1      34.339  30.505  27.447  1.00  0.00     0.021 C 
BRANCH  31  32
ATOM     32  C   UNL A   1      35.552  29.928  28.167  1.00  0.00     0.116 C 
BRANCH  32  33
ATOM     33  N   UNL A   1      35.479  30.135  29.607  1.00  0.00    -0.352 N 
ATOM     34  C   UNL A   1      36.467  30.011  30.551  1.00  0.00     0.251 C 
ATOM     35  H   UNL A   1      34.597  30.401  29.952  1.00  0.00     0.163 HD
ATOM     36  O   UNL A   1      36.181  30.019  31.747  1.00  0.00    -0.269 OA
BRANCH  34  37
ATOM     37  C   UNL A   1      37.873  29.853  30.125  1.00  0.00     0.039 A 
ATOM     38  C   UNL A   1      38.812  29.379  31.043  1.00  0.00     0.014 A 
ATOM     39  C   UNL A   1      38.260  30.166  28.818  1.00  0.00     0.014 A 
ATOM     40  C   UNL A   1      40.130  29.161  30.633  1.00  0.00     0.010 A 
ATOM     41  C   UNL A   1      39.554  29.876  28.392  1.00  0.00     0.010 A 
ATOM     42  C   UNL A   1      40.503  29.373  29.294  1.00  0.00    -0.014 A 
BRANCH  42  43
ATOM     43  C   UNL A   1      41.877  29.070  28.819  1.00  0.00     0.031 A 
ATOM     44  C   UNL A   1      42.224  27.688  28.335  1.00  0.00     0.074 A 
ATOM     45  C   UNL A   1      42.829  30.023  28.885  1.00  0.00     0.049 A 
ATOM     46  N   UNL A   1      43.380  27.214  27.949  1.00  0.00    -0.248 NA
ATOM     47  C   UNL A   1      41.133  26.700  28.309  1.00  0.00     0.031 C 
ATOM     48  C   UNL A   1      42.627  31.387  29.380  1.00  0.00     0.029 A 
ATOM     49  N   UNL A   1      44.159  29.989  28.546  1.00  0.00    -0.354 N 
ATOM     50  C   UNL A   1      43.160  25.876  27.645  1.00  0.00     0.074 A 
ATOM     51  C   UNL A   1      41.773  25.598  27.947  1.00  0.00     0.031 C 
ATOM     52  C   UNL A   1      43.783  32.064  29.289  1.00  0.00     0.029 A 
ATOM     53  C   UNL A   1      44.819  31.174  28.774  1.00  0.00     0.049 A 
ATOM     54  H   UNL A   1      44.599  29.190  28.174  1.00  0.00     0.167 HD
ATOM     55  C   UNL A   1      44.028  24.969  27.138  1.00  0.00     0.037 A 
ATOM     56  C   UNL A   1      46.113  31.505  28.597  1.00  0.00     0.037 A 
ATOM     57  C   UNL A   1      45.403  25.262  26.821  1.00  0.00     0.049 A 
ATOM     58  C   UNL A   1      47.062  30.477  28.042  1.00  0.00     0.074 A 
ATOM     59  C   UNL A   1      46.349  24.427  26.252  1.00  0.00     0.029 A 
ATOM     60  N   UNL A   1      46.028  26.478  27.048  1.00  0.00    -0.354 N 
ATOM     61  N   UNL A   1      46.821  29.233  27.700  1.00  0.00    -0.248 NA
ATOM     62  C   UNL A   1      48.456  30.895  27.844  1.00  0.00     0.031 C 
ATOM     63  C   UNL A   1      47.561  25.123  26.186  1.00  0.00     0.029 A 
ATOM     64  C   UNL A   1      47.355  26.409  26.655  1.00  0.00     0.049 A 
ATOM     65  H   UNL A   1      45.594  27.274  27.433  1.00  0.00     0.167 HD
ATOM     66  C   UNL A   1      48.024  28.732  27.214  1.00  0.00     0.074 A 
ATOM     67  C   UNL A   1      48.989  29.809  27.301  1.00  0.00     0.031 C 
ATOM     68  C   UNL A   1      48.303  27.495  26.736  1.00  0.00     0.037 A 
BRANCH  55  69
ATOM     69  C   UNL A   1      43.520  23.573  26.892  1.00  0.00     0.058 A 
ATOM     70  C   UNL A   1      43.250  23.101  25.598  1.00  0.00     0.135 A 
ATOM     71  C   UNL A   1      43.337  22.682  27.962  1.00  0.00     0.135 A 
ATOM     72  F   UNL A   1      43.394  23.914  24.538  1.00  0.00    -0.206 F 
ATOM     73  C   UNL A   1      42.786  21.809  25.375  1.00  0.00     0.059 A 
ATOM     74  C   UNL A   1      42.905  21.374  27.760  1.00  0.00     0.059 A 
ATOM     75  F   UNL A   1      43.580  23.078  29.222  1.00  0.00    -0.206 F 
ATOM     76  C   UNL A   1      42.617  20.952  26.463  1.00  0.00     0.060 A 
BRANCH  76  77
ATOM     77  S   UNL A   1      42.017  19.278  26.156  1.00  0.00     0.124 S 
ATOM     78  O   UNL A   1      40.592  19.513  25.949  1.00  0.00    -0.237 OA
ATOM     79  O   UNL A   1      42.773  18.889  24.970  1.00  0.00    -0.237 OA
ATOM     80  O   UNL A   1      42.363  18.562  27.380  1.00  0.00    -0.744 OA
ENDBRANCH  76  77
ENDBRANCH  55  69
BRANCH  56  81
ATOM     81  C   UNL A   1      46.580  32.878  28.930  1.00  0.00     0.058 A 
ATOM     82  C   UNL A   1      47.048  33.190  30.216  1.00  0.00     0.135 A 
ATOM     83  C   UNL A   1      46.583  33.901  27.969  1.00  0.00     0.135 A 
ATOM     84  F   UNL A   1      47.059  32.248  31.172  1.00  0.00    -0.206 F 
ATOM     85  C   UNL A   1      47.485  34.469  30.544  1.00  0.00     0.059 A 
ATOM     86  C   UNL A   1      47.042  35.181  28.265  1.00  0.00     0.059 A 
ATOM     87  F   UNL A   1      46.162  33.652  26.720  1.00  0.00    -0.206 F 
ATOM     88  C   UNL A   1      47.481  35.458  29.559  1.00  0.00     0.060 A 
BRANCH  88  89
ATOM     89  S   UNL A   1      48.093  37.103  29.981  1.00  0.00     0.124 S 
ATOM     90  O   UNL A   1      49.499  36.998  29.609  1.00  0.00    -0.237 OA
ATOM     91  O   UNL A   1      47.269  37.961  29.136  1.00  0.00    -0.237 OA
ATOM     92  O   UNL A   1      47.825  37.203  31.414  1.00  0.00    -0.744 OA
ENDBRANCH  88  89
ENDBRANCH  56  81
BRANCH  68  93
ATOM     93  C   UNL A   1      49.694  27.241  26.223  1.00  0.00     0.058 A 
ATOM     94  C   UNL A   1      50.742  26.863  27.076  1.00  0.00     0.135 A 
ATOM     95  C   UNL A   1      49.962  27.309  24.845  1.00  0.00     0.135 A 
ATOM     96  F   UNL A   1      50.542  26.789  28.402  1.00  0.00    -0.206 F 
ATOM     97  C   UNL A   1      52.012  26.577  26.584  1.00  0.00     0.059 A 
ATOM     98  C   UNL A   1      51.216  26.999  24.328  1.00  0.00     0.059 A 
ATOM     99  F   UNL A   1      48.993  27.656  23.984  1.00  0.00    -0.206 F 
ATOM    100  C   UNL A   1      52.237  26.643  25.208  1.00  0.00     0.060 A 
BRANCH 100 101
ATOM    101  S   UNL A   1      53.876  26.221  24.579  1.00  0.00     0.124 S 
ATOM    102  O   UNL A   1      53.901  26.944  23.312  1.00  0.00    -0.237 OA
ATOM    103  O   UNL A   1      54.752  26.740  25.624  1.00  0.00    -0.237 OA
ATOM    104  O   UNL A   1      53.835  24.765  24.469  1.00  0.00    -0.744 OA
ENDBRANCH 100 101
ENDBRANCH  68  93
ENDBRANCH  42  43
ENDBRANCH  34  37
ENDBRANCH  32  33
ENDBRANCH  31  32
ENDBRANCH  30  31
ENDBRANCH   1  30
TORSDOF 20
ENDMDL
MODEL 3
REMARK VINA RESULT:     -11.6      6.126      8.747
REMARK SMILES CCc1ccc2c(CC(=O)NCCCCCCNC(=O)c3ccc(-c4c5nc(c(-c6c(F)cc(S(=O)(=O)[O-])cc6F)c6ccc([nH]6)c(-c6c(F)cc(S(=O)(=O)[O-])cc6F)c6nc(c(-c7c(F)cc(S(=O)(=O)[O-])cc7F)c7ccc4[nH]7)C=C6)C=C5)cc3)c(C(=O)c3cc(C)ccn3)[nH]c2c1
REMARK SMILES IDX 14 1 13 2 12 3 11 4 9 5 10 6 8 8 7 9 3 10 4 11 99 12 5 13
REMARK SMILES IDX 98 14 6 15 97 16 87 17 2 19 1 20 88 21 89 22 90 23 91 24
REMARK SMILES IDX 96 25 92 26 95 27 93 28 94 29 15 30 16 31 17 32 18 33 19 34
REMARK SMILES IDX 20 36 21 37 22 38 86 39 23 40 85 41 24 42 25 43 26 44 79 45
REMARK SMILES IDX 27 46 84 47 78 48 80 49 28 50 83 51 77 52 76 53 29 55 63 56
REMARK SMILES IDX 42 57 62 58 43 59 46 60 61 61 81 62 44 63 45 64 60 66 82 67
REMARK SMILES IDX 47 68 30 69 31 70 40 71 32 72 33 73 39 74 41 75 34 76 35 77
REMARK SMILES IDX 36 78 37 79 38 80 64 81 65 82 74 83 66 84 67 85 73 86 75 87
REMARK SMILES IDX 68 88 69 89 70 90 71 91 72 92 48 93 49 94 58 95 50 96 51 97
REMARK SMILES IDX 57 98 59 99 52 100 53 101 54 102 55 103 56 104
REMARK H PARENT 11 7 97 18 18 35 80 54 46 65
REMARK Flexibility Score: inf
ROOT
ATOM      1  C   UNL A   1      39.241  22.182  26.375  1.00  0.00     0.002 C 
ENDROOT
BRANCH   1   2
ATOM      2  C   UNL A   1      38.585  23.569  26.382  1.00  0.00     0.021 C 
BRANCH   2   3
ATOM      3  C   UNL A   1      37.430  23.708  25.392  1.00  0.00     0.116 C 
BRANCH   3   4
ATOM      4  N   UNL A   1      36.196  24.074  26.052  1.00  0.00    -0.356 N 
ATOM      5  C   UNL A   1      35.008  24.478  25.518  1.00  0.00     0.224 C 
ATOM      6  O   UNL A   1      34.050  24.569  26.293  1.00  0.00    -0.275 OA
ATOM      7  H   UNL A   1      36.217  24.023  27.035  1.00  0.00     0.163 HD
BRANCH   5   8
ATOM      8  C   UNL A   1      34.832  24.660  24.014  1.00  0.00     0.138 C 
BRANCH   8   9
ATOM      9  C   UNL A   1      33.834  23.745  23.352  1.00  0.00    -0.002 A 
ATOM     10  C   UNL A   1      32.776  19.677  23.849  1.00  0.00    -0.046 A 
ATOM     11  C   UNL A   1      33.731  20.172  24.742  1.00  0.00     0.004 A 
ATOM     12  C   UNL A   1      32.233  20.523  22.866  1.00  0.00     0.030 A 
ATOM     13  C   UNL A   1      34.143  21.508  24.689  1.00  0.00     0.011 A 
ATOM     14  C   UNL A   1      32.665  21.857  22.825  1.00  0.00     0.046 A 
ATOM     15  C   UNL A   1      33.605  22.371  23.710  1.00  0.00     0.004 A 
ATOM     16  N   UNL A   1      32.314  22.879  21.978  1.00  0.00    -0.352 N 
ATOM     17  C   UNL A   1      32.939  24.060  22.327  1.00  0.00     0.093 A 
ATOM     18  H   UNL A   1      31.696  22.783  21.218  1.00  0.00     0.167 HD
BRANCH  10  19
ATOM     19  C   UNL A   1      32.348  18.232  23.934  1.00  0.00     0.032 C 
ATOM     20  C   UNL A   1      33.271  17.308  23.155  1.00  0.00     0.009 C 
ENDBRANCH  10  19
BRANCH  17  21
ATOM     21  C   UNL A   1      32.708  25.360  21.703  1.00  0.00     0.227 C 
ATOM     22  O   UNL A   1      33.293  25.734  20.691  1.00  0.00    -0.285 OA
BRANCH  21  23
ATOM     23  C   UNL A   1      31.773  26.326  22.342  1.00  0.00     0.113 A 
ATOM     24  C   UNL A   1      30.588  25.870  22.912  1.00  0.00     0.036 A 
ATOM     25  N   UNL A   1      32.177  27.621  22.375  1.00  0.00    -0.253 NA
ATOM     26  C   UNL A   1      29.759  26.796  23.549  1.00  0.00    -0.047 A 
ATOM     27  C   UNL A   1      31.371  28.490  23.017  1.00  0.00     0.112 A 
ATOM     28  C   UNL A   1      28.468  26.376  24.184  1.00  0.00     0.044 C 
ATOM     29  C   UNL A   1      30.169  28.131  23.607  1.00  0.00     0.023 A 
ENDBRANCH  21  23
ENDBRANCH  17  21
ENDBRANCH   8   9
ENDBRANCH   5   8
ENDBRANCH   3   4
ENDBRANCH   2   3
ENDBRANCH   1   2
BRANCH   1  30
ATOM     30  C   UNL A   1      38.571  21.151  25.460  1.00  0.00     0.002 C 
BRANCH  30  31
ATOM     31  C   UNL A   1      39.286  19.802  25.374  1.00  0.00     0.021 C 
BRANCH  31  32
ATOM     32  C   UNL A   1      40.187  19.489  26.564  1.00  0.00     0.116 C 
BRANCH  32  33
ATOM     33  N   UNL A   1      41.400  18.793  26.160  1.00  0.00    -0.352 N 
ATOM     34  C   UNL A   1      42.623  19.312  25.817  1.00  0.00     0.251 C 
ATOM     35  H   UNL A   1      41.333  17.812  26.127  1.00  0.00     0.163 HD
ATOM     36  O   UNL A   1      43.474  18.592  25.299  1.00  0.00    -0.269 OA
BRANCH  34  37
ATOM     37  C   UNL A   1      42.907  20.742  26.059  1.00  0.00     0.039 A 
ATOM     38  C   UNL A   1      42.881  21.227  27.368  1.00  0.00     0.014 A 
ATOM     39  C   UNL A   1      43.205  21.598  24.995  1.00  0.00     0.014 A 
ATOM     40  C   UNL A   1      43.214  22.561  27.616  1.00  0.00     0.010 A 
ATOM     41  C   UNL A   1      43.611  22.905  25.252  1.00  0.00     0.010 A 
ATOM     42  C   UNL A   1      43.617  23.402  26.564  1.00  0.00    -0.014 A 
BRANCH  42  43
ATOM     43  C   UNL A   1      44.053  24.799  26.816  1.00  0.00     0.031 A 
ATOM     44  C   UNL A   1      45.501  25.179  26.666  1.00  0.00     0.074 A 
ATOM     45  C   UNL A   1      43.155  25.709  27.244  1.00  0.00     0.049 A 
ATOM     46  N   UNL A   1      46.084  26.325  26.907  1.00  0.00    -0.248 NA
ATOM     47  C   UNL A   1      46.421  24.124  26.210  1.00  0.00     0.031 C 
ATOM     48  C   UNL A   1      41.731  25.449  27.474  1.00  0.00     0.029 A 
ATOM     49  N   UNL A   1      43.306  27.033  27.574  1.00  0.00    -0.354 N 
ATOM     50  C   UNL A   1      47.434  26.127  26.645  1.00  0.00     0.074 A 
ATOM     51  C   UNL A   1      47.594  24.737  26.282  1.00  0.00     0.031 C 
ATOM     52  C   UNL A   1      41.138  26.582  27.882  1.00  0.00     0.029 A 
ATOM     53  C   UNL A   1      42.142  27.637  27.988  1.00  0.00     0.049 A 
ATOM     54  H   UNL A   1      44.168  27.507  27.518  1.00  0.00     0.167 HD
ATOM     55  C   UNL A   1      48.444  27.029  26.681  1.00  0.00     0.037 A 
ATOM     56  C   UNL A   1      41.908  28.894  28.413  1.00  0.00     0.037 A 
ATOM     57  C   UNL A   1      48.271  28.418  27.024  1.00  0.00     0.049 A 
ATOM     58  C   UNL A   1      43.049  29.876  28.455  1.00  0.00     0.074 A 
ATOM     59  C   UNL A   1      49.221  29.424  27.036  1.00  0.00     0.029 A 
ATOM     60  N   UNL A   1      47.073  28.994  27.419  1.00  0.00    -0.354 N 
ATOM     61  N   UNL A   1      44.310  29.688  28.141  1.00  0.00    -0.248 NA
ATOM     62  C   UNL A   1      42.738  31.240  28.902  1.00  0.00     0.031 C 
ATOM     63  C   UNL A   1      48.609  30.597  27.491  1.00  0.00     0.029 A 
ATOM     64  C   UNL A   1      47.265  30.337  27.702  1.00  0.00     0.049 A 
ATOM     65  H   UNL A   1      46.213  28.520  27.489  1.00  0.00     0.167 HD
ATOM     66  C   UNL A   1      44.933  30.918  28.320  1.00  0.00     0.074 A 
ATOM     67  C   UNL A   1      43.911  31.843  28.762  1.00  0.00     0.031 C 
ATOM     68  C   UNL A   1      46.234  31.251  28.131  1.00  0.00     0.037 A 
BRANCH  55  69
ATOM     69  C   UNL A   1      49.829  26.545  26.340  1.00  0.00     0.058 A 
ATOM     70  C   UNL A   1      50.687  26.013  27.315  1.00  0.00     0.135 A 
ATOM     71  C   UNL A   1      50.290  26.579  25.014  1.00  0.00     0.135 A 
ATOM     72  F   UNL A   1      50.305  25.968  28.601  1.00  0.00    -0.206 F 
ATOM     73  C   UNL A   1      51.963  25.562  26.994  1.00  0.00     0.059 A 
ATOM     74  C   UNL A   1      51.551  26.104  24.665  1.00  0.00     0.059 A 
ATOM     75  F   UNL A   1      49.512  27.078  24.039  1.00  0.00    -0.206 F 
ATOM     76  C   UNL A   1      52.387  25.611  25.666  1.00  0.00     0.060 A 
BRANCH  76  77
ATOM     77  S   UNL A   1      54.044  25.019  25.267  1.00  0.00     0.124 S 
ATOM     78  O   UNL A   1      53.783  23.619  24.948  1.00  0.00    -0.237 OA
ATOM     79  O   UNL A   1      54.414  25.866  24.138  1.00  0.00    -0.237 OA
ATOM     80  O   UNL A   1      54.795  25.252  26.497  1.00  0.00    -0.744 OA
ENDBRANCH  76  77
ENDBRANCH  55  69
BRANCH  56  81
ATOM     81  C   UNL A   1      40.534  29.299  28.815  1.00  0.00     0.058 A 
ATOM     82  C   UNL A   1      39.539  29.533  27.854  1.00  0.00     0.135 A 
ATOM     83  C   UNL A   1      40.183  29.448  30.166  1.00  0.00     0.135 A 
ATOM     84  F   UNL A   1      39.826  29.409  26.549  1.00  0.00    -0.206 F 
ATOM     85  C   UNL A   1      38.251  29.915  28.213  1.00  0.00     0.059 A 
ATOM     86  C   UNL A   1      38.895  29.803  30.553  1.00  0.00     0.059 A 
ATOM     87  F   UNL A   1      41.093  29.221  31.126  1.00  0.00    -0.206 F 
ATOM     88  C   UNL A   1      37.938  30.044  29.568  1.00  0.00     0.060 A 
BRANCH  88  89
ATOM     89  S   UNL A   1      36.251  30.497  30.026  1.00  0.00     0.124 S 
ATOM     90  O   UNL A   1      36.121  29.862  31.332  1.00  0.00    -0.237 OA
ATOM     91  O   UNL A   1      36.317  31.955  30.028  1.00  0.00    -0.237 OA
ATOM     92  O   UNL A   1      35.445  29.915  28.958  1.00  0.00    -0.744 OA
ENDBRANCH  88  89
ENDBRANCH  56  81
BRANCH  68  93
ATOM     93  C   UNL A   1      46.627  32.685  28.354  1.00  0.00     0.058 A 
ATOM     94  C   UNL A   1      47.157  33.129  29.576  1.00  0.00     0.135 A 
ATOM     95  C   UNL A   1      46.537  33.615  27.303  1.00  0.00     0.135 A 
ATOM     96  F   UNL A   1      47.258  32.284  30.614  1.00  0.00    -0.206 F 
ATOM     97  C   UNL A   1      47.568  34.446  29.753  1.00  0.00     0.059 A 
ATOM     98  C   UNL A   1      46.969  34.928  27.450  1.00  0.00     0.059 A 
ATOM     99  F   UNL A   1      46.047  33.241  26.111  1.00  0.00    -0.206 F 
ATOM    100  C   UNL A   1      47.476  35.337  28.682  1.00  0.00     0.060 A 
BRANCH 100 101
ATOM    101  S   UNL A   1      48.060  37.029  28.913  1.00  0.00     0.124 S 
ATOM    102  O   UNL A   1      46.809  37.780  28.878  1.00  0.00    -0.237 OA
ATOM    103  O   UNL A   1      48.720  36.956  30.212  1.00  0.00    -0.237 OA
ATOM    104  O   UNL A   1      48.950  37.241  27.774  1.00  0.00    -0.744 OA
ENDBRANCH 100 101
ENDBRANCH  68  93
ENDBRANCH  42  43
ENDBRANCH  34  37
ENDBRANCH  32  33
ENDBRANCH  31  32
ENDBRANCH  30  31
ENDBRANCH   1  30
TORSDOF 20
ENDMDL
