MODEL 1
REMARK VINA RESULT:     -12.2      0.000      0.000
REMARK SMILES CC(=O)c1c[nH]c(C(=O)N[C@H]2C=C[C@H](C(=O)NCCCCCCNC(=O)c3ccc(-c4c5nc(c(-c6c(F)cc(S(=O)(=O)[O-])cc6F)c6ccc([nH]6)c(-c6c(F)cc(S(=O)(=O)[O-])cc6F)c6nc(c(-c7c(F)cc(S(=O)(=O)[O-])cc7F)c7ccc4[nH]7)C=C6)C=C5)cc3)C2)c1
REMARK SMILES IDX 20 1 19 2 18 3 17 4 15 5 16 6 14 8 11 9 12 10 93 11 13 12
REMARK SMILES IDX 10 13 8 14 9 15 7 17 4 18 5 19 94 20 6 21 2 23 1 24 3 25
REMARK SMILES IDX 21 26 22 27 23 28 24 29 25 30 26 32 27 33 28 34 92 35 29 36
REMARK SMILES IDX 91 37 30 38 31 39 32 40 85 41 33 42 90 43 84 44 86 45 34 46
REMARK SMILES IDX 89 47 83 48 82 49 35 51 69 52 48 53 68 54 49 55 52 56 67 57
REMARK SMILES IDX 87 58 50 59 51 60 66 62 88 63 53 64 36 65 37 66 46 67 38 68
REMARK SMILES IDX 39 69 45 70 47 71 40 72 41 73 42 74 43 75 44 76 70 77 71 78
REMARK SMILES IDX 80 79 72 80 73 81 79 82 81 83 74 84 75 85 76 86 77 87 78 88
REMARK SMILES IDX 54 89 55 90 64 91 56 92 57 93 63 94 65 95 58 96 59 97 60 98
REMARK SMILES IDX 61 99 62 100
REMARK H PARENT 17 7 10 16 6 22 24 31 86 50 52 61
REMARK Flexibility Score: inf
ROOT
ATOM      1  C   UNL A   1      31.473  29.254  24.412  1.00  0.00     0.002 C 
ENDROOT
BRANCH   1   2
ATOM      2  C   UNL A   1      31.681  28.858  22.946  1.00  0.00     0.021 C 
BRANCH   2   3
ATOM      3  C   UNL A   1      33.055  28.256  22.657  1.00  0.00     0.116 C 
BRANCH   3   4
ATOM      4  N   UNL A   1      32.924  26.998  21.952  1.00  0.00    -0.356 N 
ATOM      5  C   UNL A   1      32.509  25.786  22.417  1.00  0.00     0.227 C 
ATOM      6  O   UNL A   1      32.628  24.809  21.675  1.00  0.00    -0.274 OA
ATOM      7  H   UNL A   1      33.169  27.022  20.998  1.00  0.00     0.163 HD
BRANCH   5   8
ATOM      8  C   UNL A   1      31.843  25.694  23.791  1.00  0.00     0.103 C 
ATOM      9  C   UNL A   1      32.820  23.800  24.969  1.00  0.00     0.106 C 
ATOM     10  C   UNL A   1      31.463  23.469  24.429  1.00  0.00    -0.006 C 
ATOM     11  C   UNL A   1      32.841  25.330  24.896  1.00  0.00     0.047 C 
ATOM     12  C   UNL A   1      30.923  24.507  23.780  1.00  0.00    -0.016 C 
BRANCH   9  13
ATOM     13  N   UNL A   1      32.941  23.283  26.308  1.00  0.00    -0.345 N 
ATOM     14  C   UNL A   1      33.247  22.016  26.740  1.00  0.00     0.268 C 
ATOM     15  O   UNL A   1      33.221  21.806  27.948  1.00  0.00    -0.268 OA
ATOM     16  H   UNL A   1      32.779  23.939  27.024  1.00  0.00     0.164 HD
BRANCH  14  17
ATOM     17  C   UNL A   1      33.505  20.936  25.803  1.00  0.00     0.105 A 
ATOM     18  C   UNL A   1      33.537  19.087  24.459  1.00  0.00     0.035 A 
ATOM     19  C   UNL A   1      34.838  19.434  24.756  1.00  0.00     0.094 A 
ATOM     20  C   UNL A   1      32.715  20.087  25.048  1.00  0.00     0.045 A 
ATOM     21  N   UNL A   1      34.808  20.580  25.509  1.00  0.00    -0.356 N 
ATOM     22  H   UNL A   1      35.605  21.079  25.799  1.00  0.00     0.166 HD
BRANCH  18  23
ATOM     23  C   UNL A   1      33.058  17.922  23.724  1.00  0.00     0.161 C 
ATOM     24  C   UNL A   1      33.288  16.566  24.334  1.00  0.00     0.093 C 
ATOM     25  O   UNL A   1      32.419  18.039  22.680  1.00  0.00    -0.294 OA
ENDBRANCH  18  23
ENDBRANCH  14  17
ENDBRANCH   9  13
ENDBRANCH   5   8
ENDBRANCH   3   4
ENDBRANCH   2   3
ENDBRANCH   1   2
BRANCH   1  26
ATOM     26  C   UNL A   1      32.758  29.572  25.189  1.00  0.00     0.002 C 
BRANCH  26  27
ATOM     27  C   UNL A   1      33.078  28.615  26.347  1.00  0.00     0.021 C 
BRANCH  27  28
ATOM     28  C   UNL A   1      34.490  28.777  26.905  1.00  0.00     0.116 C 
BRANCH  28  29
ATOM     29  N   UNL A   1      34.833  30.182  27.031  1.00  0.00    -0.352 N 
ATOM     30  C   UNL A   1      35.855  30.773  27.725  1.00  0.00     0.251 C 
ATOM     31  H   UNL A   1      34.242  30.803  26.546  1.00  0.00     0.163 HD
ATOM     32  O   UNL A   1      35.760  31.962  28.022  1.00  0.00    -0.269 OA
BRANCH  30  33
ATOM     33  C   UNL A   1      37.056  30.012  28.126  1.00  0.00     0.039 A 
ATOM     34  C   UNL A   1      38.166  30.042  27.272  1.00  0.00     0.014 A 
ATOM     35  C   UNL A   1      37.067  29.202  29.267  1.00  0.00     0.014 A 
ATOM     36  C   UNL A   1      39.300  29.301  27.586  1.00  0.00     0.010 A 
ATOM     37  C   UNL A   1      38.211  28.485  29.602  1.00  0.00     0.010 A 
ATOM     38  C   UNL A   1      39.327  28.539  28.762  1.00  0.00    -0.014 A 
BRANCH  38  39
ATOM     39  C   UNL A   1      40.608  27.923  29.180  1.00  0.00     0.031 A 
ATOM     40  C   UNL A   1      40.863  26.606  28.388  1.00  0.00     0.074 A 
ATOM     41  C   UNL A   1      41.290  28.574  30.175  1.00  0.00     0.049 A 
ATOM     42  N   UNL A   1      41.371  25.463  28.756  1.00  0.00    -0.248 NA
ATOM     43  C   UNL A   1      40.340  26.523  26.992  1.00  0.00     0.031 C 
ATOM     44  C   UNL A   1      40.885  29.856  30.803  1.00  0.00     0.029 A 
ATOM     45  N   UNL A   1      42.446  28.310  30.872  1.00  0.00    -0.354 N 
ATOM     46  C   UNL A   1      41.389  24.613  27.617  1.00  0.00     0.074 A 
ATOM     47  C   UNL A   1      40.623  25.277  26.606  1.00  0.00     0.031 C 
ATOM     48  C   UNL A   1      41.703  30.183  31.830  1.00  0.00     0.029 A 
ATOM     49  C   UNL A   1      42.714  29.160  31.986  1.00  0.00     0.049 A 
ATOM     50  H   UNL A   1      43.053  27.578  30.618  1.00  0.00     0.167 HD
ATOM     51  C   UNL A   1      42.162  23.488  27.514  1.00  0.00     0.037 A 
ATOM     52  C   UNL A   1      43.612  28.974  33.012  1.00  0.00     0.037 A 
ATOM     53  C   UNL A   1      42.982  23.351  28.668  1.00  0.00     0.049 A 
ATOM     54  C   UNL A   1      44.214  27.669  32.695  1.00  0.00     0.074 A 
ATOM     55  C   UNL A   1      42.946  22.684  29.866  1.00  0.00     0.029 A 
ATOM     56  N   UNL A   1      44.127  24.101  28.632  1.00  0.00    -0.354 N 
ATOM     57  N   UNL A   1      45.056  27.432  31.739  1.00  0.00    -0.248 NA
ATOM     58  C   UNL A   1      43.551  26.518  33.303  1.00  0.00     0.031 C 
ATOM     59  C   UNL A   1      44.034  23.198  30.617  1.00  0.00     0.029 A 
ATOM     60  C   UNL A   1      44.515  24.307  29.923  1.00  0.00     0.049 A 
ATOM     61  H   UNL A   1      44.585  24.430  27.824  1.00  0.00     0.167 HD
ATOM     62  C   UNL A   1      44.848  26.102  31.444  1.00  0.00     0.074 A 
ATOM     63  C   UNL A   1      43.956  25.574  32.467  1.00  0.00     0.031 C 
ATOM     64  C   UNL A   1      45.120  25.572  30.228  1.00  0.00     0.037 A 
BRANCH  51  65
ATOM     65  C   UNL A   1      42.588  22.606  26.344  1.00  0.00     0.058 A 
ATOM     66  C   UNL A   1      42.317  21.212  26.445  1.00  0.00     0.135 A 
ATOM     67  C   UNL A   1      43.571  22.959  25.406  1.00  0.00     0.135 A 
ATOM     68  F   UNL A   1      41.328  20.762  27.234  1.00  0.00    -0.206 F 
ATOM     69  C   UNL A   1      43.092  20.239  25.818  1.00  0.00     0.059 A 
ATOM     70  C   UNL A   1      44.323  21.994  24.714  1.00  0.00     0.059 A 
ATOM     71  F   UNL A   1      43.884  24.243  25.187  1.00  0.00    -0.206 F 
ATOM     72  C   UNL A   1      44.122  20.639  24.981  1.00  0.00     0.060 A 
BRANCH  72  73
ATOM     73  S   UNL A   1      45.191  19.364  24.274  1.00  0.00     0.124 S 
ATOM     74  O   UNL A   1      46.514  19.955  24.439  1.00  0.00    -0.237 OA
ATOM     75  O   UNL A   1      44.905  18.212  25.126  1.00  0.00    -0.237 OA
ATOM     76  O   UNL A   1      44.713  19.247  22.900  1.00  0.00    -0.744 OA
ENDBRANCH  72  73
ENDBRANCH  51  65
BRANCH  52  77
ATOM     77  C   UNL A   1      43.858  29.526  34.406  1.00  0.00     0.058 A 
ATOM     78  C   UNL A   1      44.986  30.238  34.829  1.00  0.00     0.135 A 
ATOM     79  C   UNL A   1      42.829  29.431  35.392  1.00  0.00     0.135 A 
ATOM     80  F   UNL A   1      46.095  30.273  34.080  1.00  0.00    -0.206 F 
ATOM     81  C   UNL A   1      45.018  30.946  36.050  1.00  0.00     0.059 A 
ATOM     82  C   UNL A   1      42.819  30.153  36.585  1.00  0.00     0.059 A 
ATOM     83  F   UNL A   1      41.757  28.646  35.216  1.00  0.00    -0.206 F 
ATOM     84  C   UNL A   1      43.907  30.944  36.894  1.00  0.00     0.060 A 
BRANCH  84  85
ATOM     85  S   UNL A   1      43.817  32.057  38.319  1.00  0.00     0.124 S 
ATOM     86  O   UNL A   1      42.676  31.522  39.053  1.00  0.00    -0.237 OA
ATOM     87  O   UNL A   1      45.122  31.871  38.945  1.00  0.00    -0.237 OA
ATOM     88  O   UNL A   1      43.613  33.368  37.707  1.00  0.00    -0.744 OA
ENDBRANCH  84  85
ENDBRANCH  52  77
BRANCH  64  89
ATOM     89  C   UNL A   1      45.662  26.544  29.193  1.00  0.00     0.058 A 
ATOM     90  C   UNL A   1      44.815  27.237  28.328  1.00  0.00     0.135 A 
ATOM     91  C   UNL A   1      47.045  26.769  29.018  1.00  0.00     0.135 A 
ATOM     92  F   UNL A   1      43.488  27.061  28.409  1.00  0.00    -0.206 F 
ATOM     93  C   UNL A   1      45.311  28.133  27.369  1.00  0.00     0.059 A 
ATOM     94  C   UNL A   1      47.568  27.663  28.083  1.00  0.00     0.059 A 
ATOM     95  F   UNL A   1      47.933  26.129  29.783  1.00  0.00    -0.206 F 
ATOM     96  C   UNL A   1      46.687  28.350  27.262  1.00  0.00     0.060 A 
BRANCH  96  97
ATOM     97  S   UNL A   1      47.306  29.551  26.060  1.00  0.00     0.124 S 
ATOM     98  O   UNL A   1      48.077  30.463  26.899  1.00  0.00    -0.237 OA
ATOM     99  O   UNL A   1      48.085  28.708  25.160  1.00  0.00    -0.237 OA
ATOM    100  O   UNL A   1      46.091  30.121  25.480  1.00  0.00    -0.744 OA
ENDBRANCH  96  97
ENDBRANCH  64  89
ENDBRANCH  38  39
ENDBRANCH  30  33
ENDBRANCH  28  29
ENDBRANCH  27  28
ENDBRANCH  26  27
ENDBRANCH   1  26
TORSDOF 19
ENDMDL
MODEL 2
REMARK VINA RESULT:     -12.1      1.615      3.153
REMARK SMILES CC(=O)c1c[nH]c(C(=O)N[C@H]2C=C[C@H](C(=O)NCCCCCCNC(=O)c3ccc(-c4c5nc(c(-c6c(F)cc(S(=O)(=O)[O-])cc6F)c6ccc([nH]6)c(-c6c(F)cc(S(=O)(=O)[O-])cc6F)c6nc(c(-c7c(F)cc(S(=O)(=O)[O-])cc7F)c7ccc4[nH]7)C=C6)C=C5)cc3)C2)c1
REMARK SMILES IDX 20 1 19 2 18 3 17 4 15 5 16 6 14 8 11 9 12 10 93 11 13 12
REMARK SMILES IDX 10 13 8 14 9 15 7 17 4 18 5 19 94 20 6 21 2 23 1 24 3 25
REMARK SMILES IDX 21 26 22 27 23 28 24 29 25 30 26 32 27 33 28 34 92 35 29 36
REMARK SMILES IDX 91 37 30 38 31 39 32 40 85 41 33 42 90 43 84 44 86 45 34 46
REMARK SMILES IDX 89 47 83 48 82 49 35 51 69 52 48 53 68 54 49 55 52 56 67 57
REMARK SMILES IDX 87 58 50 59 51 60 66 62 88 63 53 64 36 65 37 66 46 67 38 68
REMARK SMILES IDX 39 69 45 70 47 71 40 72 41 73 42 74 43 75 44 76 70 77 71 78
REMARK SMILES IDX 80 79 72 80 73 81 79 82 81 83 74 84 75 85 76 86 77 87 78 88
REMARK SMILES IDX 54 89 55 90 64 91 56 92 57 93 63 94 65 95 58 96 59 97 60 98
REMARK SMILES IDX 61 99 62 100
REMARK H PARENT 17 7 10 16 6 22 24 31 86 50 52 61
REMARK Flexibility Score: inf
ROOT
ATOM      1  C   UNL A   1      34.092  26.134  24.659  1.00  0.00     0.002 C 
ENDROOT
BRANCH   1   2
ATOM      2  C   UNL A   1      33.891  25.484  23.286  1.00  0.00     0.021 C 
BRANCH   2   3
ATOM      3  C   UNL A   1      34.159  23.980  23.270  1.00  0.00     0.116 C 
BRANCH   3   4
ATOM      4  N   UNL A   1      35.451  23.685  23.856  1.00  0.00    -0.356 N 
ATOM      5  C   UNL A   1      35.762  22.840  24.878  1.00  0.00     0.227 C 
ATOM      6  O   UNL A   1      36.913  22.866  25.320  1.00  0.00    -0.274 OA
ATOM      7  H   UNL A   1      36.214  24.164  23.457  1.00  0.00     0.163 HD
BRANCH   5   8
ATOM      8  C   UNL A   1      34.715  21.844  25.380  1.00  0.00     0.103 C 
ATOM      9  C   UNL A   1      33.072  23.082  26.683  1.00  0.00     0.106 C 
ATOM     10  C   UNL A   1      34.023  22.334  27.566  1.00  0.00    -0.006 C 
ATOM     11  C   UNL A   1      33.295  22.418  25.321  1.00  0.00     0.047 C 
ATOM     12  C   UNL A   1      34.927  21.654  26.854  1.00  0.00    -0.016 C 
BRANCH   9  13
ATOM     13  N   UNL A   1      31.731  22.931  27.188  1.00  0.00    -0.345 N 
ATOM     14  C   UNL A   1      30.562  23.521  26.774  1.00  0.00     0.268 C 
ATOM     15  O   UNL A   1      29.547  23.280  27.417  1.00  0.00    -0.268 OA
ATOM     16  H   UNL A   1      31.638  22.309  27.945  1.00  0.00     0.164 HD
BRANCH  14  17
ATOM     17  C   UNL A   1      30.538  24.468  25.672  1.00  0.00     0.105 A 
ATOM     18  C   UNL A   1      30.382  26.238  24.234  1.00  0.00     0.035 A 
ATOM     19  C   UNL A   1      30.116  25.081  23.533  1.00  0.00     0.094 A 
ATOM     20  C   UNL A   1      30.732  25.832  25.551  1.00  0.00     0.045 A 
ATOM     21  N   UNL A   1      30.275  24.022  24.391  1.00  0.00    -0.356 N 
ATOM     22  H   UNL A   1      30.209  23.076  24.128  1.00  0.00     0.166 HD
BRANCH  18  23
ATOM     23  C   UNL A   1      30.300  27.616  23.765  1.00  0.00     0.161 C 
ATOM     24  C   UNL A   1      30.622  27.885  22.320  1.00  0.00     0.093 C 
ATOM     25  O   UNL A   1      29.907  28.522  24.499  1.00  0.00    -0.294 OA
ENDBRANCH  18  23
ENDBRANCH  14  17
ENDBRANCH   9  13
ENDBRANCH   5   8
ENDBRANCH   3   4
ENDBRANCH   2   3
ENDBRANCH   1   2
BRANCH   1  26
ATOM     26  C   UNL A   1      33.979  27.665  24.677  1.00  0.00     0.002 C 
BRANCH  26  27
ATOM     27  C   UNL A   1      33.366  28.262  25.953  1.00  0.00     0.021 C 
BRANCH  27  28
ATOM     28  C   UNL A   1      34.393  28.586  27.035  1.00  0.00     0.116 C 
BRANCH  28  29
ATOM     29  N   UNL A   1      34.770  29.987  26.981  1.00  0.00    -0.352 N 
ATOM     30  C   UNL A   1      35.842  30.625  27.544  1.00  0.00     0.251 C 
ATOM     31  H   UNL A   1      34.163  30.564  26.462  1.00  0.00     0.163 HD
ATOM     32  O   UNL A   1      35.788  31.842  27.710  1.00  0.00    -0.269 OA
BRANCH  30  33
ATOM     33  C   UNL A   1      37.050  29.883  27.962  1.00  0.00     0.039 A 
ATOM     34  C   UNL A   1      38.208  30.029  27.187  1.00  0.00     0.014 A 
ATOM     35  C   UNL A   1      37.028  28.983  29.032  1.00  0.00     0.014 A 
ATOM     36  C   UNL A   1      39.353  29.311  27.515  1.00  0.00     0.010 A 
ATOM     37  C   UNL A   1      38.180  28.288  29.383  1.00  0.00     0.010 A 
ATOM     38  C   UNL A   1      39.343  28.457  28.625  1.00  0.00    -0.014 A 
BRANCH  38  39
ATOM     39  C   UNL A   1      40.622  27.861  29.076  1.00  0.00     0.031 A 
ATOM     40  C   UNL A   1      40.932  26.563  28.272  1.00  0.00     0.074 A 
ATOM     41  C   UNL A   1      41.256  28.509  30.103  1.00  0.00     0.049 A 
ATOM     42  N   UNL A   1      41.453  25.426  28.637  1.00  0.00    -0.248 NA
ATOM     43  C   UNL A   1      40.457  26.494  26.857  1.00  0.00     0.031 C 
ATOM     44  C   UNL A   1      40.802  29.772  30.739  1.00  0.00     0.029 A 
ATOM     45  N   UNL A   1      42.395  28.258  30.835  1.00  0.00    -0.354 N 
ATOM     46  C   UNL A   1      41.527  24.596  27.486  1.00  0.00     0.074 A 
ATOM     47  C   UNL A   1      40.780  25.260  26.461  1.00  0.00     0.031 C 
ATOM     48  C   UNL A   1      41.579  30.098  31.798  1.00  0.00     0.029 A 
ATOM     49  C   UNL A   1      42.606  29.095  31.971  1.00  0.00     0.049 A 
ATOM     50  H   UNL A   1      43.025  27.544  30.589  1.00  0.00     0.167 HD
ATOM     51  C   UNL A   1      42.328  23.489  27.391  1.00  0.00     0.037 A 
ATOM     52  C   UNL A   1      43.474  28.911  33.023  1.00  0.00     0.037 A 
ATOM     53  C   UNL A   1      43.111  23.350  28.570  1.00  0.00     0.049 A 
ATOM     54  C   UNL A   1      44.114  27.625  32.705  1.00  0.00     0.074 A 
ATOM     55  C   UNL A   1      43.051  22.662  29.754  1.00  0.00     0.029 A 
ATOM     56  N   UNL A   1      44.241  24.125  28.584  1.00  0.00    -0.354 N 
ATOM     57  N   UNL A   1      44.992  27.421  31.774  1.00  0.00    -0.248 NA
ATOM     58  C   UNL A   1      43.457  26.449  33.272  1.00  0.00     0.031 C 
ATOM     59  C   UNL A   1      44.101  23.187  30.550  1.00  0.00     0.029 A 
ATOM     60  C   UNL A   1      44.580  24.317  29.891  1.00  0.00     0.049 A 
ATOM     61  H   UNL A   1      44.717  24.477  27.797  1.00  0.00     0.167 HD
ATOM     62  C   UNL A   1      44.823  26.093  31.451  1.00  0.00     0.074 A 
ATOM     63  C   UNL A   1      43.910  25.528  32.435  1.00  0.00     0.031 C 
ATOM     64  C   UNL A   1      45.147  25.589  30.236  1.00  0.00     0.037 A 
BRANCH  51  65
ATOM     65  C   UNL A   1      42.811  22.636  26.221  1.00  0.00     0.058 A 
ATOM     66  C   UNL A   1      42.401  21.274  26.194  1.00  0.00     0.135 A 
ATOM     67  C   UNL A   1      43.931  22.941  25.431  1.00  0.00     0.135 A 
ATOM     68  F   UNL A   1      41.285  20.881  26.828  1.00  0.00    -0.206 F 
ATOM     69  C   UNL A   1      43.154  20.265  25.597  1.00  0.00     0.059 A 
ATOM     70  C   UNL A   1      44.670  21.947  24.769  1.00  0.00     0.059 A 
ATOM     71  F   UNL A   1      44.387  24.198  25.339  1.00  0.00    -0.206 F 
ATOM     72  C   UNL A   1      44.312  20.606  24.917  1.00  0.00     0.060 A 
BRANCH  72  73
ATOM     73  S   UNL A   1      45.338  19.272  24.256  1.00  0.00     0.124 S 
ATOM     74  O   UNL A   1      46.662  19.883  24.252  1.00  0.00    -0.237 OA
ATOM     75  O   UNL A   1      45.137  18.209  25.238  1.00  0.00    -0.237 OA
ATOM     76  O   UNL A   1      44.752  19.016  22.944  1.00  0.00    -0.744 OA
ENDBRANCH  72  73
ENDBRANCH  51  65
BRANCH  52  77
ATOM     77  C   UNL A   1      43.661  29.444  34.433  1.00  0.00     0.058 A 
ATOM     78  C   UNL A   1      44.751  30.185  34.902  1.00  0.00     0.135 A 
ATOM     79  C   UNL A   1      42.609  29.295  35.388  1.00  0.00     0.135 A 
ATOM     80  F   UNL A   1      45.879  30.272  34.186  1.00  0.00    -0.206 F 
ATOM     81  C   UNL A   1      44.725  30.870  36.135  1.00  0.00     0.059 A 
ATOM     82  C   UNL A   1      42.541  29.993  36.593  1.00  0.00     0.059 A 
ATOM     83  F   UNL A   1      41.570  28.477  35.167  1.00  0.00    -0.206 F 
ATOM     84  C   UNL A   1      43.591  30.815  36.947  1.00  0.00     0.060 A 
BRANCH  84  85
ATOM     85  S   UNL A   1      43.423  31.897  38.388  1.00  0.00     0.124 S 
ATOM     86  O   UNL A   1      43.888  33.176  37.867  1.00  0.00    -0.237 OA
ATOM     87  O   UNL A   1      41.995  31.809  38.681  1.00  0.00    -0.237 OA
ATOM     88  O   UNL A   1      44.290  31.268  39.382  1.00  0.00    -0.744 OA
ENDBRANCH  84  85
ENDBRANCH  52  77
BRANCH  64  89
ATOM     89  C   UNL A   1      45.702  26.591  29.236  1.00  0.00     0.058 A 
ATOM     90  C   UNL A   1      47.059  26.912  29.201  1.00  0.00     0.135 A 
ATOM     91  C   UNL A   1      44.877  27.282  28.321  1.00  0.00     0.135 A 
ATOM     92  F   UNL A   1      47.907  26.320  30.055  1.00  0.00    -0.206 F 
ATOM     93  C   UNL A   1      47.575  27.838  28.283  1.00  0.00     0.059 A 
ATOM     94  C   UNL A   1      45.363  28.198  27.387  1.00  0.00     0.059 A 
ATOM     95  F   UNL A   1      43.561  27.059  28.299  1.00  0.00    -0.206 F 
ATOM     96  C   UNL A   1      46.723  28.466  27.371  1.00  0.00     0.060 A 
BRANCH  96  97
ATOM     97  S   UNL A   1      47.413  29.615  26.156  1.00  0.00     0.124 S 
ATOM     98  O   UNL A   1      48.608  28.909  25.703  1.00  0.00    -0.237 OA
ATOM     99  O   UNL A   1      46.331  29.717  25.183  1.00  0.00    -0.237 OA
ATOM    100  O   UNL A   1      47.668  30.829  26.930  1.00  0.00    -0.744 OA
ENDBRANCH  96  97
ENDBRANCH  64  89
ENDBRANCH  38  39
ENDBRANCH  30  33
ENDBRANCH  28  29
ENDBRANCH  27  28
ENDBRANCH  26  27
ENDBRANCH   1  26
TORSDOF 19
ENDMDL
MODEL 3
REMARK VINA RESULT:     -12.0      2.901      9.134
REMARK SMILES CC(=O)c1c[nH]c(C(=O)N[C@H]2C=C[C@H](C(=O)NCCCCCCNC(=O)c3ccc(-c4c5nc(c(-c6c(F)cc(S(=O)(=O)[O-])cc6F)c6ccc([nH]6)c(-c6c(F)cc(S(=O)(=O)[O-])cc6F)c6nc(c(-c7c(F)cc(S(=O)(=O)[O-])cc7F)c7ccc4[nH]7)C=C6)C=C5)cc3)C2)c1
REMARK SMILES IDX 20 1 19 2 18 3 17 4 15 5 16 6 14 8 11 9 12 10 93 11 13 12
REMARK SMILES IDX 10 13 8 14 9 15 7 17 4 18 5 19 94 20 6 21 2 23 1 24 3 25
REMARK SMILES IDX 21 26 22 27 23 28 24 29 25 30 26 32 27 33 28 34 92 35 29 36
REMARK SMILES IDX 91 37 30 38 31 39 32 40 85 41 33 42 90 43 84 44 86 45 34 46
REMARK SMILES IDX 89 47 83 48 82 49 35 51 69 52 48 53 68 54 49 55 52 56 67 57
REMARK SMILES IDX 87 58 50 59 51 60 66 62 88 63 53 64 36 65 37 66 46 67 38 68
REMARK SMILES IDX 39 69 45 70 47 71 40 72 41 73 42 74 43 75 44 76 70 77 71 78
REMARK SMILES IDX 80 79 72 80 73 81 79 82 81 83 74 84 75 85 76 86 77 87 78 88
REMARK SMILES IDX 54 89 55 90 64 91 56 92 57 93 63 94 65 95 58 96 59 97 60 98
REMARK SMILES IDX 61 99 62 100
REMARK H PARENT 17 7 10 16 6 22 24 31 86 50 52 61
REMARK Flexibility Score: inf
ROOT
ATOM      1  C   UNL A   1      30.692  28.179  24.633  1.00  0.00     0.002 C 
ENDROOT
BRANCH   1   2
ATOM      2  C   UNL A   1      30.761  28.402  23.117  1.00  0.00     0.021 C 
BRANCH   2   3
ATOM      3  C   UNL A   1      31.559  27.333  22.372  1.00  0.00     0.116 C 
BRANCH   3   4
ATOM      4  N   UNL A   1      31.329  26.026  22.953  1.00  0.00    -0.356 N 
ATOM      5  C   UNL A   1      32.233  25.092  23.362  1.00  0.00     0.227 C 
ATOM      6  O   UNL A   1      31.810  23.978  23.681  1.00  0.00    -0.274 OA
ATOM      7  H   UNL A   1      30.383  25.777  23.070  1.00  0.00     0.163 HD
BRANCH   5   8
ATOM      8  C   UNL A   1      33.708  25.475  23.491  1.00  0.00     0.103 C 
ATOM      9  C   UNL A   1      34.756  23.906  25.030  1.00  0.00     0.106 C 
ATOM     10  C   UNL A   1      34.486  25.224  25.688  1.00  0.00    -0.006 C 
ATOM     11  C   UNL A   1      34.624  24.247  23.542  1.00  0.00     0.047 C 
ATOM     12  C   UNL A   1      33.910  26.088  24.846  1.00  0.00    -0.016 C 
BRANCH   9  13
ATOM     13  N   UNL A   1      36.069  23.444  25.403  1.00  0.00    -0.345 N 
ATOM     14  C   UNL A   1      36.581  22.170  25.428  1.00  0.00     0.268 C 
ATOM     15  O   UNL A   1      37.721  22.026  25.855  1.00  0.00    -0.268 OA
ATOM     16  H   UNL A   1      36.695  24.150  25.681  1.00  0.00     0.164 HD
BRANCH  14  17
ATOM     17  C   UNL A   1      35.776  21.021  25.051  1.00  0.00     0.105 A 
ATOM     18  C   UNL A   1      34.190  19.427  24.634  1.00  0.00     0.035 A 
ATOM     19  C   UNL A   1      35.412  18.803  24.773  1.00  0.00     0.094 A 
ATOM     20  C   UNL A   1      34.447  20.823  24.722  1.00  0.00     0.045 A 
ATOM     21  N   UNL A   1      36.364  19.773  24.959  1.00  0.00    -0.356 N 
ATOM     22  H   UNL A   1      37.331  19.603  25.019  1.00  0.00     0.166 HD
BRANCH  18  23
ATOM     23  C   UNL A   1      32.878  18.815  24.465  1.00  0.00     0.161 C 
ATOM     24  C   UNL A   1      32.646  17.985  23.232  1.00  0.00     0.093 C 
ATOM     25  O   UNL A   1      32.010  18.905  25.332  1.00  0.00    -0.294 OA
ENDBRANCH  18  23
ENDBRANCH  14  17
ENDBRANCH   9  13
ENDBRANCH   5   8
ENDBRANCH   3   4
ENDBRANCH   2   3
ENDBRANCH   1   2
BRANCH   1  26
ATOM     26  C   UNL A   1      31.681  29.014  25.459  1.00  0.00     0.002 C 
BRANCH  26  27
ATOM     27  C   UNL A   1      32.002  28.458  26.855  1.00  0.00     0.021 C 
BRANCH  27  28
ATOM     28  C   UNL A   1      33.367  28.888  27.387  1.00  0.00     0.116 C 
BRANCH  28  29
ATOM     29  N   UNL A   1      33.408  30.324  27.592  1.00  0.00    -0.352 N 
ATOM     30  C   UNL A   1      34.306  31.081  28.296  1.00  0.00     0.251 C 
ATOM     31  H   UNL A   1      32.682  30.831  27.159  1.00  0.00     0.163 HD
ATOM     32  O   UNL A   1      33.971  32.203  28.669  1.00  0.00    -0.269 OA
BRANCH  30  33
ATOM     33  C   UNL A   1      35.654  30.573  28.623  1.00  0.00     0.039 A 
ATOM     34  C   UNL A   1      36.634  30.630  27.623  1.00  0.00     0.014 A 
ATOM     35  C   UNL A   1      35.934  29.959  29.849  1.00  0.00     0.014 A 
ATOM     36  C   UNL A   1      37.903  30.118  27.871  1.00  0.00     0.010 A 
ATOM     37  C   UNL A   1      37.211  29.476  30.111  1.00  0.00     0.010 A 
ATOM     38  C   UNL A   1      38.195  29.560  29.122  1.00  0.00    -0.014 A 
BRANCH  38  39
ATOM     39  C   UNL A   1      39.600  29.208  29.434  1.00  0.00     0.031 A 
ATOM     40  C   UNL A   1      40.339  30.425  30.067  1.00  0.00     0.074 A 
ATOM     41  C   UNL A   1      39.992  27.942  29.086  1.00  0.00     0.049 A 
ATOM     42  N   UNL A   1      41.556  30.867  29.919  1.00  0.00    -0.248 NA
ATOM     43  C   UNL A   1      39.534  31.368  30.900  1.00  0.00     0.031 C 
ATOM     44  C   UNL A   1      39.118  26.898  28.496  1.00  0.00     0.029 A 
ATOM     45  N   UNL A   1      41.188  27.262  29.141  1.00  0.00    -0.354 N 
ATOM     46  C   UNL A   1      41.705  32.006  30.758  1.00  0.00     0.074 A 
ATOM     47  C   UNL A   1      40.393  32.336  31.227  1.00  0.00     0.031 C 
ATOM     48  C   UNL A   1      39.824  25.793  28.161  1.00  0.00     0.029 A 
ATOM     49  C   UNL A   1      41.218  25.996  28.485  1.00  0.00     0.049 A 
ATOM     50  H   UNL A   1      41.975  27.628  29.604  1.00  0.00     0.167 HD
ATOM     51  C   UNL A   1      42.914  32.516  31.146  1.00  0.00     0.037 A 
ATOM     52  C   UNL A   1      42.312  25.236  28.135  1.00  0.00     0.037 A 
ATOM     53  C   UNL A   1      43.971  31.702  30.652  1.00  0.00     0.049 A 
ATOM     54  C   UNL A   1      43.446  26.062  28.579  1.00  0.00     0.074 A 
ATOM     55  C   UNL A   1      44.821  31.682  29.576  1.00  0.00     0.029 A 
ATOM     56  N   UNL A   1      44.229  30.596  31.420  1.00  0.00    -0.354 N 
ATOM     57  N   UNL A   1      43.810  26.257  29.807  1.00  0.00    -0.248 NA
ATOM     58  C   UNL A   1      43.980  26.976  27.571  1.00  0.00     0.031 C 
ATOM     59  C   UNL A   1      45.482  30.429  29.641  1.00  0.00     0.029 A 
ATOM     60  C   UNL A   1      44.824  29.674  30.611  1.00  0.00     0.049 A 
ATOM     61  H   UNL A   1      44.022  30.489  32.377  1.00  0.00     0.167 HD
ATOM     62  C   UNL A   1      44.431  27.486  29.772  1.00  0.00     0.074 A 
ATOM     63  C   UNL A   1      44.559  27.859  28.370  1.00  0.00     0.031 C 
ATOM     64  C   UNL A   1      44.512  28.296  30.855  1.00  0.00     0.037 A 
BRANCH  51  65
ATOM     65  C   UNL A   1      43.344  33.494  32.237  1.00  0.00     0.058 A 
ATOM     66  C   UNL A   1      43.104  33.112  33.587  1.00  0.00     0.135 A 
ATOM     67  C   UNL A   1      43.549  34.867  32.030  1.00  0.00     0.135 A 
ATOM     68  F   UNL A   1      42.993  31.816  33.923  1.00  0.00    -0.206 F 
ATOM     69  C   UNL A   1      42.887  34.031  34.610  1.00  0.00     0.059 A 
ATOM     70  C   UNL A   1      43.398  35.808  33.063  1.00  0.00     0.059 A 
ATOM     71  F   UNL A   1      43.828  35.346  30.810  1.00  0.00    -0.206 F 
ATOM     72  C   UNL A   1      42.998  35.384  34.331  1.00  0.00     0.060 A 
BRANCH  72  73
ATOM     73  S   UNL A   1      42.594  36.562  35.641  1.00  0.00     0.124 S 
ATOM     74  O   UNL A   1      42.843  35.774  36.843  1.00  0.00    -0.237 OA
ATOM     75  O   UNL A   1      43.544  37.644  35.390  1.00  0.00    -0.237 OA
ATOM     76  O   UNL A   1      41.198  36.895  35.376  1.00  0.00    -0.744 OA
ENDBRANCH  72  73
ENDBRANCH  51  65
BRANCH  52  77
ATOM     77  C   UNL A   1      42.625  24.079  27.202  1.00  0.00     0.058 A 
ATOM     78  C   UNL A   1      42.676  24.130  25.805  1.00  0.00     0.135 A 
ATOM     79  C   UNL A   1      43.013  22.818  27.750  1.00  0.00     0.135 A 
ATOM     80  F   UNL A   1      42.187  25.183  25.139  1.00  0.00    -0.206 F 
ATOM     81  C   UNL A   1      43.235  23.090  25.030  1.00  0.00     0.059 A 
ATOM     82  C   UNL A   1      43.606  21.794  27.013  1.00  0.00     0.059 A 
ATOM     83  F   UNL A   1      42.862  22.542  29.053  1.00  0.00    -0.206 F 
ATOM     84  C   UNL A   1      43.751  21.951  25.650  1.00  0.00     0.060 A 
BRANCH  84  85
ATOM     85  S   UNL A   1      44.715  20.738  24.715  1.00  0.00     0.124 S 
ATOM     86  O   UNL A   1      44.716  21.314  23.376  1.00  0.00    -0.237 OA
ATOM     87  O   UNL A   1      45.996  20.749  25.415  1.00  0.00    -0.237 OA
ATOM     88  O   UNL A   1      43.945  19.507  24.871  1.00  0.00    -0.744 OA
ENDBRANCH  84  85
ENDBRANCH  52  77
BRANCH  64  89
ATOM     89  C   UNL A   1      43.859  27.766  32.121  1.00  0.00     0.058 A 
ATOM     90  C   UNL A   1      44.535  26.905  32.986  1.00  0.00     0.135 A 
ATOM     91  C   UNL A   1      42.526  28.076  32.471  1.00  0.00     0.135 A 
ATOM     92  F   UNL A   1      45.796  26.539  32.713  1.00  0.00    -0.206 F 
ATOM     93  C   UNL A   1      43.936  26.412  34.154  1.00  0.00     0.059 A 
ATOM     94  C   UNL A   1      41.907  27.611  33.632  1.00  0.00     0.059 A 
ATOM     95  F   UNL A   1      41.793  28.871  31.690  1.00  0.00    -0.206 F 
ATOM     96  C   UNL A   1      42.627  26.780  34.477  1.00  0.00     0.060 A 
BRANCH  96  97
ATOM     97  S   UNL A   1      41.888  26.180  36.015  1.00  0.00     0.124 S 
ATOM     98  O   UNL A   1      40.592  25.681  35.564  1.00  0.00    -0.237 OA
ATOM     99  O   UNL A   1      42.845  25.163  36.437  1.00  0.00    -0.237 OA
ATOM    100  O   UNL A   1      41.832  27.370  36.862  1.00  0.00    -0.744 OA
ENDBRANCH  96  97
ENDBRANCH  64  89
ENDBRANCH  38  39
ENDBRANCH  30  33
ENDBRANCH  28  29
ENDBRANCH  27  28
ENDBRANCH  26  27
ENDBRANCH   1  26
TORSDOF 19
ENDMDL
