MODEL 1
REMARK VINA RESULT:     -11.9      0.000      0.000
REMARK SMILES C[C@@H]1Oc2c(C(=O)NCCCCCCNC(=O)c3ccc(-c4c5nc(c(-c6c(F)cc(S(=O)(=O)[O-])cc6F)c6ccc([nH]6)c(-c6c(F)cc(S(=O)(=O)[O-])cc6F)c6nc(c(-c7c(F)cc(S(=O)(=O)[O-])cc7F)c7ccc4[nH]7)C=C6)C=C5)cc3)cccc2[C@@H]1C
REMARK SMILES IDX 13 1 12 2 11 3 10 4 9 5 8 6 6 7 7 8 5 10 1 11 2 12 3 13
REMARK SMILES IDX 88 14 4 15 87 16 89 17 86 18 84 19 85 20 14 21 15 22 16 23
REMARK SMILES IDX 17 25 18 26 19 27 83 28 20 29 82 30 21 31 22 32 23 33 76 34
REMARK SMILES IDX 24 35 81 36 75 37 77 38 25 39 80 40 74 41 73 42 26 44 60 45
REMARK SMILES IDX 39 46 59 47 40 48 43 49 58 50 78 51 41 52 42 53 57 55 79 56
REMARK SMILES IDX 44 57 27 58 28 59 37 60 29 61 30 62 36 63 38 64 31 65 32 66
REMARK SMILES IDX 33 67 34 68 35 69 61 70 62 71 71 72 63 73 64 74 70 75 72 76
REMARK SMILES IDX 65 77 66 78 67 79 68 80 69 81 45 82 46 83 55 84 47 85 48 86
REMARK SMILES IDX 54 87 56 88 49 89 50 90 51 91 52 92 53 93
REMARK H PARENT 8 9 15 24 77 43 43 54
REMARK Flexibility Score: inf
ROOT
ATOM      1  C   UNL A   1      34.297  28.939  27.492  1.00  0.00     0.021 C 
ENDROOT
BRANCH   1   2
ATOM      2  C   UNL A   1      33.499  28.919  26.187  1.00  0.00     0.002 C 
BRANCH   2   3
ATOM      3  C   UNL A   1      33.597  27.617  25.379  1.00  0.00     0.002 C 
BRANCH   3   4
ATOM      4  C   UNL A   1      34.037  27.786  23.916  1.00  0.00     0.021 C 
BRANCH   4   5
ATOM      5  C   UNL A   1      32.884  28.141  22.973  1.00  0.00     0.116 C 
BRANCH   5   6
ATOM      6  N   UNL A   1      32.970  27.340  21.768  1.00  0.00    -0.352 N 
ATOM      7  C   UNL A   1      32.844  26.002  21.486  1.00  0.00     0.255 C 
ATOM      8  O   UNL A   1      33.118  25.691  20.326  1.00  0.00    -0.269 OA
ATOM      9  H   UNL A   1      33.164  27.880  20.967  1.00  0.00     0.163 HD
BRANCH   7  10
ATOM     10  C   UNL A   1      32.387  24.966  22.465  1.00  0.00     0.082 A 
ATOM     11  C   UNL A   1      36.553  23.294  23.942  1.00  0.00     0.053 C 
ATOM     12  C   UNL A   1      35.209  22.884  23.355  1.00  0.00     0.177 C 
ATOM     13  O   UNL A   1      34.655  24.040  22.685  1.00  0.00    -0.489 OA
ATOM     14  C   UNL A   1      34.169  22.326  24.352  1.00  0.00     0.060 C 
ATOM     15  C   UNL A   1      33.313  24.050  22.971  1.00  0.00     0.136 A 
ATOM     16  C   UNL A   1      32.961  23.059  23.882  1.00  0.00     0.001 A 
ATOM     17  C   UNL A   1      34.433  22.608  25.829  1.00  0.00     0.017 C 
ATOM     18  C   UNL A   1      31.651  22.905  24.301  1.00  0.00     0.008 A 
ATOM     19  C   UNL A   1      31.081  24.860  22.968  1.00  0.00     0.018 A 
ATOM     20  C   UNL A   1      30.708  23.822  23.844  1.00  0.00     0.001 A 
ENDBRANCH   7  10
ENDBRANCH   5   6
ENDBRANCH   4   5
ENDBRANCH   3   4
ENDBRANCH   2   3
ENDBRANCH   1   2
BRANCH   1  21
ATOM     21  C   UNL A   1      35.201  30.155  27.662  1.00  0.00     0.116 C 
BRANCH  21  22
ATOM     22  N   UNL A   1      35.253  30.613  29.043  1.00  0.00    -0.352 N 
ATOM     23  C   UNL A   1      36.259  30.460  29.971  1.00  0.00     0.251 C 
ATOM     24  H   UNL A   1      34.458  31.100  29.358  1.00  0.00     0.163 HD
ATOM     25  O   UNL A   1      36.068  30.748  31.142  1.00  0.00    -0.269 OA
BRANCH  23  26
ATOM     26  C   UNL A   1      37.566  29.914  29.537  1.00  0.00     0.039 A 
ATOM     27  C   UNL A   1      38.445  29.357  30.467  1.00  0.00     0.014 A 
ATOM     28  C   UNL A   1      37.921  29.984  28.187  1.00  0.00     0.014 A 
ATOM     29  C   UNL A   1      39.734  29.010  30.076  1.00  0.00     0.010 A 
ATOM     30  C   UNL A   1      39.192  29.564  27.783  1.00  0.00     0.010 A 
ATOM     31  C   UNL A   1      40.125  29.116  28.730  1.00  0.00    -0.014 A 
BRANCH  31  32
ATOM     32  C   UNL A   1      41.515  28.758  28.345  1.00  0.00     0.031 A 
ATOM     33  C   UNL A   1      42.623  29.776  28.429  1.00  0.00     0.074 A 
ATOM     34  C   UNL A   1      41.790  27.491  27.977  1.00  0.00     0.049 A 
ATOM     35  N   UNL A   1      43.895  29.632  28.157  1.00  0.00    -0.248 NA
ATOM     36  C   UNL A   1      42.257  31.128  28.879  1.00  0.00     0.031 C 
ATOM     37  C   UNL A   1      40.803  26.413  27.870  1.00  0.00     0.029 A 
ATOM     38  N   UNL A   1      42.978  26.886  27.653  1.00  0.00    -0.354 N 
ATOM     39  C   UNL A   1      44.477  30.874  28.385  1.00  0.00     0.074 A 
ATOM     40  C   UNL A   1      43.416  31.768  28.793  1.00  0.00     0.031 C 
ATOM     41  C   UNL A   1      41.434  25.270  27.562  1.00  0.00     0.029 A 
ATOM     42  C   UNL A   1      42.857  25.542  27.391  1.00  0.00     0.049 A 
ATOM     43  H   UNL A   1      43.836  27.368  27.612  1.00  0.00     0.167 HD
ATOM     44  C   UNL A   1      45.780  31.230  28.279  1.00  0.00     0.037 A 
ATOM     45  C   UNL A   1      43.785  24.630  27.042  1.00  0.00     0.037 A 
ATOM     46  C   UNL A   1      46.837  30.332  27.893  1.00  0.00     0.049 A 
ATOM     47  C   UNL A   1      45.215  25.061  26.891  1.00  0.00     0.074 A 
ATOM     48  C   UNL A   1      48.190  30.598  27.767  1.00  0.00     0.029 A 
ATOM     49  N   UNL A   1      46.663  28.992  27.576  1.00  0.00    -0.354 N 
ATOM     50  N   UNL A   1      45.744  26.243  27.102  1.00  0.00    -0.248 NA
ATOM     51  C   UNL A   1      46.173  24.042  26.441  1.00  0.00     0.031 C 
ATOM     52  C   UNL A   1      48.830  29.428  27.341  1.00  0.00     0.029 A 
ATOM     53  C   UNL A   1      47.881  28.424  27.239  1.00  0.00     0.049 A 
ATOM     54  H   UNL A   1      45.802  28.517  27.588  1.00  0.00     0.167 HD
ATOM     55  C   UNL A   1      47.097  26.109  26.816  1.00  0.00     0.074 A 
ATOM     56  C   UNL A   1      47.309  24.725  26.437  1.00  0.00     0.031 C 
ATOM     57  C   UNL A   1      48.073  27.047  26.857  1.00  0.00     0.037 A 
BRANCH  44  58
ATOM     58  C   UNL A   1      46.142  32.659  28.580  1.00  0.00     0.058 A 
ATOM     59  C   UNL A   1      46.106  33.650  27.587  1.00  0.00     0.135 A 
ATOM     60  C   UNL A   1      46.473  33.053  29.887  1.00  0.00     0.135 A 
ATOM     61  F   UNL A   1      45.810  33.324  26.318  1.00  0.00    -0.206 F 
ATOM     62  C   UNL A   1      46.403  34.978  27.874  1.00  0.00     0.059 A 
ATOM     63  C   UNL A   1      46.754  34.380  30.201  1.00  0.00     0.059 A 
ATOM     64  F   UNL A   1      46.524  32.145  30.874  1.00  0.00    -0.206 F 
ATOM     65  C   UNL A   1      46.726  35.334  29.185  1.00  0.00     0.060 A 
BRANCH  65  66
ATOM     66  S   UNL A   1      47.099  37.064  29.540  1.00  0.00     0.124 S 
ATOM     67  O   UNL A   1      47.264  37.035  30.990  1.00  0.00    -0.237 OA
ATOM     68  O   UNL A   1      48.317  37.286  28.767  1.00  0.00    -0.237 OA
ATOM     69  O   UNL A   1      45.916  37.773  29.058  1.00  0.00    -0.744 OA
ENDBRANCH  65  66
ENDBRANCH  44  58
BRANCH  45  70
ATOM     70  C   UNL A   1      43.379  23.219  26.815  1.00  0.00     0.058 A 
ATOM     71  C   UNL A   1      43.333  22.684  25.520  1.00  0.00     0.135 A 
ATOM     72  C   UNL A   1      43.074  22.369  27.889  1.00  0.00     0.135 A 
ATOM     73  F   UNL A   1      43.610  23.460  24.462  1.00  0.00    -0.206 F 
ATOM     74  C   UNL A   1      42.999  21.351  25.297  1.00  0.00     0.059 A 
ATOM     75  C   UNL A   1      42.760  21.028  27.693  1.00  0.00     0.059 A 
ATOM     76  F   UNL A   1      43.117  22.833  29.147  1.00  0.00    -0.206 F 
ATOM     77  C   UNL A   1      42.721  20.530  26.391  1.00  0.00     0.060 A 
BRANCH  77  78
ATOM     78  S   UNL A   1      42.358  18.786  26.095  1.00  0.00     0.124 S 
ATOM     79  O   UNL A   1      42.631  18.203  27.403  1.00  0.00    -0.237 OA
ATOM     80  O   UNL A   1      40.956  18.829  25.694  1.00  0.00    -0.237 OA
ATOM     81  O   UNL A   1      43.294  18.425  25.035  1.00  0.00    -0.744 OA
ENDBRANCH  77  78
ENDBRANCH  45  70
BRANCH  57  82
ATOM     82  C   UNL A   1      49.463  26.613  26.487  1.00  0.00     0.058 A 
ATOM     83  C   UNL A   1      50.296  25.969  27.413  1.00  0.00     0.135 A 
ATOM     84  C   UNL A   1      49.942  26.788  25.179  1.00  0.00     0.135 A 
ATOM     85  F   UNL A   1      49.887  25.786  28.679  1.00  0.00    -0.206 F 
ATOM     86  C   UNL A   1      51.564  25.521  27.059  1.00  0.00     0.059 A 
ATOM     87  C   UNL A   1      51.198  26.329  24.796  1.00  0.00     0.059 A 
ATOM     88  F   UNL A   1      49.179  27.393  24.254  1.00  0.00    -0.206 F 
ATOM     89  C   UNL A   1      52.005  25.704  25.746  1.00  0.00     0.060 A 
BRANCH  89  90
ATOM     90  S   UNL A   1      53.636  25.079  25.289  1.00  0.00     0.124 S 
ATOM     91  O   UNL A   1      53.783  25.602  23.935  1.00  0.00    -0.237 OA
ATOM     92  O   UNL A   1      54.497  25.683  26.300  1.00  0.00    -0.237 OA
ATOM     93  O   UNL A   1      53.485  23.630  25.389  1.00  0.00    -0.744 OA
ENDBRANCH  89  90
ENDBRANCH  57  82
ENDBRANCH  31  32
ENDBRANCH  23  26
ENDBRANCH  21  22
ENDBRANCH   1  21
TORSDOF 16
ENDMDL
MODEL 2
REMARK VINA RESULT:     -11.8      1.168      1.985
REMARK SMILES C[C@@H]1Oc2c(C(=O)NCCCCCCNC(=O)c3ccc(-c4c5nc(c(-c6c(F)cc(S(=O)(=O)[O-])cc6F)c6ccc([nH]6)c(-c6c(F)cc(S(=O)(=O)[O-])cc6F)c6nc(c(-c7c(F)cc(S(=O)(=O)[O-])cc7F)c7ccc4[nH]7)C=C6)C=C5)cc3)cccc2[C@@H]1C
REMARK SMILES IDX 13 1 12 2 11 3 10 4 9 5 8 6 6 7 7 8 5 10 1 11 2 12 3 13
REMARK SMILES IDX 88 14 4 15 87 16 89 17 86 18 84 19 85 20 14 21 15 22 16 23
REMARK SMILES IDX 17 25 18 26 19 27 83 28 20 29 82 30 21 31 22 32 23 33 76 34
REMARK SMILES IDX 24 35 81 36 75 37 77 38 25 39 80 40 74 41 73 42 26 44 60 45
REMARK SMILES IDX 39 46 59 47 40 48 43 49 58 50 78 51 41 52 42 53 57 55 79 56
REMARK SMILES IDX 44 57 27 58 28 59 37 60 29 61 30 62 36 63 38 64 31 65 32 66
REMARK SMILES IDX 33 67 34 68 35 69 61 70 62 71 71 72 63 73 64 74 70 75 72 76
REMARK SMILES IDX 65 77 66 78 67 79 68 80 69 81 45 82 46 83 55 84 47 85 48 86
REMARK SMILES IDX 54 87 56 88 49 89 50 90 51 91 52 92 53 93
REMARK H PARENT 8 9 15 24 77 43 43 54
REMARK Flexibility Score: inf
ROOT
ATOM      1  C   UNL A   1      33.633  29.430  27.261  1.00  0.00     0.021 C 
ENDROOT
BRANCH   1   2
ATOM      2  C   UNL A   1      33.467  28.772  25.889  1.00  0.00     0.002 C 
BRANCH   2   3
ATOM      3  C   UNL A   1      33.500  27.237  25.892  1.00  0.00     0.002 C 
BRANCH   3   4
ATOM      4  C   UNL A   1      33.188  26.574  24.541  1.00  0.00     0.021 C 
BRANCH   4   5
ATOM      5  C   UNL A   1      31.926  25.707  24.567  1.00  0.00     0.116 C 
BRANCH   5   6
ATOM      6  N   UNL A   1      31.766  25.110  25.878  1.00  0.00    -0.352 N 
ATOM      7  C   UNL A   1      31.911  23.843  26.386  1.00  0.00     0.255 C 
ATOM      8  O   UNL A   1      31.553  23.713  27.559  1.00  0.00    -0.269 OA
ATOM      9  H   UNL A   1      31.489  25.764  26.561  1.00  0.00     0.163 HD
BRANCH   7  10
ATOM     10  C   UNL A   1      32.480  22.683  25.631  1.00  0.00     0.082 A 
ATOM     11  C   UNL A   1      37.089  23.711  25.844  1.00  0.00     0.053 C 
ATOM     12  C   UNL A   1      35.953  23.376  24.887  1.00  0.00     0.177 C 
ATOM     13  O   UNL A   1      34.711  23.716  25.546  1.00  0.00    -0.489 OA
ATOM     14  C   UNL A   1      35.884  21.914  24.393  1.00  0.00     0.060 C 
ATOM     15  C   UNL A   1      33.824  22.714  25.245  1.00  0.00     0.136 A 
ATOM     16  C   UNL A   1      34.421  21.674  24.540  1.00  0.00     0.001 A 
ATOM     17  C   UNL A   1      36.685  20.893  25.198  1.00  0.00     0.017 C 
ATOM     18  C   UNL A   1      33.693  20.566  24.145  1.00  0.00     0.008 A 
ATOM     19  C   UNL A   1      31.776  21.515  25.306  1.00  0.00     0.018 A 
ATOM     20  C   UNL A   1      32.361  20.486  24.541  1.00  0.00     0.001 A 
ENDBRANCH   7  10
ENDBRANCH   5   6
ENDBRANCH   4   5
ENDBRANCH   3   4
ENDBRANCH   2   3
ENDBRANCH   1   2
BRANCH   1  21
ATOM     21  C   UNL A   1      35.079  29.719  27.651  1.00  0.00     0.116 C 
BRANCH  21  22
ATOM     22  N   UNL A   1      35.174  30.428  28.920  1.00  0.00    -0.352 N 
ATOM     23  C   UNL A   1      36.233  30.499  29.796  1.00  0.00     0.251 C 
ATOM     24  H   UNL A   1      34.369  30.926  29.188  1.00  0.00     0.163 HD
ATOM     25  O   UNL A   1      36.086  30.991  30.904  1.00  0.00    -0.269 OA
BRANCH  23  26
ATOM     26  C   UNL A   1      37.547  29.946  29.390  1.00  0.00     0.039 A 
ATOM     27  C   UNL A   1      38.446  29.476  30.350  1.00  0.00     0.014 A 
ATOM     28  C   UNL A   1      37.887  29.920  28.035  1.00  0.00     0.014 A 
ATOM     29  C   UNL A   1      39.737  29.125  29.971  1.00  0.00     0.010 A 
ATOM     30  C   UNL A   1      39.162  29.494  27.649  1.00  0.00     0.010 A 
ATOM     31  C   UNL A   1      40.112  29.135  28.617  1.00  0.00    -0.014 A 
BRANCH  31  32
ATOM     32  C   UNL A   1      41.505  28.775  28.244  1.00  0.00     0.031 A 
ATOM     33  C   UNL A   1      42.613  29.793  28.331  1.00  0.00     0.074 A 
ATOM     34  C   UNL A   1      41.782  27.505  27.886  1.00  0.00     0.049 A 
ATOM     35  N   UNL A   1      43.887  29.648  28.069  1.00  0.00    -0.248 NA
ATOM     36  C   UNL A   1      42.244  31.148  28.770  1.00  0.00     0.031 C 
ATOM     37  C   UNL A   1      40.796  26.428  27.777  1.00  0.00     0.029 A 
ATOM     38  N   UNL A   1      42.972  26.899  27.574  1.00  0.00    -0.354 N 
ATOM     39  C   UNL A   1      44.468  30.890  28.294  1.00  0.00     0.074 A 
ATOM     40  C   UNL A   1      43.403  31.787  28.689  1.00  0.00     0.031 C 
ATOM     41  C   UNL A   1      41.428  25.283  27.480  1.00  0.00     0.029 A 
ATOM     42  C   UNL A   1      42.853  25.553  27.318  1.00  0.00     0.049 A 
ATOM     43  H   UNL A   1      43.830  27.380  27.537  1.00  0.00     0.167 HD
ATOM     44  C   UNL A   1      45.771  31.246  28.196  1.00  0.00     0.037 A 
ATOM     45  C   UNL A   1      43.783  24.639  26.982  1.00  0.00     0.037 A 
ATOM     46  C   UNL A   1      46.831  30.345  27.823  1.00  0.00     0.049 A 
ATOM     47  C   UNL A   1      45.214  25.069  26.839  1.00  0.00     0.074 A 
ATOM     48  C   UNL A   1      48.185  30.610  27.705  1.00  0.00     0.029 A 
ATOM     49  N   UNL A   1      46.659  29.003  27.512  1.00  0.00    -0.354 N 
ATOM     50  N   UNL A   1      45.742  26.252  27.047  1.00  0.00    -0.248 NA
ATOM     51  C   UNL A   1      46.175  24.046  26.401  1.00  0.00     0.031 C 
ATOM     52  C   UNL A   1      48.827  29.437  27.292  1.00  0.00     0.029 A 
ATOM     53  C   UNL A   1      47.879  28.432  27.188  1.00  0.00     0.049 A 
ATOM     54  H   UNL A   1      45.798  28.528  27.520  1.00  0.00     0.167 HD
ATOM     55  C   UNL A   1      47.097  26.115  26.772  1.00  0.00     0.074 A 
ATOM     56  C   UNL A   1      47.312  24.730  26.402  1.00  0.00     0.031 C 
ATOM     57  C   UNL A   1      48.073  27.054  26.815  1.00  0.00     0.037 A 
BRANCH  44  58
ATOM     58  C   UNL A   1      46.131  32.675  28.491  1.00  0.00     0.058 A 
ATOM     59  C   UNL A   1      46.494  33.090  29.783  1.00  0.00     0.135 A 
ATOM     60  C   UNL A   1      46.169  33.631  27.462  1.00  0.00     0.135 A 
ATOM     61  F   UNL A   1      46.459  32.220  30.805  1.00  0.00    -0.206 F 
ATOM     62  C   UNL A   1      46.864  34.404  30.048  1.00  0.00     0.059 A 
ATOM     63  C   UNL A   1      46.557  34.947  27.701  1.00  0.00     0.059 A 
ATOM     64  F   UNL A   1      45.831  33.289  26.209  1.00  0.00    -0.206 F 
ATOM     65  C   UNL A   1      46.893  35.326  28.999  1.00  0.00     0.060 A 
BRANCH  65  66
ATOM     66  S   UNL A   1      47.387  37.025  29.362  1.00  0.00     0.124 S 
ATOM     67  O   UNL A   1      47.672  37.536  28.025  1.00  0.00    -0.237 OA
ATOM     68  O   UNL A   1      46.194  37.566  30.006  1.00  0.00    -0.237 OA
ATOM     69  O   UNL A   1      48.548  36.864  30.233  1.00  0.00    -0.744 OA
ENDBRANCH  65  66
ENDBRANCH  44  58
BRANCH  45  70
ATOM     70  C   UNL A   1      43.379  23.227  26.760  1.00  0.00     0.058 A 
ATOM     71  C   UNL A   1      43.342  22.684  25.468  1.00  0.00     0.135 A 
ATOM     72  C   UNL A   1      43.065  22.383  27.836  1.00  0.00     0.135 A 
ATOM     73  F   UNL A   1      43.627  23.454  24.407  1.00  0.00    -0.206 F 
ATOM     74  C   UNL A   1      43.008  21.351  25.250  1.00  0.00     0.059 A 
ATOM     75  C   UNL A   1      42.752  21.042  27.645  1.00  0.00     0.059 A 
ATOM     76  F   UNL A   1      43.099  22.854  29.092  1.00  0.00    -0.206 F 
ATOM     77  C   UNL A   1      42.722  20.536  26.346  1.00  0.00     0.060 A 
BRANCH  77  78
ATOM     78  S   UNL A   1      42.361  18.790  26.057  1.00  0.00     0.124 S 
ATOM     79  O   UNL A   1      43.309  18.466  24.996  1.00  0.00    -0.237 OA
ATOM     80  O   UNL A   1      42.638  18.200  27.363  1.00  0.00    -0.237 OA
ATOM     81  O   UNL A   1      40.955  18.799  25.667  1.00  0.00    -0.744 OA
ENDBRANCH  77  78
ENDBRANCH  45  70
BRANCH  57  82
ATOM     82  C   UNL A   1      49.466  26.617  26.458  1.00  0.00     0.058 A 
ATOM     83  C   UNL A   1      50.284  25.958  27.387  1.00  0.00     0.135 A 
ATOM     84  C   UNL A   1      49.963  26.805  25.158  1.00  0.00     0.135 A 
ATOM     85  F   UNL A   1      49.857  25.762  28.645  1.00  0.00    -0.206 F 
ATOM     86  C   UNL A   1      51.554  25.507  27.044  1.00  0.00     0.059 A 
ATOM     87  C   UNL A   1      51.221  26.344  24.786  1.00  0.00     0.059 A 
ATOM     88  F   UNL A   1      49.215  27.424  24.231  1.00  0.00    -0.206 F 
ATOM     89  C   UNL A   1      52.013  25.703  25.739  1.00  0.00     0.060 A 
BRANCH  89  90
ATOM     90  S   UNL A   1      53.646  25.075  25.296  1.00  0.00     0.124 S 
ATOM     91  O   UNL A   1      53.450  23.635  25.416  1.00  0.00    -0.237 OA
ATOM     92  O   UNL A   1      53.818  25.582  23.938  1.00  0.00    -0.237 OA
ATOM     93  O   UNL A   1      54.524  25.675  26.296  1.00  0.00    -0.744 OA
ENDBRANCH  89  90
ENDBRANCH  57  82
ENDBRANCH  31  32
ENDBRANCH  23  26
ENDBRANCH  21  22
ENDBRANCH   1  21
TORSDOF 16
ENDMDL
MODEL 3
REMARK VINA RESULT:     -11.8      2.983      3.822
REMARK SMILES C[C@@H]1Oc2c(C(=O)NCCCCCCNC(=O)c3ccc(-c4c5nc(c(-c6c(F)cc(S(=O)(=O)[O-])cc6F)c6ccc([nH]6)c(-c6c(F)cc(S(=O)(=O)[O-])cc6F)c6nc(c(-c7c(F)cc(S(=O)(=O)[O-])cc7F)c7ccc4[nH]7)C=C6)C=C5)cc3)cccc2[C@@H]1C
REMARK SMILES IDX 13 1 12 2 11 3 10 4 9 5 8 6 6 7 7 8 5 10 1 11 2 12 3 13
REMARK SMILES IDX 88 14 4 15 87 16 89 17 86 18 84 19 85 20 14 21 15 22 16 23
REMARK SMILES IDX 17 25 18 26 19 27 83 28 20 29 82 30 21 31 22 32 23 33 76 34
REMARK SMILES IDX 24 35 81 36 75 37 77 38 25 39 80 40 74 41 73 42 26 44 60 45
REMARK SMILES IDX 39 46 59 47 40 48 43 49 58 50 78 51 41 52 42 53 57 55 79 56
REMARK SMILES IDX 44 57 27 58 28 59 37 60 29 61 30 62 36 63 38 64 31 65 32 66
REMARK SMILES IDX 33 67 34 68 35 69 61 70 62 71 71 72 63 73 64 74 70 75 72 76
REMARK SMILES IDX 65 77 66 78 67 79 68 80 69 81 45 82 46 83 55 84 47 85 48 86
REMARK SMILES IDX 54 87 56 88 49 89 50 90 51 91 52 92 53 93
REMARK H PARENT 8 9 15 24 77 43 43 54
REMARK Flexibility Score: inf
ROOT
ATOM      1  C   UNL A   1      34.038  27.761  26.072  1.00  0.00     0.021 C 
ENDROOT
BRANCH   1   2
ATOM      2  C   UNL A   1      33.205  28.055  24.823  1.00  0.00     0.002 C 
BRANCH   2   3
ATOM      3  C   UNL A   1      34.013  28.332  23.548  1.00  0.00     0.002 C 
BRANCH   3   4
ATOM      4  C   UNL A   1      33.535  27.583  22.294  1.00  0.00     0.021 C 
BRANCH   4   5
ATOM      5  C   UNL A   1      32.327  26.677  22.551  1.00  0.00     0.116 C 
BRANCH   5   6
ATOM      6  N   UNL A   1      32.550  25.378  21.947  1.00  0.00    -0.352 N 
ATOM      7  C   UNL A   1      33.310  24.281  22.268  1.00  0.00     0.255 C 
ATOM      8  O   UNL A   1      33.325  23.395  21.412  1.00  0.00    -0.269 OA
ATOM      9  H   UNL A   1      32.038  25.255  21.115  1.00  0.00     0.163 HD
BRANCH   7  10
ATOM     10  C   UNL A   1      34.056  24.110  23.554  1.00  0.00     0.082 A 
ATOM     11  C   UNL A   1      30.468  23.264  26.513  1.00  0.00     0.053 C 
ATOM     12  C   UNL A   1      31.684  24.153  26.287  1.00  0.00     0.177 C 
ATOM     13  O   UNL A   1      31.978  24.139  24.870  1.00  0.00    -0.489 OA
ATOM     14  C   UNL A   1      32.959  23.780  27.075  1.00  0.00     0.060 C 
ATOM     15  C   UNL A   1      33.344  24.077  24.757  1.00  0.00     0.136 A 
ATOM     16  C   UNL A   1      33.970  23.923  25.990  1.00  0.00     0.001 A 
ATOM     17  C   UNL A   1      32.997  22.374  27.669  1.00  0.00     0.017 C 
ATOM     18  C   UNL A   1      35.347  23.838  26.088  1.00  0.00     0.008 A 
ATOM     19  C   UNL A   1      35.443  23.930  23.658  1.00  0.00     0.018 A 
ATOM     20  C   UNL A   1      36.085  23.833  24.908  1.00  0.00     0.001 A 
ENDBRANCH   7  10
ENDBRANCH   5   6
ENDBRANCH   4   5
ENDBRANCH   3   4
ENDBRANCH   2   3
ENDBRANCH   1   2
BRANCH   1  21
ATOM     21  C   UNL A   1      33.395  28.205  27.381  1.00  0.00     0.116 C 
BRANCH  21  22
ATOM     22  N   UNL A   1      33.330  29.655  27.497  1.00  0.00    -0.352 N 
ATOM     23  C   UNL A   1      34.298  30.535  27.925  1.00  0.00     0.251 C 
ATOM     24  H   UNL A   1      32.474  30.064  27.233  1.00  0.00     0.163 HD
ATOM     25  O   UNL A   1      34.021  31.706  28.132  1.00  0.00    -0.269 OA
BRANCH  23  26
ATOM     26  C   UNL A   1      35.675  30.039  28.157  1.00  0.00     0.039 A 
ATOM     27  C   UNL A   1      36.049  29.547  29.409  1.00  0.00     0.014 A 
ATOM     28  C   UNL A   1      36.604  30.090  27.115  1.00  0.00     0.014 A 
ATOM     29  C   UNL A   1      37.384  29.249  29.661  1.00  0.00     0.010 A 
ATOM     30  C   UNL A   1      37.931  29.718  27.350  1.00  0.00     0.010 A 
ATOM     31  C   UNL A   1      38.342  29.338  28.637  1.00  0.00    -0.014 A 
BRANCH  31  32
ATOM     32  C   UNL A   1      39.765  29.034  28.942  1.00  0.00     0.031 A 
ATOM     33  C   UNL A   1      40.613  30.015  29.709  1.00  0.00     0.074 A 
ATOM     34  C   UNL A   1      40.275  27.840  28.579  1.00  0.00     0.049 A 
ATOM     35  N   UNL A   1      41.863  29.905  30.083  1.00  0.00    -0.248 NA
ATOM     36  C   UNL A   1      39.978  31.280  30.109  1.00  0.00     0.031 C 
ATOM     37  C   UNL A   1      39.547  26.803  27.843  1.00  0.00     0.029 A 
ATOM     38  N   UNL A   1      41.509  27.285  28.800  1.00  0.00    -0.354 N 
ATOM     39  C   UNL A   1      42.168  31.089  30.746  1.00  0.00     0.074 A 
ATOM     40  C   UNL A   1      40.982  31.915  30.701  1.00  0.00     0.031 C 
ATOM     41  C   UNL A   1      40.328  25.719  27.725  1.00  0.00     0.029 A 
ATOM     42  C   UNL A   1      41.629  26.002  28.322  1.00  0.00     0.049 A 
ATOM     43  H   UNL A   1      42.240  27.759  29.259  1.00  0.00     0.167 HD
ATOM     44  C   UNL A   1      43.327  31.445  31.351  1.00  0.00     0.037 A 
ATOM     45  C   UNL A   1      42.671  25.150  28.349  1.00  0.00     0.037 A 
ATOM     46  C   UNL A   1      44.500  30.612  31.412  1.00  0.00     0.049 A 
ATOM     47  C   UNL A   1      43.958  25.587  28.988  1.00  0.00     0.074 A 
ATOM     48  C   UNL A   1      45.719  30.882  32.011  1.00  0.00     0.029 A 
ATOM     49  N   UNL A   1      44.600  29.342  30.860  1.00  0.00    -0.354 N 
ATOM     50  N   UNL A   1      44.230  26.714  29.602  1.00  0.00    -0.248 NA
ATOM     51  C   UNL A   1      45.084  24.644  28.928  1.00  0.00     0.031 C 
ATOM     52  C   UNL A   1      46.566  29.790  31.793  1.00  0.00     0.029 A 
ATOM     53  C   UNL A   1      45.864  28.824  31.091  1.00  0.00     0.049 A 
ATOM     54  H   UNL A   1      43.879  28.879  30.376  1.00  0.00     0.167 HD
ATOM     55  C   UNL A   1      45.555  26.615  30.005  1.00  0.00     0.074 A 
ATOM     56  C   UNL A   1      46.025  25.309  29.585  1.00  0.00     0.031 C 
ATOM     57  C   UNL A   1      46.316  27.526  30.659  1.00  0.00     0.037 A 
BRANCH  44  58
ATOM     58  C   UNL A   1      43.392  32.803  31.994  1.00  0.00     0.058 A 
ATOM     59  C   UNL A   1      43.713  33.952  31.254  1.00  0.00     0.135 A 
ATOM     60  C   UNL A   1      43.075  32.967  33.353  1.00  0.00     0.135 A 
ATOM     61  F   UNL A   1      44.038  33.849  29.955  1.00  0.00    -0.206 F 
ATOM     62  C   UNL A   1      43.735  35.213  31.841  1.00  0.00     0.059 A 
ATOM     63  C   UNL A   1      43.071  34.221  33.956  1.00  0.00     0.059 A 
ATOM     64  F   UNL A   1      42.763  31.901  34.107  1.00  0.00    -0.206 F 
ATOM     65  C   UNL A   1      43.412  35.338  33.194  1.00  0.00     0.060 A 
BRANCH  65  66
ATOM     66  S   UNL A   1      43.436  36.984  33.935  1.00  0.00     0.124 S 
ATOM     67  O   UNL A   1      42.148  37.013  34.621  1.00  0.00    -0.237 OA
ATOM     68  O   UNL A   1      44.612  36.921  34.798  1.00  0.00    -0.237 OA
ATOM     69  O   UNL A   1      43.554  37.874  32.783  1.00  0.00    -0.744 OA
ENDBRANCH  65  66
ENDBRANCH  44  58
BRANCH  45  70
ATOM     70  C   UNL A   1      42.531  23.798  27.750  1.00  0.00     0.058 A 
ATOM     71  C   UNL A   1      42.627  23.612  26.364  1.00  0.00     0.135 A 
ATOM     72  C   UNL A   1      42.344  22.662  28.554  1.00  0.00     0.135 A 
ATOM     73  F   UNL A   1      42.799  24.668  25.555  1.00  0.00    -0.206 F 
ATOM     74  C   UNL A   1      42.543  22.345  25.793  1.00  0.00     0.059 A 
ATOM     75  C   UNL A   1      42.280  21.385  28.009  1.00  0.00     0.059 A 
ATOM     76  F   UNL A   1      42.260  22.789  29.886  1.00  0.00    -0.206 F 
ATOM     77  C   UNL A   1      42.376  21.237  26.625  1.00  0.00     0.060 A 
BRANCH  77  78
ATOM     78  S   UNL A   1      42.340  19.592  25.880  1.00  0.00     0.124 S 
ATOM     79  O   UNL A   1      43.361  19.716  24.846  1.00  0.00    -0.237 OA
ATOM     80  O   UNL A   1      42.679  18.736  27.013  1.00  0.00    -0.237 OA
ATOM     81  O   UNL A   1      40.967  19.471  25.402  1.00  0.00    -0.744 OA
ENDBRANCH  77  78
ENDBRANCH  45  70
BRANCH  57  82
ATOM     82  C   UNL A   1      47.737  27.144  30.966  1.00  0.00     0.058 A 
ATOM     83  C   UNL A   1      48.061  26.398  32.108  1.00  0.00     0.135 A 
ATOM     84  C   UNL A   1      48.773  27.474  30.078  1.00  0.00     0.135 A 
ATOM     85  F   UNL A   1      47.106  26.065  32.992  1.00  0.00    -0.206 F 
ATOM     86  C   UNL A   1      49.368  26.001  32.368  1.00  0.00     0.059 A 
ATOM     87  C   UNL A   1      50.084  27.069  30.306  1.00  0.00     0.059 A 
ATOM     88  F   UNL A   1      48.512  28.181  28.966  1.00  0.00    -0.206 F 
ATOM     89  C   UNL A   1      50.373  26.339  31.459  1.00  0.00     0.060 A 
BRANCH  89  90
ATOM     90  S   UNL A   1      52.057  25.779  31.787  1.00  0.00     0.124 S 
ATOM     91  O   UNL A   1      51.842  24.375  32.116  1.00  0.00    -0.237 OA
ATOM     92  O   UNL A   1      52.726  26.038  30.516  1.00  0.00    -0.237 OA
ATOM     93  O   UNL A   1      52.487  26.625  32.897  1.00  0.00    -0.744 OA
ENDBRANCH  89  90
ENDBRANCH  57  82
ENDBRANCH  31  32
ENDBRANCH  23  26
ENDBRANCH  21  22
ENDBRANCH   1  21
TORSDOF 16
ENDMDL
