MODEL 1
REMARK VINA RESULT:     -10.1      0.000      0.000
REMARK SMILES O=C(NCCCCCCNC(=O)[C@@H]1CCn2c(C(=O)c3ccccc3)ccc21)c1ccc(-c2c3nc(c(-c4c(F)cc(S(=O)(=O)[O-])cc4F)c4ccc([nH]4)c(-c4c(F)cc(S(=O)(=O)[O-])cc4F)c4nc(c(-c5c(F)cc(S(=O)(=O)[O-])cc5F)c5ccc2[nH]5)C=C4)C=C3)cc1
REMARK SMILES IDX 6 1 5 2 4 3 3 4 1 5 2 6 29 8 30 9 94 10 31 11 93 12 32 13
REMARK SMILES IDX 33 14 34 15 87 16 35 17 92 18 86 19 88 20 36 21 91 22 85 23
REMARK SMILES IDX 84 24 37 26 71 27 50 28 70 29 51 30 54 31 69 32 89 33 52 34
REMARK SMILES IDX 53 35 68 37 90 38 55 39 38 40 39 41 48 42 40 43 41 44 47 45
REMARK SMILES IDX 49 46 42 47 43 48 44 49 45 50 46 51 72 52 73 53 82 54 74 55
REMARK SMILES IDX 75 56 81 57 83 58 76 59 77 60 78 61 79 62 80 63 56 64 57 65
REMARK SMILES IDX 66 66 58 67 59 68 65 69 67 70 60 71 61 72 62 73 63 74 64 75
REMARK SMILES IDX 7 76 8 77 9 78 10 79 11 80 12 82 13 83 14 84 28 85 15 86
REMARK SMILES IDX 16 87 27 88 17 89 26 90 18 91 19 92 20 93 21 94 25 95 22 96
REMARK SMILES IDX 24 97 23 98
REMARK H PARENT 3 7 88 25 54 36 10 81
REMARK Flexibility Score: inf
ROOT
ATOM      1  C   UNL A   1      34.327  35.072  28.419  1.00  0.00     0.002 C 
ENDROOT
BRANCH   1   2
ATOM      2  C   UNL A   1      34.888  33.713  27.996  1.00  0.00     0.021 C 
BRANCH   2   3
ATOM      3  C   UNL A   1      34.634  32.582  28.987  1.00  0.00     0.116 C 
BRANCH   3   4
ATOM      4  N   UNL A   1      33.877  31.488  28.395  1.00  0.00    -0.352 N 
ATOM      5  O   UNL A   1      33.568  29.545  27.292  1.00  0.00    -0.269 OA
ATOM      6  C   UNL A   1      34.325  30.277  27.927  1.00  0.00     0.251 C 
ATOM      7  H   UNL A   1      32.908  31.640  28.320  1.00  0.00     0.163 HD
BRANCH   6   8
ATOM      8  C   UNL A   1      35.727  29.869  28.166  1.00  0.00     0.039 A 
ATOM      9  C   UNL A   1      36.110  29.334  29.398  1.00  0.00     0.014 A 
ATOM     10  C   UNL A   1      36.671  30.031  27.148  1.00  0.00     0.014 A 
ATOM     11  C   UNL A   1      37.456  29.108  29.663  1.00  0.00     0.010 A 
ATOM     12  C   UNL A   1      38.014  29.724  27.391  1.00  0.00     0.010 A 
ATOM     13  C   UNL A   1      38.424  29.299  28.664  1.00  0.00    -0.014 A 
BRANCH  13  14
ATOM     14  C   UNL A   1      39.852  29.023  28.974  1.00  0.00     0.031 A 
ATOM     15  C   UNL A   1      40.490  27.713  28.597  1.00  0.00     0.074 A 
ATOM     16  C   UNL A   1      40.587  29.988  29.562  1.00  0.00     0.049 A 
ATOM     17  N   UNL A   1      41.734  27.330  28.742  1.00  0.00    -0.248 NA
ATOM     18  C   UNL A   1      39.622  26.695  27.983  1.00  0.00     0.031 C 
ATOM     19  C   UNL A   1      40.074  31.292  29.991  1.00  0.00     0.029 A 
ATOM     20  N   UNL A   1      41.920  30.037  29.876  1.00  0.00    -0.354 N 
ATOM     21  C   UNL A   1      41.794  26.026  28.266  1.00  0.00     0.074 A 
ATOM     22  C   UNL A   1      40.455  25.672  27.845  1.00  0.00     0.031 C 
ATOM     23  C   UNL A   1      41.089  32.032  30.459  1.00  0.00     0.029 A 
ATOM     24  C   UNL A   1      42.314  31.241  30.411  1.00  0.00     0.049 A 
ATOM     25  H   UNL A   1      42.536  29.283  29.732  1.00  0.00     0.167 HD
ATOM     26  C   UNL A   1      42.868  25.203  28.181  1.00  0.00     0.037 A 
ATOM     27  C   UNL A   1      43.525  31.664  30.818  1.00  0.00     0.037 A 
ATOM     28  C   UNL A   1      44.204  25.573  28.575  1.00  0.00     0.049 A 
ATOM     29  C   UNL A   1      44.702  30.739  30.692  1.00  0.00     0.074 A 
ATOM     30  C   UNL A   1      45.365  24.822  28.492  1.00  0.00     0.029 A 
ATOM     31  N   UNL A   1      44.560  26.797  29.120  1.00  0.00    -0.354 N 
ATOM     32  N   UNL A   1      44.743  29.519  30.215  1.00  0.00    -0.248 NA
ATOM     33  C   UNL A   1      45.996  31.249  31.160  1.00  0.00     0.031 C 
ATOM     34  C   UNL A   1      46.417  25.581  29.019  1.00  0.00     0.029 A 
ATOM     35  C   UNL A   1      45.919  26.819  29.391  1.00  0.00     0.049 A 
ATOM     36  H   UNL A   1      43.940  27.542  29.290  1.00  0.00     0.167 HD
ATOM     37  C   UNL A   1      46.071  29.122  30.303  1.00  0.00     0.074 A 
ATOM     38  C   UNL A   1      46.803  30.237  30.870  1.00  0.00     0.031 C 
ATOM     39  C   UNL A   1      46.633  27.939  29.949  1.00  0.00     0.037 A 
BRANCH  26  40
ATOM     40  C   UNL A   1      42.641  23.811  27.656  1.00  0.00     0.058 A 
ATOM     41  C   UNL A   1      42.532  23.546  26.282  1.00  0.00     0.135 A 
ATOM     42  C   UNL A   1      42.567  22.722  28.540  1.00  0.00     0.135 A 
ATOM     43  F   UNL A   1      42.582  24.551  25.394  1.00  0.00    -0.206 F 
ATOM     44  C   UNL A   1      42.332  22.254  25.805  1.00  0.00     0.059 A 
ATOM     45  C   UNL A   1      42.389  21.418  28.083  1.00  0.00     0.059 A 
ATOM     46  F   UNL A   1      42.667  22.917  29.864  1.00  0.00    -0.206 F 
ATOM     47  C   UNL A   1      42.256  21.198  26.712  1.00  0.00     0.060 A 
BRANCH  47  48
ATOM     48  S   UNL A   1      41.989  19.528  26.078  1.00  0.00     0.124 S 
ATOM     49  O   UNL A   1      42.920  19.492  24.955  1.00  0.00    -0.237 OA
ATOM     50  O   UNL A   1      42.348  18.695  27.223  1.00  0.00    -0.237 OA
ATOM     51  O   UNL A   1      40.573  19.521  25.722  1.00  0.00    -0.744 OA
ENDBRANCH  47  48
ENDBRANCH  26  40
BRANCH  27  52
ATOM     52  C   UNL A   1      43.681  33.037  31.362  1.00  0.00     0.058 A 
ATOM     53  C   UNL A   1      43.876  34.132  30.509  1.00  0.00     0.135 A 
ATOM     54  C   UNL A   1      43.605  33.284  32.741  1.00  0.00     0.135 A 
ATOM     55  F   UNL A   1      43.958  33.945  29.184  1.00  0.00    -0.206 F 
ATOM     56  C   UNL A   1      44.004  35.427  31.004  1.00  0.00     0.059 A 
ATOM     57  C   UNL A   1      43.705  34.570  33.259  1.00  0.00     0.059 A 
ATOM     58  F   UNL A   1      43.401  32.270  33.596  1.00  0.00    -0.206 F 
ATOM     59  C   UNL A   1      43.914  35.635  32.383  1.00  0.00     0.060 A 
BRANCH  59  60
ATOM     60  S   UNL A   1      44.025  37.323  33.015  1.00  0.00     0.124 S 
ATOM     61  O   UNL A   1      45.382  37.346  33.549  1.00  0.00    -0.237 OA
ATOM     62  O   UNL A   1      43.797  38.120  31.814  1.00  0.00    -0.237 OA
ATOM     63  O   UNL A   1      42.954  37.378  34.005  1.00  0.00    -0.744 OA
ENDBRANCH  59  60
ENDBRANCH  27  52
BRANCH  39  64
ATOM     64  C   UNL A   1      48.118  27.810  30.133  1.00  0.00     0.058 A 
ATOM     65  C   UNL A   1      48.674  27.314  31.322  1.00  0.00     0.135 A 
ATOM     66  C   UNL A   1      48.995  28.169  29.096  1.00  0.00     0.135 A 
ATOM     67  F   UNL A   1      47.878  26.963  32.345  1.00  0.00    -0.206 F 
ATOM     68  C   UNL A   1      50.051  27.206  31.490  1.00  0.00     0.059 A 
ATOM     69  C   UNL A   1      50.374  28.047  29.234  1.00  0.00     0.059 A 
ATOM     70  F   UNL A   1      48.513  28.639  27.935  1.00  0.00    -0.206 F 
ATOM     71  C   UNL A   1      50.893  27.579  30.441  1.00  0.00     0.060 A 
BRANCH  71  72
ATOM     72  S   UNL A   1      52.679  27.425  30.660  1.00  0.00     0.124 S 
ATOM     73  O   UNL A   1      52.774  26.178  31.413  1.00  0.00    -0.237 OA
ATOM     74  O   UNL A   1      53.162  27.373  29.285  1.00  0.00    -0.237 OA
ATOM     75  O   UNL A   1      53.034  28.634  31.398  1.00  0.00    -0.744 OA
ENDBRANCH  71  72
ENDBRANCH  39  64
ENDBRANCH  13  14
ENDBRANCH   6   8
ENDBRANCH   3   4
ENDBRANCH   2   3
ENDBRANCH   1   2
BRANCH   1  76
ATOM     76  C   UNL A   1      33.191  35.019  29.447  1.00  0.00     0.002 C 
BRANCH  76  77
ATOM     77  C   UNL A   1      32.900  36.341  30.171  1.00  0.00     0.021 C 
BRANCH  77  78
ATOM     78  C   UNL A   1      33.190  36.298  31.672  1.00  0.00     0.116 C 
BRANCH  78  79
ATOM     79  N   UNL A   1      33.222  34.926  32.150  1.00  0.00    -0.356 N 
ATOM     80  C   UNL A   1      34.268  34.108  32.451  1.00  0.00     0.229 C 
ATOM     81  H   UNL A   1      32.335  34.518  32.278  1.00  0.00     0.163 HD
ATOM     82  O   UNL A   1      33.998  32.930  32.710  1.00  0.00    -0.274 OA
BRANCH  80  83
ATOM     83  C   UNL A   1      35.701  34.607  32.605  1.00  0.00     0.127 C 
ATOM     84  C   UNL A   1      36.573  34.216  31.389  1.00  0.00     0.042 C 
ATOM     85  C   UNL A   1      36.459  34.047  33.753  1.00  0.00     0.031 A 
ATOM     86  C   UNL A   1      37.946  33.814  31.950  1.00  0.00     0.124 C 
ATOM     87  N   UNL A   1      37.699  33.610  33.366  1.00  0.00    -0.341 N 
ATOM     88  C   UNL A   1      36.317  33.813  35.092  1.00  0.00     0.025 A 
ATOM     89  C   UNL A   1      38.337  32.963  34.380  1.00  0.00     0.090 A 
ATOM     90  C   UNL A   1      37.487  33.104  35.481  1.00  0.00     0.032 A 
BRANCH  89  91
ATOM     91  C   UNL A   1      39.583  32.209  34.366  1.00  0.00     0.209 C 
ATOM     92  O   UNL A   1      40.621  32.651  34.853  1.00  0.00    -0.287 OA
BRANCH  91  93
ATOM     93  C   UNL A   1      39.654  30.853  33.772  1.00  0.00     0.024 A 
ATOM     94  C   UNL A   1      38.469  30.248  33.335  1.00  0.00     0.012 A 
ATOM     95  C   UNL A   1      40.865  30.155  33.695  1.00  0.00     0.012 A 
ATOM     96  C   UNL A   1      38.504  28.970  32.775  1.00  0.00     0.001 A 
ATOM     97  C   UNL A   1      40.896  28.881  33.125  1.00  0.00     0.001 A 
ATOM     98  C   UNL A   1      39.717  28.293  32.662  1.00  0.00     0.000 A 
ENDBRANCH  91  93
ENDBRANCH  89  91
ENDBRANCH  80  83
ENDBRANCH  78  79
ENDBRANCH  77  78
ENDBRANCH  76  77
ENDBRANCH   1  76
TORSDOF 18
ENDMDL
MODEL 2
REMARK VINA RESULT:     -10.0      3.773      7.260
REMARK SMILES O=C(NCCCCCCNC(=O)[C@@H]1CCn2c(C(=O)c3ccccc3)ccc21)c1ccc(-c2c3nc(c(-c4c(F)cc(S(=O)(=O)[O-])cc4F)c4ccc([nH]4)c(-c4c(F)cc(S(=O)(=O)[O-])cc4F)c4nc(c(-c5c(F)cc(S(=O)(=O)[O-])cc5F)c5ccc2[nH]5)C=C4)C=C3)cc1
REMARK SMILES IDX 6 1 5 2 4 3 3 4 1 5 2 6 29 8 30 9 94 10 31 11 93 12 32 13
REMARK SMILES IDX 33 14 34 15 87 16 35 17 92 18 86 19 88 20 36 21 91 22 85 23
REMARK SMILES IDX 84 24 37 26 71 27 50 28 70 29 51 30 54 31 69 32 89 33 52 34
REMARK SMILES IDX 53 35 68 37 90 38 55 39 38 40 39 41 48 42 40 43 41 44 47 45
REMARK SMILES IDX 49 46 42 47 43 48 44 49 45 50 46 51 72 52 73 53 82 54 74 55
REMARK SMILES IDX 75 56 81 57 83 58 76 59 77 60 78 61 79 62 80 63 56 64 57 65
REMARK SMILES IDX 66 66 58 67 59 68 65 69 67 70 60 71 61 72 62 73 63 74 64 75
REMARK SMILES IDX 7 76 8 77 9 78 10 79 11 80 12 82 13 83 14 84 28 85 15 86
REMARK SMILES IDX 16 87 27 88 17 89 26 90 18 91 19 92 20 93 21 94 25 95 22 96
REMARK SMILES IDX 24 97 23 98
REMARK H PARENT 3 7 88 25 54 36 10 81
REMARK Flexibility Score: inf
ROOT
ATOM      1  C   UNL A   1      33.692  25.913  25.788  1.00  0.00     0.002 C 
ENDROOT
BRANCH   1   2
ATOM      2  C   UNL A   1      33.731  27.436  25.928  1.00  0.00     0.021 C 
BRANCH   2   3
ATOM      3  C   UNL A   1      33.369  27.958  27.315  1.00  0.00     0.116 C 
BRANCH   3   4
ATOM      4  N   UNL A   1      33.243  29.407  27.344  1.00  0.00    -0.352 N 
ATOM      5  O   UNL A   1      33.818  31.524  27.872  1.00  0.00    -0.269 OA
ATOM      6  C   UNL A   1      34.160  30.350  27.744  1.00  0.00     0.251 C 
ATOM      7  H   UNL A   1      32.379  29.761  27.034  1.00  0.00     0.163 HD
BRANCH   6   8
ATOM      8  C   UNL A   1      35.550  29.943  28.045  1.00  0.00     0.039 A 
ATOM      9  C   UNL A   1      35.903  29.521  29.328  1.00  0.00     0.014 A 
ATOM     10  C   UNL A   1      36.513  29.993  27.033  1.00  0.00     0.014 A 
ATOM     11  C   UNL A   1      37.240  29.298  29.638  1.00  0.00     0.010 A 
ATOM     12  C   UNL A   1      37.846  29.688  27.328  1.00  0.00     0.010 A 
ATOM     13  C   UNL A   1      38.228  29.378  28.642  1.00  0.00    -0.014 A 
BRANCH  13  14
ATOM     14  C   UNL A   1      39.645  29.108  29.002  1.00  0.00     0.031 A 
ATOM     15  C   UNL A   1      40.302  27.801  28.648  1.00  0.00     0.074 A 
ATOM     16  C   UNL A   1      40.354  30.076  29.615  1.00  0.00     0.049 A 
ATOM     17  N   UNL A   1      41.541  27.424  28.837  1.00  0.00    -0.248 NA
ATOM     18  C   UNL A   1      39.460  26.778  28.006  1.00  0.00     0.031 C 
ATOM     19  C   UNL A   1      39.821  31.378  30.025  1.00  0.00     0.029 A 
ATOM     20  N   UNL A   1      41.676  30.131  29.975  1.00  0.00    -0.354 N 
ATOM     21  C   UNL A   1      41.624  26.120  28.365  1.00  0.00     0.074 A 
ATOM     22  C   UNL A   1      40.302  25.759  27.897  1.00  0.00     0.031 C 
ATOM     23  C   UNL A   1      40.816  32.123  30.527  1.00  0.00     0.029 A 
ATOM     24  C   UNL A   1      42.046  31.337  30.523  1.00  0.00     0.049 A 
ATOM     25  H   UNL A   1      42.299  29.380  29.854  1.00  0.00     0.167 HD
ATOM     26  C   UNL A   1      42.703  25.301  28.318  1.00  0.00     0.037 A 
ATOM     27  C   UNL A   1      43.239  31.766  30.972  1.00  0.00     0.037 A 
ATOM     28  C   UNL A   1      44.023  25.677  28.757  1.00  0.00     0.049 A 
ATOM     29  C   UNL A   1      44.425  30.846  30.888  1.00  0.00     0.074 A 
ATOM     30  C   UNL A   1      45.190  24.931  28.715  1.00  0.00     0.029 A 
ATOM     31  N   UNL A   1      44.355  26.903  29.314  1.00  0.00    -0.354 N 
ATOM     32  N   UNL A   1      44.487  29.626  30.413  1.00  0.00    -0.248 NA
ATOM     33  C   UNL A   1      45.699  31.363  31.400  1.00  0.00     0.031 C 
ATOM     34  C   UNL A   1      46.219  25.695  29.279  1.00  0.00     0.029 A 
ATOM     35  C   UNL A   1      45.704  26.931  29.632  1.00  0.00     0.049 A 
ATOM     36  H   UNL A   1      43.726  27.645  29.462  1.00  0.00     0.167 HD
ATOM     37  C   UNL A   1      45.813  29.235  30.548  1.00  0.00     0.074 A 
ATOM     38  C   UNL A   1      46.520  30.354  31.139  1.00  0.00     0.031 C 
ATOM     39  C   UNL A   1      46.393  28.055  30.215  1.00  0.00     0.037 A 
BRANCH  26  40
ATOM     40  C   UNL A   1      42.501  23.908  27.786  1.00  0.00     0.058 A 
ATOM     41  C   UNL A   1      42.375  22.800  28.637  1.00  0.00     0.135 A 
ATOM     42  C   UNL A   1      42.395  23.685  26.402  1.00  0.00     0.135 A 
ATOM     43  F   UNL A   1      42.481  22.954  29.967  1.00  0.00    -0.206 F 
ATOM     44  C   UNL A   1      42.178  21.516  28.137  1.00  0.00     0.059 A 
ATOM     45  C   UNL A   1      42.177  22.412  25.881  1.00  0.00     0.059 A 
ATOM     46  F   UNL A   1      42.506  24.708  25.542  1.00  0.00    -0.206 F 
ATOM     47  C   UNL A   1      42.085  21.331  26.757  1.00  0.00     0.060 A 
BRANCH  47  48
ATOM     48  S   UNL A   1      41.837  19.659  26.122  1.00  0.00     0.124 S 
ATOM     49  O   UNL A   1      42.250  18.851  27.265  1.00  0.00    -0.237 OA
ATOM     50  O   UNL A   1      40.409  19.645  25.821  1.00  0.00    -0.237 OA
ATOM     51  O   UNL A   1      42.719  19.602  24.960  1.00  0.00    -0.744 OA
ENDBRANCH  47  48
ENDBRANCH  26  40
BRANCH  27  52
ATOM     52  C   UNL A   1      43.371  33.140  31.520  1.00  0.00     0.058 A 
ATOM     53  C   UNL A   1      43.277  33.379  32.897  1.00  0.00     0.135 A 
ATOM     54  C   UNL A   1      43.626  34.235  30.679  1.00  0.00     0.135 A 
ATOM     55  F   UNL A   1      43.032  32.365  33.740  1.00  0.00    -0.206 F 
ATOM     56  C   UNL A   1      43.419  34.659  33.425  1.00  0.00     0.059 A 
ATOM     57  C   UNL A   1      43.796  35.518  31.184  1.00  0.00     0.059 A 
ATOM     58  F   UNL A   1      43.743  34.053  29.355  1.00  0.00    -0.206 F 
ATOM     59  C   UNL A   1      43.681  35.723  32.559  1.00  0.00     0.060 A 
BRANCH  59  60
ATOM     60  S   UNL A   1      43.919  37.372  33.255  1.00  0.00     0.124 S 
ATOM     61  O   UNL A   1      44.034  38.184  32.049  1.00  0.00    -0.237 OA
ATOM     62  O   UNL A   1      42.701  37.557  34.037  1.00  0.00    -0.237 OA
ATOM     63  O   UNL A   1      45.141  37.228  34.040  1.00  0.00    -0.744 OA
ENDBRANCH  59  60
ENDBRANCH  27  52
BRANCH  39  64
ATOM     64  C   UNL A   1      47.871  27.932  30.450  1.00  0.00     0.058 A 
ATOM     65  C   UNL A   1      48.387  27.438  31.658  1.00  0.00     0.135 A 
ATOM     66  C   UNL A   1      48.782  28.295  29.445  1.00  0.00     0.135 A 
ATOM     67  F   UNL A   1      47.557  27.083  32.652  1.00  0.00    -0.206 F 
ATOM     68  C   UNL A   1      49.758  27.337  31.874  1.00  0.00     0.059 A 
ATOM     69  C   UNL A   1      50.155  28.179  29.630  1.00  0.00     0.059 A 
ATOM     70  F   UNL A   1      48.339  28.763  28.268  1.00  0.00    -0.206 F 
ATOM     71  C   UNL A   1      50.635  27.714  30.855  1.00  0.00     0.060 A 
BRANCH  71  72
ATOM     72  S   UNL A   1      52.412  27.567  31.137  1.00  0.00     0.124 S 
ATOM     73  O   UNL A   1      52.448  26.952  32.459  1.00  0.00    -0.237 OA
ATOM     74  O   UNL A   1      52.837  26.717  30.030  1.00  0.00    -0.237 OA
ATOM     75  O   UNL A   1      52.879  28.949  31.073  1.00  0.00    -0.744 OA
ENDBRANCH  71  72
ENDBRANCH  39  64
ENDBRANCH  13  14
ENDBRANCH   6   8
ENDBRANCH   3   4
ENDBRANCH   2   3
ENDBRANCH   1   2
BRANCH   1  76
ATOM     76  C   UNL A   1      34.294  25.360  24.491  1.00  0.00     0.002 C 
BRANCH  76  77
ATOM     77  C   UNL A   1      35.350  24.261  24.675  1.00  0.00     0.021 C 
BRANCH  77  78
ATOM     78  C   UNL A   1      35.208  23.098  23.692  1.00  0.00     0.116 C 
BRANCH  78  79
ATOM     79  N   UNL A   1      36.098  22.009  24.054  1.00  0.00    -0.356 N 
ATOM     80  C   UNL A   1      35.913  20.937  24.874  1.00  0.00     0.229 C 
ATOM     81  H   UNL A   1      36.988  22.052  23.635  1.00  0.00     0.163 HD
ATOM     82  O   UNL A   1      36.903  20.234  25.105  1.00  0.00    -0.274 OA
BRANCH  80  83
ATOM     83  C   UNL A   1      34.545  20.510  25.396  1.00  0.00     0.127 C 
ATOM     84  C   UNL A   1      33.503  20.421  24.256  1.00  0.00     0.042 C 
ATOM     85  C   UNL A   1      33.904  21.440  26.361  1.00  0.00     0.031 A 
ATOM     86  C   UNL A   1      32.190  20.982  24.822  1.00  0.00     0.124 C 
ATOM     87  N   UNL A   1      32.601  21.690  26.021  1.00  0.00    -0.341 N 
ATOM     88  C   UNL A   1      34.200  22.148  27.492  1.00  0.00     0.025 A 
ATOM     89  C   UNL A   1      32.056  22.654  26.814  1.00  0.00     0.090 A 
ATOM     90  C   UNL A   1      33.045  22.935  27.761  1.00  0.00     0.032 A 
BRANCH  89  91
ATOM     91  C   UNL A   1      30.774  23.336  26.705  1.00  0.00     0.209 C 
ATOM     92  O   UNL A   1      29.844  23.108  27.476  1.00  0.00    -0.287 OA
BRANCH  91  93
ATOM     93  C   UNL A   1      30.533  24.358  25.659  1.00  0.00     0.024 A 
ATOM     94  C   UNL A   1      30.732  24.008  24.319  1.00  0.00     0.012 A 
ATOM     95  C   UNL A   1      30.168  25.668  25.993  1.00  0.00     0.012 A 
ATOM     96  C   UNL A   1      30.518  24.950  23.313  1.00  0.00     0.001 A 
ATOM     97  C   UNL A   1      29.945  26.604  24.982  1.00  0.00     0.001 A 
ATOM     98  C   UNL A   1      30.115  26.244  23.644  1.00  0.00     0.000 A 
ENDBRANCH  91  93
ENDBRANCH  89  91
ENDBRANCH  80  83
ENDBRANCH  78  79
ENDBRANCH  77  78
ENDBRANCH  76  77
ENDBRANCH   1  76
TORSDOF 18
ENDMDL
MODEL 3
REMARK VINA RESULT:      -9.8      5.498     11.851
REMARK SMILES O=C(NCCCCCCNC(=O)[C@@H]1CCn2c(C(=O)c3ccccc3)ccc21)c1ccc(-c2c3nc(c(-c4c(F)cc(S(=O)(=O)[O-])cc4F)c4ccc([nH]4)c(-c4c(F)cc(S(=O)(=O)[O-])cc4F)c4nc(c(-c5c(F)cc(S(=O)(=O)[O-])cc5F)c5ccc2[nH]5)C=C4)C=C3)cc1
REMARK SMILES IDX 6 1 5 2 4 3 3 4 1 5 2 6 29 8 30 9 94 10 31 11 93 12 32 13
REMARK SMILES IDX 33 14 34 15 87 16 35 17 92 18 86 19 88 20 36 21 91 22 85 23
REMARK SMILES IDX 84 24 37 26 71 27 50 28 70 29 51 30 54 31 69 32 89 33 52 34
REMARK SMILES IDX 53 35 68 37 90 38 55 39 38 40 39 41 48 42 40 43 41 44 47 45
REMARK SMILES IDX 49 46 42 47 43 48 44 49 45 50 46 51 72 52 73 53 82 54 74 55
REMARK SMILES IDX 75 56 81 57 83 58 76 59 77 60 78 61 79 62 80 63 56 64 57 65
REMARK SMILES IDX 66 66 58 67 59 68 65 69 67 70 60 71 61 72 62 73 63 74 64 75
REMARK SMILES IDX 7 76 8 77 9 78 10 79 11 80 12 82 13 83 14 84 28 85 15 86
REMARK SMILES IDX 16 87 27 88 17 89 26 90 18 91 19 92 20 93 21 94 25 95 22 96
REMARK SMILES IDX 24 97 23 98
REMARK H PARENT 3 7 88 25 54 36 10 81
REMARK Flexibility Score: inf
ROOT
ATOM      1  C   UNL A   1      31.920  30.710  26.174  1.00  0.00     0.002 C 
ENDROOT
BRANCH   1   2
ATOM      2  C   UNL A   1      31.624  32.040  26.868  1.00  0.00     0.021 C 
BRANCH   2   3
ATOM      3  C   UNL A   1      32.854  32.768  27.402  1.00  0.00     0.116 C 
BRANCH   3   4
ATOM      4  N   UNL A   1      32.572  34.157  27.735  1.00  0.00    -0.352 N 
ATOM      5  O   UNL A   1      32.631  36.039  28.977  1.00  0.00    -0.269 OA
ATOM      6  C   UNL A   1      33.118  34.940  28.724  1.00  0.00     0.251 C 
ATOM      7  H   UNL A   1      31.895  34.596  27.173  1.00  0.00     0.163 HD
BRANCH   6   8
ATOM      8  C   UNL A   1      34.277  34.444  29.499  1.00  0.00     0.039 A 
ATOM      9  C   UNL A   1      35.571  34.544  28.982  1.00  0.00     0.014 A 
ATOM     10  C   UNL A   1      34.065  33.864  30.752  1.00  0.00     0.014 A 
ATOM     11  C   UNL A   1      36.627  33.929  29.646  1.00  0.00     0.010 A 
ATOM     12  C   UNL A   1      35.144  33.319  31.457  1.00  0.00     0.010 A 
ATOM     13  C   UNL A   1      36.428  33.311  30.890  1.00  0.00    -0.014 A 
BRANCH  13  14
ATOM     14  C   UNL A   1      37.585  32.686  31.584  1.00  0.00     0.031 A 
ATOM     15  C   UNL A   1      38.035  33.171  32.937  1.00  0.00     0.074 A 
ATOM     16  C   UNL A   1      38.204  31.640  31.002  1.00  0.00     0.049 A 
ATOM     17  N   UNL A   1      38.987  32.704  33.704  1.00  0.00    -0.248 NA
ATOM     18  C   UNL A   1      37.332  34.335  33.501  1.00  0.00     0.031 C 
ATOM     19  C   UNL A   1      37.869  31.092  29.684  1.00  0.00     0.029 A 
ATOM     20  N   UNL A   1      39.219  30.834  31.447  1.00  0.00    -0.354 N 
ATOM     21  C   UNL A   1      39.017  33.526  34.824  1.00  0.00     0.074 A 
ATOM     22  C   UNL A   1      38.000  34.538  34.628  1.00  0.00     0.031 C 
ATOM     23  C   UNL A   1      38.624  30.009  29.453  1.00  0.00     0.029 A 
ATOM     24  C   UNL A   1      39.530  29.813  30.580  1.00  0.00     0.049 A 
ATOM     25  H   UNL A   1      39.681  30.973  32.304  1.00  0.00     0.167 HD
ATOM     26  C   UNL A   1      39.814  33.442  35.918  1.00  0.00     0.037 A 
ATOM     27  C   UNL A   1      40.442  28.828  30.678  1.00  0.00     0.037 A 
ATOM     28  C   UNL A   1      40.804  32.414  36.119  1.00  0.00     0.049 A 
ATOM     29  C   UNL A   1      41.297  28.744  31.910  1.00  0.00     0.074 A 
ATOM     30  C   UNL A   1      41.635  32.220  37.211  1.00  0.00     0.029 A 
ATOM     31  N   UNL A   1      41.095  31.404  35.214  1.00  0.00    -0.354 N 
ATOM     32  N   UNL A   1      41.291  29.517  32.970  1.00  0.00    -0.248 NA
ATOM     33  C   UNL A   1      42.280  27.656  31.959  1.00  0.00     0.031 C 
ATOM     34  C   UNL A   1      42.452  31.113  36.950  1.00  0.00     0.029 A 
ATOM     35  C   UNL A   1      42.101  30.592  35.716  1.00  0.00     0.049 A 
ATOM     36  H   UNL A   1      40.653  31.281  34.344  1.00  0.00     0.167 HD
ATOM     37  C   UNL A   1      42.255  28.994  33.823  1.00  0.00     0.074 A 
ATOM     38  C   UNL A   1      42.814  27.833  33.160  1.00  0.00     0.031 C 
ATOM     39  C   UNL A   1      42.643  29.437  35.045  1.00  0.00     0.037 A 
BRANCH  26  40
ATOM     40  C   UNL A   1      39.661  34.498  36.977  1.00  0.00     0.058 A 
ATOM     41  C   UNL A   1      38.891  34.286  38.131  1.00  0.00     0.135 A 
ATOM     42  C   UNL A   1      40.325  35.731  36.852  1.00  0.00     0.135 A 
ATOM     43  F   UNL A   1      38.225  33.132  38.295  1.00  0.00    -0.206 F 
ATOM     44  C   UNL A   1      38.762  35.265  39.111  1.00  0.00     0.059 A 
ATOM     45  C   UNL A   1      40.228  36.717  37.831  1.00  0.00     0.059 A 
ATOM     46  F   UNL A   1      41.076  35.987  35.771  1.00  0.00    -0.206 F 
ATOM     47  C   UNL A   1      39.430  36.480  38.950  1.00  0.00     0.060 A 
BRANCH  47  48
ATOM     48  S   UNL A   1      39.248  37.744  40.226  1.00  0.00     0.124 S 
ATOM     49  O   UNL A   1      40.584  38.330  40.247  1.00  0.00    -0.237 OA
ATOM     50  O   UNL A   1      38.194  38.594  39.679  1.00  0.00    -0.237 OA
ATOM     51  O   UNL A   1      38.878  36.979  41.413  1.00  0.00    -0.744 OA
ENDBRANCH  47  48
ENDBRANCH  26  40
BRANCH  27  52
ATOM     52  C   UNL A   1      40.572  27.833  29.583  1.00  0.00     0.058 A 
ATOM     53  C   UNL A   1      41.585  27.948  28.621  1.00  0.00     0.135 A 
ATOM     54  C   UNL A   1      39.708  26.731  29.498  1.00  0.00     0.135 A 
ATOM     55  F   UNL A   1      42.434  28.986  28.660  1.00  0.00    -0.206 F 
ATOM     56  C   UNL A   1      41.731  27.011  27.602  1.00  0.00     0.059 A 
ATOM     57  C   UNL A   1      39.848  25.769  28.504  1.00  0.00     0.059 A 
ATOM     58  F   UNL A   1      38.734  26.568  30.407  1.00  0.00    -0.206 F 
ATOM     59  C   UNL A   1      40.858  25.923  27.555  1.00  0.00     0.060 A 
BRANCH  59  60
ATOM     60  S   UNL A   1      41.086  24.681  26.263  1.00  0.00     0.124 S 
ATOM     61  O   UNL A   1      41.481  25.507  25.130  1.00  0.00    -0.237 OA
ATOM     62  O   UNL A   1      42.130  23.833  26.831  1.00  0.00    -0.237 OA
ATOM     63  O   UNL A   1      39.769  24.058  26.165  1.00  0.00    -0.744 OA
ENDBRANCH  59  60
ENDBRANCH  27  52
BRANCH  39  64
ATOM     64  C   UNL A   1      43.698  28.638  35.756  1.00  0.00     0.058 A 
ATOM     65  C   UNL A   1      43.369  27.562  36.594  1.00  0.00     0.135 A 
ATOM     66  C   UNL A   1      45.057  28.944  35.579  1.00  0.00     0.135 A 
ATOM     67  F   UNL A   1      42.083  27.236  36.801  1.00  0.00    -0.206 F 
ATOM     68  C   UNL A   1      44.351  26.834  37.258  1.00  0.00     0.059 A 
ATOM     69  C   UNL A   1      46.056  28.213  36.213  1.00  0.00     0.059 A 
ATOM     70  F   UNL A   1      45.424  29.957  34.779  1.00  0.00    -0.206 F 
ATOM     71  C   UNL A   1      45.692  27.169  37.065  1.00  0.00     0.060 A 
BRANCH  71  72
ATOM     72  S   UNL A   1      46.962  26.211  37.919  1.00  0.00     0.124 S 
ATOM     73  O   UNL A   1      47.924  25.979  36.847  1.00  0.00    -0.237 OA
ATOM     74  O   UNL A   1      47.393  27.126  38.971  1.00  0.00    -0.237 OA
ATOM     75  O   UNL A   1      46.239  25.030  38.382  1.00  0.00    -0.744 OA
ENDBRANCH  71  72
ENDBRANCH  39  64
ENDBRANCH  13  14
ENDBRANCH   6   8
ENDBRANCH   3   4
ENDBRANCH   2   3
ENDBRANCH   1   2
BRANCH   1  76
ATOM     76  C   UNL A   1      32.480  29.608  27.082  1.00  0.00     0.002 C 
BRANCH  76  77
ATOM     77  C   UNL A   1      31.535  28.427  27.339  1.00  0.00     0.021 C 
BRANCH  77  78
ATOM     78  C   UNL A   1      31.767  27.237  26.408  1.00  0.00     0.116 C 
BRANCH  78  79
ATOM     79  N   UNL A   1      31.038  26.070  26.874  1.00  0.00    -0.356 N 
ATOM     80  C   UNL A   1      30.935  24.814  26.357  1.00  0.00     0.229 C 
ATOM     81  H   UNL A   1      30.533  26.211  27.707  1.00  0.00     0.163 HD
ATOM     82  O   UNL A   1      30.126  24.053  26.900  1.00  0.00    -0.274 OA
BRANCH  80  83
ATOM     83  C   UNL A   1      31.844  24.288  25.252  1.00  0.00     0.127 C 
ATOM     84  C   UNL A   1      31.065  24.057  23.935  1.00  0.00     0.042 C 
ATOM     85  C   UNL A   1      32.470  22.965  25.507  1.00  0.00     0.031 A 
ATOM     86  C   UNL A   1      31.613  22.756  23.330  1.00  0.00     0.124 C 
ATOM     87  N   UNL A   1      32.326  22.131  24.430  1.00  0.00    -0.341 N 
ATOM     88  C   UNL A   1      33.145  22.294  26.487  1.00  0.00     0.025 A 
ATOM     89  C   UNL A   1      32.766  20.873  24.713  1.00  0.00     0.090 A 
ATOM     90  C   UNL A   1      33.306  20.967  25.998  1.00  0.00     0.032 A 
BRANCH  89  91
ATOM     91  C   UNL A   1      32.654  19.649  23.931  1.00  0.00     0.209 C 
ATOM     92  O   UNL A   1      32.154  19.634  22.808  1.00  0.00    -0.287 OA
BRANCH  91  93
ATOM     93  C   UNL A   1      33.157  18.356  24.451  1.00  0.00     0.024 A 
ATOM     94  C   UNL A   1      34.479  17.989  24.172  1.00  0.00     0.012 A 
ATOM     95  C   UNL A   1      32.323  17.482  25.159  1.00  0.00     0.012 A 
ATOM     96  C   UNL A   1      34.980  16.775  24.645  1.00  0.00     0.001 A 
ATOM     97  C   UNL A   1      32.831  16.274  25.638  1.00  0.00     0.001 A 
ATOM     98  C   UNL A   1      34.159  15.924  25.385  1.00  0.00     0.000 A 
ENDBRANCH  91  93
ENDBRANCH  89  91
ENDBRANCH  80  83
ENDBRANCH  78  79
ENDBRANCH  77  78
ENDBRANCH  76  77
ENDBRANCH   1  76
TORSDOF 18
ENDMDL
