MODEL 1
REMARK VINA RESULT:     -11.8      0.000      0.000
REMARK SMILES Cc1ccc2nc(CC3(CC(=O)NCCCCCCNC(=O)c4ccc(-c5c6nc(c(-c7c(F)cc(S(=O)(=O)[O-])cc7F)c7ccc([nH]7)c(-c7c(F)cc(S(=O)(=O)[O-])cc7F)c7nc(c(-c8c(F)cc(S(=O)(=O)[O-])cc8F)c8ccc5[nH]8)C=C7)C=C6)cc4)CCCCC3)sc2c1
REMARK SMILES IDX 16 1 15 2 14 3 13 4 11 5 12 6 10 8 9 9 89 10 93 11 90 12
REMARK SMILES IDX 92 13 91 14 8 15 7 16 1 17 2 18 3 19 96 20 4 21 95 22 5 23
REMARK SMILES IDX 94 24 6 25 17 26 18 27 19 28 20 29 21 30 22 32 23 33 24 34
REMARK SMILES IDX 88 35 25 36 87 37 26 38 27 39 28 40 81 41 29 42 86 43 80 44
REMARK SMILES IDX 82 45 30 46 85 47 79 48 78 49 31 51 65 52 44 53 64 54 45 55
REMARK SMILES IDX 48 56 63 57 83 58 46 59 47 60 62 62 84 63 49 64 32 65 33 66
REMARK SMILES IDX 42 67 34 68 35 69 41 70 43 71 36 72 37 73 38 74 39 75 40 76
REMARK SMILES IDX 66 77 67 78 76 79 68 80 69 81 75 82 77 83 70 84 71 85 72 86
REMARK SMILES IDX 73 87 74 88 50 89 51 90 60 91 52 92 53 93 59 94 61 95 54 96
REMARK SMILES IDX 55 97 56 98 57 99 58 100
REMARK H PARENT 13 7 20 31 82 50 48 61
REMARK Flexibility Score: inf
ROOT
ATOM      1  C   UNL A   1      35.442  31.919  27.769  1.00  0.00     0.002 C 
ENDROOT
BRANCH   1   2
ATOM      2  C   UNL A   1      34.042  31.305  27.731  1.00  0.00     0.021 C 
BRANCH   2   3
ATOM      3  C   UNL A   1      33.981  29.910  27.102  1.00  0.00     0.116 C 
BRANCH   3   4
ATOM      4  N   UNL A   1      33.003  29.075  27.773  1.00  0.00    -0.356 N 
ATOM      5  C   UNL A   1      31.856  28.515  27.307  1.00  0.00     0.220 C 
ATOM      6  O   UNL A   1      31.170  27.860  28.097  1.00  0.00    -0.275 OA
ATOM      7  H   UNL A   1      33.202  28.884  28.717  1.00  0.00     0.163 HD
BRANCH   5   8
ATOM      8  C   UNL A   1      31.410  28.681  25.858  1.00  0.00     0.107 C 
BRANCH   8   9
ATOM      9  C   UNL A   1      31.439  27.413  24.933  1.00  0.00    -0.015 C 
ATOM     10  C   UNL A   1      32.908  26.886  24.862  1.00  0.00     0.008 C 
ATOM     11  C   UNL A   1      31.044  27.747  23.469  1.00  0.00     0.008 C 
ATOM     12  C   UNL A   1      33.872  27.852  24.160  1.00  0.00     0.001 C 
ATOM     13  C   UNL A   1      31.966  28.745  22.768  1.00  0.00     0.001 C 
ATOM     14  C   UNL A   1      33.398  28.233  22.760  1.00  0.00     0.000 C 
BRANCH   9  15
ATOM     15  C   UNL A   1      30.523  26.301  25.560  1.00  0.00     0.075 C 
BRANCH  15  16
ATOM     16  C   UNL A   1      30.959  24.889  25.294  1.00  0.00     0.094 A 
ATOM     17  C   UNL A   1      33.297  19.209  24.624  1.00  0.00     0.044 C 
ATOM     18  C   UNL A   1      32.678  20.566  24.448  1.00  0.00    -0.050 A 
ATOM     19  C   UNL A   1      32.386  21.047  23.170  1.00  0.00     0.006 A 
ATOM     20  C   UNL A   1      32.396  21.351  25.580  1.00  0.00     0.024 A 
ATOM     21  C   UNL A   1      31.803  22.306  22.996  1.00  0.00     0.030 A 
ATOM     22  C   UNL A   1      31.839  22.627  25.391  1.00  0.00     0.055 A 
ATOM     23  C   UNL A   1      31.525  23.107  24.119  1.00  0.00     0.082 A 
ATOM     24  S   UNL A   1      31.447  23.837  26.556  1.00  0.00    -0.119 S 
ATOM     25  N   UNL A   1      30.966  24.367  24.087  1.00  0.00    -0.241 NA
ENDBRANCH  15  16
ENDBRANCH   9  15
ENDBRANCH   8   9
ENDBRANCH   5   8
ENDBRANCH   3   4
ENDBRANCH   2   3
ENDBRANCH   1   2
BRANCH   1  26
ATOM     26  C   UNL A   1      35.544  33.231  28.555  1.00  0.00     0.002 C 
BRANCH  26  27
ATOM     27  C   UNL A   1      36.963  33.668  28.939  1.00  0.00     0.021 C 
BRANCH  27  28
ATOM     28  C   UNL A   1      37.295  33.558  30.426  1.00  0.00     0.116 C 
BRANCH  28  29
ATOM     29  N   UNL A   1      36.549  32.488  31.070  1.00  0.00    -0.352 N 
ATOM     30  C   UNL A   1      36.791  31.138  31.090  1.00  0.00     0.251 C 
ATOM     31  H   UNL A   1      35.750  32.777  31.567  1.00  0.00     0.163 HD
ATOM     32  O   UNL A   1      35.920  30.367  31.482  1.00  0.00    -0.269 OA
BRANCH  30  33
ATOM     33  C   UNL A   1      38.095  30.609  30.635  1.00  0.00     0.039 A 
ATOM     34  C   UNL A   1      38.293  30.374  29.272  1.00  0.00     0.014 A 
ATOM     35  C   UNL A   1      39.107  30.313  31.553  1.00  0.00     0.014 A 
ATOM     36  C   UNL A   1      39.528  29.897  28.823  1.00  0.00     0.010 A 
ATOM     37  C   UNL A   1      40.356  29.898  31.098  1.00  0.00     0.010 A 
ATOM     38  C   UNL A   1      40.579  29.683  29.730  1.00  0.00    -0.014 A 
BRANCH  38  39
ATOM     39  C   UNL A   1      41.919  29.241  29.267  1.00  0.00     0.031 A 
ATOM     40  C   UNL A   1      43.054  30.226  29.182  1.00  0.00     0.074 A 
ATOM     41  C   UNL A   1      42.094  27.970  28.853  1.00  0.00     0.049 A 
ATOM     42  N   UNL A   1      44.266  30.051  28.724  1.00  0.00    -0.248 NA
ATOM     43  C   UNL A   1      42.780  31.594  29.651  1.00  0.00     0.031 C 
ATOM     44  C   UNL A   1      41.058  26.935  28.844  1.00  0.00     0.029 A 
ATOM     45  N   UNL A   1      43.201  27.336  28.347  1.00  0.00    -0.354 N 
ATOM     46  C   UNL A   1      44.894  31.288  28.832  1.00  0.00     0.074 A 
ATOM     47  C   UNL A   1      43.914  32.214  29.358  1.00  0.00     0.031 C 
ATOM     48  C   UNL A   1      41.581  25.793  28.370  1.00  0.00     0.029 A 
ATOM     49  C   UNL A   1      42.976  26.023  28.007  1.00  0.00     0.049 A 
ATOM     50  H   UNL A   1      44.073  27.779  28.237  1.00  0.00     0.167 HD
ATOM     51  C   UNL A   1      46.176  31.614  28.540  1.00  0.00     0.037 A 
ATOM     52  C   UNL A   1      43.798  25.109  27.454  1.00  0.00     0.037 A 
ATOM     53  C   UNL A   1      47.152  30.680  28.042  1.00  0.00     0.049 A 
ATOM     54  C   UNL A   1      45.217  25.494  27.140  1.00  0.00     0.074 A 
ATOM     55  C   UNL A   1      48.493  30.897  27.773  1.00  0.00     0.029 A 
ATOM     56  N   UNL A   1      46.894  29.352  27.735  1.00  0.00    -0.354 N 
ATOM     57  N   UNL A   1      45.813  26.651  27.309  1.00  0.00    -0.248 NA
ATOM     58  C   UNL A   1      46.080  24.451  26.568  1.00  0.00     0.031 C 
ATOM     59  C   UNL A   1      49.035  29.712  27.265  1.00  0.00     0.029 A 
ATOM     60  C   UNL A   1      48.044  28.743  27.259  1.00  0.00     0.049 A 
ATOM     61  H   UNL A   1      46.022  28.908  27.838  1.00  0.00     0.167 HD
ATOM     62  C   UNL A   1      47.125  26.469  26.885  1.00  0.00     0.074 A 
ATOM     63  C   UNL A   1      47.238  25.087  26.464  1.00  0.00     0.031 C 
ATOM     64  C   UNL A   1      48.142  27.364  26.849  1.00  0.00     0.037 A 
BRANCH  51  65
ATOM     65  C   UNL A   1      46.598  33.043  28.754  1.00  0.00     0.058 A 
ATOM     66  C   UNL A   1      46.459  34.011  27.748  1.00  0.00     0.135 A 
ATOM     67  C   UNL A   1      47.118  33.456  29.991  1.00  0.00     0.135 A 
ATOM     68  F   UNL A   1      45.979  33.669  26.541  1.00  0.00    -0.206 F 
ATOM     69  C   UNL A   1      46.851  35.330  27.947  1.00  0.00     0.059 A 
ATOM     70  C   UNL A   1      47.492  34.778  30.223  1.00  0.00     0.059 A 
ATOM     71  F   UNL A   1      47.272  32.572  30.990  1.00  0.00    -0.206 F 
ATOM     72  C   UNL A   1      47.369  35.704  29.188  1.00  0.00     0.060 A 
BRANCH  72  73
ATOM     73  S   UNL A   1      47.876  37.419  29.432  1.00  0.00     0.124 S 
ATOM     74  O   UNL A   1      49.268  37.255  29.841  1.00  0.00    -0.237 OA
ATOM     75  O   UNL A   1      47.671  37.998  28.108  1.00  0.00    -0.237 OA
ATOM     76  O   UNL A   1      46.970  37.899  30.470  1.00  0.00    -0.744 OA
ENDBRANCH  72  73
ENDBRANCH  51  65
BRANCH  52  77
ATOM     77  C   UNL A   1      43.300  23.734  27.182  1.00  0.00     0.058 A 
ATOM     78  C   UNL A   1      42.918  23.349  25.888  1.00  0.00     0.135 A 
ATOM     79  C   UNL A   1      43.220  22.773  28.202  1.00  0.00     0.135 A 
ATOM     80  F   UNL A   1      42.973  24.234  24.882  1.00  0.00    -0.206 F 
ATOM     81  C   UNL A   1      42.462  22.063  25.616  1.00  0.00     0.059 A 
ATOM     82  C   UNL A   1      42.790  21.475  27.949  1.00  0.00     0.059 A 
ATOM     83  F   UNL A   1      43.590  23.087  29.453  1.00  0.00    -0.206 F 
ATOM     84  C   UNL A   1      42.405  21.131  26.654  1.00  0.00     0.060 A 
BRANCH  84  85
ATOM     85  S   UNL A   1      41.865  19.449  26.279  1.00  0.00     0.124 S 
ATOM     86  O   UNL A   1      42.262  18.737  27.488  1.00  0.00    -0.237 OA
ATOM     87  O   UNL A   1      40.429  19.624  26.083  1.00  0.00    -0.237 OA
ATOM     88  O   UNL A   1      42.618  19.117  25.073  1.00  0.00    -0.744 OA
ENDBRANCH  84  85
ENDBRANCH  52  77
BRANCH  64  89
ATOM     89  C   UNL A   1      49.478  26.874  26.365  1.00  0.00     0.058 A 
ATOM     90  C   UNL A   1      50.358  26.178  27.208  1.00  0.00     0.135 A 
ATOM     91  C   UNL A   1      49.857  27.051  25.024  1.00  0.00     0.135 A 
ATOM     92  F   UNL A   1      50.047  25.989  28.500  1.00  0.00    -0.206 F 
ATOM     93  C   UNL A   1      51.575  25.691  26.744  1.00  0.00     0.059 A 
ATOM     94  C   UNL A   1      51.057  26.550  24.531  1.00  0.00     0.059 A 
ATOM     95  F   UNL A   1      49.047  27.702  24.173  1.00  0.00    -0.206 F 
ATOM     96  C   UNL A   1      51.914  25.879  25.402  1.00  0.00     0.060 A 
BRANCH  96  97
ATOM     97  S   UNL A   1      53.478  25.204  24.802  1.00  0.00     0.124 S 
ATOM     98  O   UNL A   1      53.382  25.468  23.371  1.00  0.00    -0.237 OA
ATOM     99  O   UNL A   1      54.462  25.998  25.529  1.00  0.00    -0.237 OA
ATOM    100  O   UNL A   1      53.409  23.797  25.187  1.00  0.00    -0.744 OA
ENDBRANCH  96  97
ENDBRANCH  64  89
ENDBRANCH  38  39
ENDBRANCH  30  33
ENDBRANCH  28  29
ENDBRANCH  27  28
ENDBRANCH  26  27
ENDBRANCH   1  26
TORSDOF 19
ENDMDL
MODEL 2
REMARK VINA RESULT:     -11.5      0.796      8.057
REMARK SMILES Cc1ccc2nc(CC3(CC(=O)NCCCCCCNC(=O)c4ccc(-c5c6nc(c(-c7c(F)cc(S(=O)(=O)[O-])cc7F)c7ccc([nH]7)c(-c7c(F)cc(S(=O)(=O)[O-])cc7F)c7nc(c(-c8c(F)cc(S(=O)(=O)[O-])cc8F)c8ccc5[nH]8)C=C7)C=C6)cc4)CCCCC3)sc2c1
REMARK SMILES IDX 16 1 15 2 14 3 13 4 11 5 12 6 10 8 9 9 89 10 93 11 90 12
REMARK SMILES IDX 92 13 91 14 8 15 7 16 1 17 2 18 3 19 96 20 4 21 95 22 5 23
REMARK SMILES IDX 94 24 6 25 17 26 18 27 19 28 20 29 21 30 22 32 23 33 24 34
REMARK SMILES IDX 88 35 25 36 87 37 26 38 27 39 28 40 81 41 29 42 86 43 80 44
REMARK SMILES IDX 82 45 30 46 85 47 79 48 78 49 31 51 65 52 44 53 64 54 45 55
REMARK SMILES IDX 48 56 63 57 83 58 46 59 47 60 62 62 84 63 49 64 32 65 33 66
REMARK SMILES IDX 42 67 34 68 35 69 41 70 43 71 36 72 37 73 38 74 39 75 40 76
REMARK SMILES IDX 66 77 67 78 76 79 68 80 69 81 75 82 77 83 70 84 71 85 72 86
REMARK SMILES IDX 73 87 74 88 50 89 51 90 60 91 52 92 53 93 59 94 61 95 54 96
REMARK SMILES IDX 55 97 56 98 57 99 58 100
REMARK H PARENT 13 7 20 31 82 50 48 61
REMARK Flexibility Score: inf
ROOT
ATOM      1  C   UNL A   1      35.294  31.715  27.936  1.00  0.00     0.002 C 
ENDROOT
BRANCH   1   2
ATOM      2  C   UNL A   1      33.874  31.322  27.528  1.00  0.00     0.021 C 
BRANCH   2   3
ATOM      3  C   UNL A   1      33.750  29.905  26.959  1.00  0.00     0.116 C 
BRANCH   3   4
ATOM      4  N   UNL A   1      32.766  29.131  27.692  1.00  0.00    -0.356 N 
ATOM      5  C   UNL A   1      31.800  28.287  27.246  1.00  0.00     0.220 C 
ATOM      6  O   UNL A   1      31.059  27.763  28.081  1.00  0.00    -0.275 OA
ATOM      7  H   UNL A   1      32.805  29.234  28.669  1.00  0.00     0.163 HD
BRANCH   5   8
ATOM      8  C   UNL A   1      31.618  27.984  25.761  1.00  0.00     0.107 C 
BRANCH   8   9
ATOM      9  C   UNL A   1      32.326  26.709  25.181  1.00  0.00    -0.015 C 
ATOM     10  C   UNL A   1      33.791  27.090  24.796  1.00  0.00     0.008 C 
ATOM     11  C   UNL A   1      31.663  26.219  23.866  1.00  0.00     0.008 C 
ATOM     12  C   UNL A   1      33.881  28.094  23.639  1.00  0.00     0.001 C 
ATOM     13  C   UNL A   1      31.698  27.225  22.716  1.00  0.00     0.001 C 
ATOM     14  C   UNL A   1      33.133  27.619  22.396  1.00  0.00     0.000 C 
BRANCH   9  15
ATOM     15  C   UNL A   1      32.358  25.594  26.287  1.00  0.00     0.075 C 
BRANCH  15  16
ATOM     16  C   UNL A   1      32.610  24.202  25.783  1.00  0.00     0.094 A 
ATOM     17  C   UNL A   1      33.143  18.267  24.147  1.00  0.00     0.044 C 
ATOM     18  C   UNL A   1      33.356  19.701  24.538  1.00  0.00    -0.050 A 
ATOM     19  C   UNL A   1      34.644  20.179  24.789  1.00  0.00     0.006 A 
ATOM     20  C   UNL A   1      32.250  20.561  24.651  1.00  0.00     0.024 A 
ATOM     21  C   UNL A   1      34.854  21.514  25.146  1.00  0.00     0.030 A 
ATOM     22  C   UNL A   1      32.470  21.893  25.041  1.00  0.00     0.055 A 
ATOM     23  C   UNL A   1      33.755  22.384  25.274  1.00  0.00     0.082 A 
ATOM     24  S   UNL A   1      31.330  23.155  25.329  1.00  0.00    -0.119 S 
ATOM     25  N   UNL A   1      33.822  23.714  25.631  1.00  0.00    -0.241 NA
ENDBRANCH  15  16
ENDBRANCH   9  15
ENDBRANCH   8   9
ENDBRANCH   5   8
ENDBRANCH   3   4
ENDBRANCH   2   3
ENDBRANCH   1   2
BRANCH   1  26
ATOM     26  C   UNL A   1      35.385  32.976  28.802  1.00  0.00     0.002 C 
BRANCH  26  27
ATOM     27  C   UNL A   1      36.802  33.490  29.083  1.00  0.00     0.021 C 
BRANCH  27  28
ATOM     28  C   UNL A   1      37.282  33.313  30.523  1.00  0.00     0.116 C 
BRANCH  28  29
ATOM     29  N   UNL A   1      36.646  32.176  31.169  1.00  0.00    -0.352 N 
ATOM     30  C   UNL A   1      36.968  30.843  31.116  1.00  0.00     0.251 C 
ATOM     31  H   UNL A   1      35.868  32.396  31.731  1.00  0.00     0.163 HD
ATOM     32  O   UNL A   1      36.173  30.006  31.533  1.00  0.00    -0.269 OA
BRANCH  30  33
ATOM     33  C   UNL A   1      38.266  30.413  30.552  1.00  0.00     0.039 A 
ATOM     34  C   UNL A   1      38.370  30.198  29.176  1.00  0.00     0.014 A 
ATOM     35  C   UNL A   1      39.368  30.189  31.383  1.00  0.00     0.014 A 
ATOM     36  C   UNL A   1      39.596  29.815  28.624  1.00  0.00     0.010 A 
ATOM     37  C   UNL A   1      40.603  29.869  30.826  1.00  0.00     0.010 A 
ATOM     38  C   UNL A   1      40.729  29.676  29.442  1.00  0.00    -0.014 A 
BRANCH  38  39
ATOM     39  C   UNL A   1      42.056  29.336  28.868  1.00  0.00     0.031 A 
ATOM     40  C   UNL A   1      42.336  27.939  28.384  1.00  0.00     0.074 A 
ATOM     41  C   UNL A   1      43.032  30.266  28.851  1.00  0.00     0.049 A 
ATOM     42  N   UNL A   1      43.454  27.429  27.933  1.00  0.00    -0.248 NA
ATOM     43  C   UNL A   1      41.219  26.983  28.438  1.00  0.00     0.031 C 
ATOM     44  C   UNL A   1      42.895  31.642  29.335  1.00  0.00     0.029 A 
ATOM     45  N   UNL A   1      44.334  30.192  28.425  1.00  0.00    -0.354 N 
ATOM     46  C   UNL A   1      43.180  26.092  27.667  1.00  0.00     0.074 A 
ATOM     47  C   UNL A   1      41.804  25.859  28.048  1.00  0.00     0.031 C 
ATOM     48  C   UNL A   1      44.062  32.285  29.166  1.00  0.00     0.029 A 
ATOM     49  C   UNL A   1      45.038  31.361  28.599  1.00  0.00     0.049 A 
ATOM     50  H   UNL A   1      44.728  29.379  28.033  1.00  0.00     0.167 HD
ATOM     51  C   UNL A   1      43.997  25.151  27.133  1.00  0.00     0.037 A 
ATOM     52  C   UNL A   1      46.328  31.653  28.340  1.00  0.00     0.037 A 
ATOM     53  C   UNL A   1      45.357  25.399  26.732  1.00  0.00     0.049 A 
ATOM     54  C   UNL A   1      47.214  30.592  27.745  1.00  0.00     0.074 A 
ATOM     55  C   UNL A   1      46.247  24.530  26.125  1.00  0.00     0.029 A 
ATOM     56  N   UNL A   1      46.027  26.602  26.899  1.00  0.00    -0.354 N 
ATOM     57  N   UNL A   1      46.922  29.350  27.440  1.00  0.00    -0.248 NA
ATOM     58  C   UNL A   1      48.603  30.973  27.453  1.00  0.00     0.031 C 
ATOM     59  C   UNL A   1      47.467  25.195  25.963  1.00  0.00     0.029 A 
ATOM     60  C   UNL A   1      47.324  26.493  26.427  1.00  0.00     0.049 A 
ATOM     61  H   UNL A   1      45.637  27.415  27.296  1.00  0.00     0.167 HD
ATOM     62  C   UNL A   1      48.082  28.808  26.900  1.00  0.00     0.074 A 
ATOM     63  C   UNL A   1      49.077  29.860  26.909  1.00  0.00     0.031 C 
ATOM     64  C   UNL A   1      48.302  27.552  26.438  1.00  0.00     0.037 A 
BRANCH  51  65
ATOM     65  C   UNL A   1      43.438  23.766  26.951  1.00  0.00     0.058 A 
ATOM     66  C   UNL A   1      43.005  23.305  25.698  1.00  0.00     0.135 A 
ATOM     67  C   UNL A   1      43.364  22.877  28.035  1.00  0.00     0.135 A 
ATOM     68  F   UNL A   1      43.040  24.118  24.629  1.00  0.00    -0.206 F 
ATOM     69  C   UNL A   1      42.486  22.026  25.532  1.00  0.00     0.059 A 
ATOM     70  C   UNL A   1      42.874  21.581  27.887  1.00  0.00     0.059 A 
ATOM     71  F   UNL A   1      43.766  23.264  29.257  1.00  0.00    -0.206 F 
ATOM     72  C   UNL A   1      42.423  21.171  26.633  1.00  0.00     0.060 A 
BRANCH  72  73
ATOM     73  S   UNL A   1      41.746  19.513  26.403  1.00  0.00     0.124 S 
ATOM     74  O   UNL A   1      42.142  18.862  27.649  1.00  0.00    -0.237 OA
ATOM     75  O   UNL A   1      40.319  19.776  26.253  1.00  0.00    -0.237 OA
ATOM     76  O   UNL A   1      42.422  19.033  25.203  1.00  0.00    -0.744 OA
ENDBRANCH  72  73
ENDBRANCH  51  65
BRANCH  52  77
ATOM     77  C   UNL A   1      46.850  33.015  28.624  1.00  0.00     0.058 A 
ATOM     78  C   UNL A   1      46.819  34.018  27.643  1.00  0.00     0.135 A 
ATOM     79  C   UNL A   1      47.366  33.350  29.886  1.00  0.00     0.135 A 
ATOM     80  F   UNL A   1      46.339  33.745  26.421  1.00  0.00    -0.206 F 
ATOM     81  C   UNL A   1      47.292  35.301  27.898  1.00  0.00     0.059 A 
ATOM     82  C   UNL A   1      47.824  34.632  30.171  1.00  0.00     0.059 A 
ATOM     83  F   UNL A   1      47.403  32.430  30.863  1.00  0.00    -0.206 F 
ATOM     84  C   UNL A   1      47.790  35.600  29.168  1.00  0.00     0.060 A 
BRANCH  84  85
ATOM     85  S   UNL A   1      48.350  37.283  29.506  1.00  0.00     0.124 S 
ATOM     86  O   UNL A   1      47.389  37.716  30.513  1.00  0.00    -0.237 OA
ATOM     87  O   UNL A   1      49.715  37.064  29.977  1.00  0.00    -0.237 OA
ATOM     88  O   UNL A   1      48.242  37.938  28.206  1.00  0.00    -0.744 OA
ENDBRANCH  84  85
ENDBRANCH  52  77
BRANCH  64  89
ATOM     89  C   UNL A   1      49.663  27.251  25.875  1.00  0.00     0.058 A 
ATOM     90  C   UNL A   1      50.704  26.769  26.682  1.00  0.00     0.135 A 
ATOM     91  C   UNL A   1      49.910  27.391  24.499  1.00  0.00     0.135 A 
ATOM     92  F   UNL A   1      50.522  26.624  28.004  1.00  0.00    -0.206 F 
ATOM     93  C   UNL A   1      51.950  26.453  26.149  1.00  0.00     0.059 A 
ATOM     94  C   UNL A   1      51.139  27.056  23.940  1.00  0.00     0.059 A 
ATOM     95  F   UNL A   1      48.944  27.840  23.682  1.00  0.00    -0.206 F 
ATOM     96  C   UNL A   1      52.156  26.597  24.775  1.00  0.00     0.060 A 
BRANCH  96  97
ATOM     97  S   UNL A   1      53.763  26.142  24.089  1.00  0.00     0.124 S 
ATOM     98  O   UNL A   1      54.569  27.309  24.431  1.00  0.00    -0.237 OA
ATOM     99  O   UNL A   1      54.079  24.918  24.817  1.00  0.00    -0.237 OA
ATOM    100  O   UNL A   1      53.487  25.964  22.667  1.00  0.00    -0.744 OA
ENDBRANCH  96  97
ENDBRANCH  64  89
ENDBRANCH  38  39
ENDBRANCH  30  33
ENDBRANCH  28  29
ENDBRANCH  27  28
ENDBRANCH  26  27
ENDBRANCH   1  26
TORSDOF 19
ENDMDL
MODEL 3
REMARK VINA RESULT:     -11.4      6.137      8.428
REMARK SMILES Cc1ccc2nc(CC3(CC(=O)NCCCCCCNC(=O)c4ccc(-c5c6nc(c(-c7c(F)cc(S(=O)(=O)[O-])cc7F)c7ccc([nH]7)c(-c7c(F)cc(S(=O)(=O)[O-])cc7F)c7nc(c(-c8c(F)cc(S(=O)(=O)[O-])cc8F)c8ccc5[nH]8)C=C7)C=C6)cc4)CCCCC3)sc2c1
REMARK SMILES IDX 16 1 15 2 14 3 13 4 11 5 12 6 10 8 9 9 89 10 93 11 90 12
REMARK SMILES IDX 92 13 91 14 8 15 7 16 1 17 2 18 3 19 96 20 4 21 95 22 5 23
REMARK SMILES IDX 94 24 6 25 17 26 18 27 19 28 20 29 21 30 22 32 23 33 24 34
REMARK SMILES IDX 88 35 25 36 87 37 26 38 27 39 28 40 81 41 29 42 86 43 80 44
REMARK SMILES IDX 82 45 30 46 85 47 79 48 78 49 31 51 65 52 44 53 64 54 45 55
REMARK SMILES IDX 48 56 63 57 83 58 46 59 47 60 62 62 84 63 49 64 32 65 33 66
REMARK SMILES IDX 42 67 34 68 35 69 41 70 43 71 36 72 37 73 38 74 39 75 40 76
REMARK SMILES IDX 66 77 67 78 76 79 68 80 69 81 75 82 77 83 70 84 71 85 72 86
REMARK SMILES IDX 73 87 74 88 50 89 51 90 60 91 52 92 53 93 59 94 61 95 54 96
REMARK SMILES IDX 55 97 56 98 57 99 58 100
REMARK H PARENT 13 7 20 31 82 50 48 61
REMARK Flexibility Score: inf
ROOT
ATOM      1  C   UNL A   1      34.983  31.745  28.555  1.00  0.00     0.002 C 
ENDROOT
BRANCH   1   2
ATOM      2  C   UNL A   1      34.074  31.013  27.567  1.00  0.00     0.021 C 
BRANCH   2   3
ATOM      3  C   UNL A   1      34.417  29.534  27.370  1.00  0.00     0.116 C 
BRANCH   3   4
ATOM      4  N   UNL A   1      33.312  28.683  27.768  1.00  0.00    -0.356 N 
ATOM      5  C   UNL A   1      32.186  28.330  27.095  1.00  0.00     0.220 C 
ATOM      6  O   UNL A   1      31.370  27.605  27.672  1.00  0.00    -0.275 OA
ATOM      7  H   UNL A   1      33.390  28.300  28.671  1.00  0.00     0.163 HD
BRANCH   5   8
ATOM      8  C   UNL A   1      31.917  28.805  25.671  1.00  0.00     0.107 C 
BRANCH   8   9
ATOM      9  C   UNL A   1      32.232  27.815  24.495  1.00  0.00    -0.015 C 
ATOM     10  C   UNL A   1      32.099  28.590  23.146  1.00  0.00     0.008 C 
ATOM     11  C   UNL A   1      31.203  26.655  24.415  1.00  0.00     0.008 C 
ATOM     12  C   UNL A   1      30.665  29.047  22.841  1.00  0.00     0.001 C 
ATOM     13  C   UNL A   1      29.761  27.094  24.160  1.00  0.00     0.001 C 
ATOM     14  C   UNL A   1      29.667  27.893  22.868  1.00  0.00     0.000 C 
BRANCH   9  15
ATOM     15  C   UNL A   1      33.707  27.295  24.647  1.00  0.00     0.075 C 
BRANCH  15  16
ATOM     16  C   UNL A   1      33.849  25.805  24.775  1.00  0.00     0.094 A 
ATOM     17  C   UNL A   1      33.943  19.627  24.803  1.00  0.00     0.044 C 
ATOM     18  C   UNL A   1      33.933  21.091  25.137  1.00  0.00    -0.050 A 
ATOM     19  C   UNL A   1      33.841  21.511  26.466  1.00  0.00     0.006 A 
ATOM     20  C   UNL A   1      34.015  22.039  24.102  1.00  0.00     0.024 A 
ATOM     21  C   UNL A   1      33.838  22.871  26.788  1.00  0.00     0.030 A 
ATOM     22  C   UNL A   1      33.980  23.403  24.435  1.00  0.00     0.055 A 
ATOM     23  C   UNL A   1      33.908  23.831  25.762  1.00  0.00     0.082 A 
ATOM     24  S   UNL A   1      33.993  24.786  23.404  1.00  0.00    -0.119 S 
ATOM     25  N   UNL A   1      33.901  25.198  25.940  1.00  0.00    -0.241 NA
ENDBRANCH  15  16
ENDBRANCH   9  15
ENDBRANCH   8   9
ENDBRANCH   5   8
ENDBRANCH   3   4
ENDBRANCH   2   3
ENDBRANCH   1   2
BRANCH   1  26
ATOM     26  C   UNL A   1      35.648  33.008  27.998  1.00  0.00     0.002 C 
BRANCH  26  27
ATOM     27  C   UNL A   1      34.758  34.254  27.929  1.00  0.00     0.021 C 
BRANCH  27  28
ATOM     28  C   UNL A   1      33.298  34.031  28.319  1.00  0.00     0.116 C 
BRANCH  28  29
ATOM     29  N   UNL A   1      32.810  35.071  29.211  1.00  0.00    -0.352 N 
ATOM     30  C   UNL A   1      33.104  35.304  30.530  1.00  0.00     0.251 C 
ATOM     31  H   UNL A   1      32.175  35.705  28.806  1.00  0.00     0.163 HD
ATOM     32  O   UNL A   1      32.412  36.082  31.182  1.00  0.00    -0.269 OA
BRANCH  30  33
ATOM     33  C   UNL A   1      34.244  34.615  31.172  1.00  0.00     0.039 A 
ATOM     34  C   UNL A   1      34.029  33.386  31.799  1.00  0.00     0.014 A 
ATOM     35  C   UNL A   1      35.516  35.197  31.186  1.00  0.00     0.014 A 
ATOM     36  C   UNL A   1      35.102  32.711  32.389  1.00  0.00     0.010 A 
ATOM     37  C   UNL A   1      36.594  34.495  31.718  1.00  0.00     0.010 A 
ATOM     38  C   UNL A   1      36.398  33.247  32.327  1.00  0.00    -0.014 A 
BRANCH  38  39
ATOM     39  C   UNL A   1      37.563  32.515  32.887  1.00  0.00     0.031 A 
ATOM     40  C   UNL A   1      38.162  32.938  34.201  1.00  0.00     0.074 A 
ATOM     41  C   UNL A   1      38.125  31.516  32.178  1.00  0.00     0.049 A 
ATOM     42  N   UNL A   1      39.227  32.482  34.808  1.00  0.00    -0.248 NA
ATOM     43  C   UNL A   1      37.491  34.038  34.912  1.00  0.00     0.031 C 
ATOM     44  C   UNL A   1      37.662  31.045  30.870  1.00  0.00     0.029 A 
ATOM     45  N   UNL A   1      39.215  30.728  32.447  1.00  0.00    -0.354 N 
ATOM     46  C   UNL A   1      39.364  33.247  35.961  1.00  0.00     0.074 A 
ATOM     47  C   UNL A   1      38.299  34.226  35.946  1.00  0.00     0.031 C 
ATOM     48  C   UNL A   1      38.453  30.041  30.458  1.00  0.00     0.029 A 
ATOM     49  C   UNL A   1      39.500  29.823  31.451  1.00  0.00     0.049 A 
ATOM     50  H   UNL A   1      39.744  30.804  33.274  1.00  0.00     0.167 HD
ATOM     51  C   UNL A   1      40.281  33.129  36.952  1.00  0.00     0.037 A 
ATOM     52  C   UNL A   1      40.500  28.925  31.345  1.00  0.00     0.037 A 
ATOM     53  C   UNL A   1      41.321  32.134  36.972  1.00  0.00     0.049 A 
ATOM     54  C   UNL A   1      41.504  28.811  32.459  1.00  0.00     0.074 A 
ATOM     55  C   UNL A   1      42.261  31.891  37.959  1.00  0.00     0.029 A 
ATOM     56  N   UNL A   1      41.562  31.218  35.959  1.00  0.00    -0.354 N 
ATOM     57  N   UNL A   1      41.581  29.500  33.572  1.00  0.00    -0.248 NA
ATOM     58  C   UNL A   1      42.554  27.794  32.306  1.00  0.00     0.031 C 
ATOM     59  C   UNL A   1      43.096  30.857  37.524  1.00  0.00     0.029 A 
ATOM     60  C   UNL A   1      42.648  30.423  36.286  1.00  0.00     0.049 A 
ATOM     61  H   UNL A   1      41.038  31.144  35.128  1.00  0.00     0.167 HD
ATOM     62  C   UNL A   1      42.672  28.986  34.264  1.00  0.00     0.074 A 
ATOM     63  C   UNL A   1      43.218  27.920  33.448  1.00  0.00     0.031 C 
ATOM     64  C   UNL A   1      43.176  29.361  35.465  1.00  0.00     0.037 A 
BRANCH  51  65
ATOM     65  C   UNL A   1      40.197  34.100  38.098  1.00  0.00     0.058 A 
ATOM     66  C   UNL A   1      40.973  35.268  38.133  1.00  0.00     0.135 A 
ATOM     67  C   UNL A   1      39.306  33.875  39.161  1.00  0.00     0.135 A 
ATOM     68  F   UNL A   1      41.852  35.527  37.150  1.00  0.00    -0.206 F 
ATOM     69  C   UNL A   1      40.896  36.163  39.195  1.00  0.00     0.059 A 
ATOM     70  C   UNL A   1      39.192  34.771  40.221  1.00  0.00     0.059 A 
ATOM     71  F   UNL A   1      38.538  32.774  39.179  1.00  0.00    -0.206 F 
ATOM     72  C   UNL A   1      40.003  35.905  40.236  1.00  0.00     0.060 A 
BRANCH  72  73
ATOM     73  S   UNL A   1      39.916  37.074  41.609  1.00  0.00     0.124 S 
ATOM     74  O   UNL A   1      41.330  37.346  41.849  1.00  0.00    -0.237 OA
ATOM     75  O   UNL A   1      39.149  38.175  41.034  1.00  0.00    -0.237 OA
ATOM     76  O   UNL A   1      39.235  36.320  42.656  1.00  0.00    -0.744 OA
ENDBRANCH  72  73
ENDBRANCH  51  65
BRANCH  52  77
ATOM     77  C   UNL A   1      40.584  28.050  30.146  1.00  0.00     0.058 A 
ATOM     78  C   UNL A   1      39.655  27.020  29.938  1.00  0.00     0.135 A 
ATOM     79  C   UNL A   1      41.578  28.241  29.172  1.00  0.00     0.135 A 
ATOM     80  F   UNL A   1      38.690  26.796  30.843  1.00  0.00    -0.206 F 
ATOM     81  C   UNL A   1      39.713  26.202  28.815  1.00  0.00     0.059 A 
ATOM     82  C   UNL A   1      41.642  27.451  28.030  1.00  0.00     0.059 A 
ATOM     83  F   UNL A   1      42.481  29.224  29.316  1.00  0.00    -0.206 F 
ATOM     84  C   UNL A   1      40.710  26.428  27.863  1.00  0.00     0.060 A 
BRANCH  84  85
ATOM     85  S   UNL A   1      40.743  25.396  26.381  1.00  0.00     0.124 S 
ATOM     86  O   UNL A   1      41.109  26.366  25.356  1.00  0.00    -0.237 OA
ATOM     87  O   UNL A   1      41.763  24.407  26.719  1.00  0.00    -0.237 OA
ATOM     88  O   UNL A   1      39.381  24.878  26.304  1.00  0.00    -0.744 OA
ENDBRANCH  84  85
ENDBRANCH  52  77
BRANCH  64  89
ATOM     89  C   UNL A   1      44.360  28.598  35.988  1.00  0.00     0.058 A 
ATOM     90  C   UNL A   1      45.676  29.012  35.730  1.00  0.00     0.135 A 
ATOM     91  C   UNL A   1      44.176  27.472  36.807  1.00  0.00     0.135 A 
ATOM     92  F   UNL A   1      45.908  30.078  34.948  1.00  0.00    -0.206 F 
ATOM     93  C   UNL A   1      46.768  28.326  36.251  1.00  0.00     0.059 A 
ATOM     94  C   UNL A   1      45.252  26.786  37.360  1.00  0.00     0.059 A 
ATOM     95  F   UNL A   1      42.937  27.040  37.092  1.00  0.00    -0.206 F 
ATOM     96  C   UNL A   1      46.545  27.215  37.068  1.00  0.00     0.060 A 
BRANCH  96  97
ATOM     97  S   UNL A   1      47.971  26.359  37.772  1.00  0.00     0.124 S 
ATOM     98  O   UNL A   1      47.387  25.077  38.150  1.00  0.00    -0.237 OA
ATOM     99  O   UNL A   1      48.902  26.326  36.650  1.00  0.00    -0.237 OA
ATOM    100  O   UNL A   1      48.368  27.220  38.883  1.00  0.00    -0.744 OA
ENDBRANCH  96  97
ENDBRANCH  64  89
ENDBRANCH  38  39
ENDBRANCH  30  33
ENDBRANCH  28  29
ENDBRANCH  27  28
ENDBRANCH  26  27
ENDBRANCH   1  26
TORSDOF 19
ENDMDL
