MODEL 1
REMARK VINA RESULT:     -12.7      0.000      0.000
REMARK SMILES Cc1nn(Cc2ccc(Cl)cc2Cl)c(C)c1NC(=O)c1c(C(=O)NCCCCCCNC(=O)c2ccc(-c3c4nc(c(-c5c(F)cc(S(=O)(=O)[O-])cc5F)c5ccc([nH]5)c(-c5c(F)cc(S(=O)(=O)[O-])cc5F)c5nc(c(-c6c(F)cc(S(=O)(=O)[O-])cc6F)c6ccc3[nH]6)C=C5)C=C4)cc2)cnn1C
REMARK SMILES IDX 27 1 26 2 25 3 24 4 22 5 23 6 21 8 20 9 102 10 100 11 101 12
REMARK SMILES IDX 103 13 18 14 17 15 19 17 16 18 1 19 2 20 3 21 4 22 14 23
REMARK SMILES IDX 15 24 5 25 6 26 7 27 12 28 8 29 11 30 13 31 9 32 10 33 28 34
REMARK SMILES IDX 29 35 30 36 31 37 32 38 33 40 34 41 35 42 99 43 36 44 98 45
REMARK SMILES IDX 37 46 38 47 39 48 92 49 40 50 97 51 91 52 93 53 41 54 96 55
REMARK SMILES IDX 90 56 89 57 42 59 76 60 55 61 75 62 56 63 59 64 74 65 94 66
REMARK SMILES IDX 57 67 58 68 73 70 95 71 60 72 43 73 44 74 53 75 45 76 46 77
REMARK SMILES IDX 52 78 54 79 47 80 48 81 49 82 50 83 51 84 77 85 78 86 87 87
REMARK SMILES IDX 79 88 80 89 86 90 88 91 81 92 82 93 83 94 84 95 85 96 61 97
REMARK SMILES IDX 62 98 71 99 63 100 64 101 70 102 72 103 65 104 66 105 67 106
REMARK SMILES IDX 68 107 69 108
REMARK H PARENT 24 7 17 16 31 39 93 58 59 69
REMARK Flexibility Score: inf
ROOT
ATOM      1  C   UNL A   1      31.504  27.853  27.093  1.00  0.00     0.002 C 
ENDROOT
BRANCH   1   2
ATOM      2  C   UNL A   1      31.314  26.690  26.121  1.00  0.00     0.021 C 
BRANCH   2   3
ATOM      3  C   UNL A   1      31.808  25.306  26.560  1.00  0.00     0.116 C 
BRANCH   3   4
ATOM      4  N   UNL A   1      30.864  24.210  26.403  1.00  0.00    -0.352 N 
ATOM      5  C   UNL A   1      31.028  22.843  26.517  1.00  0.00     0.255 C 
ATOM      6  O   UNL A   1      30.013  22.149  26.514  1.00  0.00    -0.269 OA
ATOM      7  H   UNL A   1      29.948  24.492  26.177  1.00  0.00     0.163 HD
BRANCH   5   8
ATOM      8  C   UNL A   1      32.354  22.250  26.609  1.00  0.00     0.090 A 
ATOM      9  C   UNL A   1      33.003  21.503  25.618  1.00  0.00     0.138 A 
ATOM     10  N   UNL A   1      34.237  21.193  26.146  1.00  0.00    -0.262 N 
ATOM     11  C   UNL A   1      33.251  22.209  27.700  1.00  0.00     0.149 A 
ATOM     12  N   UNL A   1      34.398  21.595  27.418  1.00  0.00    -0.180 NA
ATOM     13  C   UNL A   1      35.380  20.624  25.466  1.00  0.00     0.174 C 
BRANCH   9  14
ATOM     14  C   UNL A   1      32.579  21.030  24.319  1.00  0.00     0.274 C 
ATOM     15  N   UNL A   1      32.332  21.871  23.261  1.00  0.00    -0.317 N 
ATOM     16  H   UNL A   1      31.894  21.436  22.495  1.00  0.00     0.170 HD
ATOM     17  O   UNL A   1      32.395  19.826  24.117  1.00  0.00    -0.267 OA
BRANCH  15  18
ATOM     18  C   UNL A   1      32.586  23.212  23.076  1.00  0.00     0.085 A 
ATOM     19  C   UNL A   1      35.199  23.166  23.226  1.00  0.00     0.071 C 
ATOM     20  C   UNL A   1      33.880  23.803  22.995  1.00  0.00     0.083 A 
ATOM     21  N   UNL A   1      33.814  25.082  22.610  1.00  0.00    -0.175 NA
ATOM     22  N   UNL A   1      32.490  25.312  22.512  1.00  0.00    -0.263 N 
ATOM     23  C   UNL A   1      31.723  24.284  23.013  1.00  0.00     0.060 A 
ATOM     24  C   UNL A   1      30.296  24.474  23.367  1.00  0.00     0.069 C 
BRANCH  22  25
ATOM     25  C   UNL A   1      32.011  26.382  21.642  1.00  0.00     0.181 C 
BRANCH  25  26
ATOM     26  C   UNL A   1      31.466  27.562  22.386  1.00  0.00    -0.008 A 
ATOM     27  C   UNL A   1      30.071  27.729  22.438  1.00  0.00     0.009 A 
ATOM     28  C   UNL A   1      32.280  28.500  23.044  1.00  0.00     0.047 A 
ATOM     29  C   UNL A   1      29.511  28.824  23.090  1.00  0.00     0.021 A 
ATOM     30  C   UNL A   1      31.717  29.613  23.663  1.00  0.00     0.041 A 
ATOM     31  Cl  UNL A   1      33.997  28.317  23.172  1.00  0.00    -0.084 Cl
ATOM     32  C   UNL A   1      30.336  29.773  23.682  1.00  0.00     0.042 A 
ATOM     33  Cl  UNL A   1      29.621  31.137  24.441  1.00  0.00    -0.084 Cl
ENDBRANCH  25  26
ENDBRANCH  22  25
ENDBRANCH  15  18
ENDBRANCH   9  14
ENDBRANCH   5   8
ENDBRANCH   3   4
ENDBRANCH   2   3
ENDBRANCH   1   2
BRANCH   1  34
ATOM     34  C   UNL A   1      32.894  28.494  27.096  1.00  0.00     0.002 C 
BRANCH  34  35
ATOM     35  C   UNL A   1      32.942  30.022  26.954  1.00  0.00     0.021 C 
BRANCH  35  36
ATOM     36  C   UNL A   1      34.290  30.653  27.279  1.00  0.00     0.116 C 
BRANCH  36  37
ATOM     37  N   UNL A   1      34.191  31.748  28.239  1.00  0.00    -0.352 N 
ATOM     38  C   UNL A   1      34.886  31.909  29.428  1.00  0.00     0.251 C 
ATOM     39  H   UNL A   1      33.551  32.461  28.015  1.00  0.00     0.163 HD
ATOM     40  O   UNL A   1      34.437  32.616  30.316  1.00  0.00    -0.269 OA
BRANCH  38  41
ATOM     41  C   UNL A   1      36.184  31.222  29.596  1.00  0.00     0.039 A 
ATOM     42  C   UNL A   1      36.275  29.831  29.708  1.00  0.00     0.014 A 
ATOM     43  C   UNL A   1      37.333  32.007  29.664  1.00  0.00     0.014 A 
ATOM     44  C   UNL A   1      37.536  29.248  29.834  1.00  0.00     0.010 A 
ATOM     45  C   UNL A   1      38.571  31.429  29.600  1.00  0.00     0.010 A 
ATOM     46  C   UNL A   1      38.680  30.059  29.772  1.00  0.00    -0.014 A 
BRANCH  46  47
ATOM     47  C   UNL A   1      40.022  29.498  29.809  1.00  0.00     0.031 A 
ATOM     48  C   UNL A   1      40.537  29.256  31.181  1.00  0.00     0.074 A 
ATOM     49  C   UNL A   1      40.646  29.011  28.712  1.00  0.00     0.049 A 
ATOM     50  N   UNL A   1      41.439  29.930  31.811  1.00  0.00    -0.248 NA
ATOM     51  C   UNL A   1      39.845  28.264  32.022  1.00  0.00     0.031 C 
ATOM     52  C   UNL A   1      40.115  28.848  27.351  1.00  0.00     0.029 A 
ATOM     53  N   UNL A   1      41.879  28.450  28.610  1.00  0.00    -0.354 N 
ATOM     54  C   UNL A   1      41.608  29.287  33.034  1.00  0.00     0.074 A 
ATOM     55  C   UNL A   1      40.461  28.434  33.193  1.00  0.00     0.031 C 
ATOM     56  C   UNL A   1      40.921  28.023  26.644  1.00  0.00     0.029 A 
ATOM     57  C   UNL A   1      42.107  27.742  27.434  1.00  0.00     0.049 A 
ATOM     58  H   UNL A   1      42.560  28.537  29.316  1.00  0.00     0.167 HD
ATOM     59  C   UNL A   1      42.805  29.323  33.687  1.00  0.00     0.037 A 
ATOM     60  C   UNL A   1      43.181  26.953  27.161  1.00  0.00     0.037 A 
ATOM     61  C   UNL A   1      43.681  30.306  33.092  1.00  0.00     0.049 A 
ATOM     62  C   UNL A   1      44.258  27.341  28.108  1.00  0.00     0.074 A 
ATOM     63  C   UNL A   1      43.610  31.669  32.879  1.00  0.00     0.029 A 
ATOM     64  N   UNL A   1      44.659  29.844  32.244  1.00  0.00    -0.354 N 
ATOM     65  N   UNL A   1      44.857  28.500  28.088  1.00  0.00    -0.248 NA
ATOM     66  C   UNL A   1      44.324  26.627  29.375  1.00  0.00     0.031 C 
ATOM     67  C   UNL A   1      44.181  31.869  31.589  1.00  0.00     0.029 A 
ATOM     68  C   UNL A   1      44.647  30.638  31.126  1.00  0.00     0.049 A 
ATOM     69  H   UNL A   1      45.260  29.081  32.409  1.00  0.00     0.167 HD
ATOM     70  C   UNL A   1      44.979  28.857  29.424  1.00  0.00     0.074 A 
ATOM     71  C   UNL A   1      44.707  27.629  30.171  1.00  0.00     0.031 C 
ATOM     72  C   UNL A   1      44.996  30.169  29.804  1.00  0.00     0.037 A 
BRANCH  59  73
ATOM     73  C   UNL A   1      43.337  28.242  34.600  1.00  0.00     0.058 A 
ATOM     74  C   UNL A   1      43.749  28.594  35.904  1.00  0.00     0.135 A 
ATOM     75  C   UNL A   1      43.717  26.951  34.173  1.00  0.00     0.135 A 
ATOM     76  F   UNL A   1      43.442  29.796  36.417  1.00  0.00    -0.206 F 
ATOM     77  C   UNL A   1      44.546  27.761  36.688  1.00  0.00     0.059 A 
ATOM     78  C   UNL A   1      44.465  26.082  34.961  1.00  0.00     0.059 A 
ATOM     79  F   UNL A   1      43.470  26.500  32.937  1.00  0.00    -0.206 F 
ATOM     80  C   UNL A   1      44.911  26.512  36.200  1.00  0.00     0.060 A 
BRANCH  80  81
ATOM     81  S   UNL A   1      46.019  25.475  37.169  1.00  0.00     0.124 S 
ATOM     82  O   UNL A   1      46.972  26.457  37.671  1.00  0.00    -0.237 OA
ATOM     83  O   UNL A   1      45.107  24.903  38.155  1.00  0.00    -0.237 OA
ATOM     84  O   UNL A   1      46.540  24.531  36.185  1.00  0.00    -0.744 OA
ENDBRANCH  80  81
ENDBRANCH  59  73
BRANCH  60  85
ATOM     85  C   UNL A   1      43.209  25.656  26.433  1.00  0.00     0.058 A 
ATOM     86  C   UNL A   1      44.075  25.433  25.347  1.00  0.00     0.135 A 
ATOM     87  C   UNL A   1      42.610  24.512  26.989  1.00  0.00     0.135 A 
ATOM     88  F   UNL A   1      44.725  26.463  24.784  1.00  0.00    -0.206 F 
ATOM     89  C   UNL A   1      44.354  24.147  24.862  1.00  0.00     0.059 A 
ATOM     90  C   UNL A   1      42.868  23.225  26.521  1.00  0.00     0.059 A 
ATOM     91  F   UNL A   1      41.821  24.607  28.069  1.00  0.00    -0.206 F 
ATOM     92  C   UNL A   1      43.756  23.045  25.469  1.00  0.00     0.060 A 
BRANCH  92  93
ATOM     93  S   UNL A   1      44.221  21.370  24.966  1.00  0.00     0.124 S 
ATOM     94  O   UNL A   1      45.452  21.154  25.717  1.00  0.00    -0.237 OA
ATOM     95  O   UNL A   1      43.065  20.591  25.394  1.00  0.00    -0.237 OA
ATOM     96  O   UNL A   1      44.388  21.487  23.518  1.00  0.00    -0.744 OA
ENDBRANCH  92  93
ENDBRANCH  60  85
BRANCH  72  97
ATOM     97  C   UNL A   1      45.205  31.219  28.742  1.00  0.00     0.058 A 
ATOM     98  C   UNL A   1      44.183  31.821  27.984  1.00  0.00     0.135 A 
ATOM     99  C   UNL A   1      46.502  31.725  28.579  1.00  0.00     0.135 A 
ATOM    100  F   UNL A   1      42.899  31.479  28.156  1.00  0.00    -0.206 F 
ATOM    101  C   UNL A   1      44.454  32.839  27.064  1.00  0.00     0.059 A 
ATOM    102  C   UNL A   1      46.789  32.760  27.697  1.00  0.00     0.059 A 
ATOM    103  F   UNL A   1      47.512  31.237  29.319  1.00  0.00    -0.206 F 
ATOM    104  C   UNL A   1      45.764  33.298  26.924  1.00  0.00     0.060 A 
BRANCH 104 105
ATOM    105  S   UNL A   1      46.115  34.632  25.759  1.00  0.00     0.124 S 
ATOM    106  O   UNL A   1      45.201  34.330  24.663  1.00  0.00    -0.237 OA
ATOM    107  O   UNL A   1      45.800  35.826  26.538  1.00  0.00    -0.237 OA
ATOM    108  O   UNL A   1      47.533  34.453  25.454  1.00  0.00    -0.744 OA
ENDBRANCH 104 105
ENDBRANCH  72  97
ENDBRANCH  46  47
ENDBRANCH  38  41
ENDBRANCH  36  37
ENDBRANCH  35  36
ENDBRANCH  34  35
ENDBRANCH   1  34
TORSDOF 20
ENDMDL
MODEL 2
REMARK VINA RESULT:     -12.2      2.498      8.446
REMARK SMILES Cc1nn(Cc2ccc(Cl)cc2Cl)c(C)c1NC(=O)c1c(C(=O)NCCCCCCNC(=O)c2ccc(-c3c4nc(c(-c5c(F)cc(S(=O)(=O)[O-])cc5F)c5ccc([nH]5)c(-c5c(F)cc(S(=O)(=O)[O-])cc5F)c5nc(c(-c6c(F)cc(S(=O)(=O)[O-])cc6F)c6ccc3[nH]6)C=C5)C=C4)cc2)cnn1C
REMARK SMILES IDX 27 1 26 2 25 3 24 4 22 5 23 6 21 8 20 9 102 10 100 11 101 12
REMARK SMILES IDX 103 13 18 14 17 15 19 17 16 18 1 19 2 20 3 21 4 22 14 23
REMARK SMILES IDX 15 24 5 25 6 26 7 27 12 28 8 29 11 30 13 31 9 32 10 33 28 34
REMARK SMILES IDX 29 35 30 36 31 37 32 38 33 40 34 41 35 42 99 43 36 44 98 45
REMARK SMILES IDX 37 46 38 47 39 48 92 49 40 50 97 51 91 52 93 53 41 54 96 55
REMARK SMILES IDX 90 56 89 57 42 59 76 60 55 61 75 62 56 63 59 64 74 65 94 66
REMARK SMILES IDX 57 67 58 68 73 70 95 71 60 72 43 73 44 74 53 75 45 76 46 77
REMARK SMILES IDX 52 78 54 79 47 80 48 81 49 82 50 83 51 84 77 85 78 86 87 87
REMARK SMILES IDX 79 88 80 89 86 90 88 91 81 92 82 93 83 94 84 95 85 96 61 97
REMARK SMILES IDX 62 98 71 99 63 100 64 101 70 102 72 103 65 104 66 105 67 106
REMARK SMILES IDX 68 107 69 108
REMARK H PARENT 24 7 17 16 31 39 93 58 59 69
REMARK Flexibility Score: inf
ROOT
ATOM      1  C   UNL A   1      39.245  24.173  26.465  1.00  0.00     0.002 C 
ENDROOT
BRANCH   1   2
ATOM      2  C   UNL A   1      37.934  24.002  25.700  1.00  0.00     0.021 C 
BRANCH   2   3
ATOM      3  C   UNL A   1      37.055  22.795  26.052  1.00  0.00     0.116 C 
BRANCH   3   4
ATOM      4  N   UNL A   1      35.838  23.085  26.796  1.00  0.00    -0.352 N 
ATOM      5  C   UNL A   1      34.618  22.438  26.833  1.00  0.00     0.255 C 
ATOM      6  O   UNL A   1      33.815  22.793  27.695  1.00  0.00    -0.269 OA
ATOM      7  H   UNL A   1      35.894  23.881  27.373  1.00  0.00     0.163 HD
BRANCH   5   8
ATOM      8  C   UNL A   1      34.289  21.397  25.870  1.00  0.00     0.090 A 
ATOM      9  C   UNL A   1      33.081  21.256  25.175  1.00  0.00     0.138 A 
ATOM     10  N   UNL A   1      33.256  20.160  24.361  1.00  0.00    -0.262 N 
ATOM     11  C   UNL A   1      35.039  20.267  25.470  1.00  0.00     0.149 A 
ATOM     12  N   UNL A   1      34.431  19.533  24.541  1.00  0.00    -0.180 NA
ATOM     13  C   UNL A   1      32.405  19.706  23.282  1.00  0.00     0.174 C 
BRANCH   9  14
ATOM     14  C   UNL A   1      31.830  21.979  25.240  1.00  0.00     0.274 C 
ATOM     15  N   UNL A   1      31.706  23.295  24.869  1.00  0.00    -0.317 N 
ATOM     16  H   UNL A   1      30.846  23.704  25.118  1.00  0.00     0.170 HD
ATOM     17  O   UNL A   1      30.809  21.430  25.664  1.00  0.00    -0.267 OA
BRANCH  15  18
ATOM     18  C   UNL A   1      32.565  24.148  24.211  1.00  0.00     0.085 A 
ATOM     19  C   UNL A   1      32.843  22.816  21.975  1.00  0.00     0.071 C 
ATOM     20  C   UNL A   1      33.038  23.975  22.878  1.00  0.00     0.083 A 
ATOM     21  N   UNL A   1      33.688  25.060  22.442  1.00  0.00    -0.175 NA
ATOM     22  N   UNL A   1      33.680  25.881  23.510  1.00  0.00    -0.263 N 
ATOM     23  C   UNL A   1      33.224  25.272  24.658  1.00  0.00     0.060 A 
ATOM     24  C   UNL A   1      33.491  25.837  26.002  1.00  0.00     0.069 C 
BRANCH  22  25
ATOM     25  C   UNL A   1      33.813  27.320  23.310  1.00  0.00     0.181 C 
BRANCH  25  26
ATOM     26  C   UNL A   1      32.516  28.063  23.416  1.00  0.00    -0.008 A 
ATOM     27  C   UNL A   1      31.501  27.763  22.492  1.00  0.00     0.009 A 
ATOM     28  C   UNL A   1      32.264  29.033  24.401  1.00  0.00     0.047 A 
ATOM     29  C   UNL A   1      30.287  28.443  22.524  1.00  0.00     0.021 A 
ATOM     30  C   UNL A   1      31.062  29.736  24.408  1.00  0.00     0.041 A 
ATOM     31  Cl  UNL A   1      33.380  29.379  25.677  1.00  0.00    -0.084 Cl
ATOM     32  C   UNL A   1      30.079  29.442  23.469  1.00  0.00     0.042 A 
ATOM     33  Cl  UNL A   1      28.590  30.296  23.460  1.00  0.00    -0.084 Cl
ENDBRANCH  25  26
ENDBRANCH  22  25
ENDBRANCH  15  18
ENDBRANCH   9  14
ENDBRANCH   5   8
ENDBRANCH   3   4
ENDBRANCH   2   3
ENDBRANCH   1   2
BRANCH   1  34
ATOM     34  C   UNL A   1      39.679  22.972  27.311  1.00  0.00     0.002 C 
BRANCH  34  35
ATOM     35  C   UNL A   1      40.359  21.818  26.561  1.00  0.00     0.021 C 
BRANCH  35  36
ATOM     36  C   UNL A   1      41.295  20.967  27.409  1.00  0.00     0.116 C 
BRANCH  36  37
ATOM     37  N   UNL A   1      42.617  20.802  26.811  1.00  0.00    -0.352 N 
ATOM     38  C   UNL A   1      43.455  21.783  26.305  1.00  0.00     0.251 C 
ATOM     39  H   UNL A   1      42.955  19.879  26.761  1.00  0.00     0.163 HD
ATOM     40  O   UNL A   1      44.313  21.500  25.484  1.00  0.00    -0.269 OA
BRANCH  38  41
ATOM     41  C   UNL A   1      43.302  23.173  26.785  1.00  0.00     0.039 A 
ATOM     42  C   UNL A   1      42.940  24.215  25.926  1.00  0.00     0.014 A 
ATOM     43  C   UNL A   1      43.552  23.428  28.131  1.00  0.00     0.014 A 
ATOM     44  C   UNL A   1      42.784  25.497  26.453  1.00  0.00     0.010 A 
ATOM     45  C   UNL A   1      43.220  24.637  28.679  1.00  0.00     0.010 A 
ATOM     46  C   UNL A   1      42.921  25.695  27.836  1.00  0.00    -0.014 A 
BRANCH  46  47
ATOM     47  C   UNL A   1      42.683  26.991  28.453  1.00  0.00     0.031 A 
ATOM     48  C   UNL A   1      43.700  28.017  28.112  1.00  0.00     0.074 A 
ATOM     49  C   UNL A   1      41.524  27.308  29.074  1.00  0.00     0.049 A 
ATOM     50  N   UNL A   1      44.631  28.485  28.874  1.00  0.00    -0.248 NA
ATOM     51  C   UNL A   1      43.817  28.445  26.707  1.00  0.00     0.031 C 
ATOM     52  C   UNL A   1      40.288  26.518  29.170  1.00  0.00     0.029 A 
ATOM     53  N   UNL A   1      41.167  28.474  29.673  1.00  0.00    -0.354 N 
ATOM     54  C   UNL A   1      45.289  29.453  28.121  1.00  0.00     0.074 A 
ATOM     55  C   UNL A   1      44.903  29.219  26.755  1.00  0.00     0.031 C 
ATOM     56  C   UNL A   1      39.269  27.314  29.565  1.00  0.00     0.029 A 
ATOM     57  C   UNL A   1      39.806  28.616  29.919  1.00  0.00     0.049 A 
ATOM     58  H   UNL A   1      41.824  29.168  29.913  1.00  0.00     0.167 HD
ATOM     59  C   UNL A   1      45.890  30.521  28.720  1.00  0.00     0.037 A 
ATOM     60  C   UNL A   1      39.175  29.743  30.345  1.00  0.00     0.037 A 
ATOM     61  C   UNL A   1      45.979  30.321  30.148  1.00  0.00     0.049 A 
ATOM     62  C   UNL A   1      40.212  30.627  30.937  1.00  0.00     0.074 A 
ATOM     63  C   UNL A   1      46.564  29.370  30.962  1.00  0.00     0.029 A 
ATOM     64  N   UNL A   1      45.051  30.967  30.931  1.00  0.00    -0.354 N 
ATOM     65  N   UNL A   1      40.866  30.343  32.030  1.00  0.00    -0.248 NA
ATOM     66  C   UNL A   1      40.864  31.581  30.052  1.00  0.00     0.031 C 
ATOM     67  C   UNL A   1      45.628  29.164  32.017  1.00  0.00     0.029 A 
ATOM     68  C   UNL A   1      44.571  30.057  31.838  1.00  0.00     0.049 A 
ATOM     69  H   UNL A   1      44.781  31.910  30.855  1.00  0.00     0.167 HD
ATOM     70  C   UNL A   1      42.175  30.719  31.767  1.00  0.00     0.074 A 
ATOM     71  C   UNL A   1      42.096  31.549  30.564  1.00  0.00     0.031 C 
ATOM     72  C   UNL A   1      43.225  30.086  32.368  1.00  0.00     0.037 A 
BRANCH  59  73
ATOM     73  C   UNL A   1      46.058  31.891  28.104  1.00  0.00     0.058 A 
ATOM     74  C   UNL A   1      47.331  32.501  28.138  1.00  0.00     0.135 A 
ATOM     75  C   UNL A   1      44.990  32.737  27.734  1.00  0.00     0.135 A 
ATOM     76  F   UNL A   1      48.421  31.793  28.473  1.00  0.00    -0.206 F 
ATOM     77  C   UNL A   1      47.515  33.864  27.907  1.00  0.00     0.059 A 
ATOM     78  C   UNL A   1      45.160  34.087  27.444  1.00  0.00     0.059 A 
ATOM     79  F   UNL A   1      43.717  32.328  27.730  1.00  0.00    -0.206 F 
ATOM     80  C   UNL A   1      46.418  34.651  27.575  1.00  0.00     0.060 A 
BRANCH  80  81
ATOM     81  S   UNL A   1      46.637  36.427  27.369  1.00  0.00     0.124 S 
ATOM     82  O   UNL A   1      47.704  36.701  28.323  1.00  0.00    -0.237 OA
ATOM     83  O   UNL A   1      46.997  36.523  25.958  1.00  0.00    -0.237 OA
ATOM     84  O   UNL A   1      45.325  36.966  27.713  1.00  0.00    -0.744 OA
ENDBRANCH  80  81
ENDBRANCH  59  73
BRANCH  60  85
ATOM     85  C   UNL A   1      37.846  30.268  29.928  1.00  0.00     0.058 A 
ATOM     86  C   UNL A   1      36.983  30.907  30.836  1.00  0.00     0.135 A 
ATOM     87  C   UNL A   1      37.538  30.430  28.567  1.00  0.00     0.135 A 
ATOM     88  F   UNL A   1      37.227  30.844  32.154  1.00  0.00    -0.206 F 
ATOM     89  C   UNL A   1      35.894  31.685  30.416  1.00  0.00     0.059 A 
ATOM     90  C   UNL A   1      36.459  31.194  28.125  1.00  0.00     0.059 A 
ATOM     91  F   UNL A   1      38.335  29.918  27.617  1.00  0.00    -0.206 F 
ATOM     92  C   UNL A   1      35.651  31.836  29.052  1.00  0.00     0.060 A 
BRANCH  92  93
ATOM     93  S   UNL A   1      34.353  32.961  28.483  1.00  0.00     0.124 S 
ATOM     94  O   UNL A   1      35.094  33.881  27.629  1.00  0.00    -0.237 OA
ATOM     95  O   UNL A   1      33.438  32.052  27.802  1.00  0.00    -0.237 OA
ATOM     96  O   UNL A   1      33.841  33.541  29.724  1.00  0.00    -0.744 OA
ENDBRANCH  92  93
ENDBRANCH  60  85
BRANCH  72  97
ATOM     97  C   UNL A   1      42.942  29.199  33.554  1.00  0.00     0.058 A 
ATOM     98  C   UNL A   1      42.818  29.639  34.885  1.00  0.00     0.135 A 
ATOM     99  C   UNL A   1      42.659  27.850  33.301  1.00  0.00     0.135 A 
ATOM    100  F   UNL A   1      42.960  30.933  35.203  1.00  0.00    -0.206 F 
ATOM    101  C   UNL A   1      42.486  28.761  35.921  1.00  0.00     0.059 A 
ATOM    102  C   UNL A   1      42.292  26.966  34.309  1.00  0.00     0.059 A 
ATOM    103  F   UNL A   1      42.698  27.380  32.042  1.00  0.00    -0.206 F 
ATOM    104  C   UNL A   1      42.230  27.423  35.622  1.00  0.00     0.060 A 
BRANCH 104 105
ATOM    105  S   UNL A   1      41.773  26.289  36.951  1.00  0.00     0.124 S 
ATOM    106  O   UNL A   1      40.494  26.836  37.393  1.00  0.00    -0.237 OA
ATOM    107  O   UNL A   1      41.709  25.003  36.263  1.00  0.00    -0.237 OA
ATOM    108  O   UNL A   1      42.871  26.422  37.906  1.00  0.00    -0.744 OA
ENDBRANCH 104 105
ENDBRANCH  72  97
ENDBRANCH  46  47
ENDBRANCH  38  41
ENDBRANCH  36  37
ENDBRANCH  35  36
ENDBRANCH  34  35
ENDBRANCH   1  34
TORSDOF 20
ENDMDL
MODEL 3
REMARK VINA RESULT:     -12.0      2.181      4.217
REMARK SMILES Cc1nn(Cc2ccc(Cl)cc2Cl)c(C)c1NC(=O)c1c(C(=O)NCCCCCCNC(=O)c2ccc(-c3c4nc(c(-c5c(F)cc(S(=O)(=O)[O-])cc5F)c5ccc([nH]5)c(-c5c(F)cc(S(=O)(=O)[O-])cc5F)c5nc(c(-c6c(F)cc(S(=O)(=O)[O-])cc6F)c6ccc3[nH]6)C=C5)C=C4)cc2)cnn1C
REMARK SMILES IDX 27 1 26 2 25 3 24 4 22 5 23 6 21 8 20 9 102 10 100 11 101 12
REMARK SMILES IDX 103 13 18 14 17 15 19 17 16 18 1 19 2 20 3 21 4 22 14 23
REMARK SMILES IDX 15 24 5 25 6 26 7 27 12 28 8 29 11 30 13 31 9 32 10 33 28 34
REMARK SMILES IDX 29 35 30 36 31 37 32 38 33 40 34 41 35 42 99 43 36 44 98 45
REMARK SMILES IDX 37 46 38 47 39 48 92 49 40 50 97 51 91 52 93 53 41 54 96 55
REMARK SMILES IDX 90 56 89 57 42 59 76 60 55 61 75 62 56 63 59 64 74 65 94 66
REMARK SMILES IDX 57 67 58 68 73 70 95 71 60 72 43 73 44 74 53 75 45 76 46 77
REMARK SMILES IDX 52 78 54 79 47 80 48 81 49 82 50 83 51 84 77 85 78 86 87 87
REMARK SMILES IDX 79 88 80 89 86 90 88 91 81 92 82 93 83 94 84 95 85 96 61 97
REMARK SMILES IDX 62 98 71 99 63 100 64 101 70 102 72 103 65 104 66 105 67 106
REMARK SMILES IDX 68 107 69 108
REMARK H PARENT 24 7 17 16 31 39 93 58 59 69
REMARK Flexibility Score: inf
ROOT
ATOM      1  C   UNL A   1      35.009  29.817  27.801  1.00  0.00     0.002 C 
ENDROOT
BRANCH   1   2
ATOM      2  C   UNL A   1      33.606  29.258  27.573  1.00  0.00     0.021 C 
BRANCH   2   3
ATOM      3  C   UNL A   1      33.478  27.963  26.760  1.00  0.00     0.116 C 
BRANCH   3   4
ATOM      4  N   UNL A   1      34.094  27.973  25.441  1.00  0.00    -0.352 N 
ATOM      5  C   UNL A   1      33.608  28.376  24.213  1.00  0.00     0.255 C 
ATOM      6  O   UNL A   1      34.410  28.448  23.282  1.00  0.00    -0.269 OA
ATOM      7  H   UNL A   1      35.018  27.634  25.421  1.00  0.00     0.163 HD
BRANCH   5   8
ATOM      8  C   UNL A   1      32.196  28.674  24.023  1.00  0.00     0.090 A 
ATOM      9  C   UNL A   1      31.267  27.896  23.320  1.00  0.00     0.138 A 
ATOM     10  N   UNL A   1      30.067  28.559  23.449  1.00  0.00    -0.262 N 
ATOM     11  C   UNL A   1      31.453  29.812  24.412  1.00  0.00     0.149 A 
ATOM     12  N   UNL A   1      30.164  29.735  24.091  1.00  0.00    -0.180 NA
ATOM     13  C   UNL A   1      28.745  28.084  23.101  1.00  0.00     0.174 C 
BRANCH   9  14
ATOM     14  C   UNL A   1      31.402  26.688  22.537  1.00  0.00     0.274 C 
ATOM     15  N   UNL A   1      31.864  25.506  23.059  1.00  0.00    -0.317 N 
ATOM     16  H   UNL A   1      32.061  24.817  22.383  1.00  0.00     0.170 HD
ATOM     17  O   UNL A   1      31.122  26.684  21.334  1.00  0.00    -0.267 OA
BRANCH  15  18
ATOM     18  C   UNL A   1      32.103  25.105  24.355  1.00  0.00     0.085 A 
ATOM     19  C   UNL A   1      29.776  25.686  25.404  1.00  0.00     0.071 C 
ATOM     20  C   UNL A   1      31.147  25.123  25.412  1.00  0.00     0.083 A 
ATOM     21  N   UNL A   1      31.603  24.489  26.499  1.00  0.00    -0.175 NA
ATOM     22  N   UNL A   1      32.855  24.133  26.151  1.00  0.00    -0.263 N 
ATOM     23  C   UNL A   1      33.268  24.693  24.963  1.00  0.00     0.060 A 
ATOM     24  C   UNL A   1      34.701  24.765  24.588  1.00  0.00     0.069 C 
BRANCH  22  25
ATOM     25  C   UNL A   1      33.492  23.004  26.822  1.00  0.00     0.181 C 
BRANCH  25  26
ATOM     26  C   UNL A   1      33.562  21.766  25.981  1.00  0.00    -0.008 A 
ATOM     27  C   UNL A   1      32.358  21.207  25.521  1.00  0.00     0.009 A 
ATOM     28  C   UNL A   1      34.771  21.149  25.620  1.00  0.00     0.047 A 
ATOM     29  C   UNL A   1      32.360  20.041  24.761  1.00  0.00     0.021 A 
ATOM     30  C   UNL A   1      34.768  19.963  24.890  1.00  0.00     0.041 A 
ATOM     31  Cl  UNL A   1      36.316  21.828  26.004  1.00  0.00    -0.084 Cl
ATOM     32  C   UNL A   1      33.564  19.411  24.466  1.00  0.00     0.042 A 
ATOM     33  Cl  UNL A   1      33.537  17.951  23.564  1.00  0.00    -0.084 Cl
ENDBRANCH  25  26
ENDBRANCH  22  25
ENDBRANCH  15  18
ENDBRANCH   9  14
ENDBRANCH   5   8
ENDBRANCH   3   4
ENDBRANCH   2   3
ENDBRANCH   1   2
BRANCH   1  34
ATOM     34  C   UNL A   1      35.158  31.329  27.608  1.00  0.00     0.002 C 
BRANCH  34  35
ATOM     35  C   UNL A   1      34.022  32.203  28.156  1.00  0.00     0.021 C 
BRANCH  35  36
ATOM     36  C   UNL A   1      34.470  33.516  28.786  1.00  0.00     0.116 C 
BRANCH  36  37
ATOM     37  N   UNL A   1      34.169  33.596  30.212  1.00  0.00    -0.352 N 
ATOM     38  C   UNL A   1      34.698  32.833  31.242  1.00  0.00     0.251 C 
ATOM     39  H   UNL A   1      33.509  34.276  30.476  1.00  0.00     0.163 HD
ATOM     40  O   UNL A   1      34.090  32.707  32.293  1.00  0.00    -0.269 OA
BRANCH  38  41
ATOM     41  C   UNL A   1      36.015  32.188  31.052  1.00  0.00     0.039 A 
ATOM     42  C   UNL A   1      37.182  32.935  30.859  1.00  0.00     0.014 A 
ATOM     43  C   UNL A   1      36.064  30.796  31.049  1.00  0.00     0.014 A 
ATOM     44  C   UNL A   1      38.395  32.261  30.717  1.00  0.00     0.010 A 
ATOM     45  C   UNL A   1      37.267  30.147  31.097  1.00  0.00     0.010 A 
ATOM     46  C   UNL A   1      38.426  30.864  30.845  1.00  0.00    -0.014 A 
BRANCH  46  47
ATOM     47  C   UNL A   1      39.673  30.116  30.794  1.00  0.00     0.031 A 
ATOM     48  C   UNL A   1      40.279  29.862  32.127  1.00  0.00     0.074 A 
ATOM     49  C   UNL A   1      40.114  29.496  29.676  1.00  0.00     0.049 A 
ATOM     50  N   UNL A   1      41.323  30.425  32.634  1.00  0.00    -0.248 NA
ATOM     51  C   UNL A   1      39.539  29.019  33.082  1.00  0.00     0.031 C 
ATOM     52  C   UNL A   1      39.437  29.352  28.379  1.00  0.00     0.029 A 
ATOM     53  N   UNL A   1      41.240  28.758  29.497  1.00  0.00    -0.354 N 
ATOM     54  C   UNL A   1      41.518  29.820  33.872  1.00  0.00     0.074 A 
ATOM     55  C   UNL A   1      40.283  29.150  34.182  1.00  0.00     0.031 C 
ATOM     56  C   UNL A   1      40.047  28.388  27.652  1.00  0.00     0.029 A 
ATOM     57  C   UNL A   1      41.253  27.974  28.348  1.00  0.00     0.049 A 
ATOM     58  H   UNL A   1      41.992  28.776  30.133  1.00  0.00     0.167 HD
ATOM     59  C   UNL A   1      42.765  29.709  34.413  1.00  0.00     0.037 A 
ATOM     60  C   UNL A   1      42.173  27.026  28.026  1.00  0.00     0.037 A 
ATOM     61  C   UNL A   1      43.709  30.527  33.687  1.00  0.00     0.049 A 
ATOM     62  C   UNL A   1      43.381  27.294  28.850  1.00  0.00     0.074 A 
ATOM     63  C   UNL A   1      43.809  31.876  33.404  1.00  0.00     0.029 A 
ATOM     64  N   UNL A   1      44.526  29.891  32.783  1.00  0.00    -0.354 N 
ATOM     65  N   UNL A   1      44.131  28.352  28.710  1.00  0.00    -0.248 NA
ATOM     66  C   UNL A   1      43.467  26.635  30.145  1.00  0.00     0.031 C 
ATOM     67  C   UNL A   1      44.276  31.934  32.058  1.00  0.00     0.029 A 
ATOM     68  C   UNL A   1      44.518  30.629  31.627  1.00  0.00     0.049 A 
ATOM     69  H   UNL A   1      45.026  29.058  32.937  1.00  0.00     0.167 HD
ATOM     70  C   UNL A   1      44.431  28.746  30.007  1.00  0.00     0.074 A 
ATOM     71  C   UNL A   1      44.062  27.604  30.844  1.00  0.00     0.031 C 
ATOM     72  C   UNL A   1      44.668  30.056  30.308  1.00  0.00     0.037 A 
BRANCH  59  73
ATOM     73  C   UNL A   1      43.225  28.604  35.335  1.00  0.00     0.058 A 
ATOM     74  C   UNL A   1      43.863  28.949  36.547  1.00  0.00     0.135 A 
ATOM     75  C   UNL A   1      43.320  27.244  34.968  1.00  0.00     0.135 A 
ATOM     76  F   UNL A   1      43.837  30.214  36.998  1.00  0.00    -0.206 F 
ATOM     77  C   UNL A   1      44.607  28.034  37.290  1.00  0.00     0.059 A 
ATOM     78  C   UNL A   1      44.010  26.302  35.724  1.00  0.00     0.059 A 
ATOM     79  F   UNL A   1      42.835  26.776  33.812  1.00  0.00    -0.206 F 
ATOM     80  C   UNL A   1      44.686  26.714  36.860  1.00  0.00     0.060 A 
BRANCH  80  81
ATOM     81  S   UNL A   1      45.723  25.552  37.763  1.00  0.00     0.124 S 
ATOM     82  O   UNL A   1      46.981  26.284  37.841  1.00  0.00    -0.237 OA
ATOM     83  O   UNL A   1      44.988  25.405  39.015  1.00  0.00    -0.237 OA
ATOM     84  O   UNL A   1      45.729  24.372  36.905  1.00  0.00    -0.744 OA
ENDBRANCH  80  81
ENDBRANCH  59  73
BRANCH  60  85
ATOM     85  C   UNL A   1      41.948  25.707  27.374  1.00  0.00     0.058 A 
ATOM     86  C   UNL A   1      42.872  25.163  26.464  1.00  0.00     0.135 A 
ATOM     87  C   UNL A   1      40.978  24.821  27.872  1.00  0.00     0.135 A 
ATOM     88  F   UNL A   1      43.861  25.925  25.973  1.00  0.00    -0.206 F 
ATOM     89  C   UNL A   1      42.851  23.810  26.093  1.00  0.00     0.059 A 
ATOM     90  C   UNL A   1      40.934  23.474  27.514  1.00  0.00     0.059 A 
ATOM     91  F   UNL A   1      40.091  25.222  28.796  1.00  0.00    -0.206 F 
ATOM     92  C   UNL A   1      41.885  22.968  26.639  1.00  0.00     0.060 A 
BRANCH  92  93
ATOM     93  S   UNL A   1      41.935  21.192  26.301  1.00  0.00     0.124 S 
ATOM     94  O   UNL A   1      40.566  20.920  25.878  1.00  0.00    -0.237 OA
ATOM     95  O   UNL A   1      42.954  21.108  25.261  1.00  0.00    -0.237 OA
ATOM     96  O   UNL A   1      42.314  20.613  27.589  1.00  0.00    -0.744 OA
ENDBRANCH  92  93
ENDBRANCH  60  85
BRANCH  72  97
ATOM     97  C   UNL A   1      44.919  31.017  29.173  1.00  0.00     0.058 A 
ATOM     98  C   UNL A   1      43.922  31.617  28.381  1.00  0.00     0.135 A 
ATOM     99  C   UNL A   1      46.239  31.444  28.966  1.00  0.00     0.135 A 
ATOM    100  F   UNL A   1      42.624  31.353  28.585  1.00  0.00    -0.206 F 
ATOM    101  C   UNL A   1      44.235  32.552  27.390  1.00  0.00     0.059 A 
ATOM    102  C   UNL A   1      46.569  32.399  28.012  1.00  0.00     0.059 A 
ATOM    103  F   UNL A   1      47.230  30.957  29.732  1.00  0.00    -0.206 F 
ATOM    104  C   UNL A   1      45.565  32.933  27.210  1.00  0.00     0.060 A 
BRANCH 104 105
ATOM    105  S   UNL A   1      45.972  34.161  25.951  1.00  0.00     0.124 S 
ATOM    106  O   UNL A   1      45.047  33.816  24.876  1.00  0.00    -0.237 OA
ATOM    107  O   UNL A   1      45.704  35.421  26.639  1.00  0.00    -0.237 OA
ATOM    108  O   UNL A   1      47.382  33.904  25.667  1.00  0.00    -0.744 OA
ENDBRANCH 104 105
ENDBRANCH  72  97
ENDBRANCH  46  47
ENDBRANCH  38  41
ENDBRANCH  36  37
ENDBRANCH  35  36
ENDBRANCH  34  35
ENDBRANCH   1  34
TORSDOF 20
ENDMDL
