MODEL 1
REMARK VINA RESULT:     -12.0      0.000      0.000
REMARK SMILES O=C(NCCCCCCNC(=O)[C@@H]1[C@@H](C(=O)Nc2cccc([N+](=O)[O-])c2)[C@@H]2C=C[C@H]1O2)c1ccc(-c2c3nc(c(-c4c(F)cc(S(=O)(=O)[O-])cc4F)c4ccc([nH]4)c(-c4c(F)cc(S(=O)(=O)[O-])cc4F)c4nc(c(-c5c(F)cc(S(=O)(=O)[O-])cc5F)c5ccc2[nH]5)C=C4)C=C3)cc1
REMARK SMILES IDX 6 1 5 2 4 3 3 4 1 5 2 6 32 8 33 9 97 10 34 11 96 12 35 13
REMARK SMILES IDX 36 14 37 15 90 16 38 17 95 18 89 19 91 20 39 21 94 22 88 23
REMARK SMILES IDX 87 24 40 26 74 27 53 28 73 29 54 30 57 31 72 32 92 33 55 34
REMARK SMILES IDX 56 35 71 37 93 38 58 39 41 40 42 41 51 42 43 43 44 44 50 45
REMARK SMILES IDX 52 46 45 47 46 48 47 49 48 50 49 51 75 52 76 53 85 54 77 55
REMARK SMILES IDX 78 56 84 57 86 58 79 59 80 60 81 61 82 62 83 63 59 64 60 65
REMARK SMILES IDX 69 66 61 67 62 68 68 69 70 70 63 71 64 72 65 73 66 74 67 75
REMARK SMILES IDX 7 76 8 77 9 78 10 79 11 80 12 82 13 83 14 84 30 85 27 86
REMARK SMILES IDX 29 87 31 88 28 89 15 90 16 91 17 92 18 94 19 95 26 96 20 97
REMARK SMILES IDX 22 98 21 99 23 100 24 101 25 102
REMARK H PARENT 3 7 91 25 57 36 10 81 17 93
REMARK Flexibility Score: inf
ROOT
ATOM      1  C   UNL A   1      35.984  34.171  29.368  1.00  0.00     0.002 C 
ENDROOT
BRANCH   1   2
ATOM      2  C   UNL A   1      37.360  33.509  29.440  1.00  0.00     0.021 C 
BRANCH   2   3
ATOM      3  C   UNL A   1      37.766  33.143  30.859  1.00  0.00     0.116 C 
BRANCH   3   4
ATOM      4  N   UNL A   1      36.944  32.053  31.362  1.00  0.00    -0.352 N 
ATOM      5  O   UNL A   1      36.117  29.953  31.291  1.00  0.00    -0.269 OA
ATOM      6  C   UNL A   1      37.056  30.719  31.076  1.00  0.00     0.251 C 
ATOM      7  H   UNL A   1      36.222  32.305  31.982  1.00  0.00     0.163 HD
BRANCH   6   8
ATOM      8  C   UNL A   1      38.324  30.223  30.513  1.00  0.00     0.039 A 
ATOM      9  C   UNL A   1      38.480  30.158  29.124  1.00  0.00     0.014 A 
ATOM     10  C   UNL A   1      39.358  29.832  31.364  1.00  0.00     0.014 A 
ATOM     11  C   UNL A   1      39.631  29.605  28.585  1.00  0.00     0.010 A 
ATOM     12  C   UNL A   1      40.553  29.364  30.817  1.00  0.00     0.010 A 
ATOM     13  C   UNL A   1      40.696  29.247  29.425  1.00  0.00    -0.014 A 
BRANCH  13  14
ATOM     14  C   UNL A   1      41.997  28.884  28.819  1.00  0.00     0.031 A 
ATOM     15  C   UNL A   1      42.260  27.500  28.308  1.00  0.00     0.074 A 
ATOM     16  C   UNL A   1      42.948  29.838  28.757  1.00  0.00     0.049 A 
ATOM     17  N   UNL A   1      43.361  27.013  27.799  1.00  0.00    -0.248 NA
ATOM     18  C   UNL A   1      41.154  26.532  28.385  1.00  0.00     0.031 C 
ATOM     19  C   UNL A   1      42.791  31.215  29.243  1.00  0.00     0.029 A 
ATOM     20  N   UNL A   1      44.227  29.807  28.268  1.00  0.00    -0.354 N 
ATOM     21  C   UNL A   1      43.094  25.679  27.517  1.00  0.00     0.074 A 
ATOM     22  C   UNL A   1      41.728  25.428  27.923  1.00  0.00     0.031 C 
ATOM     23  C   UNL A   1      43.919  31.898  29.007  1.00  0.00     0.029 A 
ATOM     24  C   UNL A   1      44.902  30.994  28.428  1.00  0.00     0.049 A 
ATOM     25  H   UNL A   1      44.624  29.013  27.845  1.00  0.00     0.167 HD
ATOM     26  C   UNL A   1      43.922  24.757  26.970  1.00  0.00     0.037 A 
ATOM     27  C   UNL A   1      46.186  31.311  28.178  1.00  0.00     0.037 A 
ATOM     28  C   UNL A   1      45.276  25.037  26.560  1.00  0.00     0.049 A 
ATOM     29  C   UNL A   1      47.087  30.256  27.607  1.00  0.00     0.074 A 
ATOM     30  C   UNL A   1      46.175  24.192  25.935  1.00  0.00     0.029 A 
ATOM     31  N   UNL A   1      45.931  26.247  26.751  1.00  0.00    -0.354 N 
ATOM     32  N   UNL A   1      46.799  29.018  27.283  1.00  0.00    -0.248 NA
ATOM     33  C   UNL A   1      48.486  30.633  27.373  1.00  0.00     0.031 C 
ATOM     34  C   UNL A   1      47.393  24.866  25.808  1.00  0.00     0.029 A 
ATOM     35  C   UNL A   1      47.236  26.155  26.294  1.00  0.00     0.049 A 
ATOM     36  H   UNL A   1      45.528  27.051  27.151  1.00  0.00     0.167 HD
ATOM     37  C   UNL A   1      47.978  28.472  26.794  1.00  0.00     0.074 A 
ATOM     38  C   UNL A   1      48.975  29.521  26.842  1.00  0.00     0.031 C 
ATOM     39  C   UNL A   1      48.215  27.213  26.349  1.00  0.00     0.037 A 
BRANCH  26  40
ATOM     40  C   UNL A   1      43.413  23.351  26.803  1.00  0.00     0.058 A 
ATOM     41  C   UNL A   1      43.097  22.816  25.546  1.00  0.00     0.135 A 
ATOM     42  C   UNL A   1      43.317  22.499  27.917  1.00  0.00     0.135 A 
ATOM     43  F   UNL A   1      43.158  23.589  24.448  1.00  0.00    -0.206 F 
ATOM     44  C   UNL A   1      42.694  21.493  25.397  1.00  0.00     0.059 A 
ATOM     45  C   UNL A   1      42.941  21.165  27.790  1.00  0.00     0.059 A 
ATOM     46  F   UNL A   1      43.604  22.958  29.146  1.00  0.00    -0.206 F 
ATOM     47  C   UNL A   1      42.623  20.673  26.525  1.00  0.00     0.060 A 
BRANCH  47  48
ATOM     48  S   UNL A   1      42.124  18.951  26.310  1.00  0.00     0.124 S 
ATOM     49  O   UNL A   1      42.245  18.440  27.672  1.00  0.00    -0.237 OA
ATOM     50  O   UNL A   1      40.761  19.084  25.804  1.00  0.00    -0.237 OA
ATOM     51  O   UNL A   1      43.097  18.430  25.356  1.00  0.00    -0.744 OA
ENDBRANCH  47  48
ENDBRANCH  26  40
BRANCH  27  52
ATOM     52  C   UNL A   1      46.693  32.669  28.511  1.00  0.00     0.058 A 
ATOM     53  C   UNL A   1      46.616  33.719  27.588  1.00  0.00     0.135 A 
ATOM     54  C   UNL A   1      47.254  32.943  29.771  1.00  0.00     0.135 A 
ATOM     55  F   UNL A   1      46.089  33.508  26.373  1.00  0.00    -0.206 F 
ATOM     56  C   UNL A   1      47.100  34.989  27.888  1.00  0.00     0.059 A 
ATOM     57  C   UNL A   1      47.713  34.211  30.106  1.00  0.00     0.059 A 
ATOM     58  F   UNL A   1      47.331  31.977  30.699  1.00  0.00    -0.206 F 
ATOM     59  C   UNL A   1      47.647  35.224  29.152  1.00  0.00     0.060 A 
BRANCH  59  60
ATOM     60  S   UNL A   1      48.252  36.879  29.539  1.00  0.00     0.124 S 
ATOM     61  O   UNL A   1      47.036  37.530  30.015  1.00  0.00    -0.237 OA
ATOM     62  O   UNL A   1      49.269  36.606  30.549  1.00  0.00    -0.237 OA
ATOM     63  O   UNL A   1      48.763  37.358  28.257  1.00  0.00    -0.744 OA
ENDBRANCH  59  60
ENDBRANCH  27  52
BRANCH  39  64
ATOM     64  C   UNL A   1      49.601  26.906  25.858  1.00  0.00     0.058 A 
ATOM     65  C   UNL A   1      49.974  27.125  24.524  1.00  0.00     0.135 A 
ATOM     66  C   UNL A   1      50.587  26.451  26.750  1.00  0.00     0.135 A 
ATOM     67  F   UNL A   1      49.066  27.546  23.629  1.00  0.00    -0.206 F 
ATOM     68  C   UNL A   1      51.272  26.893  24.086  1.00  0.00     0.059 A 
ATOM     69  C   UNL A   1      51.898  26.242  26.341  1.00  0.00     0.059 A 
ATOM     70  F   UNL A   1      50.282  26.231  28.039  1.00  0.00    -0.206 F 
ATOM     71  C   UNL A   1      52.231  26.460  25.005  1.00  0.00     0.060 A 
BRANCH  71  72
ATOM     72  S   UNL A   1      53.926  26.222  24.435  1.00  0.00     0.124 S 
ATOM     73  O   UNL A   1      53.797  26.482  23.006  1.00  0.00    -0.237 OA
ATOM     74  O   UNL A   1      54.654  27.230  25.201  1.00  0.00    -0.237 OA
ATOM     75  O   UNL A   1      54.217  24.839  24.797  1.00  0.00    -0.744 OA
ENDBRANCH  71  72
ENDBRANCH  39  64
ENDBRANCH  13  14
ENDBRANCH   6   8
ENDBRANCH   3   4
ENDBRANCH   2   3
ENDBRANCH   1   2
BRANCH   1  76
ATOM     76  C   UNL A   1      34.993  33.436  28.459  1.00  0.00     0.002 C 
BRANCH  76  77
ATOM     77  C   UNL A   1      35.616  32.275  27.671  1.00  0.00     0.021 C 
BRANCH  77  78
ATOM     78  C   UNL A   1      34.954  30.932  27.995  1.00  0.00     0.116 C 
BRANCH  78  79
ATOM     79  N   UNL A   1      33.524  31.065  27.852  1.00  0.00    -0.356 N 
ATOM     80  C   UNL A   1      32.735  30.702  26.813  1.00  0.00     0.227 C 
ATOM     81  H   UNL A   1      33.058  31.476  28.615  1.00  0.00     0.163 HD
ATOM     82  O   UNL A   1      31.665  31.310  26.699  1.00  0.00    -0.275 OA
BRANCH  80  83
ATOM     83  C   UNL A   1      32.998  29.483  25.955  1.00  0.00     0.127 C 
ATOM     84  C   UNL A   1      32.076  28.911  24.853  1.00  0.00     0.127 C 
ATOM     85  C   UNL A   1      33.161  28.246  26.862  1.00  0.00     0.155 C 
ATOM     86  C   UNL A   1      31.946  27.434  25.253  1.00  0.00     0.155 C 
ATOM     87  C   UNL A   1      31.854  27.853  27.487  1.00  0.00     0.004 C 
ATOM     88  O   UNL A   1      33.242  27.202  25.853  1.00  0.00    -0.365 OA
ATOM     89  C   UNL A   1      31.104  27.347  26.496  1.00  0.00     0.004 C 
BRANCH  84  90
ATOM     90  C   UNL A   1      32.426  29.052  23.365  1.00  0.00     0.231 C 
ATOM     91  O   UNL A   1      33.613  28.904  23.042  1.00  0.00    -0.274 OA
ATOM     92  N   UNL A   1      31.543  29.204  22.337  1.00  0.00    -0.325 N 
ATOM     93  H   UNL A   1      31.914  28.978  21.453  1.00  0.00     0.169 HD
BRANCH  92  94
ATOM     94  C   UNL A   1      30.211  29.622  22.308  1.00  0.00     0.048 A 
ATOM     95  C   UNL A   1      29.229  28.720  22.730  1.00  0.00     0.026 A 
ATOM     96  C   UNL A   1      29.853  30.917  21.940  1.00  0.00     0.111 A 
ATOM     97  C   UNL A   1      27.922  29.162  22.951  1.00  0.00     0.009 A 
ATOM     98  C   UNL A   1      28.553  31.365  22.197  1.00  0.00     0.271 A 
ATOM     99  C   UNL A   1      27.588  30.498  22.722  1.00  0.00     0.086 A 
BRANCH  98 100
ATOM    100  N   UNL A   1      28.227  32.779  22.000  1.00  0.00     0.062 N 
ATOM    101  O   UNL A   1      28.568  33.572  22.891  1.00  0.00    -0.258 OA
ATOM    102  O   UNL A   1      27.632  33.097  20.962  1.00  0.00    -0.258 OA
ENDBRANCH  98 100
ENDBRANCH  92  94
ENDBRANCH  84  90
ENDBRANCH  80  83
ENDBRANCH  78  79
ENDBRANCH  77  78
ENDBRANCH  76  77
ENDBRANCH   1  76
TORSDOF 19
ENDMDL
MODEL 2
REMARK VINA RESULT:     -11.8      6.606     11.835
REMARK SMILES O=C(NCCCCCCNC(=O)[C@@H]1[C@@H](C(=O)Nc2cccc([N+](=O)[O-])c2)[C@@H]2C=C[C@H]1O2)c1ccc(-c2c3nc(c(-c4c(F)cc(S(=O)(=O)[O-])cc4F)c4ccc([nH]4)c(-c4c(F)cc(S(=O)(=O)[O-])cc4F)c4nc(c(-c5c(F)cc(S(=O)(=O)[O-])cc5F)c5ccc2[nH]5)C=C4)C=C3)cc1
REMARK SMILES IDX 6 1 5 2 4 3 3 4 1 5 2 6 32 8 33 9 97 10 34 11 96 12 35 13
REMARK SMILES IDX 36 14 37 15 90 16 38 17 95 18 89 19 91 20 39 21 94 22 88 23
REMARK SMILES IDX 87 24 40 26 74 27 53 28 73 29 54 30 57 31 72 32 92 33 55 34
REMARK SMILES IDX 56 35 71 37 93 38 58 39 41 40 42 41 51 42 43 43 44 44 50 45
REMARK SMILES IDX 52 46 45 47 46 48 47 49 48 50 49 51 75 52 76 53 85 54 77 55
REMARK SMILES IDX 78 56 84 57 86 58 79 59 80 60 81 61 82 62 83 63 59 64 60 65
REMARK SMILES IDX 69 66 61 67 62 68 68 69 70 70 63 71 64 72 65 73 66 74 67 75
REMARK SMILES IDX 7 76 8 77 9 78 10 79 11 80 12 82 13 83 14 84 30 85 27 86
REMARK SMILES IDX 29 87 31 88 28 89 15 90 16 91 17 92 18 94 19 95 26 96 20 97
REMARK SMILES IDX 22 98 21 99 23 100 24 101 25 102
REMARK H PARENT 3 7 91 25 57 36 10 81 17 93
REMARK Flexibility Score: inf
ROOT
ATOM      1  C   UNL A   1      40.061  21.873  26.094  1.00  0.00     0.002 C 
ENDROOT
BRANCH   1   2
ATOM      2  C   UNL A   1      40.514  22.285  27.495  1.00  0.00     0.021 C 
BRANCH   2   3
ATOM      3  C   UNL A   1      41.757  23.161  27.481  1.00  0.00     0.116 C 
BRANCH   3   4
ATOM      4  N   UNL A   1      41.798  23.971  26.273  1.00  0.00    -0.352 N 
ATOM      5  O   UNL A   1      41.192  25.746  25.014  1.00  0.00    -0.269 OA
ATOM      6  C   UNL A   1      41.423  25.280  26.130  1.00  0.00     0.251 C 
ATOM      7  H   UNL A   1      42.135  23.525  25.462  1.00  0.00     0.163 HD
BRANCH   6   8
ATOM      8  C   UNL A   1      41.310  26.117  27.337  1.00  0.00     0.039 A 
ATOM      9  C   UNL A   1      42.316  27.046  27.626  1.00  0.00     0.014 A 
ATOM     10  C   UNL A   1      40.203  25.984  28.176  1.00  0.00     0.014 A 
ATOM     11  C   UNL A   1      42.267  27.770  28.806  1.00  0.00     0.010 A 
ATOM     12  C   UNL A   1      40.109  26.783  29.316  1.00  0.00     0.010 A 
ATOM     13  C   UNL A   1      41.142  27.679  29.638  1.00  0.00    -0.014 A 
BRANCH  13  14
ATOM     14  C   UNL A   1      41.002  28.631  30.763  1.00  0.00     0.031 A 
ATOM     15  C   UNL A   1      41.858  28.521  31.988  1.00  0.00     0.074 A 
ATOM     16  C   UNL A   1      40.063  29.594  30.657  1.00  0.00     0.049 A 
ATOM     17  N   UNL A   1      41.823  29.244  33.077  1.00  0.00    -0.248 NA
ATOM     18  C   UNL A   1      42.879  27.462  32.003  1.00  0.00     0.031 C 
ATOM     19  C   UNL A   1      39.169  29.774  29.508  1.00  0.00     0.029 A 
ATOM     20  N   UNL A   1      39.699  30.597  31.516  1.00  0.00    -0.354 N 
ATOM     21  C   UNL A   1      42.794  28.716  33.917  1.00  0.00     0.074 A 
ATOM     22  C   UNL A   1      43.397  27.601  33.217  1.00  0.00     0.031 C 
ATOM     23  C   UNL A   1      38.378  30.833  29.723  1.00  0.00     0.029 A 
ATOM     24  C   UNL A   1      38.653  31.360  31.053  1.00  0.00     0.049 A 
ATOM     25  H   UNL A   1      40.142  30.756  32.380  1.00  0.00     0.167 HD
ATOM     26  C   UNL A   1      43.142  29.130  35.159  1.00  0.00     0.037 A 
ATOM     27  C   UNL A   1      37.959  32.346  31.648  1.00  0.00     0.037 A 
ATOM     28  C   UNL A   1      42.535  30.253  35.829  1.00  0.00     0.049 A 
ATOM     29  C   UNL A   1      38.345  32.757  33.039  1.00  0.00     0.074 A 
ATOM     30  C   UNL A   1      42.861  30.796  37.060  1.00  0.00     0.029 A 
ATOM     31  N   UNL A   1      41.469  30.993  35.336  1.00  0.00    -0.354 N 
ATOM     32  N   UNL A   1      39.312  32.291  33.794  1.00  0.00    -0.248 NA
ATOM     33  C   UNL A   1      37.548  33.819  33.664  1.00  0.00     0.031 C 
ATOM     34  C   UNL A   1      41.951  31.820  37.340  1.00  0.00     0.029 A 
ATOM     35  C   UNL A   1      41.097  31.959  36.257  1.00  0.00     0.049 A 
ATOM     36  H   UNL A   1      41.040  30.852  34.461  1.00  0.00     0.167 HD
ATOM     37  C   UNL A   1      39.247  33.013  34.978  1.00  0.00     0.074 A 
ATOM     38  C   UNL A   1      38.162  33.962  34.829  1.00  0.00     0.031 C 
ATOM     39  C   UNL A   1      40.014  32.897  36.090  1.00  0.00     0.037 A 
BRANCH  26  40
ATOM     40  C   UNL A   1      44.204  28.361  35.897  1.00  0.00     0.058 A 
ATOM     41  C   UNL A   1      45.564  28.690  35.803  1.00  0.00     0.135 A 
ATOM     42  C   UNL A   1      43.843  27.325  36.776  1.00  0.00     0.135 A 
ATOM     43  F   UNL A   1      45.969  29.661  34.968  1.00  0.00    -0.206 F 
ATOM     44  C   UNL A   1      46.530  28.015  36.545  1.00  0.00     0.059 A 
ATOM     45  C   UNL A   1      44.787  26.654  37.547  1.00  0.00     0.059 A 
ATOM     46  F   UNL A   1      42.555  26.966  36.904  1.00  0.00    -0.206 F 
ATOM     47  C   UNL A   1      46.130  27.001  37.418  1.00  0.00     0.060 A 
BRANCH  47  48
ATOM     48  S   UNL A   1      47.393  26.154  38.391  1.00  0.00     0.124 S 
ATOM     49  O   UNL A   1      46.824  26.226  39.733  1.00  0.00    -0.237 OA
ATOM     50  O   UNL A   1      47.416  24.827  37.784  1.00  0.00    -0.237 OA
ATOM     51  O   UNL A   1      48.590  26.961  38.174  1.00  0.00    -0.744 OA
ENDBRANCH  47  48
ENDBRANCH  26  40
BRANCH  27  52
ATOM     52  C   UNL A   1      36.807  32.972  30.945  1.00  0.00     0.058 A 
ATOM     53  C   UNL A   1      35.490  32.587  31.225  1.00  0.00     0.135 A 
ATOM     54  C   UNL A   1      37.006  33.980  29.986  1.00  0.00     0.135 A 
ATOM     55  F   UNL A   1      35.249  31.629  32.132  1.00  0.00    -0.206 F 
ATOM     56  C   UNL A   1      34.408  33.159  30.563  1.00  0.00     0.059 A 
ATOM     57  C   UNL A   1      35.940  34.590  29.336  1.00  0.00     0.059 A 
ATOM     58  F   UNL A   1      38.247  34.400  29.697  1.00  0.00    -0.206 F 
ATOM     59  C   UNL A   1      34.645  34.161  29.618  1.00  0.00     0.060 A 
BRANCH  59  60
ATOM     60  S   UNL A   1      33.234  34.912  28.781  1.00  0.00     0.124 S 
ATOM     61  O   UNL A   1      32.741  33.796  27.983  1.00  0.00    -0.237 OA
ATOM     62  O   UNL A   1      32.393  35.317  29.902  1.00  0.00    -0.237 OA
ATOM     63  O   UNL A   1      33.836  36.009  28.028  1.00  0.00    -0.744 OA
ENDBRANCH  59  60
ENDBRANCH  27  52
BRANCH  39  64
ATOM     64  C   UNL A   1      39.722  33.834  37.228  1.00  0.00     0.058 A 
ATOM     65  C   UNL A   1      38.950  33.434  38.329  1.00  0.00     0.135 A 
ATOM     66  C   UNL A   1      40.277  35.124  37.247  1.00  0.00     0.135 A 
ATOM     67  F   UNL A   1      38.385  32.217  38.353  1.00  0.00    -0.206 F 
ATOM     68  C   UNL A   1      38.727  34.285  39.406  1.00  0.00     0.059 A 
ATOM     69  C   UNL A   1      40.093  35.980  38.327  1.00  0.00     0.059 A 
ATOM     70  F   UNL A   1      41.027  35.553  36.219  1.00  0.00    -0.206 F 
ATOM     71  C   UNL A   1      39.311  35.554  39.400  1.00  0.00     0.060 A 
BRANCH  71  72
ATOM     72  S   UNL A   1      39.065  36.623  40.832  1.00  0.00     0.124 S 
ATOM     73  O   UNL A   1      38.686  37.882  40.200  1.00  0.00    -0.237 OA
ATOM     74  O   UNL A   1      38.003  35.931  41.556  1.00  0.00    -0.237 OA
ATOM     75  O   UNL A   1      40.368  36.619  41.489  1.00  0.00    -0.744 OA
ENDBRANCH  71  72
ENDBRANCH  39  64
ENDBRANCH  13  14
ENDBRANCH   6   8
ENDBRANCH   3   4
ENDBRANCH   2   3
ENDBRANCH   1   2
BRANCH   1  76
ATOM     76  C   UNL A   1      38.586  22.172  25.810  1.00  0.00     0.002 C 
BRANCH  76  77
ATOM     77  C   UNL A   1      38.153  23.592  26.201  1.00  0.00     0.021 C 
BRANCH  77  78
ATOM     78  C   UNL A   1      36.653  23.821  25.993  1.00  0.00     0.116 C 
BRANCH  78  79
ATOM     79  N   UNL A   1      35.936  22.631  26.386  1.00  0.00    -0.356 N 
ATOM     80  C   UNL A   1      34.613  22.477  26.633  1.00  0.00     0.227 C 
ATOM     81  H   UNL A   1      36.485  21.821  26.489  1.00  0.00     0.163 HD
ATOM     82  O   UNL A   1      34.301  21.544  27.381  1.00  0.00    -0.275 OA
BRANCH  80  83
ATOM     83  C   UNL A   1      33.533  23.229  25.884  1.00  0.00     0.127 C 
ATOM     84  C   UNL A   1      32.012  22.957  25.934  1.00  0.00     0.127 C 
ATOM     85  C   UNL A   1      33.794  23.119  24.368  1.00  0.00     0.155 C 
ATOM     86  C   UNL A   1      31.640  22.837  24.449  1.00  0.00     0.155 C 
ATOM     87  C   UNL A   1      33.539  21.726  23.871  1.00  0.00     0.004 C 
ATOM     88  O   UNL A   1      32.590  23.755  23.859  1.00  0.00    -0.365 OA
ATOM     89  C   UNL A   1      32.210  21.551  23.915  1.00  0.00     0.004 C 
BRANCH  84  90
ATOM     90  C   UNL A   1      31.055  23.905  26.668  1.00  0.00     0.231 C 
ATOM     91  O   UNL A   1      30.189  23.394  27.392  1.00  0.00    -0.274 OA
ATOM     92  N   UNL A   1      31.133  25.266  26.704  1.00  0.00    -0.325 N 
ATOM     93  H   UNL A   1      30.634  25.678  27.447  1.00  0.00     0.169 HD
BRANCH  92  94
ATOM     94  C   UNL A   1      31.789  26.183  25.880  1.00  0.00     0.048 A 
ATOM     95  C   UNL A   1      33.152  26.409  26.102  1.00  0.00     0.026 A 
ATOM     96  C   UNL A   1      31.144  26.814  24.818  1.00  0.00     0.111 A 
ATOM     97  C   UNL A   1      33.904  27.121  25.163  1.00  0.00     0.009 A 
ATOM     98  C   UNL A   1      31.907  27.495  23.864  1.00  0.00     0.271 A 
ATOM     99  C   UNL A   1      33.290  27.635  24.020  1.00  0.00     0.086 A 
BRANCH  98 100
ATOM    100  N   UNL A   1      31.260  27.985  22.644  1.00  0.00     0.062 N 
ATOM    101  O   UNL A   1      30.874  27.139  21.824  1.00  0.00    -0.258 OA
ATOM    102  O   UNL A   1      31.142  29.209  22.504  1.00  0.00    -0.258 OA
ENDBRANCH  98 100
ENDBRANCH  92  94
ENDBRANCH  84  90
ENDBRANCH  80  83
ENDBRANCH  78  79
ENDBRANCH  77  78
ENDBRANCH  76  77
ENDBRANCH   1  76
TORSDOF 19
ENDMDL
MODEL 3
REMARK VINA RESULT:     -11.7      2.294      8.991
REMARK SMILES O=C(NCCCCCCNC(=O)[C@@H]1[C@@H](C(=O)Nc2cccc([N+](=O)[O-])c2)[C@@H]2C=C[C@H]1O2)c1ccc(-c2c3nc(c(-c4c(F)cc(S(=O)(=O)[O-])cc4F)c4ccc([nH]4)c(-c4c(F)cc(S(=O)(=O)[O-])cc4F)c4nc(c(-c5c(F)cc(S(=O)(=O)[O-])cc5F)c5ccc2[nH]5)C=C4)C=C3)cc1
REMARK SMILES IDX 6 1 5 2 4 3 3 4 1 5 2 6 32 8 33 9 97 10 34 11 96 12 35 13
REMARK SMILES IDX 36 14 37 15 90 16 38 17 95 18 89 19 91 20 39 21 94 22 88 23
REMARK SMILES IDX 87 24 40 26 74 27 53 28 73 29 54 30 57 31 72 32 92 33 55 34
REMARK SMILES IDX 56 35 71 37 93 38 58 39 41 40 42 41 51 42 43 43 44 44 50 45
REMARK SMILES IDX 52 46 45 47 46 48 47 49 48 50 49 51 75 52 76 53 85 54 77 55
REMARK SMILES IDX 78 56 84 57 86 58 79 59 80 60 81 61 82 62 83 63 59 64 60 65
REMARK SMILES IDX 69 66 61 67 62 68 68 69 70 70 63 71 64 72 65 73 66 74 67 75
REMARK SMILES IDX 7 76 8 77 9 78 10 79 11 80 12 82 13 83 14 84 30 85 27 86
REMARK SMILES IDX 29 87 31 88 28 89 15 90 16 91 17 92 18 94 19 95 26 96 20 97
REMARK SMILES IDX 22 98 21 99 23 100 24 101 25 102
REMARK H PARENT 3 7 91 25 57 36 10 81 17 93
REMARK Flexibility Score: inf
ROOT
ATOM      1  C   UNL A   1      32.861  29.919  27.162  1.00  0.00     0.002 C 
ENDROOT
BRANCH   1   2
ATOM      2  C   UNL A   1      34.274  29.604  26.668  1.00  0.00     0.021 C 
BRANCH   2   3
ATOM      3  C   UNL A   1      35.243  29.304  27.801  1.00  0.00     0.116 C 
BRANCH   3   4
ATOM      4  N   UNL A   1      35.224  30.374  28.787  1.00  0.00    -0.352 N 
ATOM      5  O   UNL A   1      35.945  31.396  30.667  1.00  0.00    -0.269 OA
ATOM      6  C   UNL A   1      36.205  30.704  29.683  1.00  0.00     0.251 C 
ATOM      7  H   UNL A   1      34.409  30.926  28.813  1.00  0.00     0.163 HD
BRANCH   6   8
ATOM      8  C   UNL A   1      37.575  30.220  29.438  1.00  0.00     0.039 A 
ATOM      9  C   UNL A   1      38.033  30.093  28.122  1.00  0.00     0.014 A 
ATOM     10  C   UNL A   1      38.404  29.904  30.514  1.00  0.00     0.014 A 
ATOM     11  C   UNL A   1      39.285  29.550  27.878  1.00  0.00     0.010 A 
ATOM     12  C   UNL A   1      39.699  29.446  30.268  1.00  0.00     0.010 A 
ATOM     13  C   UNL A   1      40.146  29.266  28.948  1.00  0.00    -0.014 A 
BRANCH  13  14
ATOM     14  C   UNL A   1      41.555  28.914  28.661  1.00  0.00     0.031 A 
ATOM     15  C   UNL A   1      42.636  29.953  28.670  1.00  0.00     0.074 A 
ATOM     16  C   UNL A   1      41.834  27.626  28.374  1.00  0.00     0.049 A 
ATOM     17  N   UNL A   1      43.905  29.813  28.391  1.00  0.00    -0.248 NA
ATOM     18  C   UNL A   1      42.245  31.326  29.028  1.00  0.00     0.031 C 
ATOM     19  C   UNL A   1      40.846  26.542  28.326  1.00  0.00     0.029 A 
ATOM     20  N   UNL A   1      43.016  27.005  28.067  1.00  0.00    -0.354 N 
ATOM     21  C   UNL A   1      44.463  31.079  28.513  1.00  0.00     0.074 A 
ATOM     22  C   UNL A   1      43.391  31.979  28.881  1.00  0.00     0.031 C 
ATOM     23  C   UNL A   1      41.465  25.391  28.032  1.00  0.00     0.029 A 
ATOM     24  C   UNL A   1      42.875  25.665  27.794  1.00  0.00     0.049 A 
ATOM     25  H   UNL A   1      43.881  27.474  28.044  1.00  0.00     0.167 HD
ATOM     26  C   UNL A   1      45.754  31.446  28.330  1.00  0.00     0.037 A 
ATOM     27  C   UNL A   1      43.772  24.762  27.357  1.00  0.00     0.037 A 
ATOM     28  C   UNL A   1      46.807  30.525  27.977  1.00  0.00     0.049 A 
ATOM     29  C   UNL A   1      45.187  25.209  27.128  1.00  0.00     0.074 A 
ATOM     30  C   UNL A   1      48.160  30.783  27.834  1.00  0.00     0.029 A 
ATOM     31  N   UNL A   1      46.625  29.178  27.694  1.00  0.00    -0.354 N 
ATOM     32  N   UNL A   1      45.713  26.396  27.313  1.00  0.00    -0.248 NA
ATOM     33  C   UNL A   1      46.128  24.202  26.626  1.00  0.00     0.031 C 
ATOM     34  C   UNL A   1      48.784  29.609  27.401  1.00  0.00     0.029 A 
ATOM     35  C   UNL A   1      47.833  28.603  27.336  1.00  0.00     0.049 A 
ATOM     36  H   UNL A   1      45.765  28.702  27.742  1.00  0.00     0.167 HD
ATOM     37  C   UNL A   1      47.051  26.275  26.964  1.00  0.00     0.074 A 
ATOM     38  C   UNL A   1      47.257  24.893  26.579  1.00  0.00     0.031 C 
ATOM     39  C   UNL A   1      48.020  27.223  26.957  1.00  0.00     0.037 A 
BRANCH  26  40
ATOM     40  C   UNL A   1      46.111  32.899  28.476  1.00  0.00     0.058 A 
ATOM     41  C   UNL A   1      46.528  33.446  29.699  1.00  0.00     0.135 A 
ATOM     42  C   UNL A   1      46.112  33.743  27.351  1.00  0.00     0.135 A 
ATOM     43  F   UNL A   1      46.534  32.692  30.810  1.00  0.00    -0.206 F 
ATOM     44  C   UNL A   1      46.922  34.777  29.806  1.00  0.00     0.059 A 
ATOM     45  C   UNL A   1      46.526  35.069  27.428  1.00  0.00     0.059 A 
ATOM     46  F   UNL A   1      45.720  33.274  26.156  1.00  0.00    -0.206 F 
ATOM     47  C   UNL A   1      46.922  35.580  28.663  1.00  0.00     0.060 A 
BRANCH  47  48
ATOM     48  S   UNL A   1      47.462  37.296  28.815  1.00  0.00     0.124 S 
ATOM     49  O   UNL A   1      46.999  37.629  30.159  1.00  0.00    -0.237 OA
ATOM     50  O   UNL A   1      48.908  37.183  28.654  1.00  0.00    -0.237 OA
ATOM     51  O   UNL A   1      46.763  37.972  27.726  1.00  0.00    -0.744 OA
ENDBRANCH  47  48
ENDBRANCH  26  40
BRANCH  27  52
ATOM     52  C   UNL A   1      43.341  23.370  27.067  1.00  0.00     0.058 A 
ATOM     53  C   UNL A   1      43.123  22.447  28.098  1.00  0.00     0.135 A 
ATOM     54  C   UNL A   1      43.125  22.939  25.746  1.00  0.00     0.135 A 
ATOM     55  F   UNL A   1      43.316  22.810  29.375  1.00  0.00    -0.206 F 
ATOM     56  C   UNL A   1      42.731  21.139  27.833  1.00  0.00     0.059 A 
ATOM     57  C   UNL A   1      42.702  21.647  25.458  1.00  0.00     0.059 A 
ATOM     58  F   UNL A   1      43.298  23.789  24.723  1.00  0.00    -0.206 F 
ATOM     59  C   UNL A   1      42.523  20.748  26.508  1.00  0.00     0.060 A 
BRANCH  59  60
ATOM     60  S   UNL A   1      41.995  19.055  26.177  1.00  0.00     0.124 S 
ATOM     61  O   UNL A   1      40.598  19.253  25.808  1.00  0.00    -0.237 OA
ATOM     62  O   UNL A   1      42.892  18.660  25.097  1.00  0.00    -0.237 OA
ATOM     63  O   UNL A   1      42.221  18.378  27.451  1.00  0.00    -0.744 OA
ENDBRANCH  59  60
ENDBRANCH  27  52
BRANCH  39  64
ATOM     64  C   UNL A   1      49.399  26.795  26.541  1.00  0.00     0.058 A 
ATOM     65  C   UNL A   1      50.274  26.164  27.437  1.00  0.00     0.135 A 
ATOM     66  C   UNL A   1      49.822  26.956  25.211  1.00  0.00     0.135 A 
ATOM     67  F   UNL A   1      49.923  25.999  28.722  1.00  0.00    -0.206 F 
ATOM     68  C   UNL A   1      51.528  25.719  27.034  1.00  0.00     0.059 A 
ATOM     69  C   UNL A   1      51.058  26.491  24.779  1.00  0.00     0.059 A 
ATOM     70  F   UNL A   1      49.019  27.549  24.313  1.00  0.00    -0.206 F 
ATOM     71  C   UNL A   1      51.908  25.879  25.700  1.00  0.00     0.060 A 
BRANCH  71  72
ATOM     72  S   UNL A   1      53.512  25.240  25.177  1.00  0.00     0.124 S 
ATOM     73  O   UNL A   1      53.558  25.661  23.782  1.00  0.00    -0.237 OA
ATOM     74  O   UNL A   1      54.429  25.932  26.079  1.00  0.00    -0.237 OA
ATOM     75  O   UNL A   1      53.394  23.802  25.396  1.00  0.00    -0.744 OA
ENDBRANCH  71  72
ENDBRANCH  39  64
ENDBRANCH  13  14
ENDBRANCH   6   8
ENDBRANCH   3   4
ENDBRANCH   2   3
ENDBRANCH   1   2
BRANCH   1  76
ATOM     76  C   UNL A   1      31.811  28.897  26.715  1.00  0.00     0.002 C 
BRANCH  76  77
ATOM     77  C   UNL A   1      32.042  27.484  27.269  1.00  0.00     0.021 C 
BRANCH  77  78
ATOM     78  C   UNL A   1      32.190  26.441  26.158  1.00  0.00     0.116 C 
BRANCH  78  79
ATOM     79  N   UNL A   1      30.881  26.100  25.655  1.00  0.00    -0.356 N 
ATOM     80  C   UNL A   1      30.403  26.193  24.391  1.00  0.00     0.227 C 
ATOM     81  H   UNL A   1      30.248  25.751  26.323  1.00  0.00     0.163 HD
ATOM     82  O   UNL A   1      29.177  26.298  24.275  1.00  0.00    -0.275 OA
BRANCH  80  83
ATOM     83  C   UNL A   1      31.254  25.959  23.160  1.00  0.00     0.127 C 
ATOM     84  C   UNL A   1      32.743  25.546  23.130  1.00  0.00     0.127 C 
ATOM     85  C   UNL A   1      31.298  27.251  22.319  1.00  0.00     0.155 C 
ATOM     86  C   UNL A   1      33.369  26.601  22.206  1.00  0.00     0.155 C 
ATOM     87  C   UNL A   1      32.106  28.317  23.000  1.00  0.00     0.004 C 
ATOM     88  O   UNL A   1      32.265  26.859  21.306  1.00  0.00    -0.365 OA
ATOM     89  C   UNL A   1      33.385  27.920  22.927  1.00  0.00     0.004 C 
BRANCH  84  90
ATOM     90  C   UNL A   1      33.171  24.130  22.721  1.00  0.00     0.231 C 
ATOM     91  O   UNL A   1      33.458  23.942  21.530  1.00  0.00    -0.274 OA
ATOM     92  N   UNL A   1      33.388  23.076  23.559  1.00  0.00    -0.325 N 
ATOM     93  H   UNL A   1      33.933  22.356  23.167  1.00  0.00     0.169 HD
BRANCH  92  94
ATOM     94  C   UNL A   1      32.977  22.830  24.872  1.00  0.00     0.048 A 
ATOM     95  C   UNL A   1      33.959  22.745  25.863  1.00  0.00     0.026 A 
ATOM     96  C   UNL A   1      31.630  22.739  25.217  1.00  0.00     0.111 A 
ATOM     97  C   UNL A   1      33.593  22.746  27.212  1.00  0.00     0.009 A 
ATOM     98  C   UNL A   1      31.268  22.777  26.568  1.00  0.00     0.271 A 
ATOM     99  C   UNL A   1      32.245  22.800  27.570  1.00  0.00     0.086 A 
BRANCH  98 100
ATOM    100  N   UNL A   1      29.853  22.885  26.931  1.00  0.00     0.062 N 
ATOM    101  O   UNL A   1      29.156  21.865  26.819  1.00  0.00    -0.258 OA
ATOM    102  O   UNL A   1      29.439  23.984  27.322  1.00  0.00    -0.258 OA
ENDBRANCH  98 100
ENDBRANCH  92  94
ENDBRANCH  84  90
ENDBRANCH  80  83
ENDBRANCH  78  79
ENDBRANCH  77  78
ENDBRANCH  76  77
ENDBRANCH   1  76
TORSDOF 19
ENDMDL
