MODEL 1
REMARK VINA RESULT:     -12.8      0.000      0.000
REMARK SMILES Cc1ccc(Nc2c(C)cccc2Cl)c(CC(=O)NCCCCCCNC(=O)c2ccc(-c3c4nc(c(-c5c(F)cc(S(=O)(=O)[O-])cc5F)c5ccc([nH]5)c(-c5c(F)cc(S(=O)(=O)[O-])cc5F)c5nc(c(-c6c(F)cc(S(=O)(=O)[O-])cc6F)c6ccc3[nH]6)C=C5)C=C4)cc2)c1
REMARK SMILES IDX 22 1 21 2 20 3 19 4 17 5 18 6 16 8 15 9 1 10 2 11 3 12 95 13
REMARK SMILES IDX 4 14 5 15 6 16 7 18 8 19 13 20 9 21 10 22 12 23 14 24 11 25
REMARK SMILES IDX 23 26 24 27 25 28 26 29 27 30 28 32 29 33 30 34 94 35 31 36
REMARK SMILES IDX 93 37 32 38 33 39 34 40 87 41 35 42 92 43 86 44 88 45 36 46
REMARK SMILES IDX 91 47 85 48 84 49 37 51 71 52 50 53 70 54 51 55 54 56 69 57
REMARK SMILES IDX 89 58 52 59 53 60 68 62 90 63 55 64 38 65 39 66 48 67 40 68
REMARK SMILES IDX 41 69 47 70 49 71 42 72 43 73 44 74 45 75 46 76 72 77 73 78
REMARK SMILES IDX 82 79 74 80 75 81 81 82 83 83 76 84 77 85 78 86 79 87 80 88
REMARK SMILES IDX 56 89 57 90 66 91 58 92 59 93 65 94 67 95 60 96 61 97 62 98
REMARK SMILES IDX 63 99 64 100
REMARK H PARENT 19 7 6 17 26 31 88 50 54 61
REMARK Flexibility Score: inf
ROOT
ATOM      1  C   UNL A   1      33.024  29.209  24.642  1.00  0.00     0.002 C 
ENDROOT
BRANCH   1   2
ATOM      2  C   UNL A   1      32.942  28.953  23.132  1.00  0.00     0.021 C 
BRANCH   2   3
ATOM      3  C   UNL A   1      34.031  28.044  22.562  1.00  0.00     0.116 C 
BRANCH   3   4
ATOM      4  N   UNL A   1      33.510  27.088  21.605  1.00  0.00    -0.356 N 
ATOM      5  C   UNL A   1      33.283  25.753  21.760  1.00  0.00     0.224 C 
ATOM      6  O   UNL A   1      32.909  25.099  20.783  1.00  0.00    -0.275 OA
ATOM      7  H   UNL A   1      33.288  27.454  20.719  1.00  0.00     0.163 HD
BRANCH   5   8
ATOM      8  C   UNL A   1      33.491  25.078  23.104  1.00  0.00     0.137 C 
BRANCH   8   9
ATOM      9  C   UNL A   1      32.334  25.241  24.065  1.00  0.00    -0.015 A 
ATOM     10  C   UNL A   1      28.801  26.706  23.872  1.00  0.00     0.044 C 
ATOM     11  C   UNL A   1      30.049  26.063  24.398  1.00  0.00    -0.051 A 
ATOM     12  C   UNL A   1      30.137  25.707  25.742  1.00  0.00     0.005 A 
ATOM     13  C   UNL A   1      31.143  25.813  23.567  1.00  0.00     0.009 A 
ATOM     14  C   UNL A   1      31.295  25.101  26.237  1.00  0.00     0.026 A 
ATOM     15  C   UNL A   1      32.409  24.849  25.419  1.00  0.00     0.042 A 
BRANCH  15  16
ATOM     16  N   UNL A   1      33.539  24.161  25.919  1.00  0.00    -0.354 N 
ATOM     17  H   UNL A   1      34.026  24.615  26.644  1.00  0.00     0.167 HD
BRANCH  16  18
ATOM     18  C   UNL A   1      34.066  22.908  25.519  1.00  0.00     0.060 A 
ATOM     19  C   UNL A   1      33.240  21.782  25.308  1.00  0.00    -0.026 A 
ATOM     20  C   UNL A   1      35.465  22.749  25.405  1.00  0.00     0.064 A 
ATOM     21  C   UNL A   1      31.738  21.856  25.351  1.00  0.00     0.046 C 
ATOM     22  C   UNL A   1      33.830  20.531  25.049  1.00  0.00     0.005 A 
ATOM     23  C   UNL A   1      36.033  21.504  25.129  1.00  0.00     0.023 A 
ATOM     24  Cl  UNL A   1      36.534  24.094  25.628  1.00  0.00    -0.082 Cl
ATOM     25  C   UNL A   1      35.215  20.392  24.962  1.00  0.00     0.002 A 
ENDBRANCH  16  18
ENDBRANCH  15  16
ENDBRANCH   8   9
ENDBRANCH   5   8
ENDBRANCH   3   4
ENDBRANCH   2   3
ENDBRANCH   1   2
BRANCH   1  26
ATOM     26  C   UNL A   1      31.693  29.246  25.407  1.00  0.00     0.002 C 
BRANCH  26  27
ATOM     27  C   UNL A   1      31.778  29.514  26.911  1.00  0.00     0.021 C 
BRANCH  27  28
ATOM     28  C   UNL A   1      33.206  29.571  27.450  1.00  0.00     0.116 C 
BRANCH  28  29
ATOM     29  N   UNL A   1      33.641  30.934  27.728  1.00  0.00    -0.352 N 
ATOM     30  C   UNL A   1      34.808  31.363  28.335  1.00  0.00     0.251 C 
ATOM     31  H   UNL A   1      33.022  31.645  27.445  1.00  0.00     0.163 HD
ATOM     32  O   UNL A   1      34.968  32.531  28.649  1.00  0.00    -0.269 OA
BRANCH  30  33
ATOM     33  C   UNL A   1      35.897  30.380  28.501  1.00  0.00     0.039 A 
ATOM     34  C   UNL A   1      36.002  29.735  29.738  1.00  0.00     0.014 A 
ATOM     35  C   UNL A   1      36.905  30.270  27.548  1.00  0.00     0.014 A 
ATOM     36  C   UNL A   1      37.203  29.123  30.094  1.00  0.00     0.010 A 
ATOM     37  C   UNL A   1      38.116  29.721  27.927  1.00  0.00     0.010 A 
ATOM     38  C   UNL A   1      38.285  29.198  29.219  1.00  0.00    -0.014 A 
BRANCH  38  39
ATOM     39  C   UNL A   1      39.662  28.885  29.595  1.00  0.00     0.031 A 
ATOM     40  C   UNL A   1      40.285  27.600  29.202  1.00  0.00     0.074 A 
ATOM     41  C   UNL A   1      40.425  29.853  30.154  1.00  0.00     0.049 A 
ATOM     42  N   UNL A   1      41.473  27.235  29.550  1.00  0.00    -0.248 NA
ATOM     43  C   UNL A   1      39.580  26.574  28.434  1.00  0.00     0.031 C 
ATOM     44  C   UNL A   1      41.883  29.930  30.166  1.00  0.00     0.029 A 
ATOM     45  N   UNL A   1      40.018  30.855  31.039  1.00  0.00    -0.354 N 
ATOM     46  C   UNL A   1      41.796  26.115  28.828  1.00  0.00     0.074 A 
ATOM     47  C   UNL A   1      40.549  25.670  28.261  1.00  0.00     0.031 C 
ATOM     48  C   UNL A   1      42.268  30.731  31.170  1.00  0.00     0.029 A 
ATOM     49  C   UNL A   1      41.085  31.058  31.942  1.00  0.00     0.049 A 
ATOM     50  H   UNL A   1      39.155  31.327  31.033  1.00  0.00     0.167 HD
ATOM     51  C   UNL A   1      43.108  25.777  28.687  1.00  0.00     0.037 A 
ATOM     52  C   UNL A   1      40.931  30.783  33.273  1.00  0.00     0.037 A 
ATOM     53  C   UNL A   1      43.931  26.431  29.706  1.00  0.00     0.049 A 
ATOM     54  C   UNL A   1      41.790  29.649  33.797  1.00  0.00     0.074 A 
ATOM     55  C   UNL A   1      44.859  27.456  29.728  1.00  0.00     0.029 A 
ATOM     56  N   UNL A   1      43.659  26.137  31.034  1.00  0.00    -0.354 N 
ATOM     57  N   UNL A   1      42.663  28.987  33.087  1.00  0.00    -0.248 NA
ATOM     58  C   UNL A   1      41.671  29.121  35.159  1.00  0.00     0.031 C 
ATOM     59  C   UNL A   1      45.050  27.845  31.092  1.00  0.00     0.029 A 
ATOM     60  C   UNL A   1      44.267  27.032  31.891  1.00  0.00     0.049 A 
ATOM     61  H   UNL A   1      43.100  25.383  31.329  1.00  0.00     0.167 HD
ATOM     62  C   UNL A   1      43.130  27.930  33.818  1.00  0.00     0.074 A 
ATOM     63  C   UNL A   1      42.514  28.074  35.123  1.00  0.00     0.031 C 
ATOM     64  C   UNL A   1      43.940  26.963  33.306  1.00  0.00     0.037 A 
BRANCH  51  65
ATOM     65  C   UNL A   1      43.674  24.951  27.548  1.00  0.00     0.058 A 
ATOM     66  C   UNL A   1      43.531  23.545  27.544  1.00  0.00     0.135 A 
ATOM     67  C   UNL A   1      44.494  25.457  26.513  1.00  0.00     0.135 A 
ATOM     68  F   UNL A   1      42.801  22.922  28.482  1.00  0.00    -0.206 F 
ATOM     69  C   UNL A   1      44.161  22.716  26.607  1.00  0.00     0.059 A 
ATOM     70  C   UNL A   1      45.087  24.656  25.536  1.00  0.00     0.059 A 
ATOM     71  F   UNL A   1      44.834  26.748  26.431  1.00  0.00    -0.206 F 
ATOM     72  C   UNL A   1      44.944  23.281  25.608  1.00  0.00     0.060 A 
BRANCH  72  73
ATOM     73  S   UNL A   1      45.811  22.225  24.435  1.00  0.00     0.124 S 
ATOM     74  O   UNL A   1      46.701  23.178  23.780  1.00  0.00    -0.237 OA
ATOM     75  O   UNL A   1      46.455  21.246  25.305  1.00  0.00    -0.237 OA
ATOM     76  O   UNL A   1      44.738  21.696  23.596  1.00  0.00    -0.744 OA
ENDBRANCH  72  73
ENDBRANCH  51  65
BRANCH  52  77
ATOM     77  C   UNL A   1      39.576  31.145  33.769  1.00  0.00     0.058 A 
ATOM     78  C   UNL A   1      39.361  32.489  34.134  1.00  0.00     0.135 A 
ATOM     79  C   UNL A   1      38.455  30.366  33.455  1.00  0.00     0.135 A 
ATOM     80  F   UNL A   1      40.403  33.269  34.467  1.00  0.00    -0.206 F 
ATOM     81  C   UNL A   1      38.115  33.086  34.006  1.00  0.00     0.059 A 
ATOM     82  C   UNL A   1      37.191  30.941  33.336  1.00  0.00     0.059 A 
ATOM     83  F   UNL A   1      38.600  29.078  33.109  1.00  0.00    -0.206 F 
ATOM     84  C   UNL A   1      37.053  32.317  33.533  1.00  0.00     0.060 A 
BRANCH  84  85
ATOM     85  S   UNL A   1      35.567  33.185  32.982  1.00  0.00     0.124 S 
ATOM     86  O   UNL A   1      34.852  33.391  34.236  1.00  0.00    -0.237 OA
ATOM     87  O   UNL A   1      36.141  34.385  32.375  1.00  0.00    -0.237 OA
ATOM     88  O   UNL A   1      34.954  32.243  32.052  1.00  0.00    -0.744 OA
ENDBRANCH  84  85
ENDBRANCH  52  77
BRANCH  64  89
ATOM     89  C   UNL A   1      44.455  25.839  34.150  1.00  0.00     0.058 A 
ATOM     90  C   UNL A   1      45.820  25.732  34.460  1.00  0.00     0.135 A 
ATOM     91  C   UNL A   1      43.621  24.786  34.570  1.00  0.00     0.135 A 
ATOM     92  F   UNL A   1      46.681  26.691  34.082  1.00  0.00    -0.206 F 
ATOM     93  C   UNL A   1      46.334  24.640  35.154  1.00  0.00     0.059 A 
ATOM     94  C   UNL A   1      44.118  23.668  35.235  1.00  0.00     0.059 A 
ATOM     95  F   UNL A   1      42.296  24.831  34.358  1.00  0.00    -0.206 F 
ATOM     96  C   UNL A   1      45.475  23.608  35.533  1.00  0.00     0.060 A 
BRANCH  96  97
ATOM     97  S   UNL A   1      46.141  22.162  36.382  1.00  0.00     0.124 S 
ATOM     98  O   UNL A   1      45.781  22.408  37.776  1.00  0.00    -0.237 OA
ATOM     99  O   UNL A   1      45.414  21.080  35.726  1.00  0.00    -0.237 OA
ATOM    100  O   UNL A   1      47.569  22.233  36.090  1.00  0.00    -0.744 OA
ENDBRANCH  96  97
ENDBRANCH  64  89
ENDBRANCH  38  39
ENDBRANCH  30  33
ENDBRANCH  28  29
ENDBRANCH  27  28
ENDBRANCH  26  27
ENDBRANCH   1  26
TORSDOF 19
ENDMDL
MODEL 2
REMARK VINA RESULT:     -12.7      4.212     10.756
REMARK SMILES Cc1ccc(Nc2c(C)cccc2Cl)c(CC(=O)NCCCCCCNC(=O)c2ccc(-c3c4nc(c(-c5c(F)cc(S(=O)(=O)[O-])cc5F)c5ccc([nH]5)c(-c5c(F)cc(S(=O)(=O)[O-])cc5F)c5nc(c(-c6c(F)cc(S(=O)(=O)[O-])cc6F)c6ccc3[nH]6)C=C5)C=C4)cc2)c1
REMARK SMILES IDX 22 1 21 2 20 3 19 4 17 5 18 6 16 8 15 9 1 10 2 11 3 12 95 13
REMARK SMILES IDX 4 14 5 15 6 16 7 18 8 19 13 20 9 21 10 22 12 23 14 24 11 25
REMARK SMILES IDX 23 26 24 27 25 28 26 29 27 30 28 32 29 33 30 34 94 35 31 36
REMARK SMILES IDX 93 37 32 38 33 39 34 40 87 41 35 42 92 43 86 44 88 45 36 46
REMARK SMILES IDX 91 47 85 48 84 49 37 51 71 52 50 53 70 54 51 55 54 56 69 57
REMARK SMILES IDX 89 58 52 59 53 60 68 62 90 63 55 64 38 65 39 66 48 67 40 68
REMARK SMILES IDX 41 69 47 70 49 71 42 72 43 73 44 74 45 75 46 76 72 77 73 78
REMARK SMILES IDX 82 79 74 80 75 81 81 82 83 83 76 84 77 85 78 86 79 87 80 88
REMARK SMILES IDX 56 89 57 90 66 91 58 92 59 93 65 94 67 95 60 96 61 97 62 98
REMARK SMILES IDX 63 99 64 100
REMARK H PARENT 19 7 6 17 26 31 88 50 54 61
REMARK Flexibility Score: inf
ROOT
ATOM      1  C   UNL A   1      34.627  21.834  25.888  1.00  0.00     0.002 C 
ENDROOT
BRANCH   1   2
ATOM      2  C   UNL A   1      34.592  22.236  27.368  1.00  0.00     0.021 C 
BRANCH   2   3
ATOM      3  C   UNL A   1      33.266  22.822  27.856  1.00  0.00     0.116 C 
BRANCH   3   4
ATOM      4  N   UNL A   1      32.120  22.203  27.219  1.00  0.00    -0.356 N 
ATOM      5  C   UNL A   1      31.119  22.785  26.501  1.00  0.00     0.224 C 
ATOM      6  O   UNL A   1      30.183  22.080  26.111  1.00  0.00    -0.275 OA
ATOM      7  H   UNL A   1      32.056  21.226  27.319  1.00  0.00     0.163 HD
BRANCH   5   8
ATOM      8  C   UNL A   1      31.143  24.270  26.190  1.00  0.00     0.137 C 
BRANCH   8   9
ATOM      9  C   UNL A   1      32.099  24.655  25.081  1.00  0.00    -0.015 A 
ATOM     10  C   UNL A   1      33.262  23.070  21.795  1.00  0.00     0.044 C 
ATOM     11  C   UNL A   1      33.119  24.022  22.945  1.00  0.00    -0.051 A 
ATOM     12  C   UNL A   1      33.902  25.172  22.999  1.00  0.00     0.005 A 
ATOM     13  C   UNL A   1      32.212  23.780  23.979  1.00  0.00     0.009 A 
ATOM     14  C   UNL A   1      33.768  26.067  24.064  1.00  0.00     0.026 A 
ATOM     15  C   UNL A   1      32.869  25.838  25.118  1.00  0.00     0.042 A 
BRANCH  15  16
ATOM     16  N   UNL A   1      32.690  26.795  26.143  1.00  0.00    -0.354 N 
ATOM     17  H   UNL A   1      32.731  26.446  27.063  1.00  0.00     0.167 HD
BRANCH  16  18
ATOM     18  C   UNL A   1      32.457  28.189  26.028  1.00  0.00     0.060 A 
ATOM     19  C   UNL A   1      33.246  29.139  26.714  1.00  0.00    -0.026 A 
ATOM     20  C   UNL A   1      31.354  28.647  25.273  1.00  0.00     0.064 A 
ATOM     21  C   UNL A   1      34.473  28.761  27.499  1.00  0.00     0.046 C 
ATOM     22  C   UNL A   1      32.882  30.497  26.674  1.00  0.00     0.005 A 
ATOM     23  C   UNL A   1      31.019  30.002  25.230  1.00  0.00     0.023 A 
ATOM     24  Cl  UNL A   1      30.359  27.539  24.390  1.00  0.00    -0.082 Cl
ATOM     25  C   UNL A   1      31.777  30.926  25.941  1.00  0.00     0.002 A 
ENDBRANCH  16  18
ENDBRANCH  15  16
ENDBRANCH   8   9
ENDBRANCH   5   8
ENDBRANCH   3   4
ENDBRANCH   2   3
ENDBRANCH   1   2
BRANCH   1  26
ATOM     26  C   UNL A   1      35.677  22.531  25.011  1.00  0.00     0.002 C 
BRANCH  26  27
ATOM     27  C   UNL A   1      37.143  22.262  25.359  1.00  0.00     0.021 C 
BRANCH  27  28
ATOM     28  C   UNL A   1      37.833  23.422  26.072  1.00  0.00     0.116 C 
BRANCH  28  29
ATOM     29  N   UNL A   1      39.001  22.993  26.830  1.00  0.00    -0.352 N 
ATOM     30  C   UNL A   1      39.909  23.766  27.531  1.00  0.00     0.251 C 
ATOM     31  H   UNL A   1      39.167  22.023  26.845  1.00  0.00     0.163 HD
ATOM     32  O   UNL A   1      40.935  23.286  27.986  1.00  0.00    -0.269 OA
BRANCH  30  33
ATOM     33  C   UNL A   1      39.550  25.174  27.799  1.00  0.00     0.039 A 
ATOM     34  C   UNL A   1      40.024  26.142  26.907  1.00  0.00     0.014 A 
ATOM     35  C   UNL A   1      38.960  25.538  29.005  1.00  0.00     0.014 A 
ATOM     36  C   UNL A   1      40.071  27.478  27.305  1.00  0.00     0.010 A 
ATOM     37  C   UNL A   1      39.068  26.851  29.424  1.00  0.00     0.010 A 
ATOM     38  C   UNL A   1      39.674  27.812  28.598  1.00  0.00    -0.014 A 
BRANCH  38  39
ATOM     39  C   UNL A   1      39.966  29.093  29.236  1.00  0.00     0.031 A 
ATOM     40  C   UNL A   1      39.013  30.224  29.145  1.00  0.00     0.074 A 
ATOM     41  C   UNL A   1      41.034  29.187  30.062  1.00  0.00     0.049 A 
ATOM     42  N   UNL A   1      39.234  31.399  29.633  1.00  0.00    -0.248 NA
ATOM     43  C   UNL A   1      37.744  30.141  28.421  1.00  0.00     0.031 C 
ATOM     44  C   UNL A   1      41.240  30.158  31.132  1.00  0.00     0.029 A 
ATOM     45  N   UNL A   1      42.269  28.548  29.933  1.00  0.00    -0.354 N 
ATOM     46  C   UNL A   1      38.062  32.107  29.565  1.00  0.00     0.074 A 
ATOM     47  C   UNL A   1      37.216  31.340  28.686  1.00  0.00     0.031 C 
ATOM     48  C   UNL A   1      42.550  30.239  31.402  1.00  0.00     0.029 A 
ATOM     49  C   UNL A   1      43.247  29.453  30.402  1.00  0.00     0.049 A 
ATOM     50  H   UNL A   1      42.427  27.642  29.583  1.00  0.00     0.167 HD
ATOM     51  C   UNL A   1      37.901  33.194  30.371  1.00  0.00     0.037 A 
ATOM     52  C   UNL A   1      44.197  29.951  29.553  1.00  0.00     0.037 A 
ATOM     53  C   UNL A   1      39.192  33.678  30.864  1.00  0.00     0.049 A 
ATOM     54  C   UNL A   1      44.117  31.444  29.306  1.00  0.00     0.074 A 
ATOM     55  C   UNL A   1      39.859  33.676  32.075  1.00  0.00     0.029 A 
ATOM     56  N   UNL A   1      40.117  34.104  29.922  1.00  0.00    -0.354 N 
ATOM     57  N   UNL A   1      43.260  32.248  29.875  1.00  0.00    -0.248 NA
ATOM     58  C   UNL A   1      44.962  32.139  28.330  1.00  0.00     0.031 C 
ATOM     59  C   UNL A   1      41.229  34.000  31.821  1.00  0.00     0.029 A 
ATOM     60  C   UNL A   1      41.379  34.232  30.466  1.00  0.00     0.049 A 
ATOM     61  H   UNL A   1      39.899  34.292  28.981  1.00  0.00     0.167 HD
ATOM     62  C   UNL A   1      43.354  33.486  29.301  1.00  0.00     0.074 A 
ATOM     63  C   UNL A   1      44.459  33.384  28.367  1.00  0.00     0.031 C 
ATOM     64  C   UNL A   1      42.492  34.505  29.571  1.00  0.00     0.037 A 
BRANCH  51  65
ATOM     65  C   UNL A   1      36.564  33.750  30.821  1.00  0.00     0.058 A 
ATOM     66  C   UNL A   1      35.640  34.245  29.874  1.00  0.00     0.135 A 
ATOM     67  C   UNL A   1      36.191  33.965  32.169  1.00  0.00     0.135 A 
ATOM     68  F   UNL A   1      35.873  34.134  28.558  1.00  0.00    -0.206 F 
ATOM     69  C   UNL A   1      34.460  34.909  30.234  1.00  0.00     0.059 A 
ATOM     70  C   UNL A   1      34.995  34.575  32.551  1.00  0.00     0.059 A 
ATOM     71  F   UNL A   1      36.997  33.667  33.194  1.00  0.00    -0.206 F 
ATOM     72  C   UNL A   1      34.149  35.076  31.577  1.00  0.00     0.060 A 
BRANCH  72  73
ATOM     73  S   UNL A   1      32.668  35.984  32.056  1.00  0.00     0.124 S 
ATOM     74  O   UNL A   1      33.192  36.889  33.074  1.00  0.00    -0.237 OA
ATOM     75  O   UNL A   1      32.258  36.605  30.801  1.00  0.00    -0.237 OA
ATOM     76  O   UNL A   1      31.775  34.940  32.551  1.00  0.00    -0.744 OA
ENDBRANCH  72  73
ENDBRANCH  51  65
BRANCH  52  77
ATOM     77  C   UNL A   1      44.664  28.934  28.572  1.00  0.00     0.058 A 
ATOM     78  C   UNL A   1      44.080  28.959  27.290  1.00  0.00     0.135 A 
ATOM     79  C   UNL A   1      45.910  28.309  28.711  1.00  0.00     0.135 A 
ATOM     80  F   UNL A   1      42.874  29.525  27.113  1.00  0.00    -0.206 F 
ATOM     81  C   UNL A   1      44.784  28.558  26.164  1.00  0.00     0.059 A 
ATOM     82  C   UNL A   1      46.629  27.884  27.594  1.00  0.00     0.059 A 
ATOM     83  F   UNL A   1      46.508  28.248  29.910  1.00  0.00    -0.206 F 
ATOM     84  C   UNL A   1      46.088  28.092  26.324  1.00  0.00     0.060 A 
BRANCH  84  85
ATOM     85  S   UNL A   1      47.123  27.969  24.847  1.00  0.00     0.124 S 
ATOM     86  O   UNL A   1      46.607  29.054  24.022  1.00  0.00    -0.237 OA
ATOM     87  O   UNL A   1      48.455  28.179  25.411  1.00  0.00    -0.237 OA
ATOM     88  O   UNL A   1      46.853  26.621  24.361  1.00  0.00    -0.744 OA
ENDBRANCH  84  85
ENDBRANCH  52  77
BRANCH  64  89
ATOM     89  C   UNL A   1      42.649  35.855  28.945  1.00  0.00     0.058 A 
ATOM     90  C   UNL A   1      43.451  36.841  29.540  1.00  0.00     0.135 A 
ATOM     91  C   UNL A   1      41.916  36.233  27.804  1.00  0.00     0.135 A 
ATOM     92  F   UNL A   1      44.172  36.560  30.638  1.00  0.00    -0.206 F 
ATOM     93  C   UNL A   1      43.528  38.135  29.031  1.00  0.00     0.059 A 
ATOM     94  C   UNL A   1      41.950  37.529  27.298  1.00  0.00     0.059 A 
ATOM     95  F   UNL A   1      41.161  35.340  27.145  1.00  0.00    -0.206 F 
ATOM     96  C   UNL A   1      42.768  38.473  27.912  1.00  0.00     0.060 A 
BRANCH  96  97
ATOM     97  S   UNL A   1      42.815  40.161  27.279  1.00  0.00     0.124 S 
ATOM     98  O   UNL A   1      42.593  40.965  28.478  1.00  0.00    -0.237 OA
ATOM     99  O   UNL A   1      44.161  40.225  26.719  1.00  0.00    -0.237 OA
ATOM    100  O   UNL A   1      41.725  40.183  26.309  1.00  0.00    -0.744 OA
ENDBRANCH  96  97
ENDBRANCH  64  89
ENDBRANCH  38  39
ENDBRANCH  30  33
ENDBRANCH  28  29
ENDBRANCH  27  28
ENDBRANCH  26  27
ENDBRANCH   1  26
TORSDOF 19
ENDMDL
MODEL 3
REMARK VINA RESULT:     -12.4      3.817     10.302
REMARK SMILES Cc1ccc(Nc2c(C)cccc2Cl)c(CC(=O)NCCCCCCNC(=O)c2ccc(-c3c4nc(c(-c5c(F)cc(S(=O)(=O)[O-])cc5F)c5ccc([nH]5)c(-c5c(F)cc(S(=O)(=O)[O-])cc5F)c5nc(c(-c6c(F)cc(S(=O)(=O)[O-])cc6F)c6ccc3[nH]6)C=C5)C=C4)cc2)c1
REMARK SMILES IDX 22 1 21 2 20 3 19 4 17 5 18 6 16 8 15 9 1 10 2 11 3 12 95 13
REMARK SMILES IDX 4 14 5 15 6 16 7 18 8 19 13 20 9 21 10 22 12 23 14 24 11 25
REMARK SMILES IDX 23 26 24 27 25 28 26 29 27 30 28 32 29 33 30 34 94 35 31 36
REMARK SMILES IDX 93 37 32 38 33 39 34 40 87 41 35 42 92 43 86 44 88 45 36 46
REMARK SMILES IDX 91 47 85 48 84 49 37 51 71 52 50 53 70 54 51 55 54 56 69 57
REMARK SMILES IDX 89 58 52 59 53 60 68 62 90 63 55 64 38 65 39 66 48 67 40 68
REMARK SMILES IDX 41 69 47 70 49 71 42 72 43 73 44 74 45 75 46 76 72 77 73 78
REMARK SMILES IDX 82 79 74 80 75 81 81 82 83 83 76 84 77 85 78 86 79 87 80 88
REMARK SMILES IDX 56 89 57 90 66 91 58 92 59 93 65 94 67 95 60 96 61 97 62 98
REMARK SMILES IDX 63 99 64 100
REMARK H PARENT 19 7 6 17 26 31 88 50 54 61
REMARK Flexibility Score: inf
ROOT
ATOM      1  C   UNL A   1      35.124  23.453  23.992  1.00  0.00     0.002 C 
ENDROOT
BRANCH   1   2
ATOM      2  C   UNL A   1      35.180  24.523  25.091  1.00  0.00     0.021 C 
BRANCH   2   3
ATOM      3  C   UNL A   1      33.866  24.764  25.836  1.00  0.00     0.116 C 
BRANCH   3   4
ATOM      4  N   UNL A   1      33.681  23.846  26.942  1.00  0.00    -0.356 N 
ATOM      5  C   UNL A   1      32.604  23.066  27.241  1.00  0.00     0.224 C 
ATOM      6  O   UNL A   1      32.619  22.410  28.286  1.00  0.00    -0.275 OA
ATOM      7  H   UNL A   1      34.439  23.775  27.565  1.00  0.00     0.163 HD
BRANCH   5   8
ATOM      8  C   UNL A   1      31.404  23.006  26.313  1.00  0.00     0.137 C 
BRANCH   8   9
ATOM      9  C   UNL A   1      31.657  22.263  25.020  1.00  0.00    -0.015 A 
ATOM     10  C   UNL A   1      33.208  18.897  24.054  1.00  0.00     0.044 C 
ATOM     11  C   UNL A   1      32.563  20.247  23.959  1.00  0.00    -0.051 A 
ATOM     12  C   UNL A   1      32.286  20.802  22.712  1.00  0.00     0.005 A 
ATOM     13  C   UNL A   1      32.232  20.976  25.103  1.00  0.00     0.009 A 
ATOM     14  C   UNL A   1      31.679  22.056  22.617  1.00  0.00     0.026 A 
ATOM     15  C   UNL A   1      31.346  22.809  23.755  1.00  0.00     0.042 A 
BRANCH  15  16
ATOM     16  N   UNL A   1      30.658  24.039  23.640  1.00  0.00    -0.354 N 
ATOM     17  H   UNL A   1      29.690  23.971  23.473  1.00  0.00     0.167 HD
BRANCH  16  18
ATOM     18  C   UNL A   1      31.171  25.357  23.732  1.00  0.00     0.060 A 
ATOM     19  C   UNL A   1      32.178  25.831  22.862  1.00  0.00    -0.026 A 
ATOM     20  C   UNL A   1      30.728  26.202  24.774  1.00  0.00     0.064 A 
ATOM     21  C   UNL A   1      32.680  25.032  21.689  1.00  0.00     0.046 C 
ATOM     22  C   UNL A   1      32.748  27.097  23.088  1.00  0.00     0.005 A 
ATOM     23  C   UNL A   1      31.292  27.464  24.972  1.00  0.00     0.023 A 
ATOM     24  Cl  UNL A   1      29.480  25.693  25.862  1.00  0.00    -0.082 Cl
ATOM     25  C   UNL A   1      32.311  27.906  24.136  1.00  0.00     0.002 A 
ENDBRANCH  16  18
ENDBRANCH  15  16
ENDBRANCH   8   9
ENDBRANCH   5   8
ENDBRANCH   3   4
ENDBRANCH   2   3
ENDBRANCH   1   2
BRANCH   1  26
ATOM     26  C   UNL A   1      36.469  22.895  23.507  1.00  0.00     0.002 C 
BRANCH  26  27
ATOM     27  C   UNL A   1      37.142  21.857  24.408  1.00  0.00     0.021 C 
BRANCH  27  28
ATOM     28  C   UNL A   1      37.746  22.441  25.683  1.00  0.00     0.116 C 
BRANCH  28  29
ATOM     29  N   UNL A   1      39.091  21.943  25.941  1.00  0.00    -0.352 N 
ATOM     30  C   UNL A   1      40.228  22.656  26.276  1.00  0.00     0.251 C 
ATOM     31  H   UNL A   1      39.206  20.968  25.866  1.00  0.00     0.163 HD
ATOM     32  O   UNL A   1      41.326  22.124  26.305  1.00  0.00    -0.269 OA
BRANCH  30  33
ATOM     33  C   UNL A   1      40.058  24.061  26.698  1.00  0.00     0.039 A 
ATOM     34  C   UNL A   1      40.592  25.053  25.869  1.00  0.00     0.014 A 
ATOM     35  C   UNL A   1      39.589  24.367  27.972  1.00  0.00     0.014 A 
ATOM     36  C   UNL A   1      40.824  26.328  26.384  1.00  0.00     0.010 A 
ATOM     37  C   UNL A   1      39.879  25.611  28.502  1.00  0.00     0.010 A 
ATOM     38  C   UNL A   1      40.547  26.574  27.728  1.00  0.00    -0.014 A 
BRANCH  38  39
ATOM     39  C   UNL A   1      41.029  27.743  28.459  1.00  0.00     0.031 A 
ATOM     40  C   UNL A   1      40.144  28.906  28.704  1.00  0.00     0.074 A 
ATOM     41  C   UNL A   1      42.236  27.685  29.067  1.00  0.00     0.049 A 
ATOM     42  N   UNL A   1      40.522  29.993  29.290  1.00  0.00    -0.248 NA
ATOM     43  C   UNL A   1      38.760  28.967  28.235  1.00  0.00     0.031 C 
ATOM     44  C   UNL A   1      42.697  28.489  30.195  1.00  0.00     0.029 A 
ATOM     45  N   UNL A   1      43.386  27.029  28.619  1.00  0.00    -0.354 N 
ATOM     46  C   UNL A   1      39.402  30.742  29.544  1.00  0.00     0.074 A 
ATOM     47  C   UNL A   1      38.363  30.134  28.753  1.00  0.00     0.031 C 
ATOM     48  C   UNL A   1      44.037  28.487  30.214  1.00  0.00     0.029 A 
ATOM     49  C   UNL A   1      44.486  27.827  29.004  1.00  0.00     0.049 A 
ATOM     50  H   UNL A   1      43.421  26.176  28.129  1.00  0.00     0.167 HD
ATOM     51  C   UNL A   1      39.461  31.710  30.501  1.00  0.00     0.037 A 
ATOM     52  C   UNL A   1      45.288  28.407  28.059  1.00  0.00     0.037 A 
ATOM     53  C   UNL A   1      40.848  32.077  30.793  1.00  0.00     0.049 A 
ATOM     54  C   UNL A   1      45.252  29.922  28.031  1.00  0.00     0.074 A 
ATOM     55  C   UNL A   1      41.728  31.884  31.842  1.00  0.00     0.029 A 
ATOM     56  N   UNL A   1      41.603  32.600  29.755  1.00  0.00    -0.354 N 
ATOM     57  N   UNL A   1      44.565  30.666  28.856  1.00  0.00    -0.248 NA
ATOM     58  C   UNL A   1      45.938  30.718  27.009  1.00  0.00     0.031 C 
ATOM     59  C   UNL A   1      43.044  32.194  31.372  1.00  0.00     0.029 A 
ATOM     60  C   UNL A   1      42.950  32.609  30.055  1.00  0.00     0.049 A 
ATOM     61  H   UNL A   1      41.224  32.925  28.906  1.00  0.00     0.167 HD
ATOM     62  C   UNL A   1      44.623  31.969  28.442  1.00  0.00     0.074 A 
ATOM     63  C   UNL A   1      45.526  31.963  27.307  1.00  0.00     0.031 C 
ATOM     64  C   UNL A   1      43.889  32.968  29.005  1.00  0.00     0.037 A 
BRANCH  51  65
ATOM     65  C   UNL A   1      38.267  32.241  31.271  1.00  0.00     0.058 A 
ATOM     66  C   UNL A   1      37.469  33.274  30.731  1.00  0.00     0.135 A 
ATOM     67  C   UNL A   1      37.942  31.889  32.602  1.00  0.00     0.135 A 
ATOM     68  F   UNL A   1      37.678  33.730  29.486  1.00  0.00    -0.206 F 
ATOM     69  C   UNL A   1      36.452  33.911  31.454  1.00  0.00     0.059 A 
ATOM     70  C   UNL A   1      36.899  32.471  33.322  1.00  0.00     0.059 A 
ATOM     71  F   UNL A   1      38.666  31.014  33.311  1.00  0.00    -0.206 F 
ATOM     72  C   UNL A   1      36.178  33.507  32.754  1.00  0.00     0.060 A 
BRANCH  72  73
ATOM     73  S   UNL A   1      34.917  34.359  33.718  1.00  0.00     0.124 S 
ATOM     74  O   UNL A   1      33.689  33.814  33.149  1.00  0.00    -0.237 OA
ATOM     75  O   UNL A   1      35.227  33.945  35.082  1.00  0.00    -0.237 OA
ATOM     76  O   UNL A   1      35.165  35.770  33.428  1.00  0.00    -0.744 OA
ENDBRANCH  72  73
ENDBRANCH  51  65
BRANCH  52  77
ATOM     77  C   UNL A   1      45.501  27.523  26.882  1.00  0.00     0.058 A 
ATOM     78  C   UNL A   1      46.480  26.517  27.001  1.00  0.00     0.135 A 
ATOM     79  C   UNL A   1      44.507  27.356  25.909  1.00  0.00     0.135 A 
ATOM     80  F   UNL A   1      47.467  26.644  27.903  1.00  0.00    -0.206 F 
ATOM     81  C   UNL A   1      46.368  25.311  26.322  1.00  0.00     0.059 A 
ATOM     82  C   UNL A   1      44.386  26.160  25.204  1.00  0.00     0.059 A 
ATOM     83  F   UNL A   1      43.555  28.287  25.747  1.00  0.00    -0.206 F 
ATOM     84  C   UNL A   1      45.273  25.118  25.483  1.00  0.00     0.060 A 
BRANCH  84  85
ATOM     85  S   UNL A   1      44.918  23.431  24.939  1.00  0.00     0.124 S 
ATOM     86  O   UNL A   1      43.537  23.541  24.486  1.00  0.00    -0.237 OA
ATOM     87  O   UNL A   1      45.918  23.249  23.889  1.00  0.00    -0.237 OA
ATOM     88  O   UNL A   1      45.126  22.640  26.147  1.00  0.00    -0.744 OA
ENDBRANCH  84  85
ENDBRANCH  52  77
BRANCH  64  89
ATOM     89  C   UNL A   1      44.006  34.386  28.543  1.00  0.00     0.058 A 
ATOM     90  C   UNL A   1      44.494  35.388  29.396  1.00  0.00     0.135 A 
ATOM     91  C   UNL A   1      43.528  34.798  27.285  1.00  0.00     0.135 A 
ATOM     92  F   UNL A   1      44.958  35.076  30.618  1.00  0.00    -0.206 F 
ATOM     93  C   UNL A   1      44.513  36.729  29.022  1.00  0.00     0.059 A 
ATOM     94  C   UNL A   1      43.505  36.136  26.903  1.00  0.00     0.059 A 
ATOM     95  F   UNL A   1      43.088  33.899  26.389  1.00  0.00    -0.206 F 
ATOM     96  C   UNL A   1      44.010  37.096  27.774  1.00  0.00     0.060 A 
BRANCH  96  97
ATOM     97  S   UNL A   1      43.976  38.837  27.303  1.00  0.00     0.124 S 
ATOM     98  O   UNL A   1      45.191  38.982  26.505  1.00  0.00    -0.237 OA
ATOM     99  O   UNL A   1      42.723  38.913  26.560  1.00  0.00    -0.237 OA
ATOM    100  O   UNL A   1      43.993  39.529  28.587  1.00  0.00    -0.744 OA
ENDBRANCH  96  97
ENDBRANCH  64  89
ENDBRANCH  38  39
ENDBRANCH  30  33
ENDBRANCH  28  29
ENDBRANCH  27  28
ENDBRANCH  26  27
ENDBRANCH   1  26
TORSDOF 19
ENDMDL
