MODEL 1
REMARK VINA RESULT:     -12.2      0.000      0.000
REMARK SMILES O=C(NCCCCCCNC(=O)[C@H]1CCCC[C@H]1C(=O)N1CCN(S(=O)(=O)c2ccc(F)cc2)CC1)c1ccc(-c2c3nc(c(-c4c(F)cc(S(=O)(=O)[O-])cc4F)c4ccc([nH]4)c(-c4c(F)cc(S(=O)(=O)[O-])cc4F)c4nc(c(-c5c(F)cc(S(=O)(=O)[O-])cc5F)c5ccc2[nH]5)C=C4)C=C3)cc1
REMARK SMILES IDX 6 1 5 2 4 3 3 4 1 5 2 6 37 8 38 9 102 10 39 11 101 12 40 13
REMARK SMILES IDX 41 14 42 15 95 16 43 17 100 18 94 19 96 20 44 21 99 22 93 23
REMARK SMILES IDX 92 24 45 26 79 27 58 28 78 29 59 30 62 31 77 32 97 33 60 34
REMARK SMILES IDX 61 35 76 37 98 38 63 39 46 40 47 41 56 42 48 43 49 44 55 45
REMARK SMILES IDX 57 46 50 47 51 48 52 49 53 50 54 51 80 52 81 53 90 54 82 55
REMARK SMILES IDX 83 56 89 57 91 58 84 59 85 60 86 61 87 62 88 63 64 64 65 65
REMARK SMILES IDX 74 66 66 67 67 68 73 69 75 70 68 71 69 72 70 73 71 74 72 75
REMARK SMILES IDX 7 76 8 77 9 78 10 79 11 80 12 82 13 83 14 84 18 85 15 86
REMARK SMILES IDX 17 87 16 88 19 89 20 90 21 91 22 92 36 93 23 94 35 95 24 96
REMARK SMILES IDX 25 97 26 98 27 99 28 100 29 101 34 102 30 103 33 104 31 105
REMARK SMILES IDX 32 106
REMARK H PARENT 3 7 96 25 62 36 10 81
REMARK Flexibility Score: inf
ROOT
ATOM      1  C   UNL A   1      34.865  29.301  26.842  1.00  0.00     0.002 C 
ENDROOT
BRANCH   1   2
ATOM      2  C   UNL A   1      35.134  30.292  27.977  1.00  0.00     0.021 C 
BRANCH   2   3
ATOM      3  C   UNL A   1      35.739  29.707  29.248  1.00  0.00     0.116 C 
BRANCH   3   4
ATOM      4  N   UNL A   1      35.808  30.654  30.346  1.00  0.00    -0.352 N 
ATOM      5  O   UNL A   1      36.783  31.883  31.965  1.00  0.00    -0.269 OA
ATOM      6  C   UNL A   1      36.916  31.153  30.988  1.00  0.00     0.251 C 
ATOM      7  H   UNL A   1      34.941  30.984  30.677  1.00  0.00     0.163 HD
BRANCH   6   8
ATOM      8  C   UNL A   1      38.269  30.774  30.519  1.00  0.00     0.039 A 
ATOM      9  C   UNL A   1      38.683  31.059  29.216  1.00  0.00     0.014 A 
ATOM     10  C   UNL A   1      39.129  30.110  31.400  1.00  0.00     0.014 A 
ATOM     11  C   UNL A   1      39.896  30.560  28.753  1.00  0.00     0.010 A 
ATOM     12  C   UNL A   1      40.382  29.679  30.955  1.00  0.00     0.010 A 
ATOM     13  C   UNL A   1      40.765  29.872  29.619  1.00  0.00    -0.014 A 
BRANCH  13  14
ATOM     14  C   UNL A   1      42.084  29.415  29.114  1.00  0.00     0.031 A 
ATOM     15  C   UNL A   1      43.294  30.306  29.174  1.00  0.00     0.074 A 
ATOM     16  C   UNL A   1      42.192  28.159  28.639  1.00  0.00     0.049 A 
ATOM     17  N   UNL A   1      44.524  30.045  28.809  1.00  0.00    -0.248 NA
ATOM     18  C   UNL A   1      43.103  31.663  29.706  1.00  0.00     0.031 C 
ATOM     19  C   UNL A   1      41.083  27.207  28.530  1.00  0.00     0.029 A 
ATOM     20  N   UNL A   1      43.278  27.455  28.187  1.00  0.00    -0.354 N 
ATOM     21  C   UNL A   1      45.251  31.204  29.057  1.00  0.00     0.074 A 
ATOM     22  C   UNL A   1      44.317  32.181  29.576  1.00  0.00     0.031 C 
ATOM     23  C   UNL A   1      41.557  26.027  28.106  1.00  0.00     0.029 A 
ATOM     24  C   UNL A   1      42.988  26.154  27.854  1.00  0.00     0.049 A 
ATOM     25  H   UNL A   1      44.179  27.845  28.111  1.00  0.00     0.167 HD
ATOM     26  C   UNL A   1      46.576  31.426  28.876  1.00  0.00     0.037 A 
ATOM     27  C   UNL A   1      43.781  25.169  27.392  1.00  0.00     0.037 A 
ATOM     28  C   UNL A   1      47.498  30.445  28.362  1.00  0.00     0.049 A 
ATOM     29  C   UNL A   1      45.239  25.446  27.179  1.00  0.00     0.074 A 
ATOM     30  C   UNL A   1      48.859  30.575  28.141  1.00  0.00     0.029 A 
ATOM     31  N   UNL A   1      47.157  29.152  27.989  1.00  0.00    -0.354 N 
ATOM     32  N   UNL A   1      45.907  26.551  27.411  1.00  0.00    -0.248 NA
ATOM     33  C   UNL A   1      46.051  24.351  26.635  1.00  0.00     0.031 C 
ATOM     34  C   UNL A   1      49.334  29.373  27.605  1.00  0.00     0.029 A 
ATOM     35  C   UNL A   1      48.278  28.479  27.531  1.00  0.00     0.049 A 
ATOM     36  H   UNL A   1      46.251  28.771  28.044  1.00  0.00     0.167 HD
ATOM     37  C   UNL A   1      47.219  26.286  27.044  1.00  0.00     0.074 A 
ATOM     38  C   UNL A   1      47.255  24.908  26.594  1.00  0.00     0.031 C 
ATOM     39  C   UNL A   1      48.295  27.110  27.074  1.00  0.00     0.037 A 
BRANCH  26  40
ATOM     40  C   UNL A   1      47.109  32.788  29.228  1.00  0.00     0.058 A 
ATOM     41  C   UNL A   1      47.581  33.061  30.523  1.00  0.00     0.135 A 
ATOM     42  C   UNL A   1      47.120  33.838  28.296  1.00  0.00     0.135 A 
ATOM     43  F   UNL A   1      47.597  32.094  31.454  1.00  0.00    -0.206 F 
ATOM     44  C   UNL A   1      48.043  34.324  30.880  1.00  0.00     0.059 A 
ATOM     45  C   UNL A   1      47.598  35.104  28.625  1.00  0.00     0.059 A 
ATOM     46  F   UNL A   1      46.700  33.627  27.038  1.00  0.00    -0.206 F 
ATOM     47  C   UNL A   1      48.049  35.340  29.922  1.00  0.00     0.060 A 
BRANCH  47  48
ATOM     48  S   UNL A   1      48.715  36.956  30.379  1.00  0.00     0.124 S 
ATOM     49  O   UNL A   1      48.817  37.615  29.082  1.00  0.00    -0.237 OA
ATOM     50  O   UNL A   1      47.687  37.470  31.278  1.00  0.00    -0.237 OA
ATOM     51  O   UNL A   1      49.984  36.625  31.021  1.00  0.00    -0.744 OA
ENDBRANCH  47  48
ENDBRANCH  26  40
BRANCH  27  52
ATOM     52  C   UNL A   1      43.193  23.831  27.131  1.00  0.00     0.058 A 
ATOM     53  C   UNL A   1      42.981  22.916  28.173  1.00  0.00     0.135 A 
ATOM     54  C   UNL A   1      42.922  23.410  25.821  1.00  0.00     0.135 A 
ATOM     55  F   UNL A   1      43.237  23.269  29.442  1.00  0.00    -0.206 F 
ATOM     56  C   UNL A   1      42.566  21.613  27.922  1.00  0.00     0.059 A 
ATOM     57  C   UNL A   1      42.483  22.118  25.546  1.00  0.00     0.059 A 
ATOM     58  F   UNL A   1      43.102  24.256  24.795  1.00  0.00    -0.206 F 
ATOM     59  C   UNL A   1      42.333  21.221  26.603  1.00  0.00     0.060 A 
BRANCH  59  60
ATOM     60  S   UNL A   1      41.851  19.509  26.292  1.00  0.00     0.124 S 
ATOM     61  O   UNL A   1      42.264  18.862  27.534  1.00  0.00    -0.237 OA
ATOM     62  O   UNL A   1      40.411  19.627  26.085  1.00  0.00    -0.237 OA
ATOM     63  O   UNL A   1      42.626  19.150  25.109  1.00  0.00    -0.744 OA
ENDBRANCH  59  60
ENDBRANCH  27  52
BRANCH  39  64
ATOM     64  C   UNL A   1      49.607  26.545  26.610  1.00  0.00     0.058 A 
ATOM     65  C   UNL A   1      50.518  26.007  27.532  1.00  0.00     0.135 A 
ATOM     66  C   UNL A   1      49.983  26.585  25.259  1.00  0.00     0.135 A 
ATOM     67  F   UNL A   1      50.205  25.948  28.837  1.00  0.00    -0.206 F 
ATOM     68  C   UNL A   1      51.764  25.540  27.133  1.00  0.00     0.059 A 
ATOM     69  C   UNL A   1      51.218  26.103  24.833  1.00  0.00     0.059 A 
ATOM     70  F   UNL A   1      49.141  27.078  24.337  1.00  0.00    -0.206 F 
ATOM     71  C   UNL A   1      52.107  25.595  25.781  1.00  0.00     0.060 A 
BRANCH  71  72
ATOM     72  S   UNL A   1      53.720  24.962  25.274  1.00  0.00     0.124 S 
ATOM     73  O   UNL A   1      53.935  25.669  24.016  1.00  0.00    -0.237 OA
ATOM     74  O   UNL A   1      54.576  25.366  26.385  1.00  0.00    -0.237 OA
ATOM     75  O   UNL A   1      53.497  23.524  25.156  1.00  0.00    -0.744 OA
ENDBRANCH  71  72
ENDBRANCH  39  64
ENDBRANCH  13  14
ENDBRANCH   6   8
ENDBRANCH   3   4
ENDBRANCH   2   3
ENDBRANCH   1   2
BRANCH   1  76
ATOM     76  C   UNL A   1      33.429  29.247  26.312  1.00  0.00     0.002 C 
BRANCH  76  77
ATOM     77  C   UNL A   1      33.259  29.456  24.804  1.00  0.00     0.021 C 
BRANCH  77  78
ATOM     78  C   UNL A   1      33.892  28.379  23.924  1.00  0.00     0.116 C 
BRANCH  78  79
ATOM     79  N   UNL A   1      33.060  28.067  22.785  1.00  0.00    -0.356 N 
ATOM     80  C   UNL A   1      31.745  27.751  22.703  1.00  0.00     0.223 C 
ATOM     81  H   UNL A   1      33.529  28.086  21.921  1.00  0.00     0.163 HD
ATOM     82  O   UNL A   1      31.419  27.150  21.669  1.00  0.00    -0.275 OA
BRANCH  80  83
ATOM     83  C   UNL A   1      30.659  28.118  23.723  1.00  0.00     0.091 C 
ATOM     84  C   UNL A   1      29.499  28.938  23.110  1.00  0.00     0.014 C 
ATOM     85  C   UNL A   1      30.145  27.107  24.765  1.00  0.00     0.091 C 
ATOM     86  C   UNL A   1      28.142  28.241  22.912  1.00  0.00     0.001 C 
ATOM     87  C   UNL A   1      29.013  26.236  24.224  1.00  0.00     0.014 C 
ATOM     88  C   UNL A   1      27.815  27.114  23.883  1.00  0.00     0.001 C 
BRANCH  85  89
ATOM     89  C   UNL A   1      31.039  26.302  25.737  1.00  0.00     0.226 C 
ATOM     90  O   UNL A   1      31.158  26.681  26.906  1.00  0.00    -0.275 OA
ATOM     91  N   UNL A   1      31.454  25.043  25.369  1.00  0.00    -0.340 N 
ATOM     92  C   UNL A   1      31.391  23.929  26.322  1.00  0.00     0.136 C 
ATOM     93  C   UNL A   1      32.478  24.847  24.368  1.00  0.00     0.136 C 
ATOM     94  C   UNL A   1      31.193  22.579  25.590  1.00  0.00     0.124 C 
ATOM     95  C   UNL A   1      32.144  23.603  23.557  1.00  0.00     0.124 C 
ATOM     96  N   UNL A   1      32.151  22.384  24.426  1.00  0.00    -0.194 NA
BRANCH  96  97
ATOM     97  S   UNL A   1      33.664  21.731  24.884  1.00  0.00     0.243 S 
ATOM     98  O   UNL A   1      34.705  22.383  24.116  1.00  0.00    -0.207 OA
ATOM     99  O   UNL A   1      33.712  21.733  26.328  1.00  0.00    -0.207 OA
BRANCH  97 100
ATOM    100  C   UNL A   1      33.605  20.031  24.341  1.00  0.00     0.082 A 
ATOM    101  C   UNL A   1      34.551  19.115  24.828  1.00  0.00     0.025 A 
ATOM    102  C   UNL A   1      32.568  19.600  23.507  1.00  0.00     0.025 A 
ATOM    103  C   UNL A   1      34.509  17.786  24.410  1.00  0.00     0.040 A 
ATOM    104  C   UNL A   1      32.510  18.257  23.124  1.00  0.00     0.040 A 
ATOM    105  C   UNL A   1      33.487  17.367  23.565  1.00  0.00     0.123 A 
ATOM    106  F   UNL A   1      33.435  16.085  23.180  1.00  0.00    -0.207 F 
ENDBRANCH  97 100
ENDBRANCH  96  97
ENDBRANCH  85  89
ENDBRANCH  80  83
ENDBRANCH  78  79
ENDBRANCH  77  78
ENDBRANCH  76  77
ENDBRANCH   1  76
TORSDOF 19
ENDMDL
MODEL 2
REMARK VINA RESULT:     -12.0      0.676      7.895
REMARK SMILES O=C(NCCCCCCNC(=O)[C@H]1CCCC[C@H]1C(=O)N1CCN(S(=O)(=O)c2ccc(F)cc2)CC1)c1ccc(-c2c3nc(c(-c4c(F)cc(S(=O)(=O)[O-])cc4F)c4ccc([nH]4)c(-c4c(F)cc(S(=O)(=O)[O-])cc4F)c4nc(c(-c5c(F)cc(S(=O)(=O)[O-])cc5F)c5ccc2[nH]5)C=C4)C=C3)cc1
REMARK SMILES IDX 6 1 5 2 4 3 3 4 1 5 2 6 37 8 38 9 102 10 39 11 101 12 40 13
REMARK SMILES IDX 41 14 42 15 95 16 43 17 100 18 94 19 96 20 44 21 99 22 93 23
REMARK SMILES IDX 92 24 45 26 79 27 58 28 78 29 59 30 62 31 77 32 97 33 60 34
REMARK SMILES IDX 61 35 76 37 98 38 63 39 46 40 47 41 56 42 48 43 49 44 55 45
REMARK SMILES IDX 57 46 50 47 51 48 52 49 53 50 54 51 80 52 81 53 90 54 82 55
REMARK SMILES IDX 83 56 89 57 91 58 84 59 85 60 86 61 87 62 88 63 64 64 65 65
REMARK SMILES IDX 74 66 66 67 67 68 73 69 75 70 68 71 69 72 70 73 71 74 72 75
REMARK SMILES IDX 7 76 8 77 9 78 10 79 11 80 12 82 13 83 14 84 18 85 15 86
REMARK SMILES IDX 17 87 16 88 19 89 20 90 21 91 22 92 36 93 23 94 35 95 24 96
REMARK SMILES IDX 25 97 26 98 27 99 28 100 29 101 34 102 30 103 33 104 31 105
REMARK SMILES IDX 32 106
REMARK H PARENT 3 7 96 25 62 36 10 81
REMARK Flexibility Score: inf
ROOT
ATOM      1  C   UNL A   1      34.916  29.370  26.889  1.00  0.00     0.002 C 
ENDROOT
BRANCH   1   2
ATOM      2  C   UNL A   1      35.015  30.260  28.129  1.00  0.00     0.021 C 
BRANCH   2   3
ATOM      3  C   UNL A   1      35.870  29.724  29.272  1.00  0.00     0.116 C 
BRANCH   3   4
ATOM      4  N   UNL A   1      36.058  30.676  30.352  1.00  0.00    -0.352 N 
ATOM      5  O   UNL A   1      37.189  31.825  31.928  1.00  0.00    -0.269 OA
ATOM      6  C   UNL A   1      37.225  31.070  30.961  1.00  0.00     0.251 C 
ATOM      7  H   UNL A   1      35.236  31.097  30.695  1.00  0.00     0.163 HD
BRANCH   6   8
ATOM      8  C   UNL A   1      38.522  30.549  30.471  1.00  0.00     0.039 A 
ATOM      9  C   UNL A   1      39.492  30.083  31.361  1.00  0.00     0.014 A 
ATOM     10  C   UNL A   1      38.770  30.541  29.094  1.00  0.00     0.014 A 
ATOM     11  C   UNL A   1      40.756  29.743  30.888  1.00  0.00     0.010 A 
ATOM     12  C   UNL A   1      40.015  30.122  28.615  1.00  0.00     0.010 A 
ATOM     13  C   UNL A   1      41.029  29.749  29.509  1.00  0.00    -0.014 A 
BRANCH  13  14
ATOM     14  C   UNL A   1      42.365  29.310  29.031  1.00  0.00     0.031 A 
ATOM     15  C   UNL A   1      42.598  27.906  28.545  1.00  0.00     0.074 A 
ATOM     16  C   UNL A   1      43.365  30.213  28.997  1.00  0.00     0.049 A 
ATOM     17  N   UNL A   1      43.693  27.376  28.062  1.00  0.00    -0.248 NA
ATOM     18  C   UNL A   1      41.461  26.976  28.611  1.00  0.00     0.031 C 
ATOM     19  C   UNL A   1      43.254  31.603  29.448  1.00  0.00     0.029 A 
ATOM     20  N   UNL A   1      44.654  30.113  28.542  1.00  0.00    -0.354 N 
ATOM     21  C   UNL A   1      43.384  26.052  27.776  1.00  0.00     0.074 A 
ATOM     22  C   UNL A   1      42.004  25.850  28.168  1.00  0.00     0.031 C 
ATOM     23  C   UNL A   1      44.403  32.242  29.186  1.00  0.00     0.029 A 
ATOM     24  C   UNL A   1      45.351  31.296  28.609  1.00  0.00     0.049 A 
ATOM     25  H   UNL A   1      45.042  29.276  28.199  1.00  0.00     0.167 HD
ATOM     26  C   UNL A   1      44.176  25.097  27.229  1.00  0.00     0.037 A 
ATOM     27  C   UNL A   1      46.614  31.591  28.250  1.00  0.00     0.037 A 
ATOM     28  C   UNL A   1      45.547  25.309  26.839  1.00  0.00     0.049 A 
ATOM     29  C   UNL A   1      47.478  30.512  27.667  1.00  0.00     0.074 A 
ATOM     30  C   UNL A   1      46.433  24.404  26.278  1.00  0.00     0.029 A 
ATOM     31  N   UNL A   1      46.233  26.508  26.968  1.00  0.00    -0.354 N 
ATOM     32  N   UNL A   1      47.170  29.263  27.412  1.00  0.00    -0.248 NA
ATOM     33  C   UNL A   1      48.861  30.876  27.333  1.00  0.00     0.031 C 
ATOM     34  C   UNL A   1      47.662  25.047  26.098  1.00  0.00     0.029 A 
ATOM     35  C   UNL A   1      47.532  26.365  26.507  1.00  0.00     0.049 A 
ATOM     36  H   UNL A   1      45.852  27.339  27.333  1.00  0.00     0.167 HD
ATOM     37  C   UNL A   1      48.319  28.690  26.884  1.00  0.00     0.074 A 
ATOM     38  C   UNL A   1      49.323  29.735  26.836  1.00  0.00     0.031 C 
ATOM     39  C   UNL A   1      48.524  27.413  26.478  1.00  0.00     0.037 A 
BRANCH  26  40
ATOM     40  C   UNL A   1      43.581  23.730  27.027  1.00  0.00     0.058 A 
ATOM     41  C   UNL A   1      43.097  23.338  25.768  1.00  0.00     0.135 A 
ATOM     42  C   UNL A   1      43.457  22.818  28.087  1.00  0.00     0.135 A 
ATOM     43  F   UNL A   1      43.193  24.167  24.718  1.00  0.00    -0.206 F 
ATOM     44  C   UNL A   1      42.510  22.092  25.569  1.00  0.00     0.059 A 
ATOM     45  C   UNL A   1      42.893  21.557  27.905  1.00  0.00     0.059 A 
ATOM     46  F   UNL A   1      43.923  23.132  29.306  1.00  0.00    -0.206 F 
ATOM     47  C   UNL A   1      42.414  21.207  26.644  1.00  0.00     0.060 A 
BRANCH  47  48
ATOM     48  S   UNL A   1      41.712  19.567  26.356  1.00  0.00     0.124 S 
ATOM     49  O   UNL A   1      40.294  19.871  26.200  1.00  0.00    -0.237 OA
ATOM     50  O   UNL A   1      42.410  19.140  25.148  1.00  0.00    -0.237 OA
ATOM     51  O   UNL A   1      42.072  18.833  27.566  1.00  0.00    -0.744 OA
ENDBRANCH  47  48
ENDBRANCH  26  40
BRANCH  27  52
ATOM     52  C   UNL A   1      47.108  32.982  28.419  1.00  0.00     0.058 A 
ATOM     53  C   UNL A   1      46.984  33.925  27.389  1.00  0.00     0.135 A 
ATOM     54  C   UNL A   1      47.797  33.362  29.580  1.00  0.00     0.135 A 
ATOM     55  F   UNL A   1      46.343  33.604  26.254  1.00  0.00    -0.206 F 
ATOM     56  C   UNL A   1      47.566  35.184  27.482  1.00  0.00     0.059 A 
ATOM     57  C   UNL A   1      48.369  34.624  29.707  1.00  0.00     0.059 A 
ATOM     58  F   UNL A   1      47.931  32.494  30.594  1.00  0.00    -0.206 F 
ATOM     59  C   UNL A   1      48.269  35.518  28.642  1.00  0.00     0.060 A 
BRANCH  59  60
ATOM     60  S   UNL A   1      49.069  37.134  28.721  1.00  0.00     0.124 S 
ATOM     61  O   UNL A   1      49.375  37.376  27.314  1.00  0.00    -0.237 OA
ATOM     62  O   UNL A   1      48.019  37.969  29.296  1.00  0.00    -0.237 OA
ATOM     63  O   UNL A   1      50.222  36.897  29.583  1.00  0.00    -0.744 OA
ENDBRANCH  59  60
ENDBRANCH  27  52
BRANCH  39  64
ATOM     64  C   UNL A   1      49.885  27.071  25.943  1.00  0.00     0.058 A 
ATOM     65  C   UNL A   1      50.889  26.597  26.801  1.00  0.00     0.135 A 
ATOM     66  C   UNL A   1      50.209  27.263  24.591  1.00  0.00     0.135 A 
ATOM     67  F   UNL A   1      50.629  26.398  28.103  1.00  0.00    -0.206 F 
ATOM     68  C   UNL A   1      52.174  26.338  26.340  1.00  0.00     0.059 A 
ATOM     69  C   UNL A   1      51.483  26.988  24.103  1.00  0.00     0.059 A 
ATOM     70  F   UNL A   1      49.279  27.701  23.729  1.00  0.00    -0.206 F 
ATOM     71  C   UNL A   1      52.464  26.540  24.989  1.00  0.00     0.060 A 
BRANCH  71  72
ATOM     72  S   UNL A   1      54.131  26.176  24.400  1.00  0.00     0.124 S 
ATOM     73  O   UNL A   1      54.314  24.803  24.859  1.00  0.00    -0.237 OA
ATOM     74  O   UNL A   1      53.996  26.351  22.958  1.00  0.00    -0.237 OA
ATOM     75  O   UNL A   1      54.953  27.178  25.072  1.00  0.00    -0.744 OA
ENDBRANCH  71  72
ENDBRANCH  39  64
ENDBRANCH  13  14
ENDBRANCH   6   8
ENDBRANCH   3   4
ENDBRANCH   2   3
ENDBRANCH   1   2
BRANCH   1  76
ATOM     76  C   UNL A   1      33.511  29.162  26.312  1.00  0.00     0.002 C 
BRANCH  76  77
ATOM     77  C   UNL A   1      33.385  29.276  24.790  1.00  0.00     0.021 C 
BRANCH  77  78
ATOM     78  C   UNL A   1      33.969  28.107  24.000  1.00  0.00     0.116 C 
BRANCH  78  79
ATOM     79  N   UNL A   1      33.146  27.769  22.862  1.00  0.00    -0.356 N 
ATOM     80  C   UNL A   1      31.823  27.492  22.771  1.00  0.00     0.223 C 
ATOM     81  H   UNL A   1      33.630  27.734  22.006  1.00  0.00     0.163 HD
ATOM     82  O   UNL A   1      31.495  26.856  21.759  1.00  0.00    -0.275 OA
BRANCH  80  83
ATOM     83  C   UNL A   1      30.733  27.942  23.753  1.00  0.00     0.091 C 
ATOM     84  C   UNL A   1      29.609  28.767  23.082  1.00  0.00     0.014 C 
ATOM     85  C   UNL A   1      30.172  26.997  24.832  1.00  0.00     0.091 C 
ATOM     86  C   UNL A   1      28.235  28.103  22.894  1.00  0.00     0.001 C 
ATOM     87  C   UNL A   1      29.021  26.137  24.313  1.00  0.00     0.014 C 
ATOM     88  C   UNL A   1      27.857  27.035  23.911  1.00  0.00     0.001 C 
BRANCH  85  89
ATOM     89  C   UNL A   1      31.024  26.213  25.857  1.00  0.00     0.226 C 
ATOM     90  O   UNL A   1      31.091  26.611  27.023  1.00  0.00    -0.275 OA
ATOM     91  N   UNL A   1      31.459  24.948  25.529  1.00  0.00    -0.340 N 
ATOM     92  C   UNL A   1      31.357  23.851  26.497  1.00  0.00     0.136 C 
ATOM     93  C   UNL A   1      32.526  24.739  24.578  1.00  0.00     0.136 C 
ATOM     94  C   UNL A   1      31.195  22.488  25.780  1.00  0.00     0.124 C 
ATOM     95  C   UNL A   1      32.231  23.481  23.774  1.00  0.00     0.124 C 
ATOM     96  N   UNL A   1      32.204  22.277  24.663  1.00  0.00    -0.194 NA
BRANCH  96  97
ATOM     97  S   UNL A   1      33.697  21.637  25.198  1.00  0.00     0.243 S 
ATOM     98  O   UNL A   1      34.771  22.322  24.508  1.00  0.00    -0.207 OA
ATOM     99  O   UNL A   1      33.659  21.608  26.642  1.00  0.00    -0.207 OA
BRANCH  97 100
ATOM    100  C   UNL A   1      33.700  19.949  24.618  1.00  0.00     0.082 A 
ATOM    101  C   UNL A   1      32.597  19.460  23.900  1.00  0.00     0.025 A 
ATOM    102  C   UNL A   1      34.834  19.150  24.800  1.00  0.00     0.025 A 
ATOM    103  C   UNL A   1      32.595  18.144  23.441  1.00  0.00     0.040 A 
ATOM    104  C   UNL A   1      34.840  17.843  24.303  1.00  0.00     0.040 A 
ATOM    105  C   UNL A   1      33.718  17.348  23.643  1.00  0.00     0.123 A 
ATOM    106  F   UNL A   1      33.723  16.090  23.184  1.00  0.00    -0.207 F 
ENDBRANCH  97 100
ENDBRANCH  96  97
ENDBRANCH  85  89
ENDBRANCH  80  83
ENDBRANCH  78  79
ENDBRANCH  77  78
ENDBRANCH  76  77
ENDBRANCH   1  76
TORSDOF 19
ENDMDL
MODEL 3
REMARK VINA RESULT:     -11.1      7.778     14.768
REMARK SMILES O=C(NCCCCCCNC(=O)[C@H]1CCCC[C@H]1C(=O)N1CCN(S(=O)(=O)c2ccc(F)cc2)CC1)c1ccc(-c2c3nc(c(-c4c(F)cc(S(=O)(=O)[O-])cc4F)c4ccc([nH]4)c(-c4c(F)cc(S(=O)(=O)[O-])cc4F)c4nc(c(-c5c(F)cc(S(=O)(=O)[O-])cc5F)c5ccc2[nH]5)C=C4)C=C3)cc1
REMARK SMILES IDX 6 1 5 2 4 3 3 4 1 5 2 6 37 8 38 9 102 10 39 11 101 12 40 13
REMARK SMILES IDX 41 14 42 15 95 16 43 17 100 18 94 19 96 20 44 21 99 22 93 23
REMARK SMILES IDX 92 24 45 26 79 27 58 28 78 29 59 30 62 31 77 32 97 33 60 34
REMARK SMILES IDX 61 35 76 37 98 38 63 39 46 40 47 41 56 42 48 43 49 44 55 45
REMARK SMILES IDX 57 46 50 47 51 48 52 49 53 50 54 51 80 52 81 53 90 54 82 55
REMARK SMILES IDX 83 56 89 57 91 58 84 59 85 60 86 61 87 62 88 63 64 64 65 65
REMARK SMILES IDX 74 66 66 67 67 68 73 69 75 70 68 71 69 72 70 73 71 74 72 75
REMARK SMILES IDX 7 76 8 77 9 78 10 79 11 80 12 82 13 83 14 84 18 85 15 86
REMARK SMILES IDX 17 87 16 88 19 89 20 90 21 91 22 92 36 93 23 94 35 95 24 96
REMARK SMILES IDX 25 97 26 98 27 99 28 100 29 101 34 102 30 103 33 104 31 105
REMARK SMILES IDX 32 106
REMARK H PARENT 3 7 96 25 62 36 10 81
REMARK Flexibility Score: inf
ROOT
ATOM      1  C   UNL A   1      46.216  24.902  28.688  1.00  0.00     0.002 C 
ENDROOT
BRANCH   1   2
ATOM      2  C   UNL A   1      45.506  24.514  27.390  1.00  0.00     0.021 C 
BRANCH   2   3
ATOM      3  C   UNL A   1      45.419  25.600  26.323  1.00  0.00     0.116 C 
BRANCH   3   4
ATOM      4  N   UNL A   1      44.222  25.517  25.506  1.00  0.00    -0.352 N 
ATOM      5  O   UNL A   1      42.044  25.783  24.988  1.00  0.00    -0.269 OA
ATOM      6  C   UNL A   1      42.971  26.029  25.754  1.00  0.00     0.251 C 
ATOM      7  H   UNL A   1      44.320  25.026  24.658  1.00  0.00     0.163 HD
BRANCH   6   8
ATOM      8  C   UNL A   1      42.739  26.844  26.968  1.00  0.00     0.039 A 
ATOM      9  C   UNL A   1      42.077  26.310  28.076  1.00  0.00     0.014 A 
ATOM     10  C   UNL A   1      43.182  28.170  26.987  1.00  0.00     0.014 A 
ATOM     11  C   UNL A   1      41.736  27.138  29.141  1.00  0.00     0.010 A 
ATOM     12  C   UNL A   1      42.909  28.979  28.094  1.00  0.00     0.010 A 
ATOM     13  C   UNL A   1      42.156  28.479  29.168  1.00  0.00    -0.014 A 
BRANCH  13  14
ATOM     14  C   UNL A   1      41.840  29.317  30.352  1.00  0.00     0.031 A 
ATOM     15  C   UNL A   1      42.783  29.406  31.520  1.00  0.00     0.074 A 
ATOM     16  C   UNL A   1      40.703  30.040  30.344  1.00  0.00     0.049 A 
ATOM     17  N   UNL A   1      42.672  30.119  32.613  1.00  0.00    -0.248 NA
ATOM     18  C   UNL A   1      44.005  28.590  31.460  1.00  0.00     0.031 C 
ATOM     19  C   UNL A   1      39.711  30.029  29.266  1.00  0.00     0.029 A 
ATOM     20  N   UNL A   1      40.201  30.941  31.247  1.00  0.00    -0.354 N 
ATOM     21  C   UNL A   1      43.799  29.833  33.373  1.00  0.00     0.074 A 
ATOM     22  C   UNL A   1      44.569  28.856  32.631  1.00  0.00     0.031 C 
ATOM     23  C   UNL A   1      38.756  30.929  29.538  1.00  0.00     0.029 A 
ATOM     24  C   UNL A   1      39.032  31.535  30.835  1.00  0.00     0.049 A 
ATOM     25  H   UNL A   1      40.637  31.145  32.106  1.00  0.00     0.167 HD
ATOM     26  C   UNL A   1      44.162  30.345  34.575  1.00  0.00     0.037 A 
ATOM     27  C   UNL A   1      38.261  32.462  31.434  1.00  0.00     0.037 A 
ATOM     28  C   UNL A   1      43.390  31.319  35.305  1.00  0.00     0.049 A 
ATOM     29  C   UNL A   1      38.671  32.997  32.774  1.00  0.00     0.074 A 
ATOM     30  C   UNL A   1      43.672  31.898  36.531  1.00  0.00     0.029 A 
ATOM     31  N   UNL A   1      42.185  31.860  34.878  1.00  0.00    -0.354 N 
ATOM     32  N   UNL A   1      39.737  32.708  33.482  1.00  0.00    -0.248 NA
ATOM     33  C   UNL A   1      37.774  33.975  33.402  1.00  0.00     0.031 C 
ATOM     34  C   UNL A   1      42.623  32.763  36.860  1.00  0.00     0.029 A 
ATOM     35  C   UNL A   1      41.707  32.757  35.820  1.00  0.00     0.049 A 
ATOM     36  H   UNL A   1      41.738  31.639  34.030  1.00  0.00     0.167 HD
ATOM     37  C   UNL A   1      39.642  33.469  34.638  1.00  0.00     0.074 A 
ATOM     38  C   UNL A   1      38.424  34.248  34.526  1.00  0.00     0.031 C 
ATOM     39  C   UNL A   1      40.486  33.516  35.698  1.00  0.00     0.037 A 
BRANCH  26  40
ATOM     40  C   UNL A   1      45.447  29.854  35.183  1.00  0.00     0.058 A 
ATOM     41  C   UNL A   1      45.435  28.877  36.193  1.00  0.00     0.135 A 
ATOM     42  C   UNL A   1      46.691  30.374  34.793  1.00  0.00     0.135 A 
ATOM     43  F   UNL A   1      44.275  28.342  36.603  1.00  0.00    -0.206 F 
ATOM     44  C   UNL A   1      46.610  28.437  36.795  1.00  0.00     0.059 A 
ATOM     45  C   UNL A   1      47.881  29.932  35.366  1.00  0.00     0.059 A 
ATOM     46  F   UNL A   1      46.762  31.294  33.818  1.00  0.00    -0.206 F 
ATOM     47  C   UNL A   1      47.830  28.969  36.373  1.00  0.00     0.060 A 
BRANCH  47  48
ATOM     48  S   UNL A   1      49.353  28.338  37.113  1.00  0.00     0.124 S 
ATOM     49  O   UNL A   1      49.774  27.345  36.133  1.00  0.00    -0.237 OA
ATOM     50  O   UNL A   1      50.175  29.541  37.197  1.00  0.00    -0.237 OA
ATOM     51  O   UNL A   1      48.905  27.809  38.398  1.00  0.00    -0.744 OA
ENDBRANCH  47  48
ENDBRANCH  26  40
BRANCH  27  52
ATOM     52  C   UNL A   1      37.041  32.946  30.739  1.00  0.00     0.058 A 
ATOM     53  C   UNL A   1      37.126  33.842  29.663  1.00  0.00     0.135 A 
ATOM     54  C   UNL A   1      35.765  32.593  31.202  1.00  0.00     0.135 A 
ATOM     55  F   UNL A   1      38.326  34.218  29.193  1.00  0.00    -0.206 F 
ATOM     56  C   UNL A   1      35.990  34.410  29.099  1.00  0.00     0.059 A 
ATOM     57  C   UNL A   1      34.611  33.130  30.638  1.00  0.00     0.059 A 
ATOM     58  F   UNL A   1      35.637  31.732  32.222  1.00  0.00    -0.206 F 
ATOM     59  C   UNL A   1      34.737  34.056  29.604  1.00  0.00     0.060 A 
BRANCH  59  60
ATOM     60  S   UNL A   1      33.277  34.848  28.898  1.00  0.00     0.124 S 
ATOM     61  O   UNL A   1      32.866  33.864  27.901  1.00  0.00    -0.237 OA
ATOM     62  O   UNL A   1      32.405  34.978  30.060  1.00  0.00    -0.237 OA
ATOM     63  O   UNL A   1      33.798  36.102  28.364  1.00  0.00    -0.744 OA
ENDBRANCH  59  60
ENDBRANCH  27  52
BRANCH  39  64
ATOM     64  C   UNL A   1      40.125  34.442  36.824  1.00  0.00     0.058 A 
ATOM     65  C   UNL A   1      40.453  35.805  36.759  1.00  0.00     0.135 A 
ATOM     66  C   UNL A   1      39.501  33.970  37.989  1.00  0.00     0.135 A 
ATOM     67  F   UNL A   1      41.052  36.306  35.666  1.00  0.00    -0.206 F 
ATOM     68  C   UNL A   1      40.187  36.667  37.816  1.00  0.00     0.059 A 
ATOM     69  C   UNL A   1      39.206  34.819  39.052  1.00  0.00     0.059 A 
ATOM     70  F   UNL A   1      39.156  32.677  38.094  1.00  0.00    -0.206 F 
ATOM     71  C   UNL A   1      39.567  36.164  38.961  1.00  0.00     0.060 A 
BRANCH  71  72
ATOM     72  S   UNL A   1      39.207  37.300  40.317  1.00  0.00     0.124 S 
ATOM     73  O   UNL A   1      38.595  38.420  39.611  1.00  0.00    -0.237 OA
ATOM     74  O   UNL A   1      38.310  36.510  41.155  1.00  0.00    -0.237 OA
ATOM     75  O   UNL A   1      40.521  37.565  40.895  1.00  0.00    -0.744 OA
ENDBRANCH  71  72
ENDBRANCH  39  64
ENDBRANCH  13  14
ENDBRANCH   6   8
ENDBRANCH   3   4
ENDBRANCH   2   3
ENDBRANCH   1   2
BRANCH   1  76
ATOM     76  C   UNL A   1      45.403  25.735  29.685  1.00  0.00     0.002 C 
BRANCH  76  77
ATOM     77  C   UNL A   1      44.523  24.949  30.660  1.00  0.00     0.021 C 
BRANCH  77  78
ATOM     78  C   UNL A   1      45.207  24.527  31.959  1.00  0.00     0.116 C 
BRANCH  78  79
ATOM     79  N   UNL A   1      44.327  23.744  32.794  1.00  0.00    -0.356 N 
ATOM     80  C   UNL A   1      43.951  23.902  34.086  1.00  0.00     0.223 C 
ATOM     81  H   UNL A   1      43.932  22.961  32.348  1.00  0.00     0.163 HD
ATOM     82  O   UNL A   1      43.525  22.873  34.632  1.00  0.00    -0.275 OA
BRANCH  80  83
ATOM     83  C   UNL A   1      43.954  25.216  34.877  1.00  0.00     0.091 C 
ATOM     84  C   UNL A   1      42.961  26.264  34.323  1.00  0.00     0.014 C 
ATOM     85  C   UNL A   1      43.998  25.239  36.417  1.00  0.00     0.091 C 
ATOM     86  C   UNL A   1      41.685  26.553  35.132  1.00  0.00     0.001 C 
ATOM     87  C   UNL A   1      42.608  25.140  37.041  1.00  0.00     0.014 C 
ATOM     88  C   UNL A   1      41.782  26.355  36.638  1.00  0.00     0.001 C 
BRANCH  85  89
ATOM     89  C   UNL A   1      45.044  24.503  37.286  1.00  0.00     0.226 C 
ATOM     90  O   UNL A   1      44.747  24.162  38.435  1.00  0.00    -0.275 OA
ATOM     91  N   UNL A   1      46.173  23.998  36.681  1.00  0.00    -0.340 N 
ATOM     92  C   UNL A   1      46.646  22.646  36.999  1.00  0.00     0.136 C 
ATOM     93  C   UNL A   1      47.244  24.862  36.238  1.00  0.00     0.136 C 
ATOM     94  C   UNL A   1      47.395  22.022  35.796  1.00  0.00     0.124 C 
ATOM     95  C   UNL A   1      47.832  24.298  34.953  1.00  0.00     0.124 C 
ATOM     96  N   UNL A   1      48.436  22.949  35.191  1.00  0.00    -0.194 NA
BRANCH  96  97
ATOM     97  S   UNL A   1      49.957  22.874  35.971  1.00  0.00     0.243 S 
ATOM     98  O   UNL A   1      50.452  24.224  36.156  1.00  0.00    -0.207 OA
ATOM     99  O   UNL A   1      49.816  21.988  37.103  1.00  0.00    -0.207 OA
BRANCH  97 100
ATOM    100  C   UNL A   1      51.034  22.084  34.787  1.00  0.00     0.082 A 
ATOM    101  C   UNL A   1      51.976  22.852  34.086  1.00  0.00     0.025 A 
ATOM    102  C   UNL A   1      50.997  20.694  34.629  1.00  0.00     0.025 A 
ATOM    103  C   UNL A   1      52.822  22.240  33.162  1.00  0.00     0.040 A 
ATOM    104  C   UNL A   1      51.875  20.083  33.730  1.00  0.00     0.040 A 
ATOM    105  C   UNL A   1      52.767  20.860  32.995  1.00  0.00     0.123 A 
ATOM    106  F   UNL A   1      53.594  20.271  32.123  1.00  0.00    -0.207 F 
ENDBRANCH  97 100
ENDBRANCH  96  97
ENDBRANCH  85  89
ENDBRANCH  80  83
ENDBRANCH  78  79
ENDBRANCH  77  78
ENDBRANCH  76  77
ENDBRANCH   1  76
TORSDOF 19
ENDMDL
