MODEL 1
REMARK VINA RESULT:     -14.6      0.000      0.000
REMARK SMILES Cc1cc(/C=C2/C(=O)NC(=S)[NH+]=C2NCCCCCCNC(=O)c2ccc(-c3c4nc(c(-c5c(F)cc(S(=O)(=O)[O-])cc5F)c5ccc([nH]5)c(-c5c(F)cc(S(=O)(=O)[O-])cc5F)c5nc(c(-c6c(F)cc(S(=O)(=O)[O-])cc6F)c6ccc3[nH]6)C=C5)C=C4)cc2)c(C)n1-c1cccc(C(=O)[O-])c1
REMARK SMILES IDX 18 1 17 2 16 3 15 4 14 5 5 6 6 7 7 8 13 9 8 10 9 11 12 12
REMARK SMILES IDX 10 13 11 17 4 18 1 19 2 20 3 21 92 22 90 23 91 24 93 25
REMARK SMILES IDX 94 26 101 27 95 28 97 29 96 30 98 31 99 32 100 33 19 34
REMARK SMILES IDX 20 35 21 36 22 37 23 39 24 40 25 41 89 42 26 43 88 44 27 45
REMARK SMILES IDX 28 46 29 47 82 48 30 49 87 50 81 51 83 52 31 53 86 54 80 55
REMARK SMILES IDX 79 56 32 58 66 59 45 60 65 61 46 62 49 63 64 64 84 65 47 66
REMARK SMILES IDX 48 67 63 69 85 70 50 71 33 72 34 73 43 74 35 75 36 76 42 77
REMARK SMILES IDX 44 78 37 79 38 80 39 81 40 82 41 83 67 84 68 85 77 86 69 87
REMARK SMILES IDX 70 88 76 89 78 90 71 91 72 92 73 93 74 94 75 95 51 96 52 97
REMARK SMILES IDX 61 98 53 99 54 100 60 101 62 102 55 103 56 104 57 105 58 106
REMARK SMILES IDX 59 107
REMARK H PARENT 9 14 12 15 14 16 21 38 83 57 49 68
REMARK Flexibility Score: inf
ROOT
ATOM      1  C   UNL A   1      33.117  28.527  26.601  1.00  0.00     0.002 C 
ENDROOT
BRANCH   1   2
ATOM      2  C   UNL A   1      33.084  26.746  26.542  1.00  0.00     0.003 C 
BRANCH   2   3
ATOM      3  C   UNL A   1      34.129  25.825  25.834  1.00  0.00     0.037 C 
BRANCH   3   4
ATOM      4  C   UNL A   1      33.965  24.329  26.032  1.00  0.00     0.194 C 
BRANCH   4   5
ATOM      5  N   UNL A   1      35.134  23.493  26.045  1.00  0.00    -0.305 N 
ATOM      6  C   UNL A   1      32.921  21.481  24.482  1.00  0.00     0.032 C 
ATOM      7  C   UNL A   1      34.163  21.297  24.988  1.00  0.00     0.128 C 
ATOM      8  C   UNL A   1      34.522  19.843  25.021  1.00  0.00     0.319 C 
ATOM      9  C   UNL A   1      35.253  22.217  25.522  1.00  0.00     0.234 C 
ATOM     10  O   UNL A   1      33.711  18.921  24.989  1.00  0.00    -0.250 OA
ATOM     11  N   UNL A   1      35.854  19.586  25.055  1.00  0.00    -0.229 N 
ATOM     12  N   UNL A   1      36.495  21.789  25.568  1.00  0.00    -0.236 N 
ATOM     13  C   UNL A   1      36.836  20.517  25.209  1.00  0.00     0.295 C 
ATOM     14  H   UNL A   1      36.135  18.647  24.959  1.00  0.00     0.268 HD
ATOM     15  H   UNL A   1      37.200  22.405  25.871  1.00  0.00     0.268 HD
ATOM     16  H   UNL A   1      35.938  23.870  26.471  1.00  0.00     0.256 HD
ATOM     17  S   UNL A   1      38.420  19.993  25.019  1.00  0.00    -0.005 S 
BRANCH   6  18
ATOM     18  C   UNL A   1      32.105  22.637  24.325  1.00  0.00    -0.003 A 
ATOM     19  C   UNL A   1      29.777  25.198  25.608  1.00  0.00     0.065 C 
ATOM     20  C   UNL A   1      30.780  24.343  24.933  1.00  0.00     0.020 A 
ATOM     21  C   UNL A   1      31.294  23.143  25.363  1.00  0.00     0.031 A 
ATOM     22  N   UNL A   1      31.356  24.627  23.713  1.00  0.00    -0.318 N 
ATOM     23  C   UNL A   1      31.867  23.417  23.198  1.00  0.00     0.027 A 
ATOM     24  C   UNL A   1      32.296  23.176  21.786  1.00  0.00     0.065 C 
BRANCH  22  25
ATOM     25  C   UNL A   1      31.604  25.933  23.205  1.00  0.00     0.046 A 
ATOM     26  C   UNL A   1      33.314  26.447  22.972  1.00  0.00     0.026 A 
ATOM     27  C   UNL A   1      30.254  27.146  23.003  1.00  0.00     0.036 A 
ATOM     28  C   UNL A   1      33.676  28.126  22.503  1.00  0.00     0.003 A 
ATOM     29  C   UNL A   1      30.662  28.868  22.528  1.00  0.00    -0.001 A 
ATOM     30  C   UNL A   1      32.377  29.349  22.302  1.00  0.00     0.010 A 
BRANCH  29  31
ATOM     31  C   UNL A   1      29.705  29.952  22.293  1.00  0.00     0.072 C 
ATOM     32  O   UNL A   1      29.254  30.229  21.198  1.00  0.00    -0.545 OA
ATOM     33  O   UNL A   1      29.345  30.558  23.424  1.00  0.00    -0.545 OA
ENDBRANCH  29  31
ENDBRANCH  22  25
ENDBRANCH   6  18
ENDBRANCH   4   5
ENDBRANCH   3   4
ENDBRANCH   2   3
ENDBRANCH   1   2
BRANCH   1  34
ATOM     34  C   UNL A   1      34.315  30.058  27.627  1.00  0.00     0.021 C 
BRANCH  34  35
ATOM     35  C   UNL A   1      34.377  31.866  27.557  1.00  0.00     0.116 C 
BRANCH  35  36
ATOM     36  N   UNL A   1      34.202  32.682  28.749  1.00  0.00    -0.352 N 
ATOM     37  C   UNL A   1      34.831  32.633  30.004  1.00  0.00     0.251 C 
ATOM     38  H   UNL A   1      33.525  33.392  28.661  1.00  0.00     0.163 HD
ATOM     39  O   UNL A   1      34.193  33.160  30.921  1.00  0.00    -0.269 OA
BRANCH  37  40
ATOM     40  C   UNL A   1      36.136  31.909  30.380  1.00  0.00     0.039 A 
ATOM     41  C   UNL A   1      37.162  31.877  29.448  1.00  0.00     0.014 A 
ATOM     42  C   UNL A   1      36.272  30.917  31.385  1.00  0.00     0.014 A 
ATOM     43  C   UNL A   1      38.292  30.978  29.573  1.00  0.00     0.010 A 
ATOM     44  C   UNL A   1      37.400  29.930  31.459  1.00  0.00     0.010 A 
ATOM     45  C   UNL A   1      38.467  29.904  30.539  1.00  0.00    -0.014 A 
BRANCH  45  46
ATOM     46  C   UNL A   1      39.530  28.660  30.103  1.00  0.00     0.031 A 
ATOM     47  C   UNL A   1      40.345  28.559  31.345  1.00  0.00     0.074 A 
ATOM     48  C   UNL A   1      40.057  27.807  29.101  1.00  0.00     0.049 A 
ATOM     49  N   UNL A   1      40.936  29.631  31.788  1.00  0.00    -0.248 NA
ATOM     50  C   UNL A   1      40.191  27.487  32.330  1.00  0.00     0.031 C 
ATOM     51  C   UNL A   1      39.768  27.768  27.652  1.00  0.00     0.029 A 
ATOM     52  N   UNL A   1      41.033  26.722  29.142  1.00  0.00    -0.354 N 
ATOM     53  C   UNL A   1      41.486  29.301  32.993  1.00  0.00     0.074 A 
ATOM     54  C   UNL A   1      40.811  28.062  33.370  1.00  0.00     0.031 C 
ATOM     55  C   UNL A   1      40.365  26.706  27.019  1.00  0.00     0.029 A 
ATOM     56  C   UNL A   1      41.200  25.916  27.933  1.00  0.00     0.049 A 
ATOM     57  H   UNL A   1      41.558  26.540  29.954  1.00  0.00     0.167 HD
ATOM     58  C   UNL A   1      42.789  29.662  33.155  1.00  0.00     0.037 A 
ATOM     59  C   UNL A   1      42.005  24.789  27.649  1.00  0.00     0.037 A 
ATOM     60  C   UNL A   1      43.666  28.532  33.001  1.00  0.00     0.049 A 
ATOM     61  C   UNL A   1      43.176  24.942  28.522  1.00  0.00     0.074 A 
ATOM     62  C   UNL A   1      43.597  27.224  33.438  1.00  0.00     0.029 A 
ATOM     63  N   UNL A   1      44.494  28.538  31.898  1.00  0.00    -0.354 N 
ATOM     64  N   UNL A   1      44.104  25.810  28.266  1.00  0.00    -0.248 NA
ATOM     65  C   UNL A   1      43.447  24.034  29.634  1.00  0.00     0.031 C 
ATOM     66  C   UNL A   1      43.879  26.464  32.282  1.00  0.00     0.029 A 
ATOM     67  C   UNL A   1      44.499  27.279  31.343  1.00  0.00     0.049 A 
ATOM     68  H   UNL A   1      44.998  29.315  31.564  1.00  0.00     0.167 HD
ATOM     69  C   UNL A   1      44.785  25.891  29.437  1.00  0.00     0.074 A 
ATOM     70  C   UNL A   1      44.541  24.630  30.113  1.00  0.00     0.031 C 
ATOM     71  C   UNL A   1      44.906  27.131  29.966  1.00  0.00     0.037 A 
BRANCH  58  72
ATOM     72  C   UNL A   1      43.103  31.051  32.657  1.00  0.00     0.058 A 
ATOM     73  C   UNL A   1      43.315  32.072  33.587  1.00  0.00     0.135 A 
ATOM     74  C   UNL A   1      43.078  31.415  31.291  1.00  0.00     0.135 A 
ATOM     75  F   UNL A   1      43.381  31.786  34.897  1.00  0.00    -0.206 F 
ATOM     76  C   UNL A   1      43.458  33.400  33.188  1.00  0.00     0.059 A 
ATOM     77  C   UNL A   1      43.166  32.739  30.872  1.00  0.00     0.059 A 
ATOM     78  F   UNL A   1      42.968  30.474  30.338  1.00  0.00    -0.206 F 
ATOM     79  C   UNL A   1      43.359  33.727  31.832  1.00  0.00     0.060 A 
BRANCH  79  80
ATOM     80  S   UNL A   1      43.461  35.465  31.351  1.00  0.00     0.124 S 
ATOM     81  O   UNL A   1      42.408  35.577  30.344  1.00  0.00    -0.237 OA
ATOM     82  O   UNL A   1      43.185  36.136  32.615  1.00  0.00    -0.237 OA
ATOM     83  O   UNL A   1      44.818  35.603  30.831  1.00  0.00    -0.744 OA
ENDBRANCH  79  80
ENDBRANCH  58  72
BRANCH  59  84
ATOM     84  C   UNL A   1      42.327  23.566  26.665  1.00  0.00     0.058 A 
ATOM     85  C   UNL A   1      43.295  23.688  25.594  1.00  0.00     0.135 A 
ATOM     86  C   UNL A   1      42.079  22.221  26.989  1.00  0.00     0.135 A 
ATOM     87  F   UNL A   1      43.631  24.885  25.092  1.00  0.00    -0.206 F 
ATOM     88  C   UNL A   1      44.037  22.624  25.029  1.00  0.00     0.059 A 
ATOM     89  C   UNL A   1      42.792  21.122  26.402  1.00  0.00     0.059 A 
ATOM     90  F   UNL A   1      41.197  21.923  27.952  1.00  0.00    -0.206 F 
ATOM     91  C   UNL A   1      43.808  21.334  25.466  1.00  0.00     0.060 A 
BRANCH  91  92
ATOM     92  S   UNL A   1      44.934  20.005  24.906  1.00  0.00     0.124 S 
ATOM     93  O   UNL A   1      44.762  20.022  23.457  1.00  0.00    -0.237 OA
ATOM     94  O   UNL A   1      46.232  20.468  25.389  1.00  0.00    -0.237 OA
ATOM     95  O   UNL A   1      44.417  18.817  25.580  1.00  0.00    -0.744 OA
ENDBRANCH  91  92
ENDBRANCH  59  84
BRANCH  71  96
ATOM     96  C   UNL A   1      45.295  28.260  29.021  1.00  0.00     0.058 A 
ATOM     97  C   UNL A   1      46.598  28.745  28.749  1.00  0.00     0.135 A 
ATOM     98  C   UNL A   1      44.245  28.962  28.404  1.00  0.00     0.135 A 
ATOM     99  F   UNL A   1      47.700  28.106  29.171  1.00  0.00    -0.206 F 
ATOM    100  C   UNL A   1      46.823  29.909  28.009  1.00  0.00     0.059 A 
ATOM    101  C   UNL A   1      44.451  30.089  27.612  1.00  0.00     0.059 A 
ATOM    102  F   UNL A   1      42.978  28.549  28.572  1.00  0.00    -0.206 F 
ATOM    103  C   UNL A   1      45.741  30.586  27.457  1.00  0.00     0.060 A 
BRANCH 103 104
ATOM    104  S   UNL A   1      46.026  32.117  26.542  1.00  0.00     0.124 S 
ATOM    105  O   UNL A   1      45.125  31.957  25.404  1.00  0.00    -0.237 OA
ATOM    106  O   UNL A   1      45.644  33.144  27.504  1.00  0.00    -0.237 OA
ATOM    107  O   UNL A   1      47.447  32.055  26.216  1.00  0.00    -0.744 OA
ENDBRANCH 103 104
ENDBRANCH  71  96
ENDBRANCH  45  46
ENDBRANCH  37  40
ENDBRANCH  35  36
ENDBRANCH  34  35
ENDBRANCH   1  34
TORSDOF 18
ENDMDL
MODEL 2
REMARK VINA RESULT:     -14.1      3.649      8.714
REMARK SMILES Cc1cc(/C=C2/C(=O)NC(=S)[NH+]=C2NCCCCCCNC(=O)c2ccc(-c3c4nc(c(-c5c(F)cc(S(=O)(=O)[O-])cc5F)c5ccc([nH]5)c(-c5c(F)cc(S(=O)(=O)[O-])cc5F)c5nc(c(-c6c(F)cc(S(=O)(=O)[O-])cc6F)c6ccc3[nH]6)C=C5)C=C4)cc2)c(C)n1-c1cccc(C(=O)[O-])c1
REMARK SMILES IDX 18 1 17 2 16 3 15 4 14 5 5 6 6 7 7 8 13 9 8 10 9 11 12 12
REMARK SMILES IDX 10 13 11 17 4 18 1 19 2 20 3 21 92 22 90 23 91 24 93 25
REMARK SMILES IDX 94 26 101 27 95 28 97 29 96 30 98 31 99 32 100 33 19 34
REMARK SMILES IDX 20 35 21 36 22 37 23 39 24 40 25 41 89 42 26 43 88 44 27 45
REMARK SMILES IDX 28 46 29 47 82 48 30 49 87 50 81 51 83 52 31 53 86 54 80 55
REMARK SMILES IDX 79 56 32 58 66 59 45 60 65 61 46 62 49 63 64 64 84 65 47 66
REMARK SMILES IDX 48 67 63 69 85 70 50 71 33 72 34 73 43 74 35 75 36 76 42 77
REMARK SMILES IDX 44 78 37 79 38 80 39 81 40 82 41 83 67 84 68 85 77 86 69 87
REMARK SMILES IDX 70 88 76 89 78 90 71 91 72 92 73 93 74 94 75 95 51 96 52 97
REMARK SMILES IDX 61 98 53 99 54 100 60 101 62 102 55 103 56 104 57 105 58 106
REMARK SMILES IDX 59 107
REMARK H PARENT 9 14 12 15 14 16 21 38 83 57 49 68
REMARK Flexibility Score: inf
ROOT
ATOM      1  C   UNL A   1      36.709  22.149  26.105  1.00  0.00     0.002 C 
ENDROOT
BRANCH   1   2
ATOM      2  C   UNL A   1      35.270  22.845  26.895  1.00  0.00     0.003 C 
BRANCH   2   3
ATOM      3  C   UNL A   1      34.188  22.058  27.702  1.00  0.00     0.037 C 
BRANCH   3   4
ATOM      4  C   UNL A   1      33.148  21.305  26.893  1.00  0.00     0.194 C 
BRANCH   4   5
ATOM      5  N   UNL A   1      33.226  19.871  26.814  1.00  0.00    -0.305 N 
ATOM      6  C   UNL A   1      32.670  20.665  23.581  1.00  0.00     0.032 C 
ATOM      7  C   UNL A   1      32.682  19.502  24.274  1.00  0.00     0.128 C 
ATOM      8  C   UNL A   1      32.140  18.377  23.447  1.00  0.00     0.319 C 
ATOM      9  C   UNL A   1      33.111  19.092  25.676  1.00  0.00     0.234 C 
ATOM     10  O   UNL A   1      31.422  18.516  22.461  1.00  0.00    -0.250 OA
ATOM     11  N   UNL A   1      32.529  17.139  23.845  1.00  0.00    -0.229 N 
ATOM     12  N   UNL A   1      33.377  17.829  25.927  1.00  0.00    -0.236 N 
ATOM     13  C   UNL A   1      33.223  16.855  24.983  1.00  0.00     0.295 C 
ATOM     14  H   UNL A   1      32.291  16.382  23.262  1.00  0.00     0.268 HD
ATOM     15  H   UNL A   1      33.699  17.578  26.823  1.00  0.00     0.268 HD
ATOM     16  H   UNL A   1      33.381  19.393  27.661  1.00  0.00     0.256 HD
ATOM     17  S   UNL A   1      33.771  15.279  25.168  1.00  0.00    -0.005 S 
BRANCH   6  18
ATOM     18  C   UNL A   1      32.993  22.005  23.939  1.00  0.00    -0.003 A 
ATOM     19  C   UNL A   1      35.241  24.932  23.977  1.00  0.00     0.065 C 
ATOM     20  C   UNL A   1      34.158  23.923  23.979  1.00  0.00     0.020 A 
ATOM     21  C   UNL A   1      34.244  22.590  23.652  1.00  0.00     0.031 A 
ATOM     22  N   UNL A   1      32.851  24.177  24.340  1.00  0.00    -0.318 N 
ATOM     23  C   UNL A   1      32.257  22.938  24.662  1.00  0.00     0.027 A 
ATOM     24  C   UNL A   1      30.966  22.749  25.394  1.00  0.00     0.065 C 
BRANCH  22  25
ATOM     25  C   UNL A   1      32.178  25.419  24.171  1.00  0.00     0.046 A 
ATOM     26  C   UNL A   1      31.375  25.744  22.593  1.00  0.00     0.026 A 
ATOM     27  C   UNL A   1      32.306  26.746  25.419  1.00  0.00     0.036 A 
ATOM     28  C   UNL A   1      30.670  27.348  22.275  1.00  0.00     0.003 A 
ATOM     29  C   UNL A   1      31.577  28.387  25.056  1.00  0.00    -0.001 A 
ATOM     30  C   UNL A   1      30.781  28.680  23.474  1.00  0.00     0.010 A 
BRANCH  29  31
ATOM     31  C   UNL A   1      31.561  29.546  25.954  1.00  0.00     0.072 C 
ATOM     32  O   UNL A   1      31.344  30.684  25.583  1.00  0.00    -0.545 OA
ATOM     33  O   UNL A   1      31.756  29.198  27.225  1.00  0.00    -0.545 OA
ENDBRANCH  29  31
ENDBRANCH  22  25
ENDBRANCH   6  18
ENDBRANCH   4   5
ENDBRANCH   3   4
ENDBRANCH   2   3
ENDBRANCH   1   2
BRANCH   1  34
ATOM     34  C   UNL A   1      38.882  22.467  26.204  1.00  0.00     0.021 C 
BRANCH  34  35
ATOM     35  C   UNL A   1      40.263  21.524  26.896  1.00  0.00     0.116 C 
BRANCH  35  36
ATOM     36  N   UNL A   1      41.525  21.385  26.184  1.00  0.00    -0.352 N 
ATOM     37  C   UNL A   1      42.493  22.337  25.824  1.00  0.00     0.251 C 
ATOM     38  H   UNL A   1      41.736  20.465  25.905  1.00  0.00     0.163 HD
ATOM     39  O   UNL A   1      43.222  22.000  24.886  1.00  0.00    -0.269 OA
BRANCH  37  40
ATOM     40  C   UNL A   1      42.667  23.764  26.375  1.00  0.00     0.039 A 
ATOM     41  C   UNL A   1      42.202  24.037  27.652  1.00  0.00     0.014 A 
ATOM     42  C   UNL A   1      42.859  24.933  25.595  1.00  0.00     0.014 A 
ATOM     43  C   UNL A   1      42.036  25.392  28.140  1.00  0.00     0.010 A 
ATOM     44  C   UNL A   1      42.601  26.330  26.078  1.00  0.00     0.010 A 
ATOM     45  C   UNL A   1      42.159  26.627  27.383  1.00  0.00    -0.014 A 
BRANCH  45  46
ATOM     46  C   UNL A   1      41.343  27.977  28.001  1.00  0.00     0.031 A 
ATOM     47  C   UNL A   1      42.443  28.981  27.989  1.00  0.00     0.074 A 
ATOM     48  C   UNL A   1      40.189  28.524  28.616  1.00  0.00     0.049 A 
ATOM     49  N   UNL A   1      43.549  28.697  28.614  1.00  0.00    -0.248 NA
ATOM     50  C   UNL A   1      42.553  30.051  26.995  1.00  0.00     0.031 C 
ATOM     51  C   UNL A   1      38.969  27.843  29.097  1.00  0.00     0.029 A 
ATOM     52  N   UNL A   1      39.818  29.887  28.982  1.00  0.00    -0.354 N 
ATOM     53  C   UNL A   1      44.425  29.705  28.329  1.00  0.00     0.074 A 
ATOM     54  C   UNL A   1      43.842  30.372  27.169  1.00  0.00     0.031 C 
ATOM     55  C   UNL A   1      37.997  28.721  29.509  1.00  0.00     0.029 A 
ATOM     56  C   UNL A   1      38.445  30.117  29.432  1.00  0.00     0.049 A 
ATOM     57  H   UNL A   1      40.468  30.624  28.926  1.00  0.00     0.167 HD
ATOM     58  C   UNL A   1      45.064  30.240  29.406  1.00  0.00     0.037 A 
ATOM     59  C   UNL A   1      37.757  31.292  29.812  1.00  0.00     0.037 A 
ATOM     60  C   UNL A   1      44.492  31.506  29.776  1.00  0.00     0.049 A 
ATOM     61  C   UNL A   1      38.799  32.173  30.355  1.00  0.00     0.074 A 
ATOM     62  C   UNL A   1      44.057  32.591  29.040  1.00  0.00     0.029 A 
ATOM     63  N   UNL A   1      43.828  31.556  30.984  1.00  0.00    -0.354 N 
ATOM     64  N   UNL A   1      39.320  31.965  31.524  1.00  0.00    -0.248 NA
ATOM     65  C   UNL A   1      39.201  33.410  29.692  1.00  0.00     0.031 C 
ATOM     66  C   UNL A   1      42.780  32.872  29.571  1.00  0.00     0.029 A 
ATOM     67  C   UNL A   1      42.665  32.272  30.819  1.00  0.00     0.049 A 
ATOM     68  H   UNL A   1      44.135  31.146  31.824  1.00  0.00     0.167 HD
ATOM     69  C   UNL A   1      40.438  32.733  31.507  1.00  0.00     0.074 A 
ATOM     70  C   UNL A   1      40.176  33.774  30.528  1.00  0.00     0.031 C 
ATOM     71  C   UNL A   1      41.599  32.092  31.777  1.00  0.00     0.037 A 
BRANCH  58  72
ATOM     72  C   UNL A   1      45.555  29.211  30.396  1.00  0.00     0.058 A 
ATOM     73  C   UNL A   1      46.931  29.000  30.526  1.00  0.00     0.135 A 
ATOM     74  C   UNL A   1      44.697  28.355  31.123  1.00  0.00     0.135 A 
ATOM     75  F   UNL A   1      47.798  29.801  29.886  1.00  0.00    -0.206 F 
ATOM     76  C   UNL A   1      47.435  27.963  31.309  1.00  0.00     0.059 A 
ATOM     77  C   UNL A   1      45.176  27.282  31.868  1.00  0.00     0.059 A 
ATOM     78  F   UNL A   1      43.369  28.556  31.116  1.00  0.00    -0.206 F 
ATOM     79  C   UNL A   1      46.551  27.096  31.956  1.00  0.00     0.060 A 
BRANCH  79  80
ATOM     80  S   UNL A   1      47.230  25.709  32.894  1.00  0.00     0.124 S 
ATOM     81  O   UNL A   1      48.392  25.325  32.096  1.00  0.00    -0.237 OA
ATOM     82  O   UNL A   1      47.537  26.341  34.172  1.00  0.00    -0.237 OA
ATOM     83  O   UNL A   1      46.146  24.731  32.903  1.00  0.00    -0.744 OA
ENDBRANCH  79  80
ENDBRANCH  58  72
BRANCH  59  84
ATOM     84  C   UNL A   1      36.354  32.000  30.124  1.00  0.00     0.058 A 
ATOM     85  C   UNL A   1      35.817  32.061  31.469  1.00  0.00     0.135 A 
ATOM     86  C   UNL A   1      35.764  32.964  29.287  1.00  0.00     0.135 A 
ATOM     87  F   UNL A   1      36.202  31.189  32.413  1.00  0.00    -0.206 F 
ATOM     88  C   UNL A   1      34.931  33.049  31.958  1.00  0.00     0.059 A 
ATOM     89  C   UNL A   1      34.834  33.953  29.753  1.00  0.00     0.059 A 
ATOM     90  F   UNL A   1      36.135  33.040  28.001  1.00  0.00    -0.206 F 
ATOM     91  C   UNL A   1      34.467  34.026  31.099  1.00  0.00     0.060 A 
BRANCH  91  92
ATOM     92  S   UNL A   1      33.519  35.429  31.794  1.00  0.00     0.124 S 
ATOM     93  O   UNL A   1      33.134  36.182  30.605  1.00  0.00    -0.237 OA
ATOM     94  O   UNL A   1      32.426  34.755  32.491  1.00  0.00    -0.237 OA
ATOM     95  O   UNL A   1      34.485  36.091  32.665  1.00  0.00    -0.744 OA
ENDBRANCH  91  92
ENDBRANCH  59  84
BRANCH  71  96
ATOM     96  C   UNL A   1      41.608  31.130  32.956  1.00  0.00     0.058 A 
ATOM     97  C   UNL A   1      41.961  31.415  34.298  1.00  0.00     0.135 A 
ATOM     98  C   UNL A   1      41.314  29.783  32.679  1.00  0.00     0.135 A 
ATOM     99  F   UNL A   1      42.151  32.670  34.735  1.00  0.00    -0.206 F 
ATOM    100  C   UNL A   1      42.115  30.413  35.261  1.00  0.00     0.059 A 
ATOM    101  C   UNL A   1      41.402  28.776  33.638  1.00  0.00     0.059 A 
ATOM    102  F   UNL A   1      40.931  29.426  31.443  1.00  0.00    -0.206 F 
ATOM    103  C   UNL A   1      41.850  29.092  34.917  1.00  0.00     0.060 A 
BRANCH 103 104
ATOM    104  S   UNL A   1      42.096  27.791  36.145  1.00  0.00     0.124 S 
ATOM    105  O   UNL A   1      40.784  27.729  36.782  1.00  0.00    -0.237 OA
ATOM    106  O   UNL A   1      42.450  26.636  35.326  1.00  0.00    -0.237 OA
ATOM    107  O   UNL A   1      43.165  28.318  36.986  1.00  0.00    -0.744 OA
ENDBRANCH 103 104
ENDBRANCH  71  96
ENDBRANCH  45  46
ENDBRANCH  37  40
ENDBRANCH  35  36
ENDBRANCH  34  35
ENDBRANCH   1  34
TORSDOF 18
ENDMDL
MODEL 3
REMARK VINA RESULT:     -13.9      5.493      8.736
REMARK SMILES Cc1cc(/C=C2/C(=O)NC(=S)[NH+]=C2NCCCCCCNC(=O)c2ccc(-c3c4nc(c(-c5c(F)cc(S(=O)(=O)[O-])cc5F)c5ccc([nH]5)c(-c5c(F)cc(S(=O)(=O)[O-])cc5F)c5nc(c(-c6c(F)cc(S(=O)(=O)[O-])cc6F)c6ccc3[nH]6)C=C5)C=C4)cc2)c(C)n1-c1cccc(C(=O)[O-])c1
REMARK SMILES IDX 18 1 17 2 16 3 15 4 14 5 5 6 6 7 7 8 13 9 8 10 9 11 12 12
REMARK SMILES IDX 10 13 11 17 4 18 1 19 2 20 3 21 92 22 90 23 91 24 93 25
REMARK SMILES IDX 94 26 101 27 95 28 97 29 96 30 98 31 99 32 100 33 19 34
REMARK SMILES IDX 20 35 21 36 22 37 23 39 24 40 25 41 89 42 26 43 88 44 27 45
REMARK SMILES IDX 28 46 29 47 82 48 30 49 87 50 81 51 83 52 31 53 86 54 80 55
REMARK SMILES IDX 79 56 32 58 66 59 45 60 65 61 46 62 49 63 64 64 84 65 47 66
REMARK SMILES IDX 48 67 63 69 85 70 50 71 33 72 34 73 43 74 35 75 36 76 42 77
REMARK SMILES IDX 44 78 37 79 38 80 39 81 40 82 41 83 67 84 68 85 77 86 69 87
REMARK SMILES IDX 70 88 76 89 78 90 71 91 72 92 73 93 74 94 75 95 51 96 52 97
REMARK SMILES IDX 61 98 53 99 54 100 60 101 62 102 55 103 56 104 57 105 58 106
REMARK SMILES IDX 59 107
REMARK H PARENT 9 14 12 15 14 16 21 38 83 57 49 68
REMARK Flexibility Score: inf
ROOT
ATOM      1  C   UNL A   1      43.989  34.553  34.729  1.00  0.00     0.002 C 
ENDROOT
BRANCH   1   2
ATOM      2  C   UNL A   1      42.223  34.787  34.775  1.00  0.00     0.003 C 
BRANCH   2   3
ATOM      3  C   UNL A   1      41.202  34.342  33.679  1.00  0.00     0.037 C 
BRANCH   3   4
ATOM      4  C   UNL A   1      40.654  32.930  33.792  1.00  0.00     0.194 C 
BRANCH   4   5
ATOM      5  N   UNL A   1      41.565  31.844  34.032  1.00  0.00    -0.305 N 
ATOM      6  C   UNL A   1      39.174  30.293  32.222  1.00  0.00     0.032 C 
ATOM      7  C   UNL A   1      40.244  29.862  32.931  1.00  0.00     0.128 C 
ATOM      8  C   UNL A   1      40.222  28.372  33.087  1.00  0.00     0.319 C 
ATOM      9  C   UNL A   1      41.437  30.537  33.593  1.00  0.00     0.234 C 
ATOM     10  O   UNL A   1      39.221  27.671  32.965  1.00  0.00    -0.250 OA
ATOM     11  N   UNL A   1      41.429  27.809  33.348  1.00  0.00    -0.229 N 
ATOM     12  N   UNL A   1      42.514  29.831  33.859  1.00  0.00    -0.236 N 
ATOM     13  C   UNL A   1      42.578  28.489  33.617  1.00  0.00     0.295 C 
ATOM     14  H   UNL A   1      41.478  26.825  33.342  1.00  0.00     0.268 HD
ATOM     15  H   UNL A   1      43.298  30.284  34.244  1.00  0.00     0.268 HD
ATOM     16  H   UNL A   1      42.366  32.052  34.565  1.00  0.00     0.256 HD
ATOM     17  S   UNL A   1      43.992  27.589  33.710  1.00  0.00    -0.005 S 
BRANCH   6  18
ATOM     18  C   UNL A   1      38.702  31.593  31.884  1.00  0.00    -0.003 A 
ATOM     19  C   UNL A   1      38.833  34.712  29.914  1.00  0.00     0.065 C 
ATOM     20  C   UNL A   1      38.540  33.509  30.726  1.00  0.00     0.020 A 
ATOM     21  C   UNL A   1      39.343  32.411  30.929  1.00  0.00     0.031 A 
ATOM     22  N   UNL A   1      37.380  33.312  31.445  1.00  0.00    -0.318 N 
ATOM     23  C   UNL A   1      37.652  32.330  32.420  1.00  0.00     0.027 A 
ATOM     24  C   UNL A   1      36.803  32.019  33.612  1.00  0.00     0.065 C 
BRANCH  22  25
ATOM     25  C   UNL A   1      36.099  33.822  31.092  1.00  0.00     0.046 A 
ATOM     26  C   UNL A   1      35.401  33.347  29.503  1.00  0.00     0.026 A 
ATOM     27  C   UNL A   1      35.273  35.098  32.105  1.00  0.00     0.036 A 
ATOM     28  C   UNL A   1      33.883  34.093  28.946  1.00  0.00     0.003 A 
ATOM     29  C   UNL A   1      33.717  35.852  31.499  1.00  0.00    -0.001 A 
ATOM     30  C   UNL A   1      33.045  35.356  29.910  1.00  0.00     0.010 A 
BRANCH  29  31
ATOM     31  C   UNL A   1      32.913  36.859  32.197  1.00  0.00     0.072 C 
ATOM     32  O   UNL A   1      33.245  38.022  32.318  1.00  0.00    -0.545 OA
ATOM     33  O   UNL A   1      31.755  36.362  32.632  1.00  0.00    -0.545 OA
ENDBRANCH  29  31
ENDBRANCH  22  25
ENDBRANCH   6  18
ENDBRANCH   4   5
ENDBRANCH   3   4
ENDBRANCH   2   3
ENDBRANCH   1   2
BRANCH   1  34
ATOM     34  C   UNL A   1      45.538  34.476  33.171  1.00  0.00     0.021 C 
BRANCH  34  35
ATOM     35  C   UNL A   1      46.019  35.577  31.816  1.00  0.00     0.116 C 
BRANCH  35  36
ATOM     36  N   UNL A   1      45.100  36.567  31.276  1.00  0.00    -0.352 N 
ATOM     37  C   UNL A   1      44.229  36.517  30.174  1.00  0.00     0.251 C 
ATOM     38  H   UNL A   1      45.087  37.421  31.767  1.00  0.00     0.163 HD
ATOM     39  O   UNL A   1      43.905  37.620  29.725  1.00  0.00    -0.269 OA
BRANCH  37  40
ATOM     40  C   UNL A   1      43.742  35.273  29.410  1.00  0.00     0.039 A 
ATOM     41  C   UNL A   1      43.075  34.286  30.118  1.00  0.00     0.014 A 
ATOM     42  C   UNL A   1      44.251  34.814  28.168  1.00  0.00     0.014 A 
ATOM     43  C   UNL A   1      42.851  32.962  29.573  1.00  0.00     0.010 A 
ATOM     44  C   UNL A   1      44.092  33.416  27.648  1.00  0.00     0.010 A 
ATOM     45  C   UNL A   1      43.389  32.409  28.340  1.00  0.00    -0.014 A 
BRANCH  45  46
ATOM     46  C   UNL A   1      43.486  30.720  28.247  1.00  0.00     0.031 A 
ATOM     47  C   UNL A   1      44.532  30.456  29.273  1.00  0.00     0.074 A 
ATOM     48  C   UNL A   1      43.139  29.517  27.581  1.00  0.00     0.049 A 
ATOM     49  N   UNL A   1      45.680  31.061  29.158  1.00  0.00    -0.248 NA
ATOM     50  C   UNL A   1      44.245  29.928  30.608  1.00  0.00     0.031 C 
ATOM     51  C   UNL A   1      42.372  29.322  26.334  1.00  0.00     0.029 A 
ATOM     52  N   UNL A   1      43.413  28.114  27.874  1.00  0.00    -0.354 N 
ATOM     53  C   UNL A   1      46.390  30.761  30.285  1.00  0.00     0.074 A 
ATOM     54  C   UNL A   1      45.388  30.261  31.221  1.00  0.00     0.031 C 
ATOM     55  C   UNL A   1      42.113  27.999  26.070  1.00  0.00     0.029 A 
ATOM     56  C   UNL A   1      42.727  27.108  27.062  1.00  0.00     0.049 A 
ATOM     57  H   UNL A   1      44.035  27.855  28.591  1.00  0.00     0.167 HD
ATOM     58  C   UNL A   1      47.665  30.333  30.069  1.00  0.00     0.037 A 
ATOM     59  C   UNL A   1      42.728  25.695  27.105  1.00  0.00     0.037 A 
ATOM     60  C   UNL A   1      47.769  28.906  30.219  1.00  0.00     0.049 A 
ATOM     61  C   UNL A   1      44.050  25.341  27.638  1.00  0.00     0.074 A 
ATOM     62  C   UNL A   1      47.240  28.018  31.134  1.00  0.00     0.029 A 
ATOM     63  N   UNL A   1      48.041  28.183  29.077  1.00  0.00    -0.354 N 
ATOM     64  N   UNL A   1      45.120  25.433  26.912  1.00  0.00    -0.248 NA
ATOM     65  C   UNL A   1      44.226  24.727  28.951  1.00  0.00     0.031 C 
ATOM     66  C   UNL A   1      46.687  26.994  30.334  1.00  0.00     0.029 A 
ATOM     67  C   UNL A   1      47.241  27.064  29.062  1.00  0.00     0.049 A 
ATOM     68  H   UNL A   1      48.699  28.427  28.387  1.00  0.00     0.167 HD
ATOM     69  C   UNL A   1      46.122  25.372  27.824  1.00  0.00     0.074 A 
ATOM     70  C   UNL A   1      45.560  24.676  28.969  1.00  0.00     0.031 C 
ATOM     71  C   UNL A   1      47.004  26.398  27.802  1.00  0.00     0.037 A 
BRANCH  58  72
ATOM     72  C   UNL A   1      48.408  31.130  29.025  1.00  0.00     0.058 A 
ATOM     73  C   UNL A   1      49.430  31.992  29.432  1.00  0.00     0.135 A 
ATOM     74  C   UNL A   1      48.051  31.150  27.657  1.00  0.00     0.135 A 
ATOM     75  F   UNL A   1      49.837  31.997  30.712  1.00  0.00    -0.206 F 
ATOM     76  C   UNL A   1      50.046  32.863  28.535  1.00  0.00     0.059 A 
ATOM     77  C   UNL A   1      48.615  32.046  26.755  1.00  0.00     0.059 A 
ATOM     78  F   UNL A   1      47.140  30.286  27.179  1.00  0.00    -0.206 F 
ATOM     79  C   UNL A   1      49.617  32.900  27.205  1.00  0.00     0.060 A 
BRANCH  79  80
ATOM     80  S   UNL A   1      50.372  34.097  26.084  1.00  0.00     0.124 S 
ATOM     81  O   UNL A   1      51.510  33.355  25.547  1.00  0.00    -0.237 OA
ATOM     82  O   UNL A   1      49.288  34.338  25.138  1.00  0.00    -0.237 OA
ATOM     83  O   UNL A   1      50.728  35.213  26.954  1.00  0.00    -0.744 OA
ENDBRANCH  79  80
ENDBRANCH  58  72
BRANCH  59  84
ATOM     84  C   UNL A   1      42.045  24.324  26.634  1.00  0.00     0.058 A 
ATOM     85  C   UNL A   1      42.617  23.516  25.576  1.00  0.00     0.135 A 
ATOM     86  C   UNL A   1      41.161  23.579  27.434  1.00  0.00     0.135 A 
ATOM     87  F   UNL A   1      43.443  24.048  24.663  1.00  0.00    -0.206 F 
ATOM     88  C   UNL A   1      42.456  22.119  25.428  1.00  0.00     0.059 A 
ATOM     89  C   UNL A   1      40.953  22.167  27.279  1.00  0.00     0.059 A 
ATOM     90  F   UNL A   1      40.530  24.175  28.456  1.00  0.00    -0.206 F 
ATOM     91  C   UNL A   1      41.646  21.434  26.313  1.00  0.00     0.060 A 
BRANCH  91  92
ATOM     92  S   UNL A   1      41.636  19.605  26.259  1.00  0.00     0.124 S 
ATOM     93  O   UNL A   1      42.596  19.305  25.203  1.00  0.00    -0.237 OA
ATOM     94  O   UNL A   1      42.060  19.249  27.612  1.00  0.00    -0.237 OA
ATOM     95  O   UNL A   1      40.246  19.283  25.949  1.00  0.00    -0.744 OA
ENDBRANCH  91  92
ENDBRANCH  59  84
BRANCH  71  96
ATOM     96  C   UNL A   1      47.522  26.845  26.442  1.00  0.00     0.058 A 
ATOM     97  C   UNL A   1      46.869  27.683  25.505  1.00  0.00     0.135 A 
ATOM     98  C   UNL A   1      48.752  26.308  26.023  1.00  0.00     0.135 A 
ATOM     99  F   UNL A   1      45.751  28.359  25.809  1.00  0.00    -0.206 F 
ATOM    100  C   UNL A   1      47.355  27.875  24.208  1.00  0.00     0.059 A 
ATOM    101  C   UNL A   1      49.284  26.535  24.756  1.00  0.00     0.059 A 
ATOM    102  F   UNL A   1      49.461  25.534  26.860  1.00  0.00    -0.206 F 
ATOM    103  C   UNL A   1      48.557  27.283  23.836  1.00  0.00     0.060 A 
BRANCH 103 104
ATOM    104  S   UNL A   1      49.160  27.490  22.146  1.00  0.00     0.124 S 
ATOM    105  O   UNL A   1      48.413  28.665  21.704  1.00  0.00    -0.237 OA
ATOM    106  O   UNL A   1      50.592  27.694  22.337  1.00  0.00    -0.237 OA
ATOM    107  O   UNL A   1      48.783  26.240  21.497  1.00  0.00    -0.744 OA
ENDBRANCH 103 104
ENDBRANCH  71  96
ENDBRANCH  45  46
ENDBRANCH  37  40
ENDBRANCH  35  36
ENDBRANCH  34  35
ENDBRANCH   1  34
TORSDOF 18
ENDMDL
