MODEL 1
REMARK VINA RESULT:     -10.9      0.000      0.000
REMARK SMILES O=C(CNC(=O)c1cccs1)N[C@@H]1C=C[C@H](C(=O)NCCCCCCNC(=O)c2ccc(-c3c4nc(c(-c5c(F)cc(S(=O)(=O)[O-])cc5F)c5ccc([nH]5)c(-c5c(F)cc(S(=O)(=O)[O-])cc5F)c5nc(c(-c6c(F)cc(S(=O)(=O)[O-])cc6F)c6ccc3[nH]6)C=C5)C=C4)cc2)C1
REMARK SMILES IDX 22 1 21 2 20 3 19 4 17 5 18 6 16 8 13 9 14 10 95 11 15 12
REMARK SMILES IDX 12 13 1 14 2 15 3 17 4 18 5 19 6 21 7 22 8 23 11 24 9 25
REMARK SMILES IDX 10 26 23 27 24 28 25 29 26 30 27 31 28 33 29 34 30 35 94 36
REMARK SMILES IDX 31 37 93 38 32 39 33 40 34 41 87 42 35 43 92 44 86 45 88 46
REMARK SMILES IDX 36 47 91 48 85 49 84 50 37 52 71 53 50 54 70 55 51 56 54 57
REMARK SMILES IDX 69 58 89 59 52 60 53 61 68 63 90 64 55 65 38 66 39 67 48 68
REMARK SMILES IDX 40 69 41 70 47 71 49 72 42 73 43 74 44 75 45 76 46 77 72 78
REMARK SMILES IDX 73 79 82 80 74 81 75 82 81 83 83 84 76 85 77 86 78 87 79 88
REMARK SMILES IDX 80 89 56 90 57 91 66 92 58 93 59 94 65 95 67 96 60 97 61 98
REMARK SMILES IDX 62 99 63 100 64 101
REMARK H PARENT 19 7 12 16 4 20 26 32 88 51 54 62
REMARK Flexibility Score: inf
ROOT
ATOM      1  C   UNL A   1      42.426  21.782  27.677  1.00  0.00     0.002 C 
ENDROOT
BRANCH   1   2
ATOM      2  C   UNL A   1      40.909  21.963  27.802  1.00  0.00     0.021 C 
BRANCH   2   3
ATOM      3  C   UNL A   1      40.205  22.184  26.464  1.00  0.00     0.116 C 
BRANCH   3   4
ATOM      4  N   UNL A   1      39.065  23.067  26.615  1.00  0.00    -0.356 N 
ATOM      5  C   UNL A   1      37.908  23.216  25.924  1.00  0.00     0.227 C 
ATOM      6  O   UNL A   1      37.198  24.176  26.250  1.00  0.00    -0.274 OA
ATOM      7  H   UNL A   1      39.147  23.685  27.377  1.00  0.00     0.163 HD
BRANCH   5   8
ATOM      8  C   UNL A   1      37.392  22.242  24.851  1.00  0.00     0.103 C 
ATOM      9  C   UNL A   1      35.147  22.573  23.874  1.00  0.00     0.106 C 
ATOM     10  C   UNL A   1      35.217  21.361  24.734  1.00  0.00    -0.006 C 
ATOM     11  C   UNL A   1      36.611  23.025  23.777  1.00  0.00     0.047 C 
ATOM     12  C   UNL A   1      36.448  21.147  25.213  1.00  0.00    -0.016 C 
BRANCH   9  13
ATOM     13  N   UNL A   1      34.298  23.574  24.479  1.00  0.00    -0.348 N 
ATOM     14  O   UNL A   1      33.876  24.612  22.479  1.00  0.00    -0.273 OA
ATOM     15  C   UNL A   1      33.731  24.564  23.700  1.00  0.00     0.239 C 
ATOM     16  H   UNL A   1      34.124  23.550  25.447  1.00  0.00     0.164 HD
BRANCH  15  17
ATOM     17  C   UNL A   1      33.121  25.744  24.459  1.00  0.00     0.216 C 
BRANCH  17  18
ATOM     18  N   UNL A   1      31.841  25.469  25.088  1.00  0.00    -0.342 N 
ATOM     19  C   UNL A   1      31.044  26.290  25.848  1.00  0.00     0.261 C 
ATOM     20  H   UNL A   1      31.492  24.559  24.949  1.00  0.00     0.164 HD
ATOM     21  O   UNL A   1      30.029  25.782  26.333  1.00  0.00    -0.268 OA
BRANCH  19  22
ATOM     22  C   UNL A   1      31.439  27.666  26.080  1.00  0.00     0.092 A 
ATOM     23  C   UNL A   1      31.917  28.289  27.221  1.00  0.00     0.025 A 
ATOM     24  S   UNL A   1      31.369  28.764  24.762  1.00  0.00    -0.139 S 
ATOM     25  C   UNL A   1      32.139  29.685  27.029  1.00  0.00     0.012 A 
ATOM     26  C   UNL A   1      31.878  30.073  25.734  1.00  0.00     0.065 A 
ENDBRANCH  19  22
ENDBRANCH  17  18
ENDBRANCH  15  17
ENDBRANCH   9  13
ENDBRANCH   5   8
ENDBRANCH   3   4
ENDBRANCH   2   3
ENDBRANCH   1   2
BRANCH   1  27
ATOM     27  C   UNL A   1      43.262  22.767  28.504  1.00  0.00     0.002 C 
BRANCH  27  28
ATOM     28  C   UNL A   1      44.626  23.120  27.904  1.00  0.00     0.021 C 
BRANCH  28  29
ATOM     29  C   UNL A   1      44.723  24.541  27.359  1.00  0.00     0.116 C 
BRANCH  29  30
ATOM     30  N   UNL A   1      43.870  24.733  26.196  1.00  0.00    -0.352 N 
ATOM     31  C   UNL A   1      42.710  25.456  26.084  1.00  0.00     0.251 C 
ATOM     32  H   UNL A   1      44.169  24.282  25.374  1.00  0.00     0.163 HD
ATOM     33  O   UNL A   1      42.000  25.331  25.091  1.00  0.00    -0.269 OA
BRANCH  31  34
ATOM     34  C   UNL A   1      42.314  26.373  27.173  1.00  0.00     0.039 A 
ATOM     35  C   UNL A   1      41.369  25.948  28.110  1.00  0.00     0.014 A 
ATOM     36  C   UNL A   1      42.876  27.650  27.268  1.00  0.00     0.014 A 
ATOM     37  C   UNL A   1      41.031  26.785  29.176  1.00  0.00     0.010 A 
ATOM     38  C   UNL A   1      42.594  28.450  28.371  1.00  0.00     0.010 A 
ATOM     39  C   UNL A   1      41.666  28.028  29.334  1.00  0.00    -0.014 A 
BRANCH  39  40
ATOM     40  C   UNL A   1      41.376  28.898  30.504  1.00  0.00     0.031 A 
ATOM     41  C   UNL A   1      42.187  28.764  31.764  1.00  0.00     0.074 A 
ATOM     42  C   UNL A   1      40.341  29.760  30.450  1.00  0.00     0.049 A 
ATOM     43  N   UNL A   1      42.042  29.382  32.907  1.00  0.00    -0.248 NA
ATOM     44  C   UNL A   1      43.289  27.788  31.746  1.00  0.00     0.031 C 
ATOM     45  C   UNL A   1      39.453  29.945  29.300  1.00  0.00     0.029 A 
ATOM     46  N   UNL A   1      39.853  30.636  31.388  1.00  0.00    -0.354 N 
ATOM     47  C   UNL A   1      43.022  28.864  33.747  1.00  0.00     0.074 A 
ATOM     48  C   UNL A   1      43.719  27.841  32.998  1.00  0.00     0.031 C 
ATOM     49  C   UNL A   1      38.546  30.891  29.593  1.00  0.00     0.029 A 
ATOM     50  C   UNL A   1      38.757  31.348  30.962  1.00  0.00     0.049 A 
ATOM     51  H   UNL A   1      40.251  30.744  32.282  1.00  0.00     0.167 HD
ATOM     52  C   UNL A   1      43.329  29.225  35.016  1.00  0.00     0.037 A 
ATOM     53  C   UNL A   1      38.001  32.260  31.605  1.00  0.00     0.037 A 
ATOM     54  C   UNL A   1      42.640  30.259  35.745  1.00  0.00     0.049 A 
ATOM     55  C   UNL A   1      38.355  32.638  33.018  1.00  0.00     0.074 A 
ATOM     56  C   UNL A   1      42.908  30.737  37.016  1.00  0.00     0.029 A 
ATOM     57  N   UNL A   1      41.547  30.971  35.273  1.00  0.00    -0.354 N 
ATOM     58  N   UNL A   1      39.325  32.182  33.774  1.00  0.00    -0.248 NA
ATOM     59  C   UNL A   1      37.517  33.656  33.664  1.00  0.00     0.031 C 
ATOM     60  C   UNL A   1      41.944  31.700  37.333  1.00  0.00     0.029 A 
ATOM     61  C   UNL A   1      41.114  31.868  36.235  1.00  0.00     0.049 A 
ATOM     62  H   UNL A   1      41.139  30.856  34.384  1.00  0.00     0.167 HD
ATOM     63  C   UNL A   1      39.236  32.884  34.972  1.00  0.00     0.074 A 
ATOM     64  C   UNL A   1      38.121  33.799  34.837  1.00  0.00     0.031 C 
ATOM     65  C   UNL A   1      40.009  32.782  36.081  1.00  0.00     0.037 A 
BRANCH  52  66
ATOM     66  C   UNL A   1      44.457  28.498  35.698  1.00  0.00     0.058 A 
ATOM     67  C   UNL A   1      45.764  29.012  35.715  1.00  0.00     0.135 A 
ATOM     68  C   UNL A   1      44.222  27.294  36.380  1.00  0.00     0.135 A 
ATOM     69  F   UNL A   1      46.051  30.153  35.068  1.00  0.00    -0.206 F 
ATOM     70  C   UNL A   1      46.802  28.343  36.356  1.00  0.00     0.059 A 
ATOM     71  C   UNL A   1      45.239  26.622  37.055  1.00  0.00     0.059 A 
ATOM     72  F   UNL A   1      42.992  26.755  36.398  1.00  0.00    -0.206 F 
ATOM     73  C   UNL A   1      46.528  27.148  37.024  1.00  0.00     0.060 A 
BRANCH  73  74
ATOM     74  S   UNL A   1      47.886  26.298  37.856  1.00  0.00     0.124 S 
ATOM     75  O   UNL A   1      48.365  27.335  38.765  1.00  0.00    -0.237 OA
ATOM     76  O   UNL A   1      47.206  25.169  38.485  1.00  0.00    -0.237 OA
ATOM     77  O   UNL A   1      48.792  25.952  36.766  1.00  0.00    -0.744 OA
ENDBRANCH  73  74
ENDBRANCH  52  66
BRANCH  53  78
ATOM     78  C   UNL A   1      36.847  32.892  30.909  1.00  0.00     0.058 A 
ATOM     79  C   UNL A   1      35.535  32.450  31.137  1.00  0.00     0.135 A 
ATOM     80  C   UNL A   1      37.031  33.958  30.016  1.00  0.00     0.135 A 
ATOM     81  F   UNL A   1      35.307  31.431  31.979  1.00  0.00    -0.206 F 
ATOM     82  C   UNL A   1      34.448  33.028  30.488  1.00  0.00     0.059 A 
ATOM     83  C   UNL A   1      35.957  34.571  29.376  1.00  0.00     0.059 A 
ATOM     84  F   UNL A   1      38.263  34.432  29.775  1.00  0.00    -0.206 F 
ATOM     85  C   UNL A   1      34.670  34.091  29.612  1.00  0.00     0.060 A 
BRANCH  85  86
ATOM     86  S   UNL A   1      33.247  34.861  28.807  1.00  0.00     0.124 S 
ATOM     87  O   UNL A   1      32.397  35.173  29.949  1.00  0.00    -0.237 OA
ATOM     88  O   UNL A   1      33.858  36.002  28.133  1.00  0.00    -0.237 OA
ATOM     89  O   UNL A   1      32.754  33.810  27.921  1.00  0.00    -0.744 OA
ENDBRANCH  85  86
ENDBRANCH  53  78
BRANCH  65  90
ATOM     90  C   UNL A   1      39.712  33.714  37.225  1.00  0.00     0.058 A 
ATOM     91  C   UNL A   1      38.825  33.367  38.255  1.00  0.00     0.135 A 
ATOM     92  C   UNL A   1      40.376  34.949  37.320  1.00  0.00     0.135 A 
ATOM     93  F   UNL A   1      38.160  32.202  38.210  1.00  0.00    -0.206 F 
ATOM     94  C   UNL A   1      38.591  34.220  39.329  1.00  0.00     0.059 A 
ATOM     95  C   UNL A   1      40.180  35.804  38.400  1.00  0.00     0.059 A 
ATOM     96  F   UNL A   1      41.243  35.325  36.367  1.00  0.00    -0.206 F 
ATOM     97  C   UNL A   1      39.276  35.435  39.394  1.00  0.00     0.060 A 
BRANCH  97  98
ATOM     98  S   UNL A   1      38.993  36.512  40.815  1.00  0.00     0.124 S 
ATOM     99  O   UNL A   1      38.000  35.752  41.567  1.00  0.00    -0.237 OA
ATOM    100  O   UNL A   1      40.320  36.591  41.416  1.00  0.00    -0.237 OA
ATOM    101  O   UNL A   1      38.510  37.751  40.212  1.00  0.00    -0.744 OA
ENDBRANCH  97  98
ENDBRANCH  65  90
ENDBRANCH  39  40
ENDBRANCH  31  34
ENDBRANCH  29  30
ENDBRANCH  28  29
ENDBRANCH  27  28
ENDBRANCH   1  27
TORSDOF 20
ENDMDL
MODEL 2
REMARK VINA RESULT:     -10.8      1.298      8.356
REMARK SMILES O=C(CNC(=O)c1cccs1)N[C@@H]1C=C[C@H](C(=O)NCCCCCCNC(=O)c2ccc(-c3c4nc(c(-c5c(F)cc(S(=O)(=O)[O-])cc5F)c5ccc([nH]5)c(-c5c(F)cc(S(=O)(=O)[O-])cc5F)c5nc(c(-c6c(F)cc(S(=O)(=O)[O-])cc6F)c6ccc3[nH]6)C=C5)C=C4)cc2)C1
REMARK SMILES IDX 22 1 21 2 20 3 19 4 17 5 18 6 16 8 13 9 14 10 95 11 15 12
REMARK SMILES IDX 12 13 1 14 2 15 3 17 4 18 5 19 6 21 7 22 8 23 11 24 9 25
REMARK SMILES IDX 10 26 23 27 24 28 25 29 26 30 27 31 28 33 29 34 30 35 94 36
REMARK SMILES IDX 31 37 93 38 32 39 33 40 34 41 87 42 35 43 92 44 86 45 88 46
REMARK SMILES IDX 36 47 91 48 85 49 84 50 37 52 71 53 50 54 70 55 51 56 54 57
REMARK SMILES IDX 69 58 89 59 52 60 53 61 68 63 90 64 55 65 38 66 39 67 48 68
REMARK SMILES IDX 40 69 41 70 47 71 49 72 42 73 43 74 44 75 45 76 46 77 72 78
REMARK SMILES IDX 73 79 82 80 74 81 75 82 81 83 83 84 76 85 77 86 78 87 79 88
REMARK SMILES IDX 80 89 56 90 57 91 66 92 58 93 59 94 65 95 67 96 60 97 61 98
REMARK SMILES IDX 62 99 63 100 64 101
REMARK H PARENT 19 7 12 16 4 20 26 32 88 51 54 62
REMARK Flexibility Score: inf
ROOT
ATOM      1  C   UNL A   1      38.748  22.689  26.494  1.00  0.00     0.002 C 
ENDROOT
BRANCH   1   2
ATOM      2  C   UNL A   1      37.852  22.289  25.317  1.00  0.00     0.021 C 
BRANCH   2   3
ATOM      3  C   UNL A   1      36.714  21.346  25.705  1.00  0.00     0.116 C 
BRANCH   3   4
ATOM      4  N   UNL A   1      35.554  22.091  26.160  1.00  0.00    -0.356 N 
ATOM      5  C   UNL A   1      34.392  22.453  25.564  1.00  0.00     0.227 C 
ATOM      6  O   UNL A   1      33.662  23.216  26.211  1.00  0.00    -0.274 OA
ATOM      7  H   UNL A   1      35.626  22.395  27.093  1.00  0.00     0.163 HD
BRANCH   5   8
ATOM      8  C   UNL A   1      33.894  21.921  24.209  1.00  0.00     0.103 C 
ATOM      9  C   UNL A   1      33.186  23.510  22.454  1.00  0.00     0.106 C 
ATOM     10  C   UNL A   1      32.043  22.740  23.015  1.00  0.00    -0.006 C 
ATOM     11  C   UNL A   1      34.413  22.828  23.076  1.00  0.00     0.047 C 
ATOM     12  C   UNL A   1      32.433  21.836  23.921  1.00  0.00    -0.016 C 
BRANCH   9  13
ATOM     13  N   UNL A   1      33.083  24.905  22.820  1.00  0.00    -0.348 N 
ATOM     14  O   UNL A   1      33.215  25.618  20.645  1.00  0.00    -0.273 OA
ATOM     15  C   UNL A   1      33.133  25.882  21.845  1.00  0.00     0.239 C 
ATOM     16  H   UNL A   1      32.979  25.158  23.765  1.00  0.00     0.164 HD
BRANCH  15  17
ATOM     17  C   UNL A   1      33.336  27.313  22.343  1.00  0.00     0.216 C 
BRANCH  17  18
ATOM     18  N   UNL A   1      32.200  28.196  22.146  1.00  0.00    -0.342 N 
ATOM     19  C   UNL A   1      31.120  28.429  22.961  1.00  0.00     0.261 C 
ATOM     20  H   UNL A   1      32.205  28.704  21.303  1.00  0.00     0.164 HD
ATOM     21  O   UNL A   1      30.246  29.180  22.521  1.00  0.00    -0.268 OA
BRANCH  19  22
ATOM     22  C   UNL A   1      31.032  27.769  24.250  1.00  0.00     0.092 A 
ATOM     23  C   UNL A   1      31.572  28.111  25.479  1.00  0.00     0.025 A 
ATOM     24  S   UNL A   1      30.087  26.340  24.368  1.00  0.00    -0.139 S 
ATOM     25  C   UNL A   1      31.280  27.149  26.491  1.00  0.00     0.012 A 
ATOM     26  C   UNL A   1      30.479  26.134  26.018  1.00  0.00     0.065 A 
ENDBRANCH  19  22
ENDBRANCH  17  18
ENDBRANCH  15  17
ENDBRANCH   9  13
ENDBRANCH   5   8
ENDBRANCH   3   4
ENDBRANCH   2   3
ENDBRANCH   1   2
BRANCH   1  27
ATOM     27  C   UNL A   1      40.128  22.021  26.509  1.00  0.00     0.002 C 
BRANCH  27  28
ATOM     28  C   UNL A   1      41.017  22.399  27.698  1.00  0.00     0.021 C 
BRANCH  28  29
ATOM     29  C   UNL A   1      42.233  23.243  27.330  1.00  0.00     0.116 C 
BRANCH  29  30
ATOM     30  N   UNL A   1      41.973  24.089  26.176  1.00  0.00    -0.352 N 
ATOM     31  C   UNL A   1      41.472  25.366  26.134  1.00  0.00     0.251 C 
ATOM     32  H   UNL A   1      42.187  23.691  25.302  1.00  0.00     0.163 HD
ATOM     33  O   UNL A   1      41.109  25.850  25.067  1.00  0.00    -0.269 OA
BRANCH  31  34
ATOM     34  C   UNL A   1      41.361  26.147  27.384  1.00  0.00     0.039 A 
ATOM     35  C   UNL A   1      42.335  27.104  27.677  1.00  0.00     0.014 A 
ATOM     36  C   UNL A   1      40.296  25.933  28.264  1.00  0.00     0.014 A 
ATOM     37  C   UNL A   1      42.209  27.888  28.825  1.00  0.00     0.010 A 
ATOM     38  C   UNL A   1      40.132  26.766  29.367  1.00  0.00     0.010 A 
ATOM     39  C   UNL A   1      41.089  27.748  29.662  1.00  0.00    -0.014 A 
BRANCH  39  40
ATOM     40  C   UNL A   1      40.897  28.626  30.846  1.00  0.00     0.031 A 
ATOM     41  C   UNL A   1      39.833  29.689  30.835  1.00  0.00     0.074 A 
ATOM     42  C   UNL A   1      41.726  28.506  31.902  1.00  0.00     0.049 A 
ATOM     43  N   UNL A   1      39.559  30.592  31.740  1.00  0.00    -0.248 NA
ATOM     44  C   UNL A   1      38.980  29.764  29.637  1.00  0.00     0.031 C 
ATOM     45  C   UNL A   1      42.826  27.545  32.009  1.00  0.00     0.029 A 
ATOM     46  N   UNL A   1      41.781  29.203  33.084  1.00  0.00    -0.354 N 
ATOM     47  C   UNL A   1      38.515  31.349  31.220  1.00  0.00     0.074 A 
ATOM     48  C   UNL A   1      38.242  30.834  29.895  1.00  0.00     0.031 C 
ATOM     49  C   UNL A   1      43.430  27.698  33.199  1.00  0.00     0.029 A 
ATOM     50  C   UNL A   1      42.792  28.794  33.921  1.00  0.00     0.049 A 
ATOM     51  H   UNL A   1      41.155  29.929  33.310  1.00  0.00     0.167 HD
ATOM     52  C   UNL A   1      37.831  32.363  31.801  1.00  0.00     0.037 A 
ATOM     53  C   UNL A   1      43.170  29.256  35.129  1.00  0.00     0.037 A 
ATOM     54  C   UNL A   1      38.099  32.854  33.129  1.00  0.00     0.049 A 
ATOM     55  C   UNL A   1      42.401  30.390  35.752  1.00  0.00     0.074 A 
ATOM     56  C   UNL A   1      37.429  33.841  33.830  1.00  0.00     0.029 A 
ATOM     57  N   UNL A   1      39.119  32.401  33.953  1.00  0.00    -0.354 N 
ATOM     58  N   UNL A   1      41.375  31.051  35.270  1.00  0.00    -0.248 NA
ATOM     59  C   UNL A   1      42.834  30.837  37.082  1.00  0.00     0.031 C 
ATOM     60  C   UNL A   1      38.076  34.022  35.057  1.00  0.00     0.029 A 
ATOM     61  C   UNL A   1      39.111  33.104  35.146  1.00  0.00     0.049 A 
ATOM     62  H   UNL A   1      39.755  31.685  33.724  1.00  0.00     0.167 HD
ATOM     63  C   UNL A   1      41.019  31.969  36.254  1.00  0.00     0.074 A 
ATOM     64  C   UNL A   1      41.935  31.772  37.359  1.00  0.00     0.031 C 
ATOM     65  C   UNL A   1      40.023  32.889  36.243  1.00  0.00     0.037 A 
BRANCH  52  66
ATOM     66  C   UNL A   1      36.727  33.010  31.008  1.00  0.00     0.058 A 
ATOM     67  C   UNL A   1      35.373  32.747  31.276  1.00  0.00     0.135 A 
ATOM     68  C   UNL A   1      37.023  33.935  29.995  1.00  0.00     0.135 A 
ATOM     69  F   UNL A   1      35.030  31.861  32.225  1.00  0.00    -0.206 F 
ATOM     70  C   UNL A   1      34.355  33.355  30.548  1.00  0.00     0.059 A 
ATOM     71  C   UNL A   1      36.020  34.579  29.274  1.00  0.00     0.059 A 
ATOM     72  F   UNL A   1      38.299  34.225  29.695  1.00  0.00    -0.206 F 
ATOM     73  C   UNL A   1      34.690  34.270  29.549  1.00  0.00     0.060 A 
BRANCH  73  74
ATOM     74  S   UNL A   1      33.356  35.055  28.619  1.00  0.00     0.124 S 
ATOM     75  O   UNL A   1      32.754  33.906  27.948  1.00  0.00    -0.237 OA
ATOM     76  O   UNL A   1      32.554  35.661  29.678  1.00  0.00    -0.237 OA
ATOM     77  O   UNL A   1      34.054  35.994  27.748  1.00  0.00    -0.744 OA
ENDBRANCH  73  74
ENDBRANCH  52  66
BRANCH  53  78
ATOM     78  C   UNL A   1      44.320  28.630  35.838  1.00  0.00     0.058 A 
ATOM     79  C   UNL A   1      44.142  27.496  36.644  1.00  0.00     0.135 A 
ATOM     80  C   UNL A   1      45.620  29.144  35.711  1.00  0.00     0.135 A 
ATOM     81  F   UNL A   1      42.918  26.970  36.801  1.00  0.00    -0.206 F 
ATOM     82  C   UNL A   1      45.207  26.906  37.318  1.00  0.00     0.059 A 
ATOM     83  C   UNL A   1      46.705  28.554  36.352  1.00  0.00     0.059 A 
ATOM     84  F   UNL A   1      45.848  30.217  34.938  1.00  0.00    -0.206 F 
ATOM     85  C   UNL A   1      46.486  27.441  37.162  1.00  0.00     0.060 A 
BRANCH  85  86
ATOM     86  S   UNL A   1      47.868  26.641  38.007  1.00  0.00     0.124 S 
ATOM     87  O   UNL A   1      47.389  26.605  39.384  1.00  0.00    -0.237 OA
ATOM     88  O   UNL A   1      47.943  25.355  37.321  1.00  0.00    -0.237 OA
ATOM     89  O   UNL A   1      48.986  27.546  37.752  1.00  0.00    -0.744 OA
ENDBRANCH  85  86
ENDBRANCH  53  78
BRANCH  65  90
ATOM     90  C   UNL A   1      39.833  33.724  37.481  1.00  0.00     0.058 A 
ATOM     91  C   UNL A   1      40.515  34.935  37.671  1.00  0.00     0.135 A 
ATOM     92  C   UNL A   1      38.905  33.333  38.461  1.00  0.00     0.135 A 
ATOM     93  F   UNL A   1      41.417  35.352  36.768  1.00  0.00    -0.206 F 
ATOM     94  C   UNL A   1      40.300  35.719  38.800  1.00  0.00     0.059 A 
ATOM     95  C   UNL A   1      38.652  34.116  39.582  1.00  0.00     0.059 A 
ATOM     96  F   UNL A   1      38.218  32.188  38.323  1.00  0.00    -0.206 F 
ATOM     97  C   UNL A   1      39.364  35.303  39.748  1.00  0.00     0.060 A 
BRANCH  97  98
ATOM     98  S   UNL A   1      39.065  36.352  41.187  1.00  0.00     0.124 S 
ATOM     99  O   UNL A   1      40.371  36.337  41.838  1.00  0.00    -0.237 OA
ATOM    100  O   UNL A   1      38.677  37.618  40.574  1.00  0.00    -0.237 OA
ATOM    101  O   UNL A   1      37.999  35.656  41.901  1.00  0.00    -0.744 OA
ENDBRANCH  97  98
ENDBRANCH  65  90
ENDBRANCH  39  40
ENDBRANCH  31  34
ENDBRANCH  29  30
ENDBRANCH  28  29
ENDBRANCH  27  28
ENDBRANCH   1  27
TORSDOF 20
ENDMDL
MODEL 3
REMARK VINA RESULT:     -10.7      1.811      3.403
REMARK SMILES O=C(CNC(=O)c1cccs1)N[C@@H]1C=C[C@H](C(=O)NCCCCCCNC(=O)c2ccc(-c3c4nc(c(-c5c(F)cc(S(=O)(=O)[O-])cc5F)c5ccc([nH]5)c(-c5c(F)cc(S(=O)(=O)[O-])cc5F)c5nc(c(-c6c(F)cc(S(=O)(=O)[O-])cc6F)c6ccc3[nH]6)C=C5)C=C4)cc2)C1
REMARK SMILES IDX 22 1 21 2 20 3 19 4 17 5 18 6 16 8 13 9 14 10 95 11 15 12
REMARK SMILES IDX 12 13 1 14 2 15 3 17 4 18 5 19 6 21 7 22 8 23 11 24 9 25
REMARK SMILES IDX 10 26 23 27 24 28 25 29 26 30 27 31 28 33 29 34 30 35 94 36
REMARK SMILES IDX 31 37 93 38 32 39 33 40 34 41 87 42 35 43 92 44 86 45 88 46
REMARK SMILES IDX 36 47 91 48 85 49 84 50 37 52 71 53 50 54 70 55 51 56 54 57
REMARK SMILES IDX 69 58 89 59 52 60 53 61 68 63 90 64 55 65 38 66 39 67 48 68
REMARK SMILES IDX 40 69 41 70 47 71 49 72 42 73 43 74 44 75 45 76 46 77 72 78
REMARK SMILES IDX 73 79 82 80 74 81 75 82 81 83 83 84 76 85 77 86 78 87 79 88
REMARK SMILES IDX 80 89 56 90 57 91 66 92 58 93 59 94 65 95 67 96 60 97 61 98
REMARK SMILES IDX 62 99 63 100 64 101
REMARK H PARENT 19 7 12 16 4 20 26 32 88 51 54 62
REMARK Flexibility Score: inf
ROOT
ATOM      1  C   UNL A   1      36.326  22.524  25.652  1.00  0.00     0.002 C 
ENDROOT
BRANCH   1   2
ATOM      2  C   UNL A   1      35.704  22.093  24.319  1.00  0.00     0.021 C 
BRANCH   2   3
ATOM      3  C   UNL A   1      34.742  23.124  23.729  1.00  0.00     0.116 C 
BRANCH   3   4
ATOM      4  N   UNL A   1      33.371  22.822  24.091  1.00  0.00    -0.356 N 
ATOM      5  C   UNL A   1      32.565  23.233  25.102  1.00  0.00     0.227 C 
ATOM      6  O   UNL A   1      31.469  22.663  25.191  1.00  0.00    -0.274 OA
ATOM      7  H   UNL A   1      32.934  22.189  23.477  1.00  0.00     0.163 HD
BRANCH   5   8
ATOM      8  C   UNL A   1      32.880  24.391  26.063  1.00  0.00     0.103 C 
ATOM      9  C   UNL A   1      32.031  26.659  25.569  1.00  0.00     0.106 C 
ATOM     10  C   UNL A   1      33.509  26.564  25.428  1.00  0.00    -0.006 C 
ATOM     11  C   UNL A   1      31.646  25.307  26.189  1.00  0.00     0.047 C 
ATOM     12  C   UNL A   1      33.976  25.354  25.754  1.00  0.00    -0.016 C 
BRANCH   9  13
ATOM     13  N   UNL A   1      31.412  26.872  24.280  1.00  0.00    -0.348 N 
ATOM     14  O   UNL A   1      31.080  29.108  24.666  1.00  0.00    -0.273 OA
ATOM     15  C   UNL A   1      30.948  28.127  23.935  1.00  0.00     0.239 C 
ATOM     16  H   UNL A   1      31.321  26.123  23.649  1.00  0.00     0.164 HD
BRANCH  15  17
ATOM     17  C   UNL A   1      30.037  28.187  22.707  1.00  0.00     0.216 C 
BRANCH  17  18
ATOM     18  N   UNL A   1      28.620  28.042  22.990  1.00  0.00    -0.342 N 
ATOM     19  C   UNL A   1      27.639  29.000  23.062  1.00  0.00     0.261 C 
ATOM     20  H   UNL A   1      28.317  27.120  23.154  1.00  0.00     0.164 HD
ATOM     21  O   UNL A   1      26.515  28.616  23.396  1.00  0.00    -0.268 OA
BRANCH  19  22
ATOM     22  C   UNL A   1      27.963  30.388  22.794  1.00  0.00     0.092 A 
ATOM     23  C   UNL A   1      28.280  31.424  23.656  1.00  0.00     0.025 A 
ATOM     24  S   UNL A   1      28.026  30.906  21.158  1.00  0.00    -0.139 S 
ATOM     25  C   UNL A   1      28.485  32.660  22.973  1.00  0.00     0.012 A 
ATOM     26  C   UNL A   1      28.376  32.516  21.608  1.00  0.00     0.065 A 
ENDBRANCH  19  22
ENDBRANCH  17  18
ENDBRANCH  15  17
ENDBRANCH   9  13
ENDBRANCH   5   8
ENDBRANCH   3   4
ENDBRANCH   2   3
ENDBRANCH   1   2
BRANCH   1  27
ATOM     27  C   UNL A   1      37.718  23.159  25.537  1.00  0.00     0.002 C 
BRANCH  27  28
ATOM     28  C   UNL A   1      38.861  22.321  26.115  1.00  0.00     0.021 C 
BRANCH  28  29
ATOM     29  C   UNL A   1      39.859  23.113  26.953  1.00  0.00     0.116 C 
BRANCH  29  30
ATOM     30  N   UNL A   1      41.059  23.439  26.198  1.00  0.00    -0.352 N 
ATOM     31  C   UNL A   1      41.799  24.594  26.205  1.00  0.00     0.251 C 
ATOM     32  H   UNL A   1      41.388  22.729  25.600  1.00  0.00     0.163 HD
ATOM     33  O   UNL A   1      42.652  24.783  25.344  1.00  0.00    -0.269 OA
BRANCH  31  34
ATOM     34  C   UNL A   1      41.549  25.614  27.245  1.00  0.00     0.039 A 
ATOM     35  C   UNL A   1      40.532  25.399  28.177  1.00  0.00     0.014 A 
ATOM     36  C   UNL A   1      42.319  26.780  27.297  1.00  0.00     0.014 A 
ATOM     37  C   UNL A   1      40.326  26.328  29.199  1.00  0.00     0.010 A 
ATOM     38  C   UNL A   1      42.162  27.666  28.359  1.00  0.00     0.010 A 
ATOM     39  C   UNL A   1      41.161  27.452  29.318  1.00  0.00    -0.014 A 
BRANCH  39  40
ATOM     40  C   UNL A   1      41.007  28.411  30.443  1.00  0.00     0.031 A 
ATOM     41  C   UNL A   1      41.871  28.284  31.668  1.00  0.00     0.074 A 
ATOM     42  C   UNL A   1      40.044  29.352  30.386  1.00  0.00     0.049 A 
ATOM     43  N   UNL A   1      41.840  28.978  32.776  1.00  0.00    -0.248 NA
ATOM     44  C   UNL A   1      42.888  27.219  31.658  1.00  0.00     0.031 C 
ATOM     45  C   UNL A   1      39.113  29.543  29.272  1.00  0.00     0.029 A 
ATOM     46  N   UNL A   1      39.681  30.320  31.290  1.00  0.00    -0.354 N 
ATOM     47  C   UNL A   1      42.819  28.430  33.597  1.00  0.00     0.074 A 
ATOM     48  C   UNL A   1      43.389  27.309  32.881  1.00  0.00     0.031 C 
ATOM     49  C   UNL A   1      38.303  30.578  29.548  1.00  0.00     0.029 A 
ATOM     50  C   UNL A   1      38.625  31.096  30.874  1.00  0.00     0.049 A 
ATOM     51  H   UNL A   1      40.134  30.446  32.155  1.00  0.00     0.167 HD
ATOM     52  C   UNL A   1      43.222  28.837  34.824  1.00  0.00     0.037 A 
ATOM     53  C   UNL A   1      37.981  32.104  31.494  1.00  0.00     0.037 A 
ATOM     54  C   UNL A   1      42.660  29.967  35.520  1.00  0.00     0.049 A 
ATOM     55  C   UNL A   1      38.440  32.534  32.862  1.00  0.00     0.074 A 
ATOM     56  C   UNL A   1      43.034  30.495  36.743  1.00  0.00     0.029 A 
ATOM     57  N   UNL A   1      41.604  30.740  35.057  1.00  0.00    -0.354 N 
ATOM     58  N   UNL A   1      39.410  32.043  33.596  1.00  0.00    -0.248 NA
ATOM     59  C   UNL A   1      37.724  33.656  33.482  1.00  0.00     0.031 C 
ATOM     60  C   UNL A   1      42.171  31.554  37.045  1.00  0.00     0.029 A 
ATOM     61  C   UNL A   1      41.299  31.725  35.981  1.00  0.00     0.049 A 
ATOM     62  H   UNL A   1      41.141  30.607  34.199  1.00  0.00     0.167 HD
ATOM     63  C   UNL A   1      39.443  32.820  34.750  1.00  0.00     0.074 A 
ATOM     64  C   UNL A   1      38.400  33.816  34.612  1.00  0.00     0.031 C 
ATOM     65  C   UNL A   1      40.264  32.719  35.824  1.00  0.00     0.037 A 
BRANCH  52  66
ATOM     66  C   UNL A   1      44.323  28.060  35.495  1.00  0.00     0.058 A 
ATOM     67  C   UNL A   1      44.050  26.976  36.346  1.00  0.00     0.135 A 
ATOM     68  C   UNL A   1      45.669  28.376  35.253  1.00  0.00     0.135 A 
ATOM     69  F   UNL A   1      42.781  26.637  36.624  1.00  0.00    -0.206 F 
ATOM     70  C   UNL A   1      45.071  26.253  36.956  1.00  0.00     0.059 A 
ATOM     71  C   UNL A   1      46.708  27.647  35.828  1.00  0.00     0.059 A 
ATOM     72  F   UNL A   1      45.990  29.402  34.449  1.00  0.00    -0.206 F 
ATOM     73  C   UNL A   1      46.397  26.597  36.689  1.00  0.00     0.060 A 
BRANCH  73  74
ATOM     74  S   UNL A   1      47.708  25.644  37.483  1.00  0.00     0.124 S 
ATOM     75  O   UNL A   1      46.946  24.823  38.419  1.00  0.00    -0.237 OA
ATOM     76  O   UNL A   1      48.302  24.932  36.356  1.00  0.00    -0.237 OA
ATOM     77  O   UNL A   1      48.553  26.666  38.091  1.00  0.00    -0.744 OA
ENDBRANCH  73  74
ENDBRANCH  52  66
BRANCH  53  78
ATOM     78  C   UNL A   1      36.846  32.789  30.817  1.00  0.00     0.058 A 
ATOM     79  C   UNL A   1      37.071  33.717  29.789  1.00  0.00     0.135 A 
ATOM     80  C   UNL A   1      35.515  32.520  31.174  1.00  0.00     0.135 A 
ATOM     81  F   UNL A   1      38.325  34.012  29.415  1.00  0.00    -0.206 F 
ATOM     82  C   UNL A   1      36.020  34.370  29.153  1.00  0.00     0.059 A 
ATOM     83  C   UNL A   1      34.446  33.139  30.533  1.00  0.00     0.059 A 
ATOM     84  F   UNL A   1      35.243  31.628  32.139  1.00  0.00    -0.206 F 
ATOM     85  C   UNL A   1      34.710  34.071  29.530  1.00  0.00     0.060 A 
BRANCH  85  86
ATOM     86  S   UNL A   1      33.352  34.893  28.668  1.00  0.00     0.124 S 
ATOM     87  O   UNL A   1      32.970  33.883  27.688  1.00  0.00    -0.237 OA
ATOM     88  O   UNL A   1      32.400  35.126  29.751  1.00  0.00    -0.237 OA
ATOM     89  O   UNL A   1      33.979  36.095  28.125  1.00  0.00    -0.744 OA
ENDBRANCH  85  86
ENDBRANCH  53  78
BRANCH  65  90
ATOM     90  C   UNL A   1      40.107  33.739  36.920  1.00  0.00     0.058 A 
ATOM     91  C   UNL A   1      40.848  34.931  36.936  1.00  0.00     0.135 A 
ATOM     92  C   UNL A   1      39.154  33.546  37.934  1.00  0.00     0.135 A 
ATOM     93  F   UNL A   1      41.777  35.162  35.994  1.00  0.00    -0.206 F 
ATOM     94  C   UNL A   1      40.665  35.885  37.931  1.00  0.00     0.059 A 
ATOM     95  C   UNL A   1      38.932  34.501  38.921  1.00  0.00     0.059 A 
ATOM     96  F   UNL A   1      38.411  32.428  37.959  1.00  0.00    -0.206 F 
ATOM     97  C   UNL A   1      39.702  35.663  38.917  1.00  0.00     0.060 A 
BRANCH  97  98
ATOM     98  S   UNL A   1      39.446  36.930  40.177  1.00  0.00     0.124 S 
ATOM     99  O   UNL A   1      40.811  37.176  40.629  1.00  0.00    -0.237 OA
ATOM    100  O   UNL A   1      38.827  38.009  39.413  1.00  0.00    -0.237 OA
ATOM    101  O   UNL A   1      38.572  36.275  41.146  1.00  0.00    -0.744 OA
ENDBRANCH  97  98
ENDBRANCH  65  90
ENDBRANCH  39  40
ENDBRANCH  31  34
ENDBRANCH  29  30
ENDBRANCH  28  29
ENDBRANCH  27  28
ENDBRANCH   1  27
TORSDOF 20
ENDMDL
