MODEL 1
REMARK VINA RESULT:     -12.8      0.000      0.000
REMARK SMILES CC(C)[C@@H]1C(=O)Nc2ccccc2N1C(=O)N[C@H](Cc1ccccc1)C(=O)NCCCCCCNC(=O)c1ccc(-c2c3nc(c(-c4c(F)cc(S(=O)(=O)[O-])cc4F)c4ccc([nH]4)c(-c4c(F)cc(S(=O)(=O)[O-])cc4F)c4nc(c(-c5c(F)cc(S(=O)(=O)[O-])cc5F)c5ccc2[nH]5)C=C4)C=C3)cc1
REMARK SMILES IDX 31 1 30 2 29 3 28 4 26 5 27 6 18 8 17 9 15 10 16 11 14 13
REMARK SMILES IDX 4 14 5 15 6 16 7 17 13 18 8 19 12 21 9 22 11 23 10 24 2 25
REMARK SMILES IDX 1 26 3 27 19 28 20 29 21 30 25 31 22 32 24 33 23 34 32 35
REMARK SMILES IDX 33 36 34 37 35 38 36 39 37 41 38 42 39 43 103 44 40 45
REMARK SMILES IDX 102 46 41 47 42 48 43 49 96 50 44 51 101 52 95 53 97 54
REMARK SMILES IDX 45 55 100 56 94 57 93 58 46 60 80 61 59 62 79 63 60 64 63 65
REMARK SMILES IDX 78 66 98 67 61 68 62 69 77 71 99 72 64 73 47 74 48 75 57 76
REMARK SMILES IDX 49 77 50 78 56 79 58 80 51 81 52 82 53 83 54 84 55 85 81 86
REMARK SMILES IDX 82 87 91 88 83 89 84 90 90 91 92 92 85 93 86 94 87 95 88 96
REMARK SMILES IDX 89 97 65 98 66 99 75 100 67 101 68 102 74 103 76 104 69 105
REMARK SMILES IDX 70 106 71 107 72 108 73 109
REMARK H PARENT 28 7 17 12 7 20 35 40 97 59 63 70
REMARK Flexibility Score: inf
ROOT
ATOM      1  C   UNL A   1      40.615  22.788  26.883  1.00  0.00     0.002 C 
ENDROOT
BRANCH   1   2
ATOM      2  C   UNL A   1      39.549  23.800  27.267  1.00  0.00     0.021 C 
BRANCH   2   3
ATOM      3  C   UNL A   1      38.164  24.172  26.485  1.00  0.00     0.116 C 
BRANCH   3   4
ATOM      4  N   UNL A   1      36.904  23.167  25.221  1.00  0.00    -0.354 N 
ATOM      5  C   UNL A   1      35.586  23.213  24.434  1.00  0.00     0.242 C 
ATOM      6  O   UNL A   1      35.346  22.196  23.764  1.00  0.00    -0.273 OA
ATOM      7  H   UNL A   1      37.314  22.289  25.044  1.00  0.00     0.163 HD
BRANCH   5   8
ATOM      8  C   UNL A   1      34.344  24.492  24.502  1.00  0.00     0.177 C 
BRANCH   8   9
ATOM      9  N   UNL A   1      34.242  24.948  23.170  1.00  0.00    -0.326 N 
ATOM     10  C   UNL A   1      33.110  24.568  22.511  1.00  0.00     0.323 C 
ATOM     11  O   UNL A   1      33.033  24.735  21.299  1.00  0.00    -0.248 OA
ATOM     12  H   UNL A   1      34.937  25.502  22.747  1.00  0.00     0.166 HD
BRANCH  10  13
ATOM     13  N   UNL A   1      32.035  24.298  23.365  1.00  0.00    -0.280 N 
ATOM     14  C   UNL A   1      31.711  23.134  24.947  1.00  0.00     0.184 C 
ATOM     15  C   UNL A   1      30.363  23.756  26.226  1.00  0.00     0.247 C 
ATOM     16  O   UNL A   1      30.069  23.165  27.266  1.00  0.00    -0.272 OA
ATOM     17  N   UNL A   1      29.544  25.204  25.827  1.00  0.00    -0.322 N 
ATOM     18  C   UNL A   1      31.049  25.875  23.305  1.00  0.00     0.070 A 
ATOM     19  C   UNL A   1      29.818  26.212  24.435  1.00  0.00     0.065 A 
ATOM     20  H   UNL A   1      28.842  25.498  26.452  1.00  0.00     0.170 HD
ATOM     21  C   UNL A   1      31.233  26.850  22.343  1.00  0.00     0.028 A 
ATOM     22  C   UNL A   1      28.920  27.242  24.242  1.00  0.00     0.028 A 
ATOM     23  C   UNL A   1      30.288  27.911  22.280  1.00  0.00     0.002 A 
ATOM     24  C   UNL A   1      29.152  28.058  23.135  1.00  0.00     0.002 A 
BRANCH  14  25
ATOM     25  C   UNL A   1      32.022  21.578  25.221  1.00  0.00     0.015 C 
ATOM     26  C   UNL A   1      32.362  20.882  23.841  1.00  0.00     0.010 C 
ATOM     27  C   UNL A   1      33.128  21.087  26.144  1.00  0.00     0.010 C 
ENDBRANCH  14  25
ENDBRANCH  10  13
ENDBRANCH   8   9
BRANCH   8  28
ATOM     28  C   UNL A   1      34.461  25.819  25.369  1.00  0.00     0.070 C 
BRANCH  28  29
ATOM     29  C   UNL A   1      33.809  27.203  25.510  1.00  0.00    -0.045 A 
ATOM     30  C   UNL A   1      32.786  27.343  26.504  1.00  0.00     0.004 A 
ATOM     31  C   UNL A   1      33.883  28.205  24.556  1.00  0.00     0.004 A 
ATOM     32  C   UNL A   1      31.777  28.303  26.435  1.00  0.00     0.000 A 
ATOM     33  C   UNL A   1      32.904  29.221  24.527  1.00  0.00     0.000 A 
ATOM     34  C   UNL A   1      31.827  29.238  25.422  1.00  0.00     0.000 A 
ENDBRANCH  28  29
ENDBRANCH   8  28
ENDBRANCH   5   8
ENDBRANCH   3   4
ENDBRANCH   2   3
ENDBRANCH   1   2
BRANCH   1  35
ATOM     35  C   UNL A   1      41.169  21.903  27.982  1.00  0.00     0.002 C 
BRANCH  35  36
ATOM     36  C   UNL A   1      41.171  20.422  27.644  1.00  0.00     0.021 C 
BRANCH  36  37
ATOM     37  C   UNL A   1      41.201  20.216  26.144  1.00  0.00     0.116 C 
BRANCH  37  38
ATOM     38  N   UNL A   1      42.384  19.430  25.793  1.00  0.00    -0.352 N 
ATOM     39  C   UNL A   1      43.484  19.893  25.112  1.00  0.00     0.251 C 
ATOM     40  H   UNL A   1      42.393  18.486  26.072  1.00  0.00     0.163 HD
ATOM     41  O   UNL A   1      44.125  19.166  24.365  1.00  0.00    -0.269 OA
BRANCH  39  42
ATOM     42  C   UNL A   1      43.863  21.297  25.347  1.00  0.00     0.039 A 
ATOM     43  C   UNL A   1      43.463  22.311  24.482  1.00  0.00     0.014 A 
ATOM     44  C   UNL A   1      44.600  21.582  26.499  1.00  0.00     0.014 A 
ATOM     45  C   UNL A   1      43.800  23.625  24.799  1.00  0.00     0.010 A 
ATOM     46  C   UNL A   1      44.748  22.885  26.907  1.00  0.00     0.010 A 
ATOM     47  C   UNL A   1      44.427  23.917  26.024  1.00  0.00    -0.014 A 
BRANCH  47  48
ATOM     48  C   UNL A   1      44.866  25.276  26.393  1.00  0.00     0.031 A 
ATOM     49  C   UNL A   1      43.848  26.237  26.957  1.00  0.00     0.074 A 
ATOM     50  C   UNL A   1      46.130  25.655  26.136  1.00  0.00     0.049 A 
ATOM     51  N   UNL A   1      43.977  27.505  27.234  1.00  0.00    -0.248 NA
ATOM     52  C   UNL A   1      42.481  25.720  27.179  1.00  0.00     0.031 C 
ATOM     53  C   UNL A   1      47.158  24.815  25.515  1.00  0.00     0.029 A 
ATOM     54  N   UNL A   1      46.763  26.845  26.359  1.00  0.00    -0.354 N 
ATOM     55  C   UNL A   1      42.713  27.932  27.626  1.00  0.00     0.074 A 
ATOM     56  C   UNL A   1      41.809  26.824  27.455  1.00  0.00     0.031 C 
ATOM     57  C   UNL A   1      48.309  25.503  25.456  1.00  0.00     0.029 A 
ATOM     58  C   UNL A   1      48.083  26.844  25.981  1.00  0.00     0.049 A 
ATOM     59  H   UNL A   1      46.315  27.629  26.753  1.00  0.00     0.167 HD
ATOM     60  C   UNL A   1      42.351  29.133  28.131  1.00  0.00     0.037 A 
ATOM     61  C   UNL A   1      49.000  27.826  26.050  1.00  0.00     0.037 A 
ATOM     62  C   UNL A   1      43.287  30.200  28.344  1.00  0.00     0.049 A 
ATOM     63  C   UNL A   1      48.583  29.145  26.639  1.00  0.00     0.074 A 
ATOM     64  C   UNL A   1      43.068  31.435  28.920  1.00  0.00     0.029 A 
ATOM     65  N   UNL A   1      44.628  30.150  27.988  1.00  0.00    -0.354 N 
ATOM     66  N   UNL A   1      47.402  29.512  27.084  1.00  0.00    -0.248 NA
ATOM     67  C   UNL A   1      49.617  30.180  26.745  1.00  0.00     0.031 C 
ATOM     68  C   UNL A   1      44.263  32.157  28.855  1.00  0.00     0.029 A 
ATOM     69  C   UNL A   1      45.244  31.346  28.305  1.00  0.00     0.049 A 
ATOM     70  H   UNL A   1      45.074  29.378  27.570  1.00  0.00     0.167 HD
ATOM     71  C   UNL A   1      47.559  30.812  27.550  1.00  0.00     0.074 A 
ATOM     72  C   UNL A   1      48.952  31.157  27.346  1.00  0.00     0.031 C 
ATOM     73  C   UNL A   1      46.639  31.647  28.095  1.00  0.00     0.037 A 
BRANCH  60  74
ATOM     74  C   UNL A   1      40.905  29.340  28.495  1.00  0.00     0.058 A 
ATOM     75  C   UNL A   1      39.893  29.404  27.522  1.00  0.00     0.135 A 
ATOM     76  C   UNL A   1      40.520  29.450  29.841  1.00  0.00     0.135 A 
ATOM     77  F   UNL A   1      40.200  29.329  26.217  1.00  0.00    -0.206 F 
ATOM     78  C   UNL A   1      38.559  29.599  27.867  1.00  0.00     0.059 A 
ATOM     79  C   UNL A   1      39.189  29.608  30.212  1.00  0.00     0.059 A 
ATOM     80  F   UNL A   1      41.444  29.408  30.814  1.00  0.00    -0.206 F 
ATOM     81  C   UNL A   1      38.216  29.693  29.217  1.00  0.00     0.060 A 
BRANCH  81  82
ATOM     82  S   UNL A   1      36.477  29.916  29.647  1.00  0.00     0.124 S 
ATOM     83  O   UNL A   1      36.386  31.369  29.749  1.00  0.00    -0.237 OA
ATOM     84  O   UNL A   1      35.797  29.317  28.503  1.00  0.00    -0.237 OA
ATOM     85  O   UNL A   1      36.342  29.189  30.904  1.00  0.00    -0.744 OA
ENDBRANCH  81  82
ENDBRANCH  60  74
BRANCH  61  86
ATOM     86  C   UNL A   1      50.390  27.578  25.585  1.00  0.00     0.058 A 
ATOM     87  C   UNL A   1      51.416  27.285  26.494  1.00  0.00     0.135 A 
ATOM     88  C   UNL A   1      50.714  27.595  24.218  1.00  0.00     0.135 A 
ATOM     89  F   UNL A   1      51.158  27.251  27.810  1.00  0.00    -0.206 F 
ATOM     90  C   UNL A   1      52.718  27.041  26.071  1.00  0.00     0.059 A 
ATOM     91  C   UNL A   1      52.002  27.322  23.768  1.00  0.00     0.059 A 
ATOM     92  F   UNL A   1      49.764  27.843  23.305  1.00  0.00    -0.206 F 
ATOM     93  C   UNL A   1      53.000  27.059  24.704  1.00  0.00     0.060 A 
BRANCH  93  94
ATOM     94  S   UNL A   1      54.686  26.702  24.165  1.00  0.00     0.124 S 
ATOM     95  O   UNL A   1      55.422  27.821  24.742  1.00  0.00    -0.237 OA
ATOM     96  O   UNL A   1      54.929  25.397  24.771  1.00  0.00    -0.237 OA
ATOM     97  O   UNL A   1      54.581  26.700  22.709  1.00  0.00    -0.744 OA
ENDBRANCH  93  94
ENDBRANCH  61  86
BRANCH  73  98
ATOM     98  C   UNL A   1      47.119  32.997  28.545  1.00  0.00     0.058 A 
ATOM     99  C   UNL A   1      47.647  33.203  29.828  1.00  0.00     0.135 A 
ATOM    100  C   UNL A   1      47.112  34.080  27.651  1.00  0.00     0.135 A 
ATOM    101  F   UNL A   1      47.670  32.199  30.720  1.00  0.00    -0.206 F 
ATOM    102  C   UNL A   1      48.128  34.446  30.219  1.00  0.00     0.059 A 
ATOM    103  C   UNL A   1      47.626  35.320  28.008  1.00  0.00     0.059 A 
ATOM    104  F   UNL A   1      46.632  33.929  26.407  1.00  0.00    -0.206 F 
ATOM    105  C   UNL A   1      48.120  35.496  29.299  1.00  0.00     0.060 A 
BRANCH 105 106
ATOM    106  S   UNL A   1      48.789  37.092  29.808  1.00  0.00     0.124 S 
ATOM    107  O   UNL A   1      49.992  36.688  30.529  1.00  0.00    -0.237 OA
ATOM    108  O   UNL A   1      49.009  37.757  28.528  1.00  0.00    -0.237 OA
ATOM    109  O   UNL A   1      47.725  37.661  30.631  1.00  0.00    -0.744 OA
ENDBRANCH 105 106
ENDBRANCH  73  98
ENDBRANCH  47  48
ENDBRANCH  39  42
ENDBRANCH  37  38
ENDBRANCH  36  37
ENDBRANCH  35  36
ENDBRANCH   1  35
TORSDOF 21
ENDMDL
MODEL 2
REMARK VINA RESULT:     -12.8      0.476      7.899
REMARK SMILES CC(C)[C@@H]1C(=O)Nc2ccccc2N1C(=O)N[C@H](Cc1ccccc1)C(=O)NCCCCCCNC(=O)c1ccc(-c2c3nc(c(-c4c(F)cc(S(=O)(=O)[O-])cc4F)c4ccc([nH]4)c(-c4c(F)cc(S(=O)(=O)[O-])cc4F)c4nc(c(-c5c(F)cc(S(=O)(=O)[O-])cc5F)c5ccc2[nH]5)C=C4)C=C3)cc1
REMARK SMILES IDX 31 1 30 2 29 3 28 4 26 5 27 6 18 8 17 9 15 10 16 11 14 13
REMARK SMILES IDX 4 14 5 15 6 16 7 17 13 18 8 19 12 21 9 22 11 23 10 24 2 25
REMARK SMILES IDX 1 26 3 27 19 28 20 29 21 30 25 31 22 32 24 33 23 34 32 35
REMARK SMILES IDX 33 36 34 37 35 38 36 39 37 41 38 42 39 43 103 44 40 45
REMARK SMILES IDX 102 46 41 47 42 48 43 49 96 50 44 51 101 52 95 53 97 54
REMARK SMILES IDX 45 55 100 56 94 57 93 58 46 60 80 61 59 62 79 63 60 64 63 65
REMARK SMILES IDX 78 66 98 67 61 68 62 69 77 71 99 72 64 73 47 74 48 75 57 76
REMARK SMILES IDX 49 77 50 78 56 79 58 80 51 81 52 82 53 83 54 84 55 85 81 86
REMARK SMILES IDX 82 87 91 88 83 89 84 90 90 91 92 92 85 93 86 94 87 95 88 96
REMARK SMILES IDX 89 97 65 98 66 99 75 100 67 101 68 102 74 103 76 104 69 105
REMARK SMILES IDX 70 106 71 107 72 108 73 109
REMARK H PARENT 28 7 17 12 7 20 35 40 97 59 63 70
REMARK Flexibility Score: inf
ROOT
ATOM      1  C   UNL A   1      40.682  22.692  26.875  1.00  0.00     0.002 C 
ENDROOT
BRANCH   1   2
ATOM      2  C   UNL A   1      39.632  23.736  27.217  1.00  0.00     0.021 C 
BRANCH   2   3
ATOM      3  C   UNL A   1      38.263  24.113  26.410  1.00  0.00     0.116 C 
BRANCH   3   4
ATOM      4  N   UNL A   1      36.936  23.068  25.251  1.00  0.00    -0.354 N 
ATOM      5  C   UNL A   1      35.596  23.104  24.502  1.00  0.00     0.242 C 
ATOM      6  O   UNL A   1      35.306  22.054  23.907  1.00  0.00    -0.273 OA
ATOM      7  H   UNL A   1      37.315  22.168  25.120  1.00  0.00     0.163 HD
BRANCH   5   8
ATOM      8  C   UNL A   1      34.394  24.422  24.524  1.00  0.00     0.177 C 
BRANCH   8   9
ATOM      9  N   UNL A   1      34.301  24.830  23.175  1.00  0.00    -0.326 N 
ATOM     10  C   UNL A   1      33.188  24.403  22.513  1.00  0.00     0.323 C 
ATOM     11  O   UNL A   1      33.126  24.527  21.296  1.00  0.00    -0.248 OA
ATOM     12  H   UNL A   1      34.990  25.384  22.743  1.00  0.00     0.166 HD
BRANCH  10  13
ATOM     13  N   UNL A   1      32.106  24.138  23.361  1.00  0.00    -0.280 N 
ATOM     14  C   UNL A   1      31.765  22.972  24.937  1.00  0.00     0.184 C 
ATOM     15  C   UNL A   1      30.415  23.600  26.212  1.00  0.00     0.247 C 
ATOM     16  O   UNL A   1      30.111  23.007  27.248  1.00  0.00    -0.272 OA
ATOM     17  N   UNL A   1      29.610  25.055  25.814  1.00  0.00    -0.322 N 
ATOM     18  C   UNL A   1      31.133  25.723  23.302  1.00  0.00     0.070 A 
ATOM     19  C   UNL A   1      29.899  26.066  24.427  1.00  0.00     0.065 A 
ATOM     20  H   UNL A   1      28.907  25.353  26.436  1.00  0.00     0.170 HD
ATOM     21  C   UNL A   1      31.329  26.700  22.344  1.00  0.00     0.028 A 
ATOM     22  C   UNL A   1      29.009  27.104  24.232  1.00  0.00     0.028 A 
ATOM     23  C   UNL A   1      30.393  27.768  22.280  1.00  0.00     0.002 A 
ATOM     24  C   UNL A   1      29.254  27.922  23.129  1.00  0.00     0.002 A 
BRANCH  14  25
ATOM     25  C   UNL A   1      32.063  21.412  25.208  1.00  0.00     0.015 C 
ATOM     26  C   UNL A   1      32.369  20.711  23.823  1.00  0.00     0.010 C 
ATOM     27  C   UNL A   1      33.180  20.909  26.110  1.00  0.00     0.010 C 
ENDBRANCH  14  25
ENDBRANCH  10  13
ENDBRANCH   8   9
BRANCH   8  28
ATOM     28  C   UNL A   1      34.554  25.776  25.340  1.00  0.00     0.070 C 
BRANCH  28  29
ATOM     29  C   UNL A   1      33.853  27.130  25.538  1.00  0.00    -0.045 A 
ATOM     30  C   UNL A   1      32.827  27.192  26.537  1.00  0.00     0.004 A 
ATOM     31  C   UNL A   1      33.890  28.172  24.626  1.00  0.00     0.004 A 
ATOM     32  C   UNL A   1      31.785  28.117  26.508  1.00  0.00     0.000 A 
ATOM     33  C   UNL A   1      32.875  29.153  24.640  1.00  0.00     0.000 A 
ATOM     34  C   UNL A   1      31.800  29.095  25.535  1.00  0.00     0.000 A 
ENDBRANCH  28  29
ENDBRANCH   8  28
ENDBRANCH   5   8
ENDBRANCH   3   4
ENDBRANCH   2   3
ENDBRANCH   1   2
BRANCH   1  35
ATOM     35  C   UNL A   1      41.182  21.808  27.999  1.00  0.00     0.002 C 
BRANCH  35  36
ATOM     36  C   UNL A   1      41.295  20.339  27.629  1.00  0.00     0.021 C 
BRANCH  36  37
ATOM     37  C   UNL A   1      41.338  20.168  26.125  1.00  0.00     0.116 C 
BRANCH  37  38
ATOM     38  N   UNL A   1      42.565  19.460  25.759  1.00  0.00    -0.352 N 
ATOM     39  C   UNL A   1      43.631  19.998  25.079  1.00  0.00     0.251 C 
ATOM     40  H   UNL A   1      42.633  18.515  26.025  1.00  0.00     0.163 HD
ATOM     41  O   UNL A   1      44.312  19.320  24.319  1.00  0.00    -0.269 OA
BRANCH  39  42
ATOM     42  C   UNL A   1      43.926  21.419  25.330  1.00  0.00     0.039 A 
ATOM     43  C   UNL A   1      43.539  22.410  24.432  1.00  0.00     0.014 A 
ATOM     44  C   UNL A   1      44.566  21.743  26.529  1.00  0.00     0.014 A 
ATOM     45  C   UNL A   1      43.790  23.740  24.763  1.00  0.00     0.010 A 
ATOM     46  C   UNL A   1      44.622  23.054  26.937  1.00  0.00     0.010 A 
ATOM     47  C   UNL A   1      44.314  24.065  26.027  1.00  0.00    -0.014 A 
BRANCH  47  48
ATOM     48  C   UNL A   1      44.661  25.445  26.415  1.00  0.00     0.031 A 
ATOM     49  C   UNL A   1      46.085  25.911  26.236  1.00  0.00     0.074 A 
ATOM     50  C   UNL A   1      43.731  26.221  27.000  1.00  0.00     0.049 A 
ATOM     51  N   UNL A   1      46.641  27.029  26.617  1.00  0.00    -0.248 NA
ATOM     52  C   UNL A   1      47.030  24.968  25.603  1.00  0.00     0.031 C 
ATOM     53  C   UNL A   1      42.350  25.821  27.286  1.00  0.00     0.029 A 
ATOM     54  N   UNL A   1      43.808  27.505  27.462  1.00  0.00    -0.354 N 
ATOM     55  C   UNL A   1      47.988  26.903  26.300  1.00  0.00     0.074 A 
ATOM     56  C   UNL A   1      48.191  25.571  25.792  1.00  0.00     0.031 C 
ATOM     57  C   UNL A   1      41.696  26.860  27.829  1.00  0.00     0.029 A 
ATOM     58  C   UNL A   1      42.625  27.973  27.978  1.00  0.00     0.049 A 
ATOM     59  H   UNL A   1      44.633  28.042  27.428  1.00  0.00     0.167 HD
ATOM     60  C   UNL A   1      48.961  27.839  26.380  1.00  0.00     0.037 A 
ATOM     61  C   UNL A   1      42.335  29.173  28.516  1.00  0.00     0.037 A 
ATOM     62  C   UNL A   1      48.716  29.177  26.836  1.00  0.00     0.049 A 
ATOM     63  C   UNL A   1      43.425  30.207  28.572  1.00  0.00     0.074 A 
ATOM     64  C   UNL A   1      49.593  30.242  26.892  1.00  0.00     0.029 A 
ATOM     65  N   UNL A   1      47.494  29.632  27.314  1.00  0.00    -0.354 N 
ATOM     66  N   UNL A   1      44.678  30.104  28.192  1.00  0.00    -0.248 NA
ATOM     67  C   UNL A   1      43.066  31.519  29.120  1.00  0.00     0.031 C 
ATOM     68  C   UNL A   1      48.917  31.324  27.462  1.00  0.00     0.029 A 
ATOM     69  C   UNL A   1      47.600  30.956  27.695  1.00  0.00     0.049 A 
ATOM     70  H   UNL A   1      46.673  29.091  27.373  1.00  0.00     0.167 HD
ATOM     71  C   UNL A   1      45.251  31.348  28.427  1.00  0.00     0.074 A 
ATOM     72  C   UNL A   1      44.200  32.189  28.967  1.00  0.00     0.031 C 
ATOM     73  C   UNL A   1      46.525  31.762  28.220  1.00  0.00     0.037 A 
BRANCH  60  74
ATOM     74  C   UNL A   1      50.352  27.450  25.955  1.00  0.00     0.058 A 
ATOM     75  C   UNL A   1      51.325  27.034  26.881  1.00  0.00     0.135 A 
ATOM     76  C   UNL A   1      50.712  27.469  24.599  1.00  0.00     0.135 A 
ATOM     77  F   UNL A   1      51.050  27.018  28.194  1.00  0.00    -0.206 F 
ATOM     78  C   UNL A   1      52.610  26.680  26.480  1.00  0.00     0.059 A 
ATOM     79  C   UNL A   1      51.978  27.084  24.171  1.00  0.00     0.059 A 
ATOM     80  F   UNL A   1      49.828  27.869  23.670  1.00  0.00    -0.206 F 
ATOM     81  C   UNL A   1      52.925  26.701  25.120  1.00  0.00     0.060 A 
BRANCH  81  82
ATOM     82  S   UNL A   1      54.587  26.210  24.616  1.00  0.00     0.124 S 
ATOM     83  O   UNL A   1      54.644  24.834  25.100  1.00  0.00    -0.237 OA
ATOM     84  O   UNL A   1      54.530  26.370  23.167  1.00  0.00    -0.237 OA
ATOM     85  O   UNL A   1      55.448  27.157  25.316  1.00  0.00    -0.744 OA
ENDBRANCH  81  82
ENDBRANCH  60  74
BRANCH  61  86
ATOM     86  C   UNL A   1      40.958  29.455  29.001  1.00  0.00     0.058 A 
ATOM     87  C   UNL A   1      39.900  29.648  28.102  1.00  0.00     0.135 A 
ATOM     88  C   UNL A   1      40.666  29.504  30.374  1.00  0.00     0.135 A 
ATOM     89  F   UNL A   1      40.125  29.605  26.780  1.00  0.00    -0.206 F 
ATOM     90  C   UNL A   1      38.606  29.903  28.543  1.00  0.00     0.059 A 
ATOM     91  C   UNL A   1      39.374  29.726  30.839  1.00  0.00     0.059 A 
ATOM     92  F   UNL A   1      41.637  29.300  31.276  1.00  0.00    -0.206 F 
ATOM     93  C   UNL A   1      38.352  29.937  29.915  1.00  0.00     0.060 A 
BRANCH  93  94
ATOM     94  S   UNL A   1      36.661  30.229  30.474  1.00  0.00     0.124 S 
ATOM     95  O   UNL A   1      35.887  29.588  29.416  1.00  0.00    -0.237 OA
ATOM     96  O   UNL A   1      36.648  29.560  31.770  1.00  0.00    -0.237 OA
ATOM     97  O   UNL A   1      36.571  31.685  30.526  1.00  0.00    -0.744 OA
ENDBRANCH  93  94
ENDBRANCH  61  86
BRANCH  73  98
ATOM     98  C   UNL A   1      46.843  33.195  28.539  1.00  0.00     0.058 A 
ATOM     99  C   UNL A   1      46.700  34.213  27.585  1.00  0.00     0.135 A 
ATOM    100  C   UNL A   1      47.228  33.556  29.840  1.00  0.00     0.135 A 
ATOM    101  F   UNL A   1      46.340  33.916  26.326  1.00  0.00    -0.206 F 
ATOM    102  C   UNL A   1      46.955  35.541  27.904  1.00  0.00     0.059 A 
ATOM    103  C   UNL A   1      47.448  34.882  30.191  1.00  0.00     0.059 A 
ATOM    104  F   UNL A   1      47.363  32.620  30.793  1.00  0.00    -0.206 F 
ATOM    105  C   UNL A   1      47.321  35.866  29.212  1.00  0.00     0.060 A 
BRANCH 105 106
ATOM    106  S   UNL A   1      47.605  37.600  29.620  1.00  0.00     0.124 S 
ATOM    107  O   UNL A   1      47.472  37.583  31.073  1.00  0.00    -0.237 OA
ATOM    108  O   UNL A   1      48.955  37.821  29.109  1.00  0.00    -0.237 OA
ATOM    109  O   UNL A   1      46.545  38.298  28.900  1.00  0.00    -0.744 OA
ENDBRANCH 105 106
ENDBRANCH  73  98
ENDBRANCH  47  48
ENDBRANCH  39  42
ENDBRANCH  37  38
ENDBRANCH  36  37
ENDBRANCH  35  36
ENDBRANCH   1  35
TORSDOF 21
ENDMDL
MODEL 3
REMARK VINA RESULT:     -12.4      5.893     10.329
REMARK SMILES CC(C)[C@@H]1C(=O)Nc2ccccc2N1C(=O)N[C@H](Cc1ccccc1)C(=O)NCCCCCCNC(=O)c1ccc(-c2c3nc(c(-c4c(F)cc(S(=O)(=O)[O-])cc4F)c4ccc([nH]4)c(-c4c(F)cc(S(=O)(=O)[O-])cc4F)c4nc(c(-c5c(F)cc(S(=O)(=O)[O-])cc5F)c5ccc2[nH]5)C=C4)C=C3)cc1
REMARK SMILES IDX 31 1 30 2 29 3 28 4 26 5 27 6 18 8 17 9 15 10 16 11 14 13
REMARK SMILES IDX 4 14 5 15 6 16 7 17 13 18 8 19 12 21 9 22 11 23 10 24 2 25
REMARK SMILES IDX 1 26 3 27 19 28 20 29 21 30 25 31 22 32 24 33 23 34 32 35
REMARK SMILES IDX 33 36 34 37 35 38 36 39 37 41 38 42 39 43 103 44 40 45
REMARK SMILES IDX 102 46 41 47 42 48 43 49 96 50 44 51 101 52 95 53 97 54
REMARK SMILES IDX 45 55 100 56 94 57 93 58 46 60 80 61 59 62 79 63 60 64 63 65
REMARK SMILES IDX 78 66 98 67 61 68 62 69 77 71 99 72 64 73 47 74 48 75 57 76
REMARK SMILES IDX 49 77 50 78 56 79 58 80 51 81 52 82 53 83 54 84 55 85 81 86
REMARK SMILES IDX 82 87 91 88 83 89 84 90 90 91 92 92 85 93 86 94 87 95 88 96
REMARK SMILES IDX 89 97 65 98 66 99 75 100 67 101 68 102 74 103 76 104 69 105
REMARK SMILES IDX 70 106 71 107 72 108 73 109
REMARK H PARENT 28 7 17 12 7 20 35 40 97 59 63 70
REMARK Flexibility Score: inf
ROOT
ATOM      1  C   UNL A   1      40.363  22.757  27.620  1.00  0.00     0.002 C 
ENDROOT
BRANCH   1   2
ATOM      2  C   UNL A   1      39.498  23.901  27.119  1.00  0.00     0.021 C 
BRANCH   2   3
ATOM      3  C   UNL A   1      37.975  23.850  26.530  1.00  0.00     0.116 C 
BRANCH   3   4
ATOM      4  N   UNL A   1      37.139  23.333  24.733  1.00  0.00    -0.354 N 
ATOM      5  C   UNL A   1      35.984  23.573  23.750  1.00  0.00     0.242 C 
ATOM      6  O   UNL A   1      36.040  22.898  22.710  1.00  0.00    -0.273 OA
ATOM      7  H   UNL A   1      37.718  22.643  24.334  1.00  0.00     0.163 HD
BRANCH   5   8
ATOM      8  C   UNL A   1      34.547  24.596  24.017  1.00  0.00     0.177 C 
BRANCH   8   9
ATOM      9  N   UNL A   1      34.396  25.306  22.806  1.00  0.00    -0.326 N 
ATOM     10  C   UNL A   1      33.289  24.985  22.077  1.00  0.00     0.323 C 
ATOM     11  O   UNL A   1      33.187  25.390  20.926  1.00  0.00    -0.248 OA
ATOM     12  H   UNL A   1      35.043  25.985  22.508  1.00  0.00     0.166 HD
BRANCH  10  13
ATOM     13  N   UNL A   1      32.246  24.465  22.853  1.00  0.00    -0.280 N 
ATOM     14  C   UNL A   1      32.039  23.011  24.196  1.00  0.00     0.184 C 
ATOM     15  C   UNL A   1      30.641  23.262  25.546  1.00  0.00     0.247 C 
ATOM     16  O   UNL A   1      30.407  22.468  26.458  1.00  0.00    -0.272 OA
ATOM     17  N   UNL A   1      29.687  24.674  25.401  1.00  0.00    -0.322 N 
ATOM     18  C   UNL A   1      31.115  25.927  23.062  1.00  0.00     0.070 A 
ATOM     19  C   UNL A   1      29.859  25.937  24.216  1.00  0.00     0.065 A 
ATOM     20  H   UNL A   1      28.961  24.784  26.058  1.00  0.00     0.170 HD
ATOM     21  C   UNL A   1      31.202  27.073  22.293  1.00  0.00     0.028 A 
ATOM     22  C   UNL A   1      28.866  26.896  24.197  1.00  0.00     0.028 A 
ATOM     23  C   UNL A   1      30.160  28.033  22.408  1.00  0.00     0.002 A 
ATOM     24  C   UNL A   1      29.017  27.916  23.258  1.00  0.00     0.002 A 
BRANCH  14  25
ATOM     25  C   UNL A   1      32.498  21.467  24.191  1.00  0.00     0.015 C 
ATOM     26  C   UNL A   1      32.251  20.873  22.745  1.00  0.00     0.010 C 
ATOM     27  C   UNL A   1      33.908  21.003  24.524  1.00  0.00     0.010 C 
ENDBRANCH  14  25
ENDBRANCH  10  13
ENDBRANCH   8   9
BRANCH   8  28
ATOM     28  C   UNL A   1      34.427  25.707  25.147  1.00  0.00     0.070 C 
BRANCH  28  29
ATOM     29  C   UNL A   1      33.768  27.071  25.402  1.00  0.00    -0.045 A 
ATOM     30  C   UNL A   1      32.684  27.107  26.339  1.00  0.00     0.004 A 
ATOM     31  C   UNL A   1      33.903  28.173  24.573  1.00  0.00     0.004 A 
ATOM     32  C   UNL A   1      31.682  28.076  26.314  1.00  0.00     0.000 A 
ATOM     33  C   UNL A   1      32.928  29.194  24.597  1.00  0.00     0.000 A 
ATOM     34  C   UNL A   1      31.797  29.118  25.419  1.00  0.00     0.000 A 
ENDBRANCH  28  29
ENDBRANCH   8  28
ENDBRANCH   5   8
ENDBRANCH   3   4
ENDBRANCH   2   3
ENDBRANCH   1   2
BRANCH   1  35
ATOM     35  C   UNL A   1      41.399  22.194  26.669  1.00  0.00     0.002 C 
BRANCH  35  36
ATOM     36  C   UNL A   1      42.823  22.253  27.197  1.00  0.00     0.021 C 
BRANCH  36  37
ATOM     37  C   UNL A   1      43.227  23.683  27.487  1.00  0.00     0.116 C 
BRANCH  37  38
ATOM     38  N   UNL A   1      43.267  24.433  26.232  1.00  0.00    -0.352 N 
ATOM     39  C   UNL A   1      42.585  25.596  25.968  1.00  0.00     0.251 C 
ATOM     40  H   UNL A   1      43.834  24.072  25.513  1.00  0.00     0.163 HD
ATOM     41  O   UNL A   1      42.179  25.857  24.842  1.00  0.00    -0.269 OA
BRANCH  39  42
ATOM     42  C   UNL A   1      42.390  26.519  27.099  1.00  0.00     0.039 A 
ATOM     43  C   UNL A   1      43.000  27.769  27.129  1.00  0.00     0.014 A 
ATOM     44  C   UNL A   1      41.529  26.113  28.122  1.00  0.00     0.014 A 
ATOM     45  C   UNL A   1      42.720  28.619  28.197  1.00  0.00     0.010 A 
ATOM     46  C   UNL A   1      41.101  27.026  29.055  1.00  0.00     0.010 A 
ATOM     47  C   UNL A   1      41.753  28.256  29.153  1.00  0.00    -0.014 A 
BRANCH  47  48
ATOM     48  C   UNL A   1      41.455  29.080  30.339  1.00  0.00     0.031 A 
ATOM     49  C   UNL A   1      42.306  28.905  31.574  1.00  0.00     0.074 A 
ATOM     50  C   UNL A   1      40.386  29.895  30.327  1.00  0.00     0.049 A 
ATOM     51  N   UNL A   1      42.154  29.426  32.760  1.00  0.00    -0.248 NA
ATOM     52  C   UNL A   1      43.443  27.965  31.483  1.00  0.00     0.031 C 
ATOM     53  C   UNL A   1      39.460  30.063  29.203  1.00  0.00     0.029 A 
ATOM     54  N   UNL A   1      39.895  30.730  31.291  1.00  0.00    -0.354 N 
ATOM     55  C   UNL A   1      43.147  28.856  33.549  1.00  0.00     0.074 A 
ATOM     56  C   UNL A   1      43.830  27.877  32.743  1.00  0.00     0.031 C 
ATOM     57  C   UNL A   1      38.542  30.988  29.526  1.00  0.00     0.029 A 
ATOM     58  C   UNL A   1      38.783  31.432  30.894  1.00  0.00     0.049 A 
ATOM     59  H   UNL A   1      40.299  30.820  32.184  1.00  0.00     0.167 HD
ATOM     60  C   UNL A   1      43.489  29.162  34.821  1.00  0.00     0.037 A 
ATOM     61  C   UNL A   1      38.043  32.329  31.570  1.00  0.00     0.037 A 
ATOM     62  C   UNL A   1      42.826  30.185  35.578  1.00  0.00     0.049 A 
ATOM     63  C   UNL A   1      38.457  32.673  32.975  1.00  0.00     0.074 A 
ATOM     64  C   UNL A   1      43.124  30.647  36.844  1.00  0.00     0.029 A 
ATOM     65  N   UNL A   1      41.729  30.907  35.129  1.00  0.00    -0.354 N 
ATOM     66  N   UNL A   1      39.450  32.187  33.683  1.00  0.00    -0.248 NA
ATOM     67  C   UNL A   1      37.660  33.690  33.669  1.00  0.00     0.031 C 
ATOM     68  C   UNL A   1      42.167  31.606  37.187  1.00  0.00     0.029 A 
ATOM     69  C   UNL A   1      41.317  31.793  36.107  1.00  0.00     0.049 A 
ATOM     70  H   UNL A   1      41.305  30.803  34.246  1.00  0.00     0.167 HD
ATOM     71  C   UNL A   1      39.416  32.860  34.899  1.00  0.00     0.074 A 
ATOM     72  C   UNL A   1      38.313  33.798  34.819  1.00  0.00     0.031 C 
ATOM     73  C   UNL A   1      40.217  32.719  35.984  1.00  0.00     0.037 A 
BRANCH  60  74
ATOM     74  C   UNL A   1      44.624  28.399  35.450  1.00  0.00     0.058 A 
ATOM     75  C   UNL A   1      45.965  28.792  35.292  1.00  0.00     0.135 A 
ATOM     76  C   UNL A   1      44.367  27.271  36.244  1.00  0.00     0.135 A 
ATOM     77  F   UNL A   1      46.277  29.848  34.524  1.00  0.00    -0.206 F 
ATOM     78  C   UNL A   1      47.008  28.079  35.874  1.00  0.00     0.059 A 
ATOM     79  C   UNL A   1      45.392  26.564  36.867  1.00  0.00     0.059 A 
ATOM     80  F   UNL A   1      43.108  26.841  36.421  1.00  0.00    -0.206 F 
ATOM     81  C   UNL A   1      46.710  26.969  36.666  1.00  0.00     0.060 A 
BRANCH  81  82
ATOM     82  S   UNL A   1      48.075  26.074  37.437  1.00  0.00     0.124 S 
ATOM     83  O   UNL A   1      48.378  25.072  36.421  1.00  0.00    -0.237 OA
ATOM     84  O   UNL A   1      49.074  27.124  37.610  1.00  0.00    -0.237 OA
ATOM     85  O   UNL A   1      47.490  25.560  38.671  1.00  0.00    -0.744 OA
ENDBRANCH  81  82
ENDBRANCH  60  74
BRANCH  61  86
ATOM     86  C   UNL A   1      36.877  32.976  30.914  1.00  0.00     0.058 A 
ATOM     87  C   UNL A   1      35.565  32.648  31.283  1.00  0.00     0.135 A 
ATOM     88  C   UNL A   1      37.051  33.961  29.928  1.00  0.00     0.135 A 
ATOM     89  F   UNL A   1      35.345  31.717  32.224  1.00  0.00    -0.206 F 
ATOM     90  C   UNL A   1      34.466  33.254  30.683  1.00  0.00     0.059 A 
ATOM     91  C   UNL A   1      35.968  34.604  29.337  1.00  0.00     0.059 A 
ATOM     92  F   UNL A   1      38.286  34.332  29.557  1.00  0.00    -0.206 F 
ATOM     93  C   UNL A   1      34.678  34.234  29.712  1.00  0.00     0.060 A 
BRANCH  93  94
ATOM     94  S   UNL A   1      33.243  35.040  28.971  1.00  0.00     0.124 S 
ATOM     95  O   UNL A   1      32.787  34.021  28.031  1.00  0.00    -0.237 OA
ATOM     96  O   UNL A   1      32.389  35.267  30.131  1.00  0.00    -0.237 OA
ATOM     97  O   UNL A   1      33.807  36.244  28.369  1.00  0.00    -0.744 OA
ENDBRANCH  93  94
ENDBRANCH  61  86
BRANCH  73  98
ATOM     98  C   UNL A   1      39.957  33.625  37.153  1.00  0.00     0.058 A 
ATOM     99  C   UNL A   1      40.588  34.871  37.276  1.00  0.00     0.135 A 
ATOM    100  C   UNL A   1      39.009  33.265  38.124  1.00  0.00     0.135 A 
ATOM    101  F   UNL A   1      41.505  35.258  36.376  1.00  0.00    -0.206 F 
ATOM    102  C   UNL A   1      40.306  35.720  38.339  1.00  0.00     0.059 A 
ATOM    103  C   UNL A   1      38.683  34.115  39.172  1.00  0.00     0.059 A 
ATOM    104  F   UNL A   1      38.366  32.089  38.041  1.00  0.00    -0.206 F 
ATOM    105  C   UNL A   1      39.347  35.336  39.278  1.00  0.00     0.060 A 
BRANCH 105 106
ATOM    106  S   UNL A   1      38.961  36.469  40.628  1.00  0.00     0.124 S 
ATOM    107  O   UNL A   1      40.239  36.534  41.329  1.00  0.00    -0.237 OA
ATOM    108  O   UNL A   1      38.567  37.679  39.913  1.00  0.00    -0.237 OA
ATOM    109  O   UNL A   1      37.885  35.791  41.344  1.00  0.00    -0.744 OA
ENDBRANCH 105 106
ENDBRANCH  73  98
ENDBRANCH  47  48
ENDBRANCH  39  42
ENDBRANCH  37  38
ENDBRANCH  36  37
ENDBRANCH  35  36
ENDBRANCH   1  35
TORSDOF 21
ENDMDL
