MODEL 1
REMARK VINA RESULT:     -11.4      0.000      0.000
REMARK SMILES CCCc1cc(OC(F)(F)F)cc2c1O[C@H](C(F)(F)F)C(C(=O)NCCCCCCNC(=O)c1ccc(-c3c4nc(c(-c5c(F)cc(S(=O)(=O)[O-])cc5F)c5ccc([nH]5)c(-c5c(F)cc(S(=O)(=O)[O-])cc5F)c5nc(c(-c6c(F)cc(S(=O)(=O)[O-])cc6F)c6ccc3[nH]6)C=C5)C=C4)cc1)=C2
REMARK SMILES IDX 28 1 27 2 26 3 25 4 24 5 22 6 23 7 21 9 4 10 5 11 14 12 6 13
REMARK SMILES IDX 13 14 15 15 12 16 100 17 16 18 3 19 2 20 1 21 7 22 8 23 9 24
REMARK SMILES IDX 10 25 11 26 17 27 18 28 19 29 20 30 29 31 30 32 31 33 32 34
REMARK SMILES IDX 33 36 34 37 35 38 99 39 36 40 98 41 37 42 38 43 39 44 92 45
REMARK SMILES IDX 40 46 97 47 91 48 93 49 41 50 96 51 90 52 89 53 42 55 76 56
REMARK SMILES IDX 55 57 75 58 56 59 59 60 74 61 94 62 57 63 58 64 73 66 95 67
REMARK SMILES IDX 60 68 43 69 44 70 53 71 45 72 46 73 52 74 54 75 47 76 48 77
REMARK SMILES IDX 49 78 50 79 51 80 77 81 78 82 87 83 79 84 80 85 86 86 88 87
REMARK SMILES IDX 81 88 82 89 83 90 84 91 85 92 61 93 62 94 71 95 63 96 64 97
REMARK SMILES IDX 70 98 72 99 65 100 66 101 67 102 68 103 69 104
REMARK H PARENT 24 8 31 35 93 54 59 65
REMARK Flexibility Score: inf
ROOT
ATOM      1  C   UNL A   1      34.541  31.736  28.065  1.00  0.00     0.002 C 
ENDROOT
BRANCH   1   2
ATOM      2  C   UNL A   1      34.934  30.507  27.234  1.00  0.00     0.002 C 
BRANCH   2   3
ATOM      3  C   UNL A   1      33.997  29.303  27.388  1.00  0.00     0.021 C 
BRANCH   3   4
ATOM      4  C   UNL A   1      32.697  29.451  26.594  1.00  0.00     0.116 C 
BRANCH   4   5
ATOM      5  N   UNL A   1      32.990  29.677  25.191  1.00  0.00    -0.352 N 
ATOM      6  C   UNL A   1      33.261  28.846  24.155  1.00  0.00     0.251 C 
ATOM      7  O   UNL A   1      33.455  29.360  23.054  1.00  0.00    -0.270 OA
ATOM      8  H   UNL A   1      32.996  30.630  24.941  1.00  0.00     0.163 HD
BRANCH   6   9
ATOM      9  C   UNL A   1      33.202  27.360  24.260  1.00  0.00     0.067 C 
ATOM     10  C   UNL A   1      32.406  23.399  25.436  1.00  0.00    -0.002 A 
ATOM     11  C   UNL A   1      33.500  22.580  25.764  1.00  0.00     0.054 A 
ATOM     12  C   UNL A   1      32.661  24.702  24.973  1.00  0.00     0.131 A 
ATOM     13  C   UNL A   1      34.813  22.999  25.555  1.00  0.00     0.130 A 
ATOM     14  C   UNL A   1      33.976  25.144  24.787  1.00  0.00     0.021 A 
ATOM     15  O   UNL A   1      31.590  25.540  24.814  1.00  0.00    -0.475 OA
ATOM     16  C   UNL A   1      35.044  24.284  25.065  1.00  0.00     0.058 A 
ATOM     17  C   UNL A   1      34.242  26.538  24.446  1.00  0.00     0.025 C 
ATOM     18  C   UNL A   1      31.806  26.785  24.097  1.00  0.00     0.314 C 
BRANCH  10  19
ATOM     19  C   UNL A   1      30.998  22.875  25.637  1.00  0.00     0.039 C 
BRANCH  19  20
ATOM     20  C   UNL A   1      30.460  22.999  27.072  1.00  0.00     0.001 C 
ATOM     21  C   UNL A   1      29.040  22.484  27.267  1.00  0.00     0.004 C 
ENDBRANCH  19  20
ENDBRANCH  10  19
BRANCH  13  22
ATOM     22  O   UNL A   1      35.940  22.276  25.823  1.00  0.00    -0.406 OA
BRANCH  22  23
ATOM     23  C   UNL A   1      36.568  21.620  24.731  1.00  0.00     0.573 C 
ATOM     24  F   UNL A   1      36.143  22.127  23.553  1.00  0.00    -0.132 F 
ATOM     25  F   UNL A   1      37.912  21.727  24.805  1.00  0.00    -0.132 F 
ATOM     26  F   UNL A   1      36.247  20.310  24.766  1.00  0.00    -0.132 F 
ENDBRANCH  22  23
ENDBRANCH  13  22
BRANCH  18  27
ATOM     27  C   UNL A   1      31.424  26.591  22.615  1.00  0.00     0.429 C 
ATOM     28  F   UNL A   1      32.482  26.780  21.789  1.00  0.00    -0.167 F 
ATOM     29  F   UNL A   1      30.972  25.330  22.393  1.00  0.00    -0.167 F 
ATOM     30  F   UNL A   1      30.447  27.424  22.197  1.00  0.00    -0.167 F 
ENDBRANCH  18  27
ENDBRANCH   6   9
ENDBRANCH   4   5
ENDBRANCH   3   4
ENDBRANCH   2   3
ENDBRANCH   1   2
BRANCH   1  31
ATOM     31  C   UNL A   1      35.569  32.872  28.066  1.00  0.00     0.021 C 
BRANCH  31  32
ATOM     32  C   UNL A   1      36.640  32.748  29.146  1.00  0.00     0.116 C 
BRANCH  32  33
ATOM     33  N   UNL A   1      36.193  31.904  30.244  1.00  0.00    -0.352 N 
ATOM     34  C   UNL A   1      36.708  30.712  30.686  1.00  0.00     0.251 C 
ATOM     35  H   UNL A   1      35.409  32.235  30.739  1.00  0.00     0.163 HD
ATOM     36  O   UNL A   1      36.059  30.015  31.460  1.00  0.00    -0.269 OA
BRANCH  34  37
ATOM     37  C   UNL A   1      38.043  30.270  30.226  1.00  0.00     0.039 A 
ATOM     38  C   UNL A   1      38.254  30.059  28.862  1.00  0.00     0.014 A 
ATOM     39  C   UNL A   1      39.073  30.037  31.142  1.00  0.00     0.014 A 
ATOM     40  C   UNL A   1      39.511  29.649  28.411  1.00  0.00     0.010 A 
ATOM     41  C   UNL A   1      40.342  29.695  30.685  1.00  0.00     0.010 A 
ATOM     42  C   UNL A   1      40.571  29.484  29.318  1.00  0.00    -0.014 A 
BRANCH  42  43
ATOM     43  C   UNL A   1      41.919  29.064  28.857  1.00  0.00     0.031 A 
ATOM     44  C   UNL A   1      43.033  30.071  28.777  1.00  0.00     0.074 A 
ATOM     45  C   UNL A   1      42.122  27.794  28.457  1.00  0.00     0.049 A 
ATOM     46  N   UNL A   1      44.256  29.918  28.338  1.00  0.00    -0.248 NA
ATOM     47  C   UNL A   1      42.724  31.440  29.221  1.00  0.00     0.031 C 
ATOM     48  C   UNL A   1      41.107  26.739  28.444  1.00  0.00     0.029 A 
ATOM     49  N   UNL A   1      43.248  27.175  27.977  1.00  0.00    -0.354 N 
ATOM     50  C   UNL A   1      44.855  31.168  28.439  1.00  0.00     0.074 A 
ATOM     51  C   UNL A   1      43.847  32.081  28.931  1.00  0.00     0.031 C 
ATOM     52  C   UNL A   1      41.660  25.600  27.997  1.00  0.00     0.029 A 
ATOM     53  C   UNL A   1      43.060  25.850  27.661  1.00  0.00     0.049 A 
ATOM     54  H   UNL A   1      44.110  27.638  27.867  1.00  0.00     0.167 HD
ATOM     55  C   UNL A   1      46.136  31.518  28.170  1.00  0.00     0.037 A 
ATOM     56  C   UNL A   1      43.915  24.943  27.155  1.00  0.00     0.037 A 
ATOM     57  C   UNL A   1      47.144  30.597  27.712  1.00  0.00     0.049 A 
ATOM     58  C   UNL A   1      45.337  25.351  26.879  1.00  0.00     0.074 A 
ATOM     59  C   UNL A   1      48.483  30.839  27.465  1.00  0.00     0.029 A 
ATOM     60  N   UNL A   1      46.921  29.256  27.433  1.00  0.00    -0.354 N 
ATOM     61  N   UNL A   1      45.902  26.525  27.034  1.00  0.00    -0.248 NA
ATOM     62  C   UNL A   1      46.240  24.311  26.367  1.00  0.00     0.031 C 
ATOM     63  C   UNL A   1      49.064  29.652  27.002  1.00  0.00     0.029 A 
ATOM     64  C   UNL A   1      48.095  28.660  27.003  1.00  0.00     0.049 A 
ATOM     65  H   UNL A   1      46.056  28.796  27.528  1.00  0.00     0.167 HD
ATOM     66  C   UNL A   1      47.233  26.358  26.666  1.00  0.00     0.074 A 
ATOM     67  C   UNL A   1      47.390  24.967  26.290  1.00  0.00     0.031 C 
ATOM     68  C   UNL A   1      48.234  27.272  26.640  1.00  0.00     0.037 A 
BRANCH  55  69
ATOM     69  C   UNL A   1      46.522  32.958  28.372  1.00  0.00     0.058 A 
ATOM     70  C   UNL A   1      46.358  33.914  27.356  1.00  0.00     0.135 A 
ATOM     71  C   UNL A   1      47.037  33.396  29.603  1.00  0.00     0.135 A 
ATOM     72  F   UNL A   1      45.884  33.549  26.154  1.00  0.00    -0.206 F 
ATOM     73  C   UNL A   1      46.721  35.244  27.541  1.00  0.00     0.059 A 
ATOM     74  C   UNL A   1      47.380  34.727  29.820  1.00  0.00     0.059 A 
ATOM     75  F   UNL A   1      47.215  32.526  30.609  1.00  0.00    -0.206 F 
ATOM     76  C   UNL A   1      47.233  35.641  28.777  1.00  0.00     0.060 A 
BRANCH  76  77
ATOM     77  S   UNL A   1      47.701  37.370  29.002  1.00  0.00     0.124 S 
ATOM     78  O   UNL A   1      47.667  37.862  27.628  1.00  0.00    -0.237 OA
ATOM     79  O   UNL A   1      46.646  37.868  29.878  1.00  0.00    -0.237 OA
ATOM     80  O   UNL A   1      49.027  37.288  29.607  1.00  0.00    -0.744 OA
ENDBRANCH  76  77
ENDBRANCH  55  69
BRANCH  56  81
ATOM     81  C   UNL A   1      43.458  23.551  26.904  1.00  0.00     0.058 A 
ATOM     82  C   UNL A   1      43.261  22.654  27.965  1.00  0.00     0.135 A 
ATOM     83  C   UNL A   1      43.195  23.093  25.604  1.00  0.00     0.135 A 
ATOM     84  F   UNL A   1      43.504  23.044  29.226  1.00  0.00    -0.206 F 
ATOM     85  C   UNL A   1      42.835  21.348  27.747  1.00  0.00     0.059 A 
ATOM     86  C   UNL A   1      42.746  21.798  25.362  1.00  0.00     0.059 A 
ATOM     87  F   UNL A   1      43.350  23.916  24.556  1.00  0.00    -0.206 F 
ATOM     88  C   UNL A   1      42.579  20.930  26.440  1.00  0.00     0.060 A 
BRANCH  88  89
ATOM     89  S   UNL A   1      41.979  19.247  26.171  1.00  0.00     0.124 S 
ATOM     90  O   UNL A   1      42.338  18.603  27.428  1.00  0.00    -0.237 OA
ATOM     91  O   UNL A   1      40.553  19.462  25.946  1.00  0.00    -0.237 OA
ATOM     92  O   UNL A   1      42.731  18.808  24.999  1.00  0.00    -0.744 OA
ENDBRANCH  88  89
ENDBRANCH  56  81
BRANCH  68  93
ATOM     93  C   UNL A   1      49.597  26.791  26.227  1.00  0.00     0.058 A 
ATOM     94  C   UNL A   1      50.009  26.806  24.885  1.00  0.00     0.135 A 
ATOM     95  C   UNL A   1      50.516  26.348  27.191  1.00  0.00     0.135 A 
ATOM     96  F   UNL A   1      49.165  27.215  23.924  1.00  0.00    -0.206 F 
ATOM     97  C   UNL A   1      51.277  26.374  24.511  1.00  0.00     0.059 A 
ATOM     98  C   UNL A   1      51.798  25.936  26.842  1.00  0.00     0.059 A 
ATOM     99  F   UNL A   1      50.176  26.324  28.490  1.00  0.00    -0.206 F 
ATOM    100  C   UNL A   1      52.165  25.940  25.497  1.00  0.00     0.060 A 
BRANCH 100 101
ATOM    101  S   UNL A   1      53.815  25.405  25.001  1.00  0.00     0.124 S 
ATOM    102  O   UNL A   1      54.611  25.795  26.160  1.00  0.00    -0.237 OA
ATOM    103  O   UNL A   1      53.636  23.969  24.811  1.00  0.00    -0.237 OA
ATOM    104  O   UNL A   1      54.067  26.166  23.780  1.00  0.00    -0.744 OA
ENDBRANCH 100 101
ENDBRANCH  68  93
ENDBRANCH  42  43
ENDBRANCH  34  37
ENDBRANCH  32  33
ENDBRANCH  31  32
ENDBRANCH   1  31
TORSDOF 21
ENDMDL
MODEL 2
REMARK VINA RESULT:     -11.3      0.795      7.936
REMARK SMILES CCCc1cc(OC(F)(F)F)cc2c1O[C@H](C(F)(F)F)C(C(=O)NCCCCCCNC(=O)c1ccc(-c3c4nc(c(-c5c(F)cc(S(=O)(=O)[O-])cc5F)c5ccc([nH]5)c(-c5c(F)cc(S(=O)(=O)[O-])cc5F)c5nc(c(-c6c(F)cc(S(=O)(=O)[O-])cc6F)c6ccc3[nH]6)C=C5)C=C4)cc1)=C2
REMARK SMILES IDX 28 1 27 2 26 3 25 4 24 5 22 6 23 7 21 9 4 10 5 11 14 12 6 13
REMARK SMILES IDX 13 14 15 15 12 16 100 17 16 18 3 19 2 20 1 21 7 22 8 23 9 24
REMARK SMILES IDX 10 25 11 26 17 27 18 28 19 29 20 30 29 31 30 32 31 33 32 34
REMARK SMILES IDX 33 36 34 37 35 38 99 39 36 40 98 41 37 42 38 43 39 44 92 45
REMARK SMILES IDX 40 46 97 47 91 48 93 49 41 50 96 51 90 52 89 53 42 55 76 56
REMARK SMILES IDX 55 57 75 58 56 59 59 60 74 61 94 62 57 63 58 64 73 66 95 67
REMARK SMILES IDX 60 68 43 69 44 70 53 71 45 72 46 73 52 74 54 75 47 76 48 77
REMARK SMILES IDX 49 78 50 79 51 80 77 81 78 82 87 83 79 84 80 85 86 86 88 87
REMARK SMILES IDX 81 88 82 89 83 90 84 91 85 92 61 93 62 94 71 95 63 96 64 97
REMARK SMILES IDX 70 98 72 99 65 100 66 101 67 102 68 103 69 104
REMARK H PARENT 24 8 31 35 93 54 59 65
REMARK Flexibility Score: inf
ROOT
ATOM      1  C   UNL A   1      34.892  31.991  28.793  1.00  0.00     0.002 C 
ENDROOT
BRANCH   1   2
ATOM      2  C   UNL A   1      35.420  31.141  27.630  1.00  0.00     0.002 C 
BRANCH   2   3
ATOM      3  C   UNL A   1      34.809  29.739  27.531  1.00  0.00     0.021 C 
BRANCH   3   4
ATOM      4  C   UNL A   1      33.344  29.755  27.084  1.00  0.00     0.116 C 
BRANCH   4   5
ATOM      5  N   UNL A   1      33.264  29.820  25.636  1.00  0.00    -0.352 N 
ATOM      6  C   UNL A   1      33.267  28.874  24.665  1.00  0.00     0.251 C 
ATOM      7  O   UNL A   1      33.166  29.261  23.501  1.00  0.00    -0.270 OA
ATOM      8  H   UNL A   1      33.194  30.739  25.289  1.00  0.00     0.163 HD
BRANCH   6   9
ATOM      9  C   UNL A   1      33.254  27.410  24.946  1.00  0.00     0.067 C 
ATOM     10  C   UNL A   1      32.964  23.625  26.760  1.00  0.00    -0.002 A 
ATOM     11  C   UNL A   1      34.102  22.800  26.741  1.00  0.00     0.054 A 
ATOM     12  C   UNL A   1      33.024  24.862  26.096  1.00  0.00     0.131 A 
ATOM     13  C   UNL A   1      35.238  23.142  26.011  1.00  0.00     0.130 A 
ATOM     14  C   UNL A   1      34.172  25.230  25.383  1.00  0.00     0.021 A 
ATOM     15  O   UNL A   1      31.971  25.723  26.259  1.00  0.00    -0.475 OA
ATOM     16  C   UNL A   1      35.267  24.360  25.333  1.00  0.00     0.058 A 
ATOM     17  C   UNL A   1      34.289  26.570  24.817  1.00  0.00     0.025 C 
ATOM     18  C   UNL A   1      31.900  26.878  25.381  1.00  0.00     0.314 C 
BRANCH  10  19
ATOM     19  C   UNL A   1      31.736  23.181  27.529  1.00  0.00     0.039 C 
BRANCH  19  20
ATOM     20  C   UNL A   1      30.508  22.863  26.661  1.00  0.00     0.001 C 
ATOM     21  C   UNL A   1      30.823  22.171  25.340  1.00  0.00     0.004 C 
ENDBRANCH  19  20
ENDBRANCH  10  19
BRANCH  13  22
ATOM     22  O   UNL A   1      36.384  22.406  25.914  1.00  0.00    -0.406 OA
BRANCH  22  23
ATOM     23  C   UNL A   1      36.499  21.523  24.808  1.00  0.00     0.573 C 
ATOM     24  F   UNL A   1      36.905  20.297  25.207  1.00  0.00    -0.132 F 
ATOM     25  F   UNL A   1      35.325  21.412  24.148  1.00  0.00    -0.132 F 
ATOM     26  F   UNL A   1      37.419  22.013  23.951  1.00  0.00    -0.132 F 
ENDBRANCH  22  23
ENDBRANCH  13  22
BRANCH  18  27
ATOM     27  C   UNL A   1      30.988  26.551  24.181  1.00  0.00     0.429 C 
ATOM     28  F   UNL A   1      31.699  26.167  23.092  1.00  0.00    -0.167 F 
ATOM     29  F   UNL A   1      30.144  25.530  24.480  1.00  0.00    -0.167 F 
ATOM     30  F   UNL A   1      30.211  27.586  23.797  1.00  0.00    -0.167 F 
ENDBRANCH  18  27
ENDBRANCH   6   9
ENDBRANCH   4   5
ENDBRANCH   3   4
ENDBRANCH   2   3
ENDBRANCH   1   2
BRANCH   1  31
ATOM     31  C   UNL A   1      35.782  33.173  29.188  1.00  0.00     0.021 C 
BRANCH  31  32
ATOM     32  C   UNL A   1      36.877  32.827  30.193  1.00  0.00     0.116 C 
BRANCH  32  33
ATOM     33  N   UNL A   1      36.450  31.775  31.103  1.00  0.00    -0.352 N 
ATOM     34  C   UNL A   1      36.964  30.514  31.272  1.00  0.00     0.251 C 
ATOM     35  H   UNL A   1      35.684  32.000  31.678  1.00  0.00     0.163 HD
ATOM     36  O   UNL A   1      36.327  29.675  31.902  1.00  0.00    -0.269 OA
BRANCH  34  37
ATOM     37  C   UNL A   1      38.280  30.171  30.692  1.00  0.00     0.039 A 
ATOM     38  C   UNL A   1      38.413  30.108  29.303  1.00  0.00     0.014 A 
ATOM     39  C   UNL A   1      39.370  29.882  31.518  1.00  0.00     0.014 A 
ATOM     40  C   UNL A   1      39.652  29.793  28.740  1.00  0.00     0.010 A 
ATOM     41  C   UNL A   1      40.620  29.635  30.955  1.00  0.00     0.010 A 
ATOM     42  C   UNL A   1      40.771  29.574  29.562  1.00  0.00    -0.014 A 
BRANCH  42  43
ATOM     43  C   UNL A   1      42.099  29.253  28.982  1.00  0.00     0.031 A 
ATOM     44  C   UNL A   1      42.381  27.865  28.473  1.00  0.00     0.074 A 
ATOM     45  C   UNL A   1      43.066  30.191  28.968  1.00  0.00     0.049 A 
ATOM     46  N   UNL A   1      43.493  27.371  27.994  1.00  0.00    -0.248 NA
ATOM     47  C   UNL A   1      41.274  26.897  28.536  1.00  0.00     0.031 C 
ATOM     48  C   UNL A   1      42.927  31.557  29.477  1.00  0.00     0.029 A 
ATOM     49  N   UNL A   1      44.360  30.136  28.516  1.00  0.00    -0.354 N 
ATOM     50  C   UNL A   1      43.226  26.035  27.715  1.00  0.00     0.074 A 
ATOM     51  C   UNL A   1      41.862  25.783  28.126  1.00  0.00     0.031 C 
ATOM     52  C   UNL A   1      44.083  32.215  29.292  1.00  0.00     0.029 A 
ATOM     53  C   UNL A   1      45.054  31.311  28.681  1.00  0.00     0.049 A 
ATOM     54  H   UNL A   1      44.755  29.330  28.111  1.00  0.00     0.167 HD
ATOM     55  C   UNL A   1      44.035  25.110  27.145  1.00  0.00     0.037 A 
ATOM     56  C   UNL A   1      46.329  31.623  28.380  1.00  0.00     0.037 A 
ATOM     57  C   UNL A   1      45.381  25.377  26.709  1.00  0.00     0.049 A 
ATOM     58  C   UNL A   1      47.204  30.583  27.734  1.00  0.00     0.074 A 
ATOM     59  C   UNL A   1      46.264  24.525  26.069  1.00  0.00     0.029 A 
ATOM     60  N   UNL A   1      46.038  26.589  26.866  1.00  0.00    -0.354 N 
ATOM     61  N   UNL A   1      46.917  29.341  27.424  1.00  0.00    -0.248 NA
ATOM     62  C   UNL A   1      48.573  30.989  27.387  1.00  0.00     0.031 C 
ATOM     63  C   UNL A   1      47.468  25.210  25.872  1.00  0.00     0.029 A 
ATOM     64  C   UNL A   1      47.320  26.503  26.349  1.00  0.00     0.049 A 
ATOM     65  H   UNL A   1      45.650  27.391  27.284  1.00  0.00     0.167 HD
ATOM     66  C   UNL A   1      48.058  28.825  26.822  1.00  0.00     0.074 A 
ATOM     67  C   UNL A   1      49.037  29.893  26.801  1.00  0.00     0.031 C 
ATOM     68  C   UNL A   1      48.278  27.580  26.331  1.00  0.00     0.037 A 
BRANCH  55  69
ATOM     69  C   UNL A   1      43.482  23.724  26.955  1.00  0.00     0.058 A 
ATOM     70  C   UNL A   1      42.971  23.298  25.718  1.00  0.00     0.135 A 
ATOM     71  C   UNL A   1      43.484  22.801  28.014  1.00  0.00     0.135 A 
ATOM     72  F   UNL A   1      42.930  24.143  24.676  1.00  0.00    -0.206 F 
ATOM     73  C   UNL A   1      42.453  22.018  25.545  1.00  0.00     0.059 A 
ATOM     74  C   UNL A   1      42.997  21.506  27.856  1.00  0.00     0.059 A 
ATOM     75  F   UNL A   1      43.959  23.154  29.218  1.00  0.00    -0.206 F 
ATOM     76  C   UNL A   1      42.469  21.129  26.621  1.00  0.00     0.060 A 
BRANCH  76  77
ATOM     77  S   UNL A   1      41.792  19.473  26.382  1.00  0.00     0.124 S 
ATOM     78  O   UNL A   1      42.477  19.052  25.165  1.00  0.00    -0.237 OA
ATOM     79  O   UNL A   1      42.199  18.790  27.605  1.00  0.00    -0.237 OA
ATOM     80  O   UNL A   1      40.358  19.708  26.246  1.00  0.00    -0.744 OA
ENDBRANCH  76  77
ENDBRANCH  55  69
BRANCH  56  81
ATOM     81  C   UNL A   1      46.845  32.988  28.660  1.00  0.00     0.058 A 
ATOM     82  C   UNL A   1      47.441  33.295  29.893  1.00  0.00     0.135 A 
ATOM     83  C   UNL A   1      46.769  34.008  27.699  1.00  0.00     0.135 A 
ATOM     84  F   UNL A   1      47.533  32.354  30.845  1.00  0.00    -0.206 F 
ATOM     85  C   UNL A   1      47.928  34.568  30.171  1.00  0.00     0.059 A 
ATOM     86  C   UNL A   1      47.270  35.283  27.946  1.00  0.00     0.059 A 
ATOM     87  F   UNL A   1      46.226  33.761  26.498  1.00  0.00    -0.206 F 
ATOM     88  C   UNL A   1      47.838  35.556  29.189  1.00  0.00     0.060 A 
BRANCH  88  89
ATOM     89  S   UNL A   1      48.518  37.192  29.542  1.00  0.00     0.124 S 
ATOM     90  O   UNL A   1      48.788  37.095  30.971  1.00  0.00    -0.237 OA
ATOM     91  O   UNL A   1      49.687  37.233  28.670  1.00  0.00    -0.237 OA
ATOM     92  O   UNL A   1      47.432  38.093  29.164  1.00  0.00    -0.744 OA
ENDBRANCH  88  89
ENDBRANCH  56  81
BRANCH  68  93
ATOM     93  C   UNL A   1      49.615  27.315  25.696  1.00  0.00     0.058 A 
ATOM     94  C   UNL A   1      50.722  26.904  26.454  1.00  0.00     0.135 A 
ATOM     95  C   UNL A   1      49.777  27.435  24.307  1.00  0.00     0.135 A 
ATOM     96  F   UNL A   1      50.621  26.779  27.787  1.00  0.00    -0.206 F 
ATOM     97  C   UNL A   1      51.953  26.645  25.858  1.00  0.00     0.059 A 
ATOM     98  C   UNL A   1      50.991  27.157  23.687  1.00  0.00     0.059 A 
ATOM     99  F   UNL A   1      48.747  27.815  23.535  1.00  0.00    -0.206 F 
ATOM    100  C   UNL A   1      52.078  26.774  24.474  1.00  0.00     0.060 A 
BRANCH 100 101
ATOM    101  S   UNL A   1      53.672  26.413  23.710  1.00  0.00     0.124 S 
ATOM    102  O   UNL A   1      54.191  25.372  24.590  1.00  0.00    -0.237 OA
ATOM    103  O   UNL A   1      53.287  25.977  22.371  1.00  0.00    -0.237 OA
ATOM    104  O   UNL A   1      54.374  27.693  23.768  1.00  0.00    -0.744 OA
ENDBRANCH 100 101
ENDBRANCH  68  93
ENDBRANCH  42  43
ENDBRANCH  34  37
ENDBRANCH  32  33
ENDBRANCH  31  32
ENDBRANCH   1  31
TORSDOF 21
ENDMDL
MODEL 3
REMARK VINA RESULT:     -11.2      6.257     11.790
REMARK SMILES CCCc1cc(OC(F)(F)F)cc2c1O[C@H](C(F)(F)F)C(C(=O)NCCCCCCNC(=O)c1ccc(-c3c4nc(c(-c5c(F)cc(S(=O)(=O)[O-])cc5F)c5ccc([nH]5)c(-c5c(F)cc(S(=O)(=O)[O-])cc5F)c5nc(c(-c6c(F)cc(S(=O)(=O)[O-])cc6F)c6ccc3[nH]6)C=C5)C=C4)cc1)=C2
REMARK SMILES IDX 28 1 27 2 26 3 25 4 24 5 22 6 23 7 21 9 4 10 5 11 14 12 6 13
REMARK SMILES IDX 13 14 15 15 12 16 100 17 16 18 3 19 2 20 1 21 7 22 8 23 9 24
REMARK SMILES IDX 10 25 11 26 17 27 18 28 19 29 20 30 29 31 30 32 31 33 32 34
REMARK SMILES IDX 33 36 34 37 35 38 99 39 36 40 98 41 37 42 38 43 39 44 92 45
REMARK SMILES IDX 40 46 97 47 91 48 93 49 41 50 96 51 90 52 89 53 42 55 76 56
REMARK SMILES IDX 55 57 75 58 56 59 59 60 74 61 94 62 57 63 58 64 73 66 95 67
REMARK SMILES IDX 60 68 43 69 44 70 53 71 45 72 46 73 52 74 54 75 47 76 48 77
REMARK SMILES IDX 49 78 50 79 51 80 77 81 78 82 87 83 79 84 80 85 86 86 88 87
REMARK SMILES IDX 81 88 82 89 83 90 84 91 85 92 61 93 62 94 71 95 63 96 64 97
REMARK SMILES IDX 70 98 72 99 65 100 66 101 67 102 68 103 69 104
REMARK H PARENT 24 8 31 35 93 54 59 65
REMARK Flexibility Score: inf
ROOT
ATOM      1  C   UNL A   1      40.805  22.223  27.761  1.00  0.00     0.002 C 
ENDROOT
BRANCH   1   2
ATOM      2  C   UNL A   1      39.616  22.250  26.793  1.00  0.00     0.002 C 
BRANCH   2   3
ATOM      3  C   UNL A   1      39.051  23.648  26.511  1.00  0.00     0.021 C 
BRANCH   3   4
ATOM      4  C   UNL A   1      37.575  23.626  26.104  1.00  0.00     0.116 C 
BRANCH   4   5
ATOM      5  N   UNL A   1      37.141  22.262  25.870  1.00  0.00    -0.352 N 
ATOM      6  C   UNL A   1      35.928  21.703  25.636  1.00  0.00     0.251 C 
ATOM      7  O   UNL A   1      35.892  20.486  25.457  1.00  0.00    -0.270 OA
ATOM      8  H   UNL A   1      37.877  21.608  25.885  1.00  0.00     0.163 HD
BRANCH   6   9
ATOM      9  C   UNL A   1      34.679  22.499  25.458  1.00  0.00     0.067 C 
ATOM     10  C   UNL A   1      31.695  25.115  24.063  1.00  0.00    -0.002 A 
ATOM     11  C   UNL A   1      31.287  26.158  24.913  1.00  0.00     0.054 A 
ATOM     12  C   UNL A   1      32.639  24.192  24.543  1.00  0.00     0.131 A 
ATOM     13  C   UNL A   1      31.728  26.237  26.233  1.00  0.00     0.130 A 
ATOM     14  C   UNL A   1      33.111  24.278  25.859  1.00  0.00     0.021 A 
ATOM     15  O   UNL A   1      33.148  23.282  23.654  1.00  0.00    -0.475 OA
ATOM     16  C   UNL A   1      32.640  25.292  26.701  1.00  0.00     0.058 A 
ATOM     17  C   UNL A   1      34.195  23.411  26.310  1.00  0.00     0.025 C 
ATOM     18  C   UNL A   1      33.915  22.170  24.189  1.00  0.00     0.314 C 
BRANCH  10  19
ATOM     19  C   UNL A   1      31.146  25.049  22.652  1.00  0.00     0.039 C 
BRANCH  19  20
ATOM     20  C   UNL A   1      31.744  26.077  21.677  1.00  0.00     0.001 C 
ATOM     21  C   UNL A   1      32.706  25.494  20.648  1.00  0.00     0.004 C 
ENDBRANCH  19  20
ENDBRANCH  10  19
BRANCH  13  22
ATOM     22  O   UNL A   1      31.379  27.195  27.141  1.00  0.00    -0.406 OA
BRANCH  22  23
ATOM     23  C   UNL A   1      32.085  28.426  27.093  1.00  0.00     0.573 C 
ATOM     24  F   UNL A   1      32.462  28.719  25.829  1.00  0.00    -0.132 F 
ATOM     25  F   UNL A   1      31.335  29.438  27.581  1.00  0.00    -0.132 F 
ATOM     26  F   UNL A   1      33.197  28.323  27.851  1.00  0.00    -0.132 F 
ENDBRANCH  22  23
ENDBRANCH  13  22
BRANCH  18  27
ATOM     27  C   UNL A   1      32.988  20.950  24.364  1.00  0.00     0.429 C 
ATOM     28  F   UNL A   1      32.701  20.713  25.668  1.00  0.00    -0.167 F 
ATOM     29  F   UNL A   1      31.803  21.148  23.730  1.00  0.00    -0.167 F 
ATOM     30  F   UNL A   1      33.502  19.807  23.861  1.00  0.00    -0.167 F 
ENDBRANCH  18  27
ENDBRANCH   6   9
ENDBRANCH   4   5
ENDBRANCH   3   4
ENDBRANCH   2   3
ENDBRANCH   1   2
BRANCH   1  31
ATOM     31  C   UNL A   1      42.183  22.152  27.093  1.00  0.00     0.021 C 
BRANCH  31  32
ATOM     32  C   UNL A   1      43.040  23.398  27.289  1.00  0.00     0.116 C 
BRANCH  32  33
ATOM     33  N   UNL A   1      43.087  24.207  26.081  1.00  0.00    -0.352 N 
ATOM     34  C   UNL A   1      42.663  25.498  25.885  1.00  0.00     0.251 C 
ATOM     35  H   UNL A   1      43.478  23.766  25.293  1.00  0.00     0.163 HD
ATOM     36  O   UNL A   1      42.549  25.936  24.745  1.00  0.00    -0.269 OA
BRANCH  34  37
ATOM     37  C   UNL A   1      42.342  26.352  27.048  1.00  0.00     0.039 A 
ATOM     38  C   UNL A   1      41.289  25.984  27.889  1.00  0.00     0.014 A 
ATOM     39  C   UNL A   1      43.057  27.529  27.289  1.00  0.00     0.014 A 
ATOM     40  C   UNL A   1      40.979  26.777  28.997  1.00  0.00     0.010 A 
ATOM     41  C   UNL A   1      42.790  28.281  28.430  1.00  0.00     0.010 A 
ATOM     42  C   UNL A   1      41.741  27.921  29.288  1.00  0.00    -0.014 A 
BRANCH  42  43
ATOM     43  C   UNL A   1      41.436  28.768  30.468  1.00  0.00     0.031 A 
ATOM     44  C   UNL A   1      42.243  28.619  31.729  1.00  0.00     0.074 A 
ATOM     45  C   UNL A   1      40.399  29.628  30.423  1.00  0.00     0.049 A 
ATOM     46  N   UNL A   1      42.091  29.215  32.883  1.00  0.00    -0.248 NA
ATOM     47  C   UNL A   1      43.349  27.649  31.698  1.00  0.00     0.031 C 
ATOM     48  C   UNL A   1      39.515  29.827  29.274  1.00  0.00     0.029 A 
ATOM     49  N   UNL A   1      39.909  30.489  31.371  1.00  0.00    -0.354 N 
ATOM     50  C   UNL A   1      43.068  28.684  33.717  1.00  0.00     0.074 A 
ATOM     51  C   UNL A   1      43.774  27.679  32.953  1.00  0.00     0.031 C 
ATOM     52  C   UNL A   1      38.602  30.764  29.578  1.00  0.00     0.029 A 
ATOM     53  C   UNL A   1      38.815  31.209  30.952  1.00  0.00     0.049 A 
ATOM     54  H   UNL A   1      40.302  30.582  32.270  1.00  0.00     0.167 HD
ATOM     55  C   UNL A   1      43.366  29.020  34.995  1.00  0.00     0.037 A 
ATOM     56  C   UNL A   1      38.067  32.120  31.603  1.00  0.00     0.037 A 
ATOM     57  C   UNL A   1      42.680  30.043  35.740  1.00  0.00     0.049 A 
ATOM     58  C   UNL A   1      38.427  32.488  33.017  1.00  0.00     0.074 A 
ATOM     59  C   UNL A   1      42.941  30.499  37.020  1.00  0.00     0.029 A 
ATOM     60  N   UNL A   1      41.597  30.772  35.269  1.00  0.00    -0.354 N 
ATOM     61  N   UNL A   1      39.391  32.016  33.772  1.00  0.00    -0.248 NA
ATOM     62  C   UNL A   1      37.603  33.518  33.666  1.00  0.00     0.031 C 
ATOM     63  C   UNL A   1      41.993  31.478  37.337  1.00  0.00     0.029 A 
ATOM     64  C   UNL A   1      41.169  31.664  36.238  1.00  0.00     0.049 A 
ATOM     65  H   UNL A   1      41.192  30.669  34.378  1.00  0.00     0.167 HD
ATOM     66  C   UNL A   1      39.308  32.710  34.973  1.00  0.00     0.074 A 
ATOM     67  C   UNL A   1      38.206  33.642  34.841  1.00  0.00     0.031 C 
ATOM     68  C   UNL A   1      40.074  32.589  36.086  1.00  0.00     0.037 A 
BRANCH  55  69
ATOM     69  C   UNL A   1      44.489  28.276  35.667  1.00  0.00     0.058 A 
ATOM     70  C   UNL A   1      45.817  28.729  35.598  1.00  0.00     0.135 A 
ATOM     71  C   UNL A   1      44.234  27.112  36.409  1.00  0.00     0.135 A 
ATOM     72  F   UNL A   1      46.121  29.828  34.889  1.00  0.00    -0.206 F 
ATOM     73  C   UNL A   1      46.855  28.038  36.213  1.00  0.00     0.059 A 
ATOM     74  C   UNL A   1      45.253  26.419  37.056  1.00  0.00     0.059 A 
ATOM     75  F   UNL A   1      42.984  26.633  36.508  1.00  0.00    -0.206 F 
ATOM     76  C   UNL A   1      46.564  26.882  36.939  1.00  0.00     0.060 A 
BRANCH  76  77
ATOM     77  S   UNL A   1      47.922  25.994  37.730  1.00  0.00     0.124 S 
ATOM     78  O   UNL A   1      47.896  24.724  37.014  1.00  0.00    -0.237 OA
ATOM     79  O   UNL A   1      49.065  26.857  37.448  1.00  0.00    -0.237 OA
ATOM     80  O   UNL A   1      47.518  25.934  39.132  1.00  0.00    -0.744 OA
ENDBRANCH  76  77
ENDBRANCH  55  69
BRANCH  56  81
ATOM     81  C   UNL A   1      36.920  32.768  30.914  1.00  0.00     0.058 A 
ATOM     82  C   UNL A   1      37.125  33.825  30.013  1.00  0.00     0.135 A 
ATOM     83  C   UNL A   1      35.602  32.336  31.127  1.00  0.00     0.135 A 
ATOM     84  F   UNL A   1      38.367  34.276  29.781  1.00  0.00    -0.206 F 
ATOM     85  C   UNL A   1      36.063  34.443  29.362  1.00  0.00     0.059 A 
ATOM     86  C   UNL A   1      34.526  32.923  30.468  1.00  0.00     0.059 A 
ATOM     87  F   UNL A   1      35.355  31.317  31.963  1.00  0.00    -0.206 F 
ATOM     88  C   UNL A   1      34.766  33.983  29.595  1.00  0.00     0.060 A 
BRANCH  88  89
ATOM     89  S   UNL A   1      33.398  34.759  28.707  1.00  0.00     0.124 S 
ATOM     90  O   UNL A   1      32.992  33.691  27.802  1.00  0.00    -0.237 OA
ATOM     91  O   UNL A   1      32.468  35.071  29.787  1.00  0.00    -0.237 OA
ATOM     92  O   UNL A   1      34.024  35.918  28.076  1.00  0.00    -0.744 OA
ENDBRANCH  88  89
ENDBRANCH  56  81
BRANCH  68  93
ATOM     93  C   UNL A   1      39.771  33.509  37.236  1.00  0.00     0.058 A 
ATOM     94  C   UNL A   1      38.851  33.160  38.236  1.00  0.00     0.135 A 
ATOM     95  C   UNL A   1      40.442  34.736  37.358  1.00  0.00     0.135 A 
ATOM     96  F   UNL A   1      38.179  32.000  38.162  1.00  0.00    -0.206 F 
ATOM     97  C   UNL A   1      38.586  34.010  39.306  1.00  0.00     0.059 A 
ATOM     98  C   UNL A   1      40.212  35.589  38.433  1.00  0.00     0.059 A 
ATOM     99  F   UNL A   1      41.340  35.112  36.434  1.00  0.00    -0.206 F 
ATOM    100  C   UNL A   1      39.272  35.222  39.396  1.00  0.00     0.060 A 
BRANCH 100 101
ATOM    101  S   UNL A   1      38.938  36.304  40.800  1.00  0.00     0.124 S 
ATOM    102  O   UNL A   1      37.862  35.588  41.475  1.00  0.00    -0.237 OA
ATOM    103  O   UNL A   1      40.222  36.321  41.496  1.00  0.00    -0.237 OA
ATOM    104  O   UNL A   1      38.556  37.567  40.173  1.00  0.00    -0.744 OA
ENDBRANCH 100 101
ENDBRANCH  68  93
ENDBRANCH  42  43
ENDBRANCH  34  37
ENDBRANCH  32  33
ENDBRANCH  31  32
ENDBRANCH   1  31
TORSDOF 21
ENDMDL
