MODEL 1
REMARK VINA RESULT:     -10.6      0.000      0.000
REMARK SMILES NS(=O)(=O)c1ccc(-n2nc(C(=O)NCCCCCCNC(=O)c3ccc(-c4c5nc(c(-c6c(F)cc(S(=O)(=O)[O-])cc6F)c6ccc([nH]6)c(-c6c(F)cc(S(=O)(=O)[O-])cc6F)c6nc(c(-c7c(F)cc(S(=O)(=O)[O-])cc7F)c7ccc4[nH]7)C=C6)C=C5)cc3)cc2-c2ccc(Cl)s2)cc1
REMARK SMILES IDX 17 1 16 2 15 3 14 4 12 5 13 6 11 8 9 9 10 10 91 11 90 12
REMARK SMILES IDX 8 13 5 14 6 15 99 16 7 17 98 18 2 19 3 20 4 21 1 22 92 25
REMARK SMILES IDX 93 26 97 27 94 28 95 29 96 30 18 31 19 32 20 33 21 34 22 35
REMARK SMILES IDX 23 37 24 38 25 39 89 40 26 41 88 42 27 43 28 44 29 45 82 46
REMARK SMILES IDX 30 47 87 48 81 49 83 50 31 51 86 52 80 53 79 54 32 56 66 57
REMARK SMILES IDX 45 58 65 59 46 60 49 61 64 62 84 63 47 64 48 65 63 67 85 68
REMARK SMILES IDX 50 69 33 70 34 71 43 72 35 73 36 74 42 75 44 76 37 77 38 78
REMARK SMILES IDX 39 79 40 80 41 81 67 82 68 83 77 84 69 85 70 86 76 87 78 88
REMARK SMILES IDX 71 89 72 90 73 91 74 92 75 93 51 94 52 95 61 96 53 97 54 98
REMARK SMILES IDX 60 99 62 100 55 101 56 102 57 103 58 104 59 105
REMARK H PARENT 14 7 1 23 1 24 21 36 83 55 49 66
REMARK Flexibility Score: inf
ROOT
ATOM      1  C   UNL A   1      44.146  32.010  27.853  1.00  0.00     0.002 C 
ENDROOT
BRANCH   1   2
ATOM      2  C   UNL A   1      44.042  30.508  28.141  1.00  0.00     0.021 C 
BRANCH   2   3
ATOM      3  C   UNL A   1      44.840  29.655  27.158  1.00  0.00     0.116 C 
BRANCH   3   4
ATOM      4  N   UNL A   1      44.023  29.203  26.053  1.00  0.00    -0.351 N 
ATOM      5  C   UNL A   1      43.537  27.976  25.660  1.00  0.00     0.271 C 
ATOM      6  O   UNL A   1      42.840  27.995  24.640  1.00  0.00    -0.267 OA
ATOM      7  H   UNL A   1      43.754  29.933  25.450  1.00  0.00     0.163 HD
BRANCH   5   8
ATOM      8  C   UNL A   1      43.789  26.727  26.417  1.00  0.00     0.151 A 
ATOM      9  N   UNL A   1      44.170  24.620  26.696  1.00  0.00    -0.231 N 
ATOM     10  N   UNL A   1      44.123  25.593  25.757  1.00  0.00    -0.162 NA
ATOM     11  C   UNL A   1      43.987  25.120  27.966  1.00  0.00     0.085 A 
ATOM     12  C   UNL A   1      43.759  26.464  27.805  1.00  0.00     0.066 A 
BRANCH   9  13
ATOM     13  C   UNL A   1      44.355  23.267  26.339  1.00  0.00     0.065 A 
ATOM     14  C   UNL A   1      44.716  20.737  25.277  1.00  0.00     0.082 A 
ATOM     15  C   UNL A   1      45.834  21.528  25.560  1.00  0.00     0.024 A 
ATOM     16  C   UNL A   1      43.422  21.182  25.568  1.00  0.00     0.024 A 
ATOM     17  C   UNL A   1      45.652  22.800  26.087  1.00  0.00     0.030 A 
ATOM     18  C   UNL A   1      43.239  22.448  26.132  1.00  0.00     0.030 A 
BRANCH  14  19
ATOM     19  S   UNL A   1      44.992  19.184  24.488  1.00  0.00     0.238 S 
ATOM     20  O   UNL A   1      46.300  18.700  24.837  1.00  0.00    -0.207 OA
ATOM     21  O   UNL A   1      44.506  19.232  23.122  1.00  0.00    -0.207 OA
BRANCH  19  22
ATOM     22  N   UNL A   1      43.906  18.189  25.302  1.00  0.00    -0.225 NA
ATOM     23  H   UNL A   1      44.415  17.440  25.770  1.00  0.00     0.137 HD
ATOM     24  H   UNL A   1      43.247  17.786  24.635  1.00  0.00     0.137 HD
ENDBRANCH  19  22
ENDBRANCH  14  19
ENDBRANCH   9  13
BRANCH  11  25
ATOM     25  C   UNL A   1      44.144  24.435  29.213  1.00  0.00     0.054 A 
ATOM     26  C   UNL A   1      43.499  23.277  29.602  1.00  0.00     0.024 A 
ATOM     27  S   UNL A   1      45.087  25.095  30.483  1.00  0.00    -0.122 S 
ATOM     28  C   UNL A   1      43.762  22.951  30.966  1.00  0.00     0.033 A 
ATOM     29  C   UNL A   1      44.595  23.875  31.542  1.00  0.00     0.094 A 
ATOM     30  Cl  UNL A   1      45.135  23.890  33.171  1.00  0.00    -0.072 Cl
ENDBRANCH  11  25
ENDBRANCH   5   8
ENDBRANCH   3   4
ENDBRANCH   2   3
ENDBRANCH   1   2
BRANCH   1  31
ATOM     31  C   UNL A   1      43.808  32.432  26.411  1.00  0.00     0.002 C 
BRANCH  31  32
ATOM     32  C   UNL A   1      44.880  33.250  25.674  1.00  0.00     0.021 C 
BRANCH  32  33
ATOM     33  C   UNL A   1      46.094  33.566  26.530  1.00  0.00     0.116 C 
BRANCH  33  34
ATOM     34  N   UNL A   1      46.419  34.991  26.523  1.00  0.00    -0.352 N 
ATOM     35  C   UNL A   1      45.696  36.030  27.071  1.00  0.00     0.251 C 
ATOM     36  H   UNL A   1      47.259  35.239  26.074  1.00  0.00     0.163 HD
ATOM     37  O   UNL A   1      45.866  37.179  26.678  1.00  0.00    -0.269 OA
BRANCH  35  38
ATOM     38  C   UNL A   1      44.715  35.728  28.129  1.00  0.00     0.039 A 
ATOM     39  C   UNL A   1      43.343  35.853  27.906  1.00  0.00     0.014 A 
ATOM     40  C   UNL A   1      45.193  35.281  29.360  1.00  0.00     0.014 A 
ATOM     41  C   UNL A   1      42.465  35.444  28.906  1.00  0.00     0.010 A 
ATOM     42  C   UNL A   1      44.332  34.722  30.272  1.00  0.00     0.010 A 
ATOM     43  C   UNL A   1      42.964  34.846  30.081  1.00  0.00    -0.014 A 
BRANCH  43  44
ATOM     44  C   UNL A   1      42.058  34.235  31.051  1.00  0.00     0.031 A 
ATOM     45  C   UNL A   1      42.674  34.022  32.387  1.00  0.00     0.074 A 
ATOM     46  C   UNL A   1      40.740  34.012  30.840  1.00  0.00     0.049 A 
ATOM     47  N   UNL A   1      43.082  32.900  32.877  1.00  0.00    -0.248 NA
ATOM     48  C   UNL A   1      43.062  35.194  33.189  1.00  0.00     0.031 C 
ATOM     49  C   UNL A   1      39.913  34.402  29.691  1.00  0.00     0.029 A 
ATOM     50  N   UNL A   1      39.828  33.427  31.667  1.00  0.00    -0.354 N 
ATOM     51  C   UNL A   1      43.544  33.184  34.156  1.00  0.00     0.074 A 
ATOM     52  C   UNL A   1      43.697  34.615  34.213  1.00  0.00     0.031 C 
ATOM     53  C   UNL A   1      38.603  34.247  29.992  1.00  0.00     0.029 A 
ATOM     54  C   UNL A   1      38.499  33.574  31.273  1.00  0.00     0.049 A 
ATOM     55  H   UNL A   1      40.088  32.937  32.480  1.00  0.00     0.167 HD
ATOM     56  C   UNL A   1      43.515  32.231  35.128  1.00  0.00     0.037 A 
ATOM     57  C   UNL A   1      37.390  33.150  31.934  1.00  0.00     0.037 A 
ATOM     58  C   UNL A   1      43.298  30.925  34.552  1.00  0.00     0.049 A 
ATOM     59  C   UNL A   1      37.826  32.054  32.832  1.00  0.00     0.074 A 
ATOM     60  C   UNL A   1      43.980  30.124  33.656  1.00  0.00     0.029 A 
ATOM     61  N   UNL A   1      42.014  30.435  34.596  1.00  0.00    -0.354 N 
ATOM     62  N   UNL A   1      38.275  30.906  32.402  1.00  0.00    -0.248 NA
ATOM     63  C   UNL A   1      38.203  32.402  34.191  1.00  0.00     0.031 C 
ATOM     64  C   UNL A   1      42.965  29.499  32.871  1.00  0.00     0.029 A 
ATOM     65  C   UNL A   1      41.722  29.885  33.374  1.00  0.00     0.049 A 
ATOM     66  H   UNL A   1      41.408  30.474  35.370  1.00  0.00     0.167 HD
ATOM     67  C   UNL A   1      39.339  30.609  33.241  1.00  0.00     0.074 A 
ATOM     68  C   UNL A   1      39.183  31.513  34.380  1.00  0.00     0.031 C 
ATOM     69  C   UNL A   1      40.392  29.859  32.799  1.00  0.00     0.037 A 
BRANCH  56  70
ATOM     70  C   UNL A   1      43.265  32.499  36.596  1.00  0.00     0.058 A 
ATOM     71  C   UNL A   1      44.173  31.984  37.546  1.00  0.00     0.135 A 
ATOM     72  C   UNL A   1      42.040  32.967  37.120  1.00  0.00     0.135 A 
ATOM     73  F   UNL A   1      45.372  31.514  37.164  1.00  0.00    -0.206 F 
ATOM     74  C   UNL A   1      43.852  31.859  38.898  1.00  0.00     0.059 A 
ATOM     75  C   UNL A   1      41.720  32.898  38.471  1.00  0.00     0.059 A 
ATOM     76  F   UNL A   1      41.054  33.427  36.341  1.00  0.00    -0.206 F 
ATOM     77  C   UNL A   1      42.613  32.305  39.347  1.00  0.00     0.060 A 
BRANCH  77  78
ATOM     78  S   UNL A   1      42.160  32.062  41.072  1.00  0.00     0.124 S 
ATOM     79  O   UNL A   1      42.935  30.874  41.411  1.00  0.00    -0.237 OA
ATOM     80  O   UNL A   1      42.605  33.313  41.677  1.00  0.00    -0.237 OA
ATOM     81  O   UNL A   1      40.712  31.880  41.014  1.00  0.00    -0.744 OA
ENDBRANCH  77  78
ENDBRANCH  56  70
BRANCH  57  82
ATOM     82  C   UNL A   1      36.076  33.833  32.088  1.00  0.00     0.058 A 
ATOM     83  C   UNL A   1      35.871  34.821  33.071  1.00  0.00     0.135 A 
ATOM     84  C   UNL A   1      35.094  33.752  31.081  1.00  0.00     0.135 A 
ATOM     85  F   UNL A   1      36.765  34.985  34.058  1.00  0.00    -0.206 F 
ATOM     86  C   UNL A   1      34.788  35.711  33.028  1.00  0.00     0.059 A 
ATOM     87  C   UNL A   1      34.005  34.625  31.019  1.00  0.00     0.059 A 
ATOM     88  F   UNL A   1      35.216  32.879  30.069  1.00  0.00    -0.206 F 
ATOM     89  C   UNL A   1      33.872  35.619  31.981  1.00  0.00     0.060 A 
BRANCH  89  90
ATOM     90  S   UNL A   1      32.573  36.872  31.818  1.00  0.00     0.124 S 
ATOM     91  O   UNL A   1      31.514  36.320  32.655  1.00  0.00    -0.237 OA
ATOM     92  O   UNL A   1      33.233  38.068  32.331  1.00  0.00    -0.237 OA
ATOM     93  O   UNL A   1      32.294  36.883  30.385  1.00  0.00    -0.744 OA
ENDBRANCH  89  90
ENDBRANCH  57  82
BRANCH  69  94
ATOM     94  C   UNL A   1      40.223  29.086  31.513  1.00  0.00     0.058 A 
ATOM     95  C   UNL A   1      40.763  29.457  30.268  1.00  0.00     0.135 A 
ATOM     96  C   UNL A   1      39.589  27.836  31.585  1.00  0.00     0.135 A 
ATOM     97  F   UNL A   1      41.468  30.588  30.128  1.00  0.00    -0.206 F 
ATOM     98  C   UNL A   1      40.641  28.640  29.140  1.00  0.00     0.059 A 
ATOM     99  C   UNL A   1      39.484  26.994  30.484  1.00  0.00     0.059 A 
ATOM    100  F   UNL A   1      39.101  27.398  32.758  1.00  0.00    -0.206 F 
ATOM    101  C   UNL A   1      39.999  27.408  29.258  1.00  0.00     0.060 A 
BRANCH 101 102
ATOM    102  S   UNL A   1      39.892  26.321  27.819  1.00  0.00     0.124 S 
ATOM    103  O   UNL A   1      40.461  27.152  26.764  1.00  0.00    -0.237 OA
ATOM    104  O   UNL A   1      40.699  25.173  28.226  1.00  0.00    -0.237 OA
ATOM    105  O   UNL A   1      38.461  26.052  27.698  1.00  0.00    -0.744 OA
ENDBRANCH 101 102
ENDBRANCH  69  94
ENDBRANCH  43  44
ENDBRANCH  35  38
ENDBRANCH  33  34
ENDBRANCH  32  33
ENDBRANCH  31  32
ENDBRANCH   1  31
TORSDOF 20
ENDMDL
MODEL 2
REMARK VINA RESULT:     -10.6      4.306      8.062
REMARK SMILES NS(=O)(=O)c1ccc(-n2nc(C(=O)NCCCCCCNC(=O)c3ccc(-c4c5nc(c(-c6c(F)cc(S(=O)(=O)[O-])cc6F)c6ccc([nH]6)c(-c6c(F)cc(S(=O)(=O)[O-])cc6F)c6nc(c(-c7c(F)cc(S(=O)(=O)[O-])cc7F)c7ccc4[nH]7)C=C6)C=C5)cc3)cc2-c2ccc(Cl)s2)cc1
REMARK SMILES IDX 17 1 16 2 15 3 14 4 12 5 13 6 11 8 9 9 10 10 91 11 90 12
REMARK SMILES IDX 8 13 5 14 6 15 99 16 7 17 98 18 2 19 3 20 4 21 1 22 92 25
REMARK SMILES IDX 93 26 97 27 94 28 95 29 96 30 18 31 19 32 20 33 21 34 22 35
REMARK SMILES IDX 23 37 24 38 25 39 89 40 26 41 88 42 27 43 28 44 29 45 82 46
REMARK SMILES IDX 30 47 87 48 81 49 83 50 31 51 86 52 80 53 79 54 32 56 66 57
REMARK SMILES IDX 45 58 65 59 46 60 49 61 64 62 84 63 47 64 48 65 63 67 85 68
REMARK SMILES IDX 50 69 33 70 34 71 43 72 35 73 36 74 42 75 44 76 37 77 38 78
REMARK SMILES IDX 39 79 40 80 41 81 67 82 68 83 77 84 69 85 70 86 76 87 78 88
REMARK SMILES IDX 71 89 72 90 73 91 74 92 75 93 51 94 52 95 61 96 53 97 54 98
REMARK SMILES IDX 60 99 62 100 55 101 56 102 57 103 58 104 59 105
REMARK H PARENT 14 7 1 23 1 24 21 36 83 55 49 66
REMARK Flexibility Score: inf
ROOT
ATOM      1  C   UNL A   1      45.469  23.624  24.600  1.00  0.00     0.002 C 
ENDROOT
BRANCH   1   2
ATOM      2  C   UNL A   1      46.018  24.915  25.220  1.00  0.00     0.021 C 
BRANCH   2   3
ATOM      3  C   UNL A   1      44.971  26.022  25.317  1.00  0.00     0.116 C 
BRANCH   3   4
ATOM      4  N   UNL A   1      45.438  27.256  24.726  1.00  0.00    -0.351 N 
ATOM      5  C   UNL A   1      46.487  28.107  24.989  1.00  0.00     0.271 C 
ATOM      6  O   UNL A   1      46.571  29.079  24.231  1.00  0.00    -0.267 OA
ATOM      7  H   UNL A   1      44.884  27.552  23.968  1.00  0.00     0.163 HD
BRANCH   5   8
ATOM      8  C   UNL A   1      47.473  27.865  26.069  1.00  0.00     0.151 A 
ATOM      9  N   UNL A   1      49.364  27.287  26.934  1.00  0.00    -0.231 N 
ATOM     10  N   UNL A   1      48.755  27.561  25.758  1.00  0.00    -0.162 NA
ATOM     11  C   UNL A   1      48.538  27.518  28.010  1.00  0.00     0.085 A 
ATOM     12  C   UNL A   1      47.334  27.902  27.475  1.00  0.00     0.066 A 
BRANCH   9  13
ATOM     13  C   UNL A   1      50.687  26.793  26.975  1.00  0.00     0.065 A 
ATOM     14  C   UNL A   1      53.321  25.988  26.711  1.00  0.00     0.082 A 
ATOM     15  C   UNL A   1      53.038  27.232  27.284  1.00  0.00     0.024 A 
ATOM     16  C   UNL A   1      52.295  25.122  26.315  1.00  0.00     0.024 A 
ATOM     17  C   UNL A   1      51.717  27.638  27.410  1.00  0.00     0.030 A 
ATOM     18  C   UNL A   1      50.963  25.515  26.475  1.00  0.00     0.030 A 
BRANCH  14  19
ATOM     19  S   UNL A   1      55.015  25.572  26.452  1.00  0.00     0.238 S 
ATOM     20  O   UNL A   1      55.490  24.800  27.568  1.00  0.00    -0.207 OA
ATOM     21  O   UNL A   1      55.729  26.719  25.924  1.00  0.00    -0.207 OA
BRANCH  19  22
ATOM     22  N   UNL A   1      54.911  24.494  25.164  1.00  0.00    -0.225 NA
ATOM     23  H   UNL A   1      55.535  24.795  24.416  1.00  0.00     0.137 HD
ATOM     24  H   UNL A   1      53.952  24.468  24.818  1.00  0.00     0.137 HD
ENDBRANCH  19  22
ENDBRANCH  14  19
ENDBRANCH   9  13
BRANCH  11  25
ATOM     25  C   UNL A   1      48.878  27.511  29.400  1.00  0.00     0.054 A 
ATOM     26  C   UNL A   1      49.282  28.597  30.153  1.00  0.00     0.024 A 
ATOM     27  S   UNL A   1      48.972  26.050  30.290  1.00  0.00    -0.122 S 
ATOM     28  C   UNL A   1      49.699  28.213  31.463  1.00  0.00     0.033 A 
ATOM     29  C   UNL A   1      49.588  26.858  31.639  1.00  0.00     0.094 A 
ATOM     30  Cl  UNL A   1      50.016  25.972  33.044  1.00  0.00    -0.072 Cl
ENDBRANCH  11  25
ENDBRANCH   5   8
ENDBRANCH   3   4
ENDBRANCH   2   3
ENDBRANCH   1   2
BRANCH   1  31
ATOM     31  C   UNL A   1      45.453  22.397  25.530  1.00  0.00     0.002 C 
BRANCH  31  32
ATOM     32  C   UNL A   1      44.093  21.711  25.727  1.00  0.00     0.021 C 
BRANCH  32  33
ATOM     33  C   UNL A   1      42.917  22.564  25.282  1.00  0.00     0.116 C 
BRANCH  33  34
ATOM     34  N   UNL A   1      41.640  22.037  25.759  1.00  0.00    -0.352 N 
ATOM     35  C   UNL A   1      40.842  22.532  26.770  1.00  0.00     0.251 C 
ATOM     36  H   UNL A   1      41.309  21.230  25.303  1.00  0.00     0.163 HD
ATOM     37  O   UNL A   1      40.018  21.809  27.321  1.00  0.00    -0.269 OA
BRANCH  35  38
ATOM     38  C   UNL A   1      41.005  23.940  27.174  1.00  0.00     0.039 A 
ATOM     39  C   UNL A   1      40.184  24.944  26.657  1.00  0.00     0.014 A 
ATOM     40  C   UNL A   1      41.987  24.245  28.115  1.00  0.00     0.014 A 
ATOM     41  C   UNL A   1      40.311  26.235  27.163  1.00  0.00     0.010 A 
ATOM     42  C   UNL A   1      41.995  25.472  28.731  1.00  0.00     0.010 A 
ATOM     43  C   UNL A   1      41.200  26.490  28.227  1.00  0.00    -0.014 A 
BRANCH  43  44
ATOM     44  C   UNL A   1      41.206  27.788  28.900  1.00  0.00     0.031 A 
ATOM     45  C   UNL A   1      42.268  28.706  28.409  1.00  0.00     0.074 A 
ATOM     46  C   UNL A   1      40.263  28.207  29.775  1.00  0.00     0.049 A 
ATOM     47  N   UNL A   1      43.371  28.998  29.011  1.00  0.00    -0.248 NA
ATOM     48  C   UNL A   1      42.201  29.199  27.024  1.00  0.00     0.031 C 
ATOM     49  C   UNL A   1      39.012  27.546  30.166  1.00  0.00     0.029 A 
ATOM     50  N   UNL A   1      40.199  29.379  30.467  1.00  0.00    -0.354 N 
ATOM     51  C   UNL A   1      44.023  29.917  28.197  1.00  0.00     0.074 A 
ATOM     52  C   UNL A   1      43.367  29.845  26.917  1.00  0.00     0.031 C 
ATOM     53  C   UNL A   1      38.222  28.414  30.838  1.00  0.00     0.029 A 
ATOM     54  C   UNL A   1      38.977  29.626  31.091  1.00  0.00     0.049 A 
ATOM     55  H   UNL A   1      40.958  30.003  30.525  1.00  0.00     0.167 HD
ATOM     56  C   UNL A   1      44.877  30.831  28.734  1.00  0.00     0.037 A 
ATOM     57  C   UNL A   1      38.616  30.734  31.791  1.00  0.00     0.037 A 
ATOM     58  C   UNL A   1      45.229  30.464  30.086  1.00  0.00     0.049 A 
ATOM     59  C   UNL A   1      39.873  31.376  32.244  1.00  0.00     0.074 A 
ATOM     60  C   UNL A   1      45.861  29.387  30.676  1.00  0.00     0.029 A 
ATOM     61  N   UNL A   1      44.550  31.105  31.096  1.00  0.00    -0.354 N 
ATOM     62  N   UNL A   1      40.690  30.832  33.105  1.00  0.00    -0.248 NA
ATOM     63  C   UNL A   1      40.454  32.402  31.395  1.00  0.00     0.031 C 
ATOM     64  C   UNL A   1      45.161  29.172  31.901  1.00  0.00     0.029 A 
ATOM     65  C   UNL A   1      44.194  30.170  32.034  1.00  0.00     0.049 A 
ATOM     66  H   UNL A   1      44.353  32.067  31.138  1.00  0.00     0.167 HD
ATOM     67  C   UNL A   1      41.956  31.107  32.609  1.00  0.00     0.074 A 
ATOM     68  C   UNL A   1      41.750  32.158  31.614  1.00  0.00     0.031 C 
ATOM     69  C   UNL A   1      43.002  30.263  32.852  1.00  0.00     0.037 A 
BRANCH  56  70
ATOM     70  C   UNL A   1      45.071  32.240  28.221  1.00  0.00     0.058 A 
ATOM     71  C   UNL A   1      46.365  32.655  27.840  1.00  0.00     0.135 A 
ATOM     72  C   UNL A   1      44.122  33.276  28.371  1.00  0.00     0.135 A 
ATOM     73  F   UNL A   1      47.348  31.757  27.664  1.00  0.00    -0.206 F 
ATOM     74  C   UNL A   1      46.713  33.999  27.707  1.00  0.00     0.059 A 
ATOM     75  C   UNL A   1      44.435  34.619  28.195  1.00  0.00     0.059 A 
ATOM     76  F   UNL A   1      42.871  33.050  28.787  1.00  0.00    -0.206 F 
ATOM     77  C   UNL A   1      45.741  34.975  27.904  1.00  0.00     0.060 A 
BRANCH  77  78
ATOM     78  S   UNL A   1      46.207  36.712  27.825  1.00  0.00     0.124 S 
ATOM     79  O   UNL A   1      45.616  37.113  26.553  1.00  0.00    -0.237 OA
ATOM     80  O   UNL A   1      45.571  37.247  29.024  1.00  0.00    -0.237 OA
ATOM     81  O   UNL A   1      47.666  36.669  27.861  1.00  0.00    -0.744 OA
ENDBRANCH  77  78
ENDBRANCH  56  70
BRANCH  57  82
ATOM     82  C   UNL A   1      37.306  31.443  31.808  1.00  0.00     0.058 A 
ATOM     83  C   UNL A   1      36.665  31.776  33.018  1.00  0.00     0.135 A 
ATOM     84  C   UNL A   1      36.812  32.080  30.653  1.00  0.00     0.135 A 
ATOM     85  F   UNL A   1      37.082  31.233  34.172  1.00  0.00    -0.206 F 
ATOM     86  C   UNL A   1      35.634  32.722  33.086  1.00  0.00     0.059 A 
ATOM     87  C   UNL A   1      35.783  33.024  30.695  1.00  0.00     0.059 A 
ATOM     88  F   UNL A   1      37.382  31.873  29.456  1.00  0.00    -0.206 F 
ATOM     89  C   UNL A   1      35.215  33.359  31.919  1.00  0.00     0.060 A 
BRANCH  89  90
ATOM     90  S   UNL A   1      34.010  34.708  32.021  1.00  0.00     0.124 S 
ATOM     91  O   UNL A   1      33.541  34.800  30.642  1.00  0.00    -0.237 OA
ATOM     92  O   UNL A   1      33.047  34.190  32.988  1.00  0.00    -0.237 OA
ATOM     93  O   UNL A   1      34.808  35.839  32.485  1.00  0.00    -0.744 OA
ENDBRANCH  89  90
ENDBRANCH  57  82
BRANCH  69  94
ATOM     94  C   UNL A   1      42.839  29.224  33.936  1.00  0.00     0.058 A 
ATOM     95  C   UNL A   1      43.093  29.433  35.304  1.00  0.00     0.135 A 
ATOM     96  C   UNL A   1      42.269  27.994  33.576  1.00  0.00     0.135 A 
ATOM     97  F   UNL A   1      43.547  30.612  35.752  1.00  0.00    -0.206 F 
ATOM     98  C   UNL A   1      42.829  28.449  36.261  1.00  0.00     0.059 A 
ATOM     99  C   UNL A   1      41.969  27.012  34.514  1.00  0.00     0.059 A 
ATOM    100  F   UNL A   1      41.950  27.752  32.293  1.00  0.00    -0.206 F 
ATOM    101  C   UNL A   1      42.266  27.239  35.855  1.00  0.00     0.060 A 
BRANCH 101 102
ATOM    102  S   UNL A   1      41.866  25.987  37.095  1.00  0.00     0.124 S 
ATOM    103  O   UNL A   1      42.089  24.747  36.361  1.00  0.00    -0.237 OA
ATOM    104  O   UNL A   1      42.824  26.275  38.159  1.00  0.00    -0.237 OA
ATOM    105  O   UNL A   1      40.473  26.271  37.431  1.00  0.00    -0.744 OA
ENDBRANCH 101 102
ENDBRANCH  69  94
ENDBRANCH  43  44
ENDBRANCH  35  38
ENDBRANCH  33  34
ENDBRANCH  32  33
ENDBRANCH  31  32
ENDBRANCH   1  31
TORSDOF 20
ENDMDL
MODEL 3
REMARK VINA RESULT:     -10.4      3.181      5.496
REMARK SMILES NS(=O)(=O)c1ccc(-n2nc(C(=O)NCCCCCCNC(=O)c3ccc(-c4c5nc(c(-c6c(F)cc(S(=O)(=O)[O-])cc6F)c6ccc([nH]6)c(-c6c(F)cc(S(=O)(=O)[O-])cc6F)c6nc(c(-c7c(F)cc(S(=O)(=O)[O-])cc7F)c7ccc4[nH]7)C=C6)C=C5)cc3)cc2-c2ccc(Cl)s2)cc1
REMARK SMILES IDX 17 1 16 2 15 3 14 4 12 5 13 6 11 8 9 9 10 10 91 11 90 12
REMARK SMILES IDX 8 13 5 14 6 15 99 16 7 17 98 18 2 19 3 20 4 21 1 22 92 25
REMARK SMILES IDX 93 26 97 27 94 28 95 29 96 30 18 31 19 32 20 33 21 34 22 35
REMARK SMILES IDX 23 37 24 38 25 39 89 40 26 41 88 42 27 43 28 44 29 45 82 46
REMARK SMILES IDX 30 47 87 48 81 49 83 50 31 51 86 52 80 53 79 54 32 56 66 57
REMARK SMILES IDX 45 58 65 59 46 60 49 61 64 62 84 63 47 64 48 65 63 67 85 68
REMARK SMILES IDX 50 69 33 70 34 71 43 72 35 73 36 74 42 75 44 76 37 77 38 78
REMARK SMILES IDX 39 79 40 80 41 81 67 82 68 83 77 84 69 85 70 86 76 87 78 88
REMARK SMILES IDX 71 89 72 90 73 91 74 92 75 93 51 94 52 95 61 96 53 97 54 98
REMARK SMILES IDX 60 99 62 100 55 101 56 102 57 103 58 104 59 105
REMARK H PARENT 14 7 1 23 1 24 21 36 83 55 49 66
REMARK Flexibility Score: inf
ROOT
ATOM      1  C   UNL A   1      48.353  31.648  26.860  1.00  0.00     0.002 C 
ENDROOT
BRANCH   1   2
ATOM      2  C   UNL A   1      47.571  30.926  27.964  1.00  0.00     0.021 C 
BRANCH   2   3
ATOM      3  C   UNL A   1      46.820  29.698  27.456  1.00  0.00     0.116 C 
BRANCH   3   4
ATOM      4  N   UNL A   1      46.935  29.553  26.022  1.00  0.00    -0.351 N 
ATOM      5  C   UNL A   1      46.480  28.623  25.114  1.00  0.00     0.271 C 
ATOM      6  O   UNL A   1      46.775  28.858  23.937  1.00  0.00    -0.267 OA
ATOM      7  H   UNL A   1      47.452  30.277  25.603  1.00  0.00     0.163 HD
BRANCH   5   8
ATOM      8  C   UNL A   1      45.661  27.450  25.500  1.00  0.00     0.151 A 
ATOM      9  N   UNL A   1      45.066  25.375  25.542  1.00  0.00    -0.231 N 
ATOM     10  N   UNL A   1      46.064  26.203  25.159  1.00  0.00    -0.162 NA
ATOM     11  C   UNL A   1      44.076  26.043  26.227  1.00  0.00     0.085 A 
ATOM     12  C   UNL A   1      44.449  27.363  26.222  1.00  0.00     0.066 A 
BRANCH   9  13
ATOM     13  C   UNL A   1      45.088  24.002  25.214  1.00  0.00     0.065 A 
ATOM     14  C   UNL A   1      44.846  21.273  24.825  1.00  0.00     0.082 A 
ATOM     15  C   UNL A   1      44.070  22.146  24.057  1.00  0.00     0.024 A 
ATOM     16  C   UNL A   1      45.779  21.755  25.750  1.00  0.00     0.024 A 
ATOM     17  C   UNL A   1      44.186  23.515  24.258  1.00  0.00     0.030 A 
ATOM     18  C   UNL A   1      45.923  23.134  25.927  1.00  0.00     0.030 A 
BRANCH  14  19
ATOM     19  S   UNL A   1      44.568  19.542  24.627  1.00  0.00     0.238 S 
ATOM     20  O   UNL A   1      45.379  18.822  25.571  1.00  0.00    -0.207 OA
ATOM     21  O   UNL A   1      44.513  19.210  23.216  1.00  0.00    -0.207 OA
BRANCH  19  22
ATOM     22  N   UNL A   1      42.984  19.384  25.174  1.00  0.00    -0.225 NA
ATOM     23  H   UNL A   1      42.953  18.706  25.935  1.00  0.00     0.137 HD
ATOM     24  H   UNL A   1      42.391  19.064  24.409  1.00  0.00     0.137 HD
ENDBRANCH  19  22
ENDBRANCH  14  19
ENDBRANCH   9  13
BRANCH  11  25
ATOM     25  C   UNL A   1      42.963  25.484  26.932  1.00  0.00     0.054 A 
ATOM     26  C   UNL A   1      43.016  24.735  28.093  1.00  0.00     0.024 A 
ATOM     27  S   UNL A   1      41.373  25.561  26.298  1.00  0.00    -0.122 S 
ATOM     28  C   UNL A   1      41.740  24.199  28.441  1.00  0.00     0.033 A 
ATOM     29  C   UNL A   1      40.784  24.569  27.531  1.00  0.00     0.094 A 
ATOM     30  Cl  UNL A   1      39.130  24.115  27.545  1.00  0.00    -0.072 Cl
ENDBRANCH  11  25
ENDBRANCH   5   8
ENDBRANCH   3   4
ENDBRANCH   2   3
ENDBRANCH   1   2
BRANCH   1  31
ATOM     31  C   UNL A   1      48.552  33.160  27.070  1.00  0.00     0.002 C 
BRANCH  31  32
ATOM     32  C   UNL A   1      48.652  34.015  25.798  1.00  0.00     0.021 C 
BRANCH  32  33
ATOM     33  C   UNL A   1      47.822  35.286  25.858  1.00  0.00     0.116 C 
BRANCH  33  34
ATOM     34  N   UNL A   1      46.664  35.232  24.969  1.00  0.00    -0.352 N 
ATOM     35  C   UNL A   1      45.533  34.451  25.093  1.00  0.00     0.251 C 
ATOM     36  H   UNL A   1      46.694  35.827  24.185  1.00  0.00     0.163 HD
ATOM     37  O   UNL A   1      44.831  34.215  24.116  1.00  0.00    -0.269 OA
BRANCH  35  38
ATOM     38  C   UNL A   1      45.194  33.906  26.421  1.00  0.00     0.039 A 
ATOM     39  C   UNL A   1      45.383  34.654  27.583  1.00  0.00     0.014 A 
ATOM     40  C   UNL A   1      44.647  32.626  26.485  1.00  0.00     0.014 A 
ATOM     41  C   UNL A   1      44.937  34.129  28.794  1.00  0.00     0.010 A 
ATOM     42  C   UNL A   1      44.057  32.186  27.644  1.00  0.00     0.010 A 
ATOM     43  C   UNL A   1      44.243  32.903  28.816  1.00  0.00    -0.014 A 
BRANCH  43  44
ATOM     44  C   UNL A   1      43.598  32.432  30.041  1.00  0.00     0.031 A 
ATOM     45  C   UNL A   1      44.025  31.068  30.449  1.00  0.00     0.074 A 
ATOM     46  C   UNL A   1      42.807  33.189  30.835  1.00  0.00     0.049 A 
ATOM     47  N   UNL A   1      43.346  29.978  30.319  1.00  0.00    -0.248 NA
ATOM     48  C   UNL A   1      45.421  30.850  30.862  1.00  0.00     0.031 C 
ATOM     49  C   UNL A   1      42.499  34.621  30.731  1.00  0.00     0.029 A 
ATOM     50  N   UNL A   1      42.145  32.833  31.973  1.00  0.00    -0.354 N 
ATOM     51  C   UNL A   1      44.127  28.970  30.872  1.00  0.00     0.074 A 
ATOM     52  C   UNL A   1      45.452  29.520  30.998  1.00  0.00     0.031 C 
ATOM     53  C   UNL A   1      41.907  35.050  31.869  1.00  0.00     0.029 A 
ATOM     54  C   UNL A   1      41.622  33.898  32.705  1.00  0.00     0.049 A 
ATOM     55  H   UNL A   1      42.043  31.896  32.255  1.00  0.00     0.167 HD
ATOM     56  C   UNL A   1      43.545  27.861  31.408  1.00  0.00     0.037 A 
ATOM     57  C   UNL A   1      40.975  33.841  33.898  1.00  0.00     0.037 A 
ATOM     58  C   UNL A   1      42.163  27.766  31.000  1.00  0.00     0.049 A 
ATOM     59  C   UNL A   1      40.440  32.464  34.023  1.00  0.00     0.074 A 
ATOM     60  C   UNL A   1      41.505  27.644  29.792  1.00  0.00     0.029 A 
ATOM     61  N   UNL A   1      41.221  28.203  31.902  1.00  0.00    -0.354 N 
ATOM     62  N   UNL A   1      39.508  31.979  33.248  1.00  0.00    -0.248 NA
ATOM     63  C   UNL A   1      41.263  31.476  34.700  1.00  0.00     0.031 C 
ATOM     64  C   UNL A   1      40.333  28.447  29.925  1.00  0.00     0.029 A 
ATOM     65  C   UNL A   1      40.294  28.953  31.226  1.00  0.00     0.049 A 
ATOM     66  H   UNL A   1      41.214  28.010  32.867  1.00  0.00     0.167 HD
ATOM     67  C   UNL A   1      39.911  30.678  32.985  1.00  0.00     0.074 A 
ATOM     68  C   UNL A   1      40.941  30.395  33.984  1.00  0.00     0.031 C 
ATOM     69  C   UNL A   1      39.572  30.062  31.814  1.00  0.00     0.037 A 
BRANCH  56  70
ATOM     70  C   UNL A   1      44.070  27.101  32.605  1.00  0.00     0.058 A 
ATOM     71  C   UNL A   1      44.240  25.704  32.504  1.00  0.00     0.135 A 
ATOM     72  C   UNL A   1      44.125  27.625  33.915  1.00  0.00     0.135 A 
ATOM     73  F   UNL A   1      44.210  25.095  31.307  1.00  0.00    -0.206 F 
ATOM     74  C   UNL A   1      44.362  24.880  33.624  1.00  0.00     0.059 A 
ATOM     75  C   UNL A   1      44.296  26.828  35.042  1.00  0.00     0.059 A 
ATOM     76  F   UNL A   1      43.922  28.921  34.181  1.00  0.00    -0.206 F 
ATOM     77  C   UNL A   1      44.372  25.454  34.891  1.00  0.00     0.060 A 
BRANCH  77  78
ATOM     78  S   UNL A   1      44.436  24.389  36.341  1.00  0.00     0.124 S 
ATOM     79  O   UNL A   1      45.585  24.937  37.053  1.00  0.00    -0.237 OA
ATOM     80  O   UNL A   1      43.130  24.629  36.946  1.00  0.00    -0.237 OA
ATOM     81  O   UNL A   1      44.621  23.058  35.769  1.00  0.00    -0.744 OA
ENDBRANCH  77  78
ENDBRANCH  56  70
BRANCH  57  82
ATOM     82  C   UNL A   1      41.072  34.767  35.060  1.00  0.00     0.058 A 
ATOM     83  C   UNL A   1      39.926  35.356  35.630  1.00  0.00     0.135 A 
ATOM     84  C   UNL A   1      42.253  34.850  35.824  1.00  0.00     0.135 A 
ATOM     85  F   UNL A   1      38.751  35.307  34.983  1.00  0.00    -0.206 F 
ATOM     86  C   UNL A   1      39.937  35.941  36.904  1.00  0.00     0.059 A 
ATOM     87  C   UNL A   1      42.289  35.431  37.093  1.00  0.00     0.059 A 
ATOM     88  F   UNL A   1      43.390  34.280  35.397  1.00  0.00    -0.206 F 
ATOM     89  C   UNL A   1      41.121  35.953  37.638  1.00  0.00     0.060 A 
BRANCH  89  90
ATOM     90  S   UNL A   1      41.105  36.546  39.350  1.00  0.00     0.124 S 
ATOM     91  O   UNL A   1      42.525  36.753  39.613  1.00  0.00    -0.237 OA
ATOM     92  O   UNL A   1      40.293  37.755  39.251  1.00  0.00    -0.237 OA
ATOM     93  O   UNL A   1      40.489  35.443  40.083  1.00  0.00    -0.744 OA
ENDBRANCH  89  90
ENDBRANCH  57  82
BRANCH  69  94
ATOM     94  C   UNL A   1      38.483  30.686  30.973  1.00  0.00     0.058 A 
ATOM     95  C   UNL A   1      38.670  31.731  30.049  1.00  0.00     0.135 A 
ATOM     96  C   UNL A   1      37.210  30.097  31.018  1.00  0.00     0.135 A 
ATOM     97  F   UNL A   1      39.876  32.287  29.870  1.00  0.00    -0.206 F 
ATOM     98  C   UNL A   1      37.629  32.193  29.240  1.00  0.00     0.059 A 
ATOM     99  C   UNL A   1      36.168  30.520  30.200  1.00  0.00     0.059 A 
ATOM    100  F   UNL A   1      36.980  29.059  31.839  1.00  0.00    -0.206 F 
ATOM    101  C   UNL A   1      36.379  31.580  29.322  1.00  0.00     0.060 A 
BRANCH 101 102
ATOM    102  S   UNL A   1      35.047  32.132  28.234  1.00  0.00     0.124 S 
ATOM    103  O   UNL A   1      34.734  30.918  27.490  1.00  0.00    -0.237 OA
ATOM    104  O   UNL A   1      34.026  32.576  29.181  1.00  0.00    -0.237 OA
ATOM    105  O   UNL A   1      35.664  33.201  27.452  1.00  0.00    -0.744 OA
ENDBRANCH 101 102
ENDBRANCH  69  94
ENDBRANCH  43  44
ENDBRANCH  35  38
ENDBRANCH  33  34
ENDBRANCH  32  33
ENDBRANCH  31  32
ENDBRANCH   1  31
TORSDOF 20
ENDMDL
