MODEL 1
REMARK VINA RESULT:     -12.5      0.000      0.000
REMARK SMILES Cc1ccccc1-c1c(Cl)ccc2c1C=C(C(=O)NCCCCCCNC(=O)c1ccc(-c3c4nc(c(-c5c(F)cc(S(=O)(=O)[O-])cc5F)c5ccc([nH]5)c(-c5c(F)cc(S(=O)(=O)[O-])cc5F)c5nc(c(-c6c(F)cc(S(=O)(=O)[O-])cc6F)c6ccc3[nH]6)C=C5)C=C4)cc1)[C@@H](C(F)(F)F)O2
REMARK SMILES IDX 23 1 22 2 21 3 20 4 19 5 17 6 18 7 16 9 8 10 9 11 14 12
REMARK SMILES IDX 10 13 11 14 13 15 15 16 12 17 100 18 95 19 7 20 1 21 2 22
REMARK SMILES IDX 3 23 4 24 6 25 5 26 96 27 97 28 98 29 99 30 24 31 25 32
REMARK SMILES IDX 26 33 27 34 28 36 29 37 30 38 94 39 31 40 93 41 32 42 33 43
REMARK SMILES IDX 34 44 87 45 35 46 92 47 86 48 88 49 36 50 91 51 85 52 84 53
REMARK SMILES IDX 37 55 71 56 50 57 70 58 51 59 54 60 69 61 89 62 52 63 53 64
REMARK SMILES IDX 68 66 90 67 55 68 38 69 39 70 48 71 40 72 41 73 47 74 49 75
REMARK SMILES IDX 42 76 43 77 44 78 45 79 46 80 72 81 73 82 82 83 74 84 75 85
REMARK SMILES IDX 81 86 83 87 76 88 77 89 78 90 79 91 80 92 56 93 57 94 66 95
REMARK SMILES IDX 58 96 59 97 65 98 67 99 60 100 61 101 62 102 63 103 64 104
REMARK H PARENT 19 8 26 35 88 54 54 65
REMARK Flexibility Score: inf
ROOT
ATOM      1  C   UNL A   1      40.403  20.837  27.002  1.00  0.00     0.002 C 
ENDROOT
BRANCH   1   2
ATOM      2  C   UNL A   1      39.531  21.140  25.723  1.00  0.00     0.002 C 
BRANCH   2   3
ATOM      3  C   UNL A   1      38.248  22.035  25.771  1.00  0.00     0.021 C 
BRANCH   3   4
ATOM      4  C   UNL A   1      37.045  21.509  25.020  1.00  0.00     0.116 C 
BRANCH   4   5
ATOM      5  N   UNL A   1      36.543  22.467  24.067  1.00  0.00    -0.352 N 
ATOM      6  C   UNL A   1      35.566  23.394  24.157  1.00  0.00     0.251 C 
ATOM      7  O   UNL A   1      35.304  24.045  23.145  1.00  0.00    -0.270 OA
ATOM      8  H   UNL A   1      36.995  22.442  23.192  1.00  0.00     0.163 HD
BRANCH   6   9
ATOM      9  C   UNL A   1      34.799  23.595  25.442  1.00  0.00     0.067 C 
ATOM     10  C   UNL A   1      31.961  25.904  24.761  1.00  0.00     0.012 A 
ATOM     11  C   UNL A   1      30.817  25.787  23.932  1.00  0.00     0.049 A 
ATOM     12  C   UNL A   1      32.743  24.733  24.946  1.00  0.00     0.027 A 
ATOM     13  Cl  UNL A   1      29.836  27.158  23.512  1.00  0.00    -0.084 Cl
ATOM     14  C   UNL A   1      30.414  24.557  23.397  1.00  0.00     0.025 A 
ATOM     15  C   UNL A   1      32.249  23.483  24.505  1.00  0.00     0.128 A 
ATOM     16  C   UNL A   1      34.110  24.754  25.533  1.00  0.00     0.026 C 
ATOM     17  C   UNL A   1      31.109  23.400  23.717  1.00  0.00     0.049 A 
ATOM     18  O   UNL A   1      32.833  22.276  24.811  1.00  0.00    -0.475 OA
ATOM     19  C   UNL A   1      33.980  22.337  25.700  1.00  0.00     0.314 C 
BRANCH  10  20
ATOM     20  C   UNL A   1      32.217  27.164  25.516  1.00  0.00    -0.013 A 
ATOM     21  C   UNL A   1      33.828  28.206  23.809  1.00  0.00     0.045 C 
ATOM     22  C   UNL A   1      33.054  28.214  25.092  1.00  0.00    -0.043 A 
ATOM     23  C   UNL A   1      33.245  29.341  25.920  1.00  0.00     0.004 A 
ATOM     24  C   UNL A   1      32.587  29.466  27.139  1.00  0.00     0.000 A 
ATOM     25  C   UNL A   1      31.570  27.317  26.766  1.00  0.00     0.009 A 
ATOM     26  C   UNL A   1      31.738  28.454  27.559  1.00  0.00     0.001 A 
ENDBRANCH  10  20
BRANCH  19  27
ATOM     27  C   UNL A   1      33.559  22.161  27.165  1.00  0.00     0.429 C 
ATOM     28  F   UNL A   1      33.618  20.857  27.536  1.00  0.00    -0.167 F 
ATOM     29  F   UNL A   1      34.380  22.840  28.003  1.00  0.00    -0.167 F 
ATOM     30  F   UNL A   1      32.297  22.583  27.410  1.00  0.00    -0.167 F 
ENDBRANCH  19  27
ENDBRANCH   6   9
ENDBRANCH   4   5
ENDBRANCH   3   4
ENDBRANCH   2   3
ENDBRANCH   1   2
BRANCH   1  31
ATOM     31  C   UNL A   1      41.920  20.233  27.119  1.00  0.00     0.021 C 
BRANCH  31  32
ATOM     32  C   UNL A   1      43.051  20.673  26.060  1.00  0.00     0.116 C 
BRANCH  32  33
ATOM     33  N   UNL A   1      43.327  22.155  25.478  1.00  0.00    -0.352 N 
ATOM     34  C   UNL A   1      43.135  23.585  25.741  1.00  0.00     0.251 C 
ATOM     35  H   UNL A   1      43.805  22.063  24.623  1.00  0.00     0.163 HD
ATOM     36  O   UNL A   1      44.203  24.223  25.648  1.00  0.00    -0.269 OA
BRANCH  34  37
ATOM     37  C   UNL A   1      41.907  24.539  26.094  1.00  0.00     0.039 A 
ATOM     38  C   UNL A   1      41.720  25.801  25.443  1.00  0.00     0.014 A 
ATOM     39  C   UNL A   1      40.969  24.335  27.095  1.00  0.00     0.014 A 
ATOM     40  C   UNL A   1      41.148  26.935  26.160  1.00  0.00     0.010 A 
ATOM     41  C   UNL A   1      40.424  25.447  27.817  1.00  0.00     0.010 A 
ATOM     42  C   UNL A   1      40.714  26.778  27.487  1.00  0.00    -0.014 A 
BRANCH  42  43
ATOM     43  C   UNL A   1      40.794  27.844  28.582  1.00  0.00     0.031 A 
ATOM     44  C   UNL A   1      39.790  28.896  28.722  1.00  0.00     0.074 A 
ATOM     45  C   UNL A   1      41.619  27.878  29.675  1.00  0.00     0.049 A 
ATOM     46  N   UNL A   1      40.066  30.159  28.822  1.00  0.00    -0.248 NA
ATOM     47  C   UNL A   1      38.389  28.560  28.929  1.00  0.00     0.031 C 
ATOM     48  C   UNL A   1      41.689  28.716  30.888  1.00  0.00     0.029 A 
ATOM     49  N   UNL A   1      42.619  26.994  29.994  1.00  0.00    -0.354 N 
ATOM     50  C   UNL A   1      38.953  30.724  29.409  1.00  0.00     0.074 A 
ATOM     51  C   UNL A   1      37.886  29.754  29.249  1.00  0.00     0.031 C 
ATOM     52  C   UNL A   1      42.873  28.523  31.518  1.00  0.00     0.029 A 
ATOM     53  C   UNL A   1      43.639  27.577  30.740  1.00  0.00     0.049 A 
ATOM     54  H   UNL A   1      42.615  26.047  29.722  1.00  0.00     0.167 HD
ATOM     55  C   UNL A   1      39.034  31.759  30.298  1.00  0.00     0.037 A 
ATOM     56  C   UNL A   1      44.884  27.667  30.170  1.00  0.00     0.037 A 
ATOM     57  C   UNL A   1      40.403  31.977  30.793  1.00  0.00     0.049 A 
ATOM     58  C   UNL A   1      45.111  29.097  29.721  1.00  0.00     0.074 A 
ATOM     59  C   UNL A   1      41.023  31.842  32.030  1.00  0.00     0.029 A 
ATOM     60  N   UNL A   1      41.445  32.101  29.893  1.00  0.00    -0.354 N 
ATOM     61  N   UNL A   1      44.375  30.078  30.163  1.00  0.00    -0.248 NA
ATOM     62  C   UNL A   1      46.091  29.573  28.743  1.00  0.00     0.031 C 
ATOM     63  C   UNL A   1      42.433  31.951  31.857  1.00  0.00     0.029 A 
ATOM     64  C   UNL A   1      42.679  32.153  30.515  1.00  0.00     0.049 A 
ATOM     65  H   UNL A   1      41.323  32.145  28.918  1.00  0.00     0.167 HD
ATOM     66  C   UNL A   1      44.636  31.231  29.487  1.00  0.00     0.074 A 
ATOM     67  C   UNL A   1      45.766  30.880  28.644  1.00  0.00     0.031 C 
ATOM     68  C   UNL A   1      43.862  32.343  29.683  1.00  0.00     0.037 A 
BRANCH  55  69
ATOM     69  C   UNL A   1      37.791  32.373  30.916  1.00  0.00     0.058 A 
ATOM     70  C   UNL A   1      37.271  31.957  32.157  1.00  0.00     0.135 A 
ATOM     71  C   UNL A   1      37.104  33.462  30.327  1.00  0.00     0.135 A 
ATOM     72  F   UNL A   1      37.870  31.018  32.897  1.00  0.00    -0.206 F 
ATOM     73  C   UNL A   1      36.116  32.503  32.719  1.00  0.00     0.059 A 
ATOM     74  C   UNL A   1      35.917  33.992  30.843  1.00  0.00     0.059 A 
ATOM     75  F   UNL A   1      37.586  34.076  29.233  1.00  0.00    -0.206 F 
ATOM     76  C   UNL A   1      35.433  33.507  32.047  1.00  0.00     0.060 A 
BRANCH  76  77
ATOM     77  S   UNL A   1      33.951  34.199  32.803  1.00  0.00     0.124 S 
ATOM     78  O   UNL A   1      34.506  35.098  33.811  1.00  0.00    -0.237 OA
ATOM     79  O   UNL A   1      33.306  34.844  31.664  1.00  0.00    -0.237 OA
ATOM     80  O   UNL A   1      33.259  33.026  33.333  1.00  0.00    -0.744 OA
ENDBRANCH  76  77
ENDBRANCH  55  69
BRANCH  56  81
ATOM     81  C   UNL A   1      45.326  26.353  29.471  1.00  0.00     0.058 A 
ATOM     82  C   UNL A   1      45.666  26.555  28.112  1.00  0.00     0.135 A 
ATOM     83  C   UNL A   1      46.292  25.646  30.164  1.00  0.00     0.135 A 
ATOM     84  F   UNL A   1      44.698  26.778  27.214  1.00  0.00    -0.206 F 
ATOM     85  C   UNL A   1      46.996  26.749  27.707  1.00  0.00     0.059 A 
ATOM     86  C   UNL A   1      47.621  25.844  29.763  1.00  0.00     0.059 A 
ATOM     87  F   UNL A   1      46.059  25.237  31.422  1.00  0.00    -0.206 F 
ATOM     88  C   UNL A   1      47.991  26.569  28.651  1.00  0.00     0.060 A 
BRANCH  88  89
ATOM     89  S   UNL A   1      49.619  27.625  28.632  1.00  0.00     0.124 S 
ATOM     90  O   UNL A   1      50.528  26.703  29.217  1.00  0.00    -0.237 OA
ATOM     91  O   UNL A   1      49.944  27.859  27.237  1.00  0.00    -0.237 OA
ATOM     92  O   UNL A   1      49.421  28.815  29.437  1.00  0.00    -0.744 OA
ENDBRANCH  88  89
ENDBRANCH  56  81
BRANCH  68  93
ATOM     93  C   UNL A   1      44.104  33.716  29.106  1.00  0.00     0.058 A 
ATOM     94  C   UNL A   1      44.088  33.975  27.729  1.00  0.00     0.135 A 
ATOM     95  C   UNL A   1      44.528  34.799  29.921  1.00  0.00     0.135 A 
ATOM     96  F   UNL A   1      43.829  32.999  26.845  1.00  0.00    -0.206 F 
ATOM     97  C   UNL A   1      44.380  35.238  27.207  1.00  0.00     0.059 A 
ATOM     98  C   UNL A   1      44.866  36.047  29.422  1.00  0.00     0.059 A 
ATOM     99  F   UNL A   1      44.629  34.707  31.252  1.00  0.00    -0.206 F 
ATOM    100  C   UNL A   1      44.755  36.271  28.065  1.00  0.00     0.060 A 
BRANCH 100 101
ATOM    101  S   UNL A   1      45.101  37.906  27.404  1.00  0.00     0.124 S 
ATOM    102  O   UNL A   1      45.581  38.623  28.580  1.00  0.00    -0.237 OA
ATOM    103  O   UNL A   1      46.107  37.602  26.392  1.00  0.00    -0.237 OA
ATOM    104  O   UNL A   1      43.810  38.352  26.888  1.00  0.00    -0.744 OA
ENDBRANCH 100 101
ENDBRANCH  68  93
ENDBRANCH  42  43
ENDBRANCH  34  37
ENDBRANCH  32  33
ENDBRANCH  31  32
ENDBRANCH   1  31
TORSDOF 18
ENDMDL
MODEL 2
REMARK VINA RESULT:     -12.4      3.938      9.931
REMARK SMILES Cc1ccccc1-c1c(Cl)ccc2c1C=C(C(=O)NCCCCCCNC(=O)c1ccc(-c3c4nc(c(-c5c(F)cc(S(=O)(=O)[O-])cc5F)c5ccc([nH]5)c(-c5c(F)cc(S(=O)(=O)[O-])cc5F)c5nc(c(-c6c(F)cc(S(=O)(=O)[O-])cc6F)c6ccc3[nH]6)C=C5)C=C4)cc1)[C@@H](C(F)(F)F)O2
REMARK SMILES IDX 23 1 22 2 21 3 20 4 19 5 17 6 18 7 16 9 8 10 9 11 14 12
REMARK SMILES IDX 10 13 11 14 13 15 15 16 12 17 100 18 95 19 7 20 1 21 2 22
REMARK SMILES IDX 3 23 4 24 6 25 5 26 96 27 97 28 98 29 99 30 24 31 25 32
REMARK SMILES IDX 26 33 27 34 28 36 29 37 30 38 94 39 31 40 93 41 32 42 33 43
REMARK SMILES IDX 34 44 87 45 35 46 92 47 86 48 88 49 36 50 91 51 85 52 84 53
REMARK SMILES IDX 37 55 71 56 50 57 70 58 51 59 54 60 69 61 89 62 52 63 53 64
REMARK SMILES IDX 68 66 90 67 55 68 38 69 39 70 48 71 40 72 41 73 47 74 49 75
REMARK SMILES IDX 42 76 43 77 44 78 45 79 46 80 72 81 73 82 82 83 74 84 75 85
REMARK SMILES IDX 81 86 83 87 76 88 77 89 78 90 79 91 80 92 56 93 57 94 66 95
REMARK SMILES IDX 58 96 59 97 65 98 67 99 60 100 61 101 62 102 63 103 64 104
REMARK H PARENT 19 8 26 35 88 54 54 65
REMARK Flexibility Score: inf
ROOT
ATOM      1  C   UNL A   1      34.215  33.129  27.878  1.00  0.00     0.002 C 
ENDROOT
BRANCH   1   2
ATOM      2  C   UNL A   1      33.347  31.818  28.013  1.00  0.00     0.002 C 
BRANCH   2   3
ATOM      3  C   UNL A   1      33.525  30.589  27.060  1.00  0.00     0.021 C 
BRANCH   3   4
ATOM      4  C   UNL A   1      32.256  30.027  26.459  1.00  0.00     0.116 C 
BRANCH   4   5
ATOM      5  N   UNL A   1      31.967  28.703  26.949  1.00  0.00    -0.352 N 
ATOM      6  C   UNL A   1      32.304  27.481  26.484  1.00  0.00     0.251 C 
ATOM      7  O   UNL A   1      31.857  26.502  27.081  1.00  0.00    -0.270 OA
ATOM      8  H   UNL A   1      31.426  28.685  27.772  1.00  0.00     0.163 HD
BRANCH   6   9
ATOM      9  C   UNL A   1      33.166  27.327  25.254  1.00  0.00     0.067 C 
ATOM     10  C   UNL A   1      33.157  23.741  24.261  1.00  0.00     0.012 A 
ATOM     11  C   UNL A   1      32.123  22.879  23.816  1.00  0.00     0.049 A 
ATOM     12  C   UNL A   1      32.846  25.123  24.355  1.00  0.00     0.027 A 
ATOM     13  Cl  UNL A   1      32.314  21.153  23.769  1.00  0.00    -0.084 Cl
ATOM     14  C   UNL A   1      30.881  23.371  23.393  1.00  0.00     0.025 A 
ATOM     15  C   UNL A   1      31.637  25.609  23.805  1.00  0.00     0.128 A 
ATOM     16  C   UNL A   1      33.707  26.103  25.072  1.00  0.00     0.026 C 
ATOM     17  C   UNL A   1      30.654  24.739  23.351  1.00  0.00     0.049 A 
ATOM     18  O   UNL A   1      31.337  26.944  23.669  1.00  0.00    -0.475 OA
ATOM     19  C   UNL A   1      32.385  27.869  24.064  1.00  0.00     0.314 C 
BRANCH  10  20
ATOM     20  C   UNL A   1      34.539  23.217  24.460  1.00  0.00    -0.013 A 
ATOM     21  C   UNL A   1      34.318  22.755  26.977  1.00  0.00     0.045 C 
ATOM     22  C   UNL A   1      35.072  22.763  25.682  1.00  0.00    -0.043 A 
ATOM     23  C   UNL A   1      36.412  22.326  25.747  1.00  0.00     0.004 A 
ATOM     24  C   UNL A   1      37.219  22.290  24.615  1.00  0.00     0.000 A 
ATOM     25  C   UNL A   1      35.389  23.177  23.329  1.00  0.00     0.009 A 
ATOM     26  C   UNL A   1      36.703  22.708  23.399  1.00  0.00     0.001 A 
ENDBRANCH  10  20
BRANCH  19  27
ATOM     27  C   UNL A   1      33.266  28.257  22.868  1.00  0.00     0.429 C 
ATOM     28  F   UNL A   1      32.742  29.315  22.199  1.00  0.00    -0.167 F 
ATOM     29  F   UNL A   1      34.508  28.625  23.265  1.00  0.00    -0.167 F 
ATOM     30  F   UNL A   1      33.412  27.256  21.969  1.00  0.00    -0.167 F 
ENDBRANCH  19  27
ENDBRANCH   6   9
ENDBRANCH   4   5
ENDBRANCH   3   4
ENDBRANCH   2   3
ENDBRANCH   1   2
BRANCH   1  31
ATOM     31  C   UNL A   1      34.105  34.547  28.688  1.00  0.00     0.021 C 
BRANCH  31  32
ATOM     32  C   UNL A   1      34.359  34.595  30.277  1.00  0.00     0.116 C 
BRANCH  32  33
ATOM     33  N   UNL A   1      34.787  33.370  31.240  1.00  0.00    -0.352 N 
ATOM     34  C   UNL A   1      35.742  32.269  31.401  1.00  0.00     0.251 C 
ATOM     35  H   UNL A   1      34.176  33.359  32.011  1.00  0.00     0.163 HD
ATOM     36  O   UNL A   1      36.287  32.285  32.523  1.00  0.00    -0.269 OA
BRANCH  34  37
ATOM     37  C   UNL A   1      36.248  31.041  30.517  1.00  0.00     0.039 A 
ATOM     38  C   UNL A   1      36.410  29.730  31.070  1.00  0.00     0.014 A 
ATOM     39  C   UNL A   1      36.674  31.098  29.199  1.00  0.00     0.014 A 
ATOM     40  C   UNL A   1      37.469  28.846  30.598  1.00  0.00     0.010 A 
ATOM     41  C   UNL A   1      37.732  30.247  28.740  1.00  0.00     0.010 A 
ATOM     42  C   UNL A   1      38.306  29.253  29.545  1.00  0.00    -0.014 A 
BRANCH  42  43
ATOM     43  C   UNL A   1      39.790  28.905  29.400  1.00  0.00     0.031 A 
ATOM     44  C   UNL A   1      40.242  27.590  28.952  1.00  0.00     0.074 A 
ATOM     45  C   UNL A   1      40.868  29.750  29.440  1.00  0.00     0.049 A 
ATOM     46  N   UNL A   1      41.131  26.876  29.568  1.00  0.00    -0.248 NA
ATOM     47  C   UNL A   1      39.828  27.066  27.659  1.00  0.00     0.031 C 
ATOM     48  C   UNL A   1      42.305  29.601  29.140  1.00  0.00     0.029 A 
ATOM     49  N   UNL A   1      40.863  31.098  29.697  1.00  0.00    -0.354 N 
ATOM     50  C   UNL A   1      41.612  26.003  28.617  1.00  0.00     0.074 A 
ATOM     51  C   UNL A   1      40.636  26.010  27.542  1.00  0.00     0.031 C 
ATOM     52  C   UNL A   1      42.992  30.666  29.620  1.00  0.00     0.029 A 
ATOM     53  C   UNL A   1      42.049  31.543  30.274  1.00  0.00     0.049 A 
ATOM     54  H   UNL A   1      40.100  31.688  29.495  1.00  0.00     0.167 HD
ATOM     55  C   UNL A   1      42.920  25.606  28.573  1.00  0.00     0.037 A 
ATOM     56  C   UNL A   1      41.999  32.027  31.557  1.00  0.00     0.037 A 
ATOM     57  C   UNL A   1      43.794  26.438  29.416  1.00  0.00     0.049 A 
ATOM     58  C   UNL A   1      42.552  30.974  32.497  1.00  0.00     0.074 A 
ATOM     59  C   UNL A   1      44.828  27.331  29.161  1.00  0.00     0.029 A 
ATOM     60  N   UNL A   1      43.457  26.664  30.737  1.00  0.00    -0.354 N 
ATOM     61  N   UNL A   1      43.267  29.975  32.060  1.00  0.00    -0.248 NA
ATOM     62  C   UNL A   1      42.346  30.881  33.943  1.00  0.00     0.031 C 
ATOM     63  C   UNL A   1      45.138  28.037  30.359  1.00  0.00     0.029 A 
ATOM     64  C   UNL A   1      44.294  27.578  31.349  1.00  0.00     0.049 A 
ATOM     65  H   UNL A   1      42.703  26.225  31.193  1.00  0.00     0.167 HD
ATOM     66  C   UNL A   1      43.493  29.065  33.047  1.00  0.00     0.074 A 
ATOM     67  C   UNL A   1      42.946  29.706  34.231  1.00  0.00     0.031 C 
ATOM     68  C   UNL A   1      44.086  27.864  32.764  1.00  0.00     0.037 A 
BRANCH  55  69
ATOM     69  C   UNL A   1      43.419  24.629  27.523  1.00  0.00     0.058 A 
ATOM     70  C   UNL A   1      43.244  23.237  27.633  1.00  0.00     0.135 A 
ATOM     71  C   UNL A   1      44.029  25.052  26.317  1.00  0.00     0.135 A 
ATOM     72  F   UNL A   1      42.583  22.684  28.656  1.00  0.00    -0.206 F 
ATOM     73  C   UNL A   1      43.720  22.334  26.681  1.00  0.00     0.059 A 
ATOM     74  C   UNL A   1      44.559  24.167  25.373  1.00  0.00     0.059 A 
ATOM     75  F   UNL A   1      44.104  26.355  25.997  1.00  0.00    -0.206 F 
ATOM     76  C   UNL A   1      44.393  22.804  25.563  1.00  0.00     0.060 A 
BRANCH  76  77
ATOM     77  S   UNL A   1      44.986  21.614  24.346  1.00  0.00     0.124 S 
ATOM     78  O   UNL A   1      44.588  22.233  23.086  1.00  0.00    -0.237 OA
ATOM     79  O   UNL A   1      46.419  21.595  24.619  1.00  0.00    -0.237 OA
ATOM     80  O   UNL A   1      44.266  20.389  24.689  1.00  0.00    -0.744 OA
ENDBRANCH  76  77
ENDBRANCH  55  69
BRANCH  56  81
ATOM     81  C   UNL A   1      40.815  33.003  31.791  1.00  0.00     0.058 A 
ATOM     82  C   UNL A   1      39.998  32.609  32.876  1.00  0.00     0.135 A 
ATOM     83  C   UNL A   1      41.188  34.334  31.859  1.00  0.00     0.135 A 
ATOM     84  F   UNL A   1      39.182  31.555  32.741  1.00  0.00    -0.206 F 
ATOM     85  C   UNL A   1      40.172  33.146  34.161  1.00  0.00     0.059 A 
ATOM     86  C   UNL A   1      41.368  34.868  33.143  1.00  0.00     0.059 A 
ATOM     87  F   UNL A   1      41.836  34.908  30.832  1.00  0.00    -0.206 F 
ATOM     88  C   UNL A   1      41.056  34.199  34.307  1.00  0.00     0.060 A 
BRANCH  88  89
ATOM     89  S   UNL A   1      42.114  34.430  35.917  1.00  0.00     0.124 S 
ATOM     90  O   UNL A   1      41.126  34.190  36.909  1.00  0.00    -0.237 OA
ATOM     91  O   UNL A   1      43.111  33.376  35.912  1.00  0.00    -0.237 OA
ATOM     92  O   UNL A   1      42.634  35.783  35.951  1.00  0.00    -0.744 OA
ENDBRANCH  88  89
ENDBRANCH  56  81
BRANCH  68  93
ATOM     93  C   UNL A   1      44.512  26.817  33.764  1.00  0.00     0.058 A 
ATOM     94  C   UNL A   1      45.850  26.447  33.953  1.00  0.00     0.135 A 
ATOM     95  C   UNL A   1      43.561  26.025  34.459  1.00  0.00     0.135 A 
ATOM     96  F   UNL A   1      46.835  27.033  33.254  1.00  0.00    -0.206 F 
ATOM     97  C   UNL A   1      46.222  25.428  34.835  1.00  0.00     0.059 A 
ATOM     98  C   UNL A   1      43.904  24.981  35.305  1.00  0.00     0.059 A 
ATOM     99  F   UNL A   1      42.242  26.227  34.364  1.00  0.00    -0.206 F 
ATOM    100  C   UNL A   1      45.240  24.711  35.517  1.00  0.00     0.060 A 
BRANCH 100 101
ATOM    101  S   UNL A   1      45.712  23.422  36.676  1.00  0.00     0.124 S 
ATOM    102  O   UNL A   1      47.167  23.420  36.566  1.00  0.00    -0.237 OA
ATOM    103  O   UNL A   1      45.171  23.945  37.927  1.00  0.00    -0.237 OA
ATOM    104  O   UNL A   1      45.048  22.229  36.158  1.00  0.00    -0.744 OA
ENDBRANCH 100 101
ENDBRANCH  68  93
ENDBRANCH  42  43
ENDBRANCH  34  37
ENDBRANCH  32  33
ENDBRANCH  31  32
ENDBRANCH   1  31
TORSDOF 18
ENDMDL
MODEL 3
REMARK VINA RESULT:     -11.6      4.630      8.398
REMARK SMILES Cc1ccccc1-c1c(Cl)ccc2c1C=C(C(=O)NCCCCCCNC(=O)c1ccc(-c3c4nc(c(-c5c(F)cc(S(=O)(=O)[O-])cc5F)c5ccc([nH]5)c(-c5c(F)cc(S(=O)(=O)[O-])cc5F)c5nc(c(-c6c(F)cc(S(=O)(=O)[O-])cc6F)c6ccc3[nH]6)C=C5)C=C4)cc1)[C@@H](C(F)(F)F)O2
REMARK SMILES IDX 23 1 22 2 21 3 20 4 19 5 17 6 18 7 16 9 8 10 9 11 14 12
REMARK SMILES IDX 10 13 11 14 13 15 15 16 12 17 100 18 95 19 7 20 1 21 2 22
REMARK SMILES IDX 3 23 4 24 6 25 5 26 96 27 97 28 98 29 99 30 24 31 25 32
REMARK SMILES IDX 26 33 27 34 28 36 29 37 30 38 94 39 31 40 93 41 32 42 33 43
REMARK SMILES IDX 34 44 87 45 35 46 92 47 86 48 88 49 36 50 91 51 85 52 84 53
REMARK SMILES IDX 37 55 71 56 50 57 70 58 51 59 54 60 69 61 89 62 52 63 53 64
REMARK SMILES IDX 68 66 90 67 55 68 38 69 39 70 48 71 40 72 41 73 47 74 49 75
REMARK SMILES IDX 42 76 43 77 44 78 45 79 46 80 72 81 73 82 82 83 74 84 75 85
REMARK SMILES IDX 81 86 83 87 76 88 77 89 78 90 79 91 80 92 56 93 57 94 66 95
REMARK SMILES IDX 58 96 59 97 65 98 67 99 60 100 61 101 62 102 63 103 64 104
REMARK H PARENT 19 8 26 35 88 54 54 65
REMARK Flexibility Score: inf
ROOT
ATOM      1  C   UNL A   1      35.450  32.908  28.144  1.00  0.00     0.002 C 
ENDROOT
BRANCH   1   2
ATOM      2  C   UNL A   1      34.883  31.517  28.627  1.00  0.00     0.002 C 
BRANCH   2   3
ATOM      3  C   UNL A   1      35.347  30.158  28.006  1.00  0.00     0.021 C 
BRANCH   3   4
ATOM      4  C   UNL A   1      34.409  29.537  26.994  1.00  0.00     0.116 C 
BRANCH   4   5
ATOM      5  N   UNL A   1      33.262  28.931  27.623  1.00  0.00    -0.352 N 
ATOM      6  C   UNL A   1      32.326  28.080  27.151  1.00  0.00     0.251 C 
ATOM      7  O   UNL A   1      31.406  27.770  27.908  1.00  0.00    -0.270 OA
ATOM      8  H   UNL A   1      33.139  29.182  28.567  1.00  0.00     0.163 HD
BRANCH   6   9
ATOM      9  C   UNL A   1      32.387  27.563  25.734  1.00  0.00     0.067 C 
ATOM     10  C   UNL A   1      33.119  23.916  25.851  1.00  0.00     0.012 A 
ATOM     11  C   UNL A   1      32.391  22.815  26.371  1.00  0.00     0.049 A 
ATOM     12  C   UNL A   1      32.441  25.162  25.788  1.00  0.00     0.027 A 
ATOM     13  Cl  UNL A   1      33.123  21.261  26.625  1.00  0.00    -0.084 Cl
ATOM     14  C   UNL A   1      31.038  22.921  26.714  1.00  0.00     0.025 A 
ATOM     15  C   UNL A   1      31.047  25.215  26.018  1.00  0.00     0.128 A 
ATOM     16  C   UNL A   1      33.139  26.455  25.551  1.00  0.00     0.026 C 
ATOM     17  C   UNL A   1      30.357  24.110  26.501  1.00  0.00     0.049 A 
ATOM     18  O   UNL A   1      30.272  26.328  25.788  1.00  0.00    -0.475 OA
ATOM     19  C   UNL A   1      30.962  27.467  25.207  1.00  0.00     0.314 C 
BRANCH  10  20
ATOM     20  C   UNL A   1      34.473  23.711  25.260  1.00  0.00    -0.013 A 
ATOM     21  C   UNL A   1      33.680  23.236  22.865  1.00  0.00     0.045 C 
ATOM     22  C   UNL A   1      34.738  23.410  23.910  1.00  0.00    -0.043 A 
ATOM     23  C   UNL A   1      36.067  23.201  23.484  1.00  0.00     0.004 A 
ATOM     24  C   UNL A   1      37.139  23.328  24.360  1.00  0.00     0.000 A 
ATOM     25  C   UNL A   1      35.585  23.824  26.129  1.00  0.00     0.009 A 
ATOM     26  C   UNL A   1      36.898  23.650  25.686  1.00  0.00     0.001 A 
ENDBRANCH  10  20
BRANCH  19  27
ATOM     27  C   UNL A   1      30.865  27.456  23.676  1.00  0.00     0.429 C 
ATOM     28  F   UNL A   1      29.672  27.952  23.259  1.00  0.00    -0.167 F 
ATOM     29  F   UNL A   1      31.825  28.229  23.112  1.00  0.00    -0.167 F 
ATOM     30  F   UNL A   1      30.984  26.217  23.145  1.00  0.00    -0.167 F 
ENDBRANCH  19  27
ENDBRANCH   6   9
ENDBRANCH   4   5
ENDBRANCH   3   4
ENDBRANCH   2   3
ENDBRANCH   1   2
BRANCH   1  31
ATOM     31  C   UNL A   1      34.698  34.355  28.001  1.00  0.00     0.021 C 
BRANCH  31  32
ATOM     32  C   UNL A   1      33.339  34.646  28.816  1.00  0.00     0.116 C 
BRANCH  32  33
ATOM     33  N   UNL A   1      33.202  35.172  30.338  1.00  0.00    -0.352 N 
ATOM     34  C   UNL A   1      33.881  35.234  31.635  1.00  0.00     0.251 C 
ATOM     35  H   UNL A   1      32.331  35.622  30.428  1.00  0.00     0.163 HD
ATOM     36  O   UNL A   1      33.919  36.397  32.086  1.00  0.00    -0.269 OA
BRANCH  34  37
ATOM     37  C   UNL A   1      34.568  34.194  32.630  1.00  0.00     0.039 A 
ATOM     38  C   UNL A   1      34.734  34.478  34.023  1.00  0.00     0.014 A 
ATOM     39  C   UNL A   1      35.157  32.989  32.279  1.00  0.00     0.014 A 
ATOM     40  C   UNL A   1      35.895  33.985  34.754  1.00  0.00     0.010 A 
ATOM     41  C   UNL A   1      36.314  32.514  32.980  1.00  0.00     0.010 A 
ATOM     42  C   UNL A   1      36.836  33.167  34.106  1.00  0.00    -0.014 A 
BRANCH  42  43
ATOM     43  C   UNL A   1      38.344  33.159  34.371  1.00  0.00     0.031 A 
ATOM     44  C   UNL A   1      39.039  34.305  34.952  1.00  0.00     0.074 A 
ATOM     45  C   UNL A   1      39.208  32.097  34.329  1.00  0.00     0.049 A 
ATOM     46  N   UNL A   1      40.109  34.838  34.453  1.00  0.00    -0.248 NA
ATOM     47  C   UNL A   1      38.650  34.823  36.256  1.00  0.00     0.031 C 
ATOM     48  C   UNL A   1      40.614  31.897  34.729  1.00  0.00     0.029 A 
ATOM     49  N   UNL A   1      38.925  30.805  33.963  1.00  0.00    -0.354 N 
ATOM     50  C   UNL A   1      40.695  35.516  35.501  1.00  0.00     0.074 A 
ATOM     51  C   UNL A   1      39.661  35.659  36.508  1.00  0.00     0.031 C 
ATOM     52  C   UNL A   1      41.084  30.738  34.207  1.00  0.00     0.029 A 
ATOM     53  C   UNL A   1      40.025  30.142  33.426  1.00  0.00     0.049 A 
ATOM     54  H   UNL A   1      38.038  30.391  34.068  1.00  0.00     0.167 HD
ATOM     55  C   UNL A   1      42.051  35.602  35.657  1.00  0.00     0.037 A 
ATOM     56  C   UNL A   1      39.970  29.767  32.107  1.00  0.00     0.037 A 
ATOM     57  C   UNL A   1      42.783  34.651  34.805  1.00  0.00     0.049 A 
ATOM     58  C   UNL A   1      40.815  30.727  31.293  1.00  0.00     0.074 A 
ATOM     59  C   UNL A   1      43.571  33.532  35.050  1.00  0.00     0.029 A 
ATOM     60  N   UNL A   1      42.509  34.595  33.451  1.00  0.00    -0.354 N 
ATOM     61  N   UNL A   1      41.697  31.507  31.853  1.00  0.00    -0.248 NA
ATOM     62  C   UNL A   1      40.749  30.959  29.849  1.00  0.00     0.031 C 
ATOM     63  C   UNL A   1      43.810  32.855  33.819  1.00  0.00     0.029 A 
ATOM     64  C   UNL A   1      43.169  33.557  32.820  1.00  0.00     0.049 A 
ATOM     65  H   UNL A   1      41.909  35.222  32.987  1.00  0.00     0.167 HD
ATOM     66  C   UNL A   1      42.196  32.405  30.960  1.00  0.00     0.074 A 
ATOM     67  C   UNL A   1      41.615  31.983  29.696  1.00  0.00     0.031 C 
ATOM     68  C   UNL A   1      43.015  33.419  31.376  1.00  0.00     0.037 A 
BRANCH  55  69
ATOM     69  C   UNL A   1      42.669  36.369  36.813  1.00  0.00     0.058 A 
ATOM     70  C   UNL A   1      42.644  35.900  38.140  1.00  0.00     0.135 A 
ATOM     71  C   UNL A   1      43.383  37.578  36.630  1.00  0.00     0.135 A 
ATOM     72  F   UNL A   1      42.110  34.718  38.463  1.00  0.00    -0.206 F 
ATOM     73  C   UNL A   1      43.191  36.613  39.208  1.00  0.00     0.059 A 
ATOM     74  C   UNL A   1      43.895  38.336  37.688  1.00  0.00     0.059 A 
ATOM     75  F   UNL A   1      43.638  38.054  35.399  1.00  0.00    -0.206 F 
ATOM     76  C   UNL A   1      43.799  37.839  38.978  1.00  0.00     0.060 A 
BRANCH  76  77
ATOM     77  S   UNL A   1      44.505  38.729  40.376  1.00  0.00     0.124 S 
ATOM     78  O   UNL A   1      44.424  37.741  41.447  1.00  0.00    -0.237 OA
ATOM     79  O   UNL A   1      45.848  39.032  39.892  1.00  0.00    -0.237 OA
ATOM     80  O   UNL A   1      43.620  39.882  40.529  1.00  0.00    -0.744 OA
ENDBRANCH  76  77
ENDBRANCH  55  69
BRANCH  56  81
ATOM     81  C   UNL A   1      38.622  29.102  31.722  1.00  0.00     0.058 A 
ATOM     82  C   UNL A   1      38.099  29.608  30.508  1.00  0.00     0.135 A 
ATOM     83  C   UNL A   1      38.646  27.719  31.758  1.00  0.00     0.135 A 
ATOM     84  F   UNL A   1      37.571  30.838  30.478  1.00  0.00    -0.206 F 
ATOM     85  C   UNL A   1      38.314  28.953  29.285  1.00  0.00     0.059 A 
ATOM     86  C   UNL A   1      38.867  27.065  30.537  1.00  0.00     0.059 A 
ATOM     87  F   UNL A   1      38.970  27.077  32.893  1.00  0.00    -0.206 F 
ATOM     88  C   UNL A   1      38.908  27.705  29.317  1.00  0.00     0.060 A 
BRANCH  88  89
ATOM     89  S   UNL A   1      40.093  27.102  27.903  1.00  0.00     0.124 S 
ATOM     90  O   UNL A   1      40.104  28.253  27.070  1.00  0.00    -0.237 OA
ATOM     91  O   UNL A   1      41.393  26.892  28.513  1.00  0.00    -0.237 OA
ATOM     92  O   UNL A   1      39.509  25.942  27.259  1.00  0.00    -0.744 OA
ENDBRANCH  88  89
ENDBRANCH  56  81
BRANCH  68  93
ATOM     93  C   UNL A   1      43.739  34.406  30.493  1.00  0.00     0.058 A 
ATOM     94  C   UNL A   1      43.071  35.323  29.672  1.00  0.00     0.135 A 
ATOM     95  C   UNL A   1      45.147  34.350  30.318  1.00  0.00     0.135 A 
ATOM     96  F   UNL A   1      41.731  35.383  29.649  1.00  0.00    -0.206 F 
ATOM     97  C   UNL A   1      43.756  36.185  28.810  1.00  0.00     0.059 A 
ATOM     98  C   UNL A   1      45.843  35.163  29.437  1.00  0.00     0.059 A 
ATOM     99  F   UNL A   1      45.929  33.507  31.002  1.00  0.00    -0.206 F 
ATOM    100  C   UNL A   1      45.144  36.105  28.711  1.00  0.00     0.060 A 
BRANCH 100 101
ATOM    101  S   UNL A   1      46.033  37.231  27.629  1.00  0.00     0.124 S 
ATOM    102  O   UNL A   1      46.124  36.467  26.390  1.00  0.00    -0.237 OA
ATOM    103  O   UNL A   1      45.132  38.379  27.602  1.00  0.00    -0.237 OA
ATOM    104  O   UNL A   1      47.301  37.447  28.320  1.00  0.00    -0.744 OA
ENDBRANCH 100 101
ENDBRANCH  68  93
ENDBRANCH  42  43
ENDBRANCH  34  37
ENDBRANCH  32  33
ENDBRANCH  31  32
ENDBRANCH   1  31
TORSDOF 18
ENDMDL
