MODEL 1
REMARK VINA RESULT:     -12.9      0.000      0.000
REMARK SMILES CN(C)c1ccc(-c2nnc([C@H]3CC[N@@H+](Cc4ccc(C(=O)NCCCCCCNC(=O)c5ccc(-c6c7nc(c(-c8c(F)cc(S(=O)(=O)[O-])cc8F)c8ccc([nH]8)c(-c8c(F)cc(S(=O)(=O)[O-])cc8F)c8nc(c(-c9c(F)cc(S(=O)(=O)[O-])cc9F)c9ccc6[nH]9)C=C8)C=C7)cc5)cc4)C3)o2)cc1
REMARK SMILES IDX 25 1 24 2 23 3 21 4 22 5 20 7 17 8 18 9 100 10 19 11 99 12
REMARK SMILES IDX 16 13 15 14 12 15 13 16 101 17 14 18 11 20 8 21 9 22 102 23
REMARK SMILES IDX 10 24 7 25 4 26 5 27 104 28 6 29 103 30 2 31 1 32 3 33 26 34
REMARK SMILES IDX 27 35 28 36 29 37 30 38 31 39 32 41 33 42 34 43 98 44 35 45
REMARK SMILES IDX 97 46 36 47 37 48 38 49 91 50 39 51 96 52 90 53 92 54 40 55
REMARK SMILES IDX 95 56 89 57 88 58 41 60 75 61 54 62 74 63 55 64 58 65 73 66
REMARK SMILES IDX 93 67 56 68 57 69 72 71 94 72 59 73 42 74 43 75 52 76 44 77
REMARK SMILES IDX 45 78 51 79 53 80 46 81 47 82 48 83 49 84 50 85 76 86 77 87
REMARK SMILES IDX 86 88 78 89 79 90 85 91 87 92 80 93 81 94 82 95 83 96 84 97
REMARK SMILES IDX 60 98 61 99 70 100 62 101 63 102 69 103 71 104 64 105 65 106
REMARK SMILES IDX 66 107 67 108 68 109
REMARK H PARENT 23 6 15 19 30 40 92 59 58 70
REMARK Flexibility Score: inf
ROOT
ATOM      1  C   UNL A   1      37.696  22.355  25.774  1.00  0.00     0.021 C 
ENDROOT
BRANCH   1   2
ATOM      2  C   UNL A   1      36.430  23.218  25.787  1.00  0.00     0.116 C 
BRANCH   2   3
ATOM      3  N   UNL A   1      35.456  22.719  26.752  1.00  0.00    -0.352 N 
ATOM      4  C   UNL A   1      34.175  23.109  27.065  1.00  0.00     0.251 C 
ATOM      5  O   UNL A   1      33.515  22.395  27.821  1.00  0.00    -0.269 OA
ATOM      6  H   UNL A   1      35.779  21.954  27.282  1.00  0.00     0.163 HD
BRANCH   4   7
ATOM      7  C   UNL A   1      33.536  24.330  26.507  1.00  0.00     0.039 A 
ATOM      8  C   UNL A   1      32.442  26.742  25.518  1.00  0.00     0.006 A 
ATOM      9  C   UNL A   1      33.803  26.454  25.348  1.00  0.00     0.010 A 
ATOM     10  C   UNL A   1      31.621  25.751  26.067  1.00  0.00     0.010 A 
ATOM     11  C   UNL A   1      34.344  25.259  25.839  1.00  0.00     0.014 A 
ATOM     12  C   UNL A   1      32.163  24.554  26.554  1.00  0.00     0.014 A 
BRANCH   8  13
ATOM     13  C   UNL A   1      31.894  28.114  25.182  1.00  0.00     0.299 C 
BRANCH  13  14
ATOM     14  N   UNL A   1      31.498  28.348  23.781  1.00  0.00    -0.330 N 
ATOM     15  C   UNL A   1      31.577  26.615  22.078  1.00  0.00     0.138 C 
ATOM     16  C   UNL A   1      30.240  26.572  22.814  1.00  0.00     0.081 C 
ATOM     17  C   UNL A   1      32.376  27.717  22.779  1.00  0.00     0.276 C 
ATOM     18  C   UNL A   1      30.129  27.955  23.441  1.00  0.00     0.263 C 
ATOM     19  H   UNL A   1      31.582  29.363  23.736  1.00  0.00     0.348 HD
BRANCH  15  20
ATOM     20  C   UNL A   1      32.235  25.284  21.991  1.00  0.00     0.225 A 
ATOM     21  C   UNL A   1      32.709  23.261  22.475  1.00  0.00     0.247 A 
ATOM     22  N   UNL A   1      33.540  23.628  21.520  1.00  0.00    -0.108 NA
ATOM     23  O   UNL A   1      31.841  24.263  22.829  1.00  0.00    -0.420 OA
ATOM     24  N   UNL A   1      33.227  24.929  21.199  1.00  0.00    -0.112 NA
BRANCH  21  25
ATOM     25  C   UNL A   1      32.533  21.933  23.049  1.00  0.00     0.039 A 
ATOM     26  C   UNL A   1      32.884  19.227  23.894  1.00  0.00     0.036 A 
ATOM     27  C   UNL A   1      33.231  20.304  24.715  1.00  0.00     0.027 A 
ATOM     28  C   UNL A   1      32.194  19.547  22.718  1.00  0.00     0.027 A 
ATOM     29  C   UNL A   1      33.102  21.634  24.287  1.00  0.00     0.016 A 
ATOM     30  C   UNL A   1      31.986  20.877  22.319  1.00  0.00     0.016 A 
BRANCH  26  31
ATOM     31  N   UNL A   1      33.218  17.907  24.182  1.00  0.00    -0.378 N 
ATOM     32  C   UNL A   1      32.535  17.283  25.319  1.00  0.00     0.143 C 
ATOM     33  C   UNL A   1      33.640  16.980  23.139  1.00  0.00     0.143 C 
ENDBRANCH  26  31
ENDBRANCH  21  25
ENDBRANCH  15  20
ENDBRANCH  13  14
ENDBRANCH   8  13
ENDBRANCH   4   7
ENDBRANCH   2   3
ENDBRANCH   1   2
BRANCH   1  34
ATOM     34  C   UNL A   1      38.993  23.070  26.178  1.00  0.00     0.002 C 
BRANCH  34  35
ATOM     35  C   UNL A   1      40.197  22.167  26.487  1.00  0.00     0.002 C 
BRANCH  35  36
ATOM     36  C   UNL A   1      41.091  22.568  27.671  1.00  0.00     0.021 C 
BRANCH  36  37
ATOM     37  C   UNL A   1      42.441  23.206  27.330  1.00  0.00     0.116 C 
BRANCH  37  38
ATOM     38  N   UNL A   1      42.385  24.113  26.195  1.00  0.00    -0.352 N 
ATOM     39  C   UNL A   1      42.032  25.439  26.101  1.00  0.00     0.251 C 
ATOM     40  H   UNL A   1      42.650  23.703  25.339  1.00  0.00     0.163 HD
ATOM     41  O   UNL A   1      41.975  25.945  24.980  1.00  0.00    -0.269 OA
BRANCH  39  42
ATOM     42  C   UNL A   1      41.714  26.287  27.287  1.00  0.00     0.039 A 
ATOM     43  C   UNL A   1      42.634  27.264  27.682  1.00  0.00     0.014 A 
ATOM     44  C   UNL A   1      40.586  26.081  28.081  1.00  0.00     0.014 A 
ATOM     45  C   UNL A   1      42.404  28.040  28.828  1.00  0.00     0.010 A 
ATOM     46  C   UNL A   1      40.323  26.886  29.197  1.00  0.00     0.010 A 
ATOM     47  C   UNL A   1      41.237  27.870  29.592  1.00  0.00    -0.014 A 
BRANCH  47  48
ATOM     48  C   UNL A   1      40.969  28.740  30.772  1.00  0.00     0.031 A 
ATOM     49  C   UNL A   1      41.763  28.598  32.047  1.00  0.00     0.074 A 
ATOM     50  C   UNL A   1      39.980  29.652  30.703  1.00  0.00     0.049 A 
ATOM     51  N   UNL A   1      41.711  29.326  33.135  1.00  0.00    -0.248 NA
ATOM     52  C   UNL A   1      42.722  27.487  32.119  1.00  0.00     0.031 C 
ATOM     53  C   UNL A   1      39.081  29.832  29.560  1.00  0.00     0.029 A 
ATOM     54  N   UNL A   1      39.556  30.594  31.608  1.00  0.00    -0.354 N 
ATOM     55  C   UNL A   1      42.630  28.767  34.018  1.00  0.00     0.074 A 
ATOM     56  C   UNL A   1      43.189  27.607  33.357  1.00  0.00     0.031 C 
ATOM     57  C   UNL A   1      38.227  30.834  29.826  1.00  0.00     0.029 A 
ATOM     58  C   UNL A   1      38.505  31.359  31.159  1.00  0.00     0.049 A 
ATOM     59  H   UNL A   1      39.967  30.711  32.495  1.00  0.00     0.167 HD
ATOM     60  C   UNL A   1      42.989  29.193  35.254  1.00  0.00     0.037 A 
ATOM     61  C   UNL A   1      37.845  32.376  31.747  1.00  0.00     0.037 A 
ATOM     62  C   UNL A   1      42.434  30.358  35.903  1.00  0.00     0.049 A 
ATOM     63  C   UNL A   1      38.293  32.858  33.101  1.00  0.00     0.074 A 
ATOM     64  C   UNL A   1      42.792  30.917  37.120  1.00  0.00     0.029 A 
ATOM     65  N   UNL A   1      41.402  31.134  35.399  1.00  0.00    -0.354 N 
ATOM     66  N   UNL A   1      39.245  32.389  33.871  1.00  0.00    -0.248 NA
ATOM     67  C   UNL A   1      37.594  34.026  33.655  1.00  0.00     0.031 C 
ATOM     68  C   UNL A   1      41.941  31.998  37.375  1.00  0.00     0.029 A 
ATOM     69  C   UNL A   1      41.093  32.151  36.290  1.00  0.00     0.049 A 
ATOM     70  H   UNL A   1      40.953  30.984  34.536  1.00  0.00     0.167 HD
ATOM     71  C   UNL A   1      39.281  33.222  34.984  1.00  0.00     0.074 A 
ATOM     72  C   UNL A   1      38.268  34.236  34.777  1.00  0.00     0.031 C 
ATOM     73  C   UNL A   1      40.081  33.156  36.077  1.00  0.00     0.037 A 
BRANCH  60  74
ATOM     74  C   UNL A   1      44.040  28.412  36.000  1.00  0.00     0.058 A 
ATOM     75  C   UNL A   1      45.402  28.743  35.915  1.00  0.00     0.135 A 
ATOM     76  C   UNL A   1      43.676  27.376  36.876  1.00  0.00     0.135 A 
ATOM     77  F   UNL A   1      45.812  29.717  35.087  1.00  0.00    -0.206 F 
ATOM     78  C   UNL A   1      46.365  28.065  36.659  1.00  0.00     0.059 A 
ATOM     79  C   UNL A   1      44.618  26.703  37.650  1.00  0.00     0.059 A 
ATOM     80  F   UNL A   1      42.388  27.018  37.000  1.00  0.00    -0.206 F 
ATOM     81  C   UNL A   1      45.963  27.050  37.528  1.00  0.00     0.060 A 
BRANCH  81  82
ATOM     82  S   UNL A   1      47.220  26.203  38.509  1.00  0.00     0.124 S 
ATOM     83  O   UNL A   1      46.613  26.223  39.839  1.00  0.00    -0.237 OA
ATOM     84  O   UNL A   1      47.284  24.893  37.865  1.00  0.00    -0.237 OA
ATOM     85  O   UNL A   1      48.401  27.037  38.347  1.00  0.00    -0.744 OA
ENDBRANCH  81  82
ENDBRANCH  60  74
BRANCH  61  86
ATOM     86  C   UNL A   1      36.707  33.030  31.044  1.00  0.00     0.058 A 
ATOM     87  C   UNL A   1      36.920  33.889  29.956  1.00  0.00     0.135 A 
ATOM     88  C   UNL A   1      35.382  32.808  31.451  1.00  0.00     0.135 A 
ATOM     89  F   UNL A   1      38.169  34.136  29.530  1.00  0.00    -0.206 F 
ATOM     90  C   UNL A   1      35.864  34.530  29.315  1.00  0.00     0.059 A 
ATOM     91  C   UNL A   1      34.308  33.413  30.808  1.00  0.00     0.059 A 
ATOM     92  F   UNL A   1      35.123  31.978  32.474  1.00  0.00    -0.206 F 
ATOM     93  C   UNL A   1      34.561  34.286  29.750  1.00  0.00     0.060 A 
BRANCH  93  94
ATOM     94  S   UNL A   1      33.194  35.100  28.895  1.00  0.00     0.124 S 
ATOM     95  O   UNL A   1      32.286  35.385  30.000  1.00  0.00    -0.237 OA
ATOM     96  O   UNL A   1      33.853  36.255  28.293  1.00  0.00    -0.237 OA
ATOM     97  O   UNL A   1      32.738  34.085  27.950  1.00  0.00    -0.744 OA
ENDBRANCH  93  94
ENDBRANCH  61  86
BRANCH  73  98
ATOM     98  C   UNL A   1      39.919  34.236  37.115  1.00  0.00     0.058 A 
ATOM     99  C   UNL A   1      39.115  34.060  38.252  1.00  0.00     0.135 A 
ATOM    100  C   UNL A   1      40.584  35.465  36.970  1.00  0.00     0.135 A 
ATOM    101  F   UNL A   1      38.457  32.905  38.442  1.00  0.00    -0.206 F 
ATOM    102  C   UNL A   1      38.934  35.080  39.180  1.00  0.00     0.059 A 
ATOM    103  C   UNL A   1      40.444  36.488  37.903  1.00  0.00     0.059 A 
ATOM    104  F   UNL A   1      41.380  35.683  35.911  1.00  0.00    -0.206 F 
ATOM    105  C   UNL A   1      39.597  36.295  38.993  1.00  0.00     0.060 A 
BRANCH 105 106
ATOM    106  S   UNL A   1      39.343  37.617  40.194  1.00  0.00     0.124 S 
ATOM    107  O   UNL A   1      40.664  38.236  40.231  1.00  0.00    -0.237 OA
ATOM    108  O   UNL A   1      38.289  38.411  39.570  1.00  0.00    -0.237 OA
ATOM    109  O   UNL A   1      38.949  36.905  41.405  1.00  0.00    -0.744 OA
ENDBRANCH 105 106
ENDBRANCH  73  98
ENDBRANCH  47  48
ENDBRANCH  39  42
ENDBRANCH  37  38
ENDBRANCH  36  37
ENDBRANCH  35  36
ENDBRANCH  34  35
ENDBRANCH   1  34
TORSDOF 21
ENDMDL
MODEL 2
REMARK VINA RESULT:     -11.9      6.176      8.409
REMARK SMILES CN(C)c1ccc(-c2nnc([C@H]3CC[N@@H+](Cc4ccc(C(=O)NCCCCCCNC(=O)c5ccc(-c6c7nc(c(-c8c(F)cc(S(=O)(=O)[O-])cc8F)c8ccc([nH]8)c(-c8c(F)cc(S(=O)(=O)[O-])cc8F)c8nc(c(-c9c(F)cc(S(=O)(=O)[O-])cc9F)c9ccc6[nH]9)C=C8)C=C7)cc5)cc4)C3)o2)cc1
REMARK SMILES IDX 25 1 24 2 23 3 21 4 22 5 20 7 17 8 18 9 100 10 19 11 99 12
REMARK SMILES IDX 16 13 15 14 12 15 13 16 101 17 14 18 11 20 8 21 9 22 102 23
REMARK SMILES IDX 10 24 7 25 4 26 5 27 104 28 6 29 103 30 2 31 1 32 3 33 26 34
REMARK SMILES IDX 27 35 28 36 29 37 30 38 31 39 32 41 33 42 34 43 98 44 35 45
REMARK SMILES IDX 97 46 36 47 37 48 38 49 91 50 39 51 96 52 90 53 92 54 40 55
REMARK SMILES IDX 95 56 89 57 88 58 41 60 75 61 54 62 74 63 55 64 58 65 73 66
REMARK SMILES IDX 93 67 56 68 57 69 72 71 94 72 59 73 42 74 43 75 52 76 44 77
REMARK SMILES IDX 45 78 51 79 53 80 46 81 47 82 48 83 49 84 50 85 76 86 77 87
REMARK SMILES IDX 86 88 78 89 79 90 85 91 87 92 80 93 81 94 82 95 83 96 84 97
REMARK SMILES IDX 60 98 61 99 70 100 62 101 63 102 69 103 71 104 64 105 65 106
REMARK SMILES IDX 66 107 67 108 68 109
REMARK H PARENT 23 6 15 19 30 40 92 59 58 70
REMARK Flexibility Score: inf
ROOT
ATOM      1  C   UNL A   1      38.800  22.083  26.465  1.00  0.00     0.021 C 
ENDROOT
BRANCH   1   2
ATOM      2  C   UNL A   1      37.850  22.969  25.652  1.00  0.00     0.116 C 
BRANCH   2   3
ATOM      3  N   UNL A   1      36.910  22.167  24.876  1.00  0.00    -0.352 N 
ATOM      4  C   UNL A   1      35.741  22.480  24.222  1.00  0.00     0.251 C 
ATOM      5  O   UNL A   1      35.227  21.624  23.500  1.00  0.00    -0.269 OA
ATOM      6  H   UNL A   1      37.161  21.217  24.806  1.00  0.00     0.163 HD
BRANCH   4   7
ATOM      7  C   UNL A   1      35.087  23.812  24.316  1.00  0.00     0.039 A 
ATOM      8  C   UNL A   1      33.927  26.390  24.357  1.00  0.00     0.006 A 
ATOM      9  C   UNL A   1      33.911  25.618  23.187  1.00  0.00     0.010 A 
ATOM     10  C   UNL A   1      34.411  25.800  25.529  1.00  0.00     0.010 A 
ATOM     11  C   UNL A   1      34.486  24.342  23.167  1.00  0.00     0.014 A 
ATOM     12  C   UNL A   1      34.982  24.520  25.510  1.00  0.00     0.014 A 
BRANCH   8  13
ATOM     13  C   UNL A   1      33.499  27.843  24.330  1.00  0.00     0.299 C 
BRANCH  13  14
ATOM     14  N   UNL A   1      32.076  28.124  24.592  1.00  0.00    -0.330 N 
ATOM     15  C   UNL A   1      30.594  26.533  25.680  1.00  0.00     0.138 C 
ATOM     16  C   UNL A   1      31.312  27.385  26.723  1.00  0.00     0.081 C 
ATOM     17  C   UNL A   1      31.168  26.991  24.336  1.00  0.00     0.276 C 
ATOM     18  C   UNL A   1      31.768  28.607  25.939  1.00  0.00     0.263 C 
ATOM     19  H   UNL A   1      31.911  28.870  23.917  1.00  0.00     0.348 HD
BRANCH  15  20
ATOM     20  C   UNL A   1      30.675  25.075  25.963  1.00  0.00     0.225 A 
ATOM     21  C   UNL A   1      31.237  23.030  25.735  1.00  0.00     0.247 A 
ATOM     22  N   UNL A   1      30.364  23.076  26.721  1.00  0.00    -0.108 NA
ATOM     23  O   UNL A   1      31.491  24.268  25.200  1.00  0.00    -0.420 OA
ATOM     24  N   UNL A   1      30.010  24.397  26.877  1.00  0.00    -0.112 NA
BRANCH  21  25
ATOM     25  C   UNL A   1      32.022  21.888  25.285  1.00  0.00     0.039 A 
ATOM     26  C   UNL A   1      32.930  19.270  24.588  1.00  0.00     0.036 A 
ATOM     27  C   UNL A   1      32.312  20.106  23.654  1.00  0.00     0.027 A 
ATOM     28  C   UNL A   1      33.238  19.851  25.825  1.00  0.00     0.027 A 
ATOM     29  C   UNL A   1      31.824  21.375  24.003  1.00  0.00     0.016 A 
ATOM     30  C   UNL A   1      32.826  21.152  26.157  1.00  0.00     0.016 A 
BRANCH  26  31
ATOM     31  N   UNL A   1      33.207  17.928  24.348  1.00  0.00    -0.378 N 
ATOM     32  C   UNL A   1      32.789  16.970  25.375  1.00  0.00     0.143 C 
ATOM     33  C   UNL A   1      33.258  17.389  22.994  1.00  0.00     0.143 C 
ENDBRANCH  26  31
ENDBRANCH  21  25
ENDBRANCH  15  20
ENDBRANCH  13  14
ENDBRANCH   8  13
ENDBRANCH   4   7
ENDBRANCH   2   3
ENDBRANCH   1   2
BRANCH   1  34
ATOM     34  C   UNL A   1      40.136  22.728  26.860  1.00  0.00     0.002 C 
BRANCH  34  35
ATOM     35  C   UNL A   1      41.371  21.816  26.804  1.00  0.00     0.002 C 
BRANCH  35  36
ATOM     36  C   UNL A   1      41.225  20.479  26.061  1.00  0.00     0.021 C 
BRANCH  36  37
ATOM     37  C   UNL A   1      42.257  19.395  26.382  1.00  0.00     0.116 C 
BRANCH  37  38
ATOM     38  N   UNL A   1      43.176  19.124  25.288  1.00  0.00    -0.352 N 
ATOM     39  C   UNL A   1      44.071  19.932  24.626  1.00  0.00     0.251 C 
ATOM     40  H   UNL A   1      43.153  18.194  24.964  1.00  0.00     0.163 HD
ATOM     41  O   UNL A   1      44.662  19.464  23.652  1.00  0.00    -0.269 OA
BRANCH  39  42
ATOM     42  C   UNL A   1      44.357  21.339  25.029  1.00  0.00     0.039 A 
ATOM     43  C   UNL A   1      44.916  21.578  26.289  1.00  0.00     0.014 A 
ATOM     44  C   UNL A   1      43.997  22.435  24.245  1.00  0.00     0.014 A 
ATOM     45  C   UNL A   1      45.142  22.891  26.732  1.00  0.00     0.010 A 
ATOM     46  C   UNL A   1      44.267  23.747  24.659  1.00  0.00     0.010 A 
ATOM     47  C   UNL A   1      44.834  23.991  25.915  1.00  0.00    -0.014 A 
BRANCH  47  48
ATOM     48  C   UNL A   1      45.134  25.379  26.366  1.00  0.00     0.031 A 
ATOM     49  C   UNL A   1      46.533  25.941  26.299  1.00  0.00     0.074 A 
ATOM     50  C   UNL A   1      44.138  26.135  26.868  1.00  0.00     0.049 A 
ATOM     51  N   UNL A   1      46.949  27.152  26.576  1.00  0.00    -0.248 NA
ATOM     52  C   UNL A   1      47.605  25.022  25.890  1.00  0.00     0.031 C 
ATOM     53  C   UNL A   1      42.759  25.684  27.068  1.00  0.00     0.029 A 
ATOM     54  N   UNL A   1      44.126  27.437  27.306  1.00  0.00    -0.354 N 
ATOM     55  C   UNL A   1      48.325  27.144  26.370  1.00  0.00     0.074 A 
ATOM     56  C   UNL A   1      48.681  25.792  25.995  1.00  0.00     0.031 C 
ATOM     57  C   UNL A   1      42.033  26.696  27.571  1.00  0.00     0.029 A 
ATOM     58  C   UNL A   1      42.894  27.862  27.744  1.00  0.00     0.049 A 
ATOM     59  H   UNL A   1      44.926  28.011  27.308  1.00  0.00     0.167 HD
ATOM     60  C   UNL A   1      49.205  28.172  26.465  1.00  0.00     0.037 A 
ATOM     61  C   UNL A   1      42.495  29.058  28.219  1.00  0.00     0.037 A 
ATOM     62  C   UNL A   1      48.840  29.520  26.830  1.00  0.00     0.049 A 
ATOM     63  C   UNL A   1      43.481  30.194  28.272  1.00  0.00     0.074 A 
ATOM     64  C   UNL A   1      49.645  30.647  26.873  1.00  0.00     0.029 A 
ATOM     65  N   UNL A   1      47.573  29.924  27.223  1.00  0.00    -0.354 N 
ATOM     66  N   UNL A   1      44.755  30.197  27.960  1.00  0.00    -0.248 NA
ATOM     67  C   UNL A   1      42.969  31.499  28.715  1.00  0.00     0.031 C 
ATOM     68  C   UNL A   1      48.878  31.719  27.344  1.00  0.00     0.029 A 
ATOM     69  C   UNL A   1      47.580  31.274  27.535  1.00  0.00     0.049 A 
ATOM     70  H   UNL A   1      46.785  29.336  27.275  1.00  0.00     0.167 HD
ATOM     71  C   UNL A   1      45.188  31.506  28.139  1.00  0.00     0.074 A 
ATOM     72  C   UNL A   1      44.035  32.271  28.567  1.00  0.00     0.031 C 
ATOM     73  C   UNL A   1      46.428  32.029  27.963  1.00  0.00     0.037 A 
BRANCH  60  74
ATOM     74  C   UNL A   1      50.656  27.898  26.162  1.00  0.00     0.058 A 
ATOM     75  C   UNL A   1      51.162  27.971  24.854  1.00  0.00     0.135 A 
ATOM     76  C   UNL A   1      51.569  27.644  27.199  1.00  0.00     0.135 A 
ATOM     77  F   UNL A   1      50.336  28.201  23.821  1.00  0.00    -0.206 F 
ATOM     78  C   UNL A   1      52.515  27.788  24.584  1.00  0.00     0.059 A 
ATOM     79  C   UNL A   1      52.931  27.484  26.956  1.00  0.00     0.059 A 
ATOM     80  F   UNL A   1      51.143  27.565  28.470  1.00  0.00    -0.206 F 
ATOM     81  C   UNL A   1      53.393  27.550  25.643  1.00  0.00     0.060 A 
BRANCH  81  82
ATOM     82  S   UNL A   1      55.151  27.345  25.280  1.00  0.00     0.124 S 
ATOM     83  O   UNL A   1      55.505  28.680  24.801  1.00  0.00    -0.237 OA
ATOM     84  O   UNL A   1      55.696  26.978  26.585  1.00  0.00    -0.237 OA
ATOM     85  O   UNL A   1      55.173  26.293  24.275  1.00  0.00    -0.744 OA
ENDBRANCH  81  82
ENDBRANCH  60  74
BRANCH  61  86
ATOM     86  C   UNL A   1      41.084  29.253  28.655  1.00  0.00     0.058 A 
ATOM     87  C   UNL A   1      40.044  29.378  27.722  1.00  0.00     0.135 A 
ATOM     88  C   UNL A   1      40.752  29.320  30.017  1.00  0.00     0.135 A 
ATOM     89  F   UNL A   1      40.311  29.323  26.408  1.00  0.00    -0.206 F 
ATOM     90  C   UNL A   1      38.729  29.594  28.121  1.00  0.00     0.059 A 
ATOM     91  C   UNL A   1      39.441  29.506  30.442  1.00  0.00     0.059 A 
ATOM     92  F   UNL A   1      41.707  29.185  30.950  1.00  0.00    -0.206 F 
ATOM     93  C   UNL A   1      38.437  29.657  29.485  1.00  0.00     0.060 A 
BRANCH  93  94
ATOM     94  S   UNL A   1      36.724  29.909  29.995  1.00  0.00     0.124 S 
ATOM     95  O   UNL A   1      35.995  29.370  28.853  1.00  0.00    -0.237 OA
ATOM     96  O   UNL A   1      36.652  29.128  31.226  1.00  0.00    -0.237 OA
ATOM     97  O   UNL A   1      36.636  31.355  30.174  1.00  0.00    -0.744 OA
ENDBRANCH  93  94
ENDBRANCH  61  86
BRANCH  73  98
ATOM     98  C   UNL A   1      46.590  33.508  28.195  1.00  0.00     0.058 A 
ATOM     99  C   UNL A   1      46.414  34.447  27.166  1.00  0.00     0.135 A 
ATOM    100  C   UNL A   1      46.922  33.994  29.471  1.00  0.00     0.135 A 
ATOM    101  F   UNL A   1      46.095  34.038  25.927  1.00  0.00    -0.206 F 
ATOM    102  C   UNL A   1      46.613  35.807  27.379  1.00  0.00     0.059 A 
ATOM    103  C   UNL A   1      47.094  35.354  29.715  1.00  0.00     0.059 A 
ATOM    104  F   UNL A   1      47.087  33.145  30.497  1.00  0.00    -0.206 F 
ATOM    105  C   UNL A   1      46.960  36.251  28.656  1.00  0.00     0.060 A 
BRANCH 105 106
ATOM    106  S   UNL A   1      47.232  38.016  28.918  1.00  0.00     0.124 S 
ATOM    107  O   UNL A   1      46.012  38.586  28.355  1.00  0.00    -0.237 OA
ATOM    108  O   UNL A   1      47.360  38.102  30.370  1.00  0.00    -0.237 OA
ATOM    109  O   UNL A   1      48.455  38.286  28.170  1.00  0.00    -0.744 OA
ENDBRANCH 105 106
ENDBRANCH  73  98
ENDBRANCH  47  48
ENDBRANCH  39  42
ENDBRANCH  37  38
ENDBRANCH  36  37
ENDBRANCH  35  36
ENDBRANCH  34  35
ENDBRANCH   1  34
TORSDOF 21
ENDMDL
MODEL 3
REMARK VINA RESULT:     -11.3      5.943      8.781
REMARK SMILES CN(C)c1ccc(-c2nnc([C@H]3CC[N@@H+](Cc4ccc(C(=O)NCCCCCCNC(=O)c5ccc(-c6c7nc(c(-c8c(F)cc(S(=O)(=O)[O-])cc8F)c8ccc([nH]8)c(-c8c(F)cc(S(=O)(=O)[O-])cc8F)c8nc(c(-c9c(F)cc(S(=O)(=O)[O-])cc9F)c9ccc6[nH]9)C=C8)C=C7)cc5)cc4)C3)o2)cc1
REMARK SMILES IDX 25 1 24 2 23 3 21 4 22 5 20 7 17 8 18 9 100 10 19 11 99 12
REMARK SMILES IDX 16 13 15 14 12 15 13 16 101 17 14 18 11 20 8 21 9 22 102 23
REMARK SMILES IDX 10 24 7 25 4 26 5 27 104 28 6 29 103 30 2 31 1 32 3 33 26 34
REMARK SMILES IDX 27 35 28 36 29 37 30 38 31 39 32 41 33 42 34 43 98 44 35 45
REMARK SMILES IDX 97 46 36 47 37 48 38 49 91 50 39 51 96 52 90 53 92 54 40 55
REMARK SMILES IDX 95 56 89 57 88 58 41 60 75 61 54 62 74 63 55 64 58 65 73 66
REMARK SMILES IDX 93 67 56 68 57 69 72 71 94 72 59 73 42 74 43 75 52 76 44 77
REMARK SMILES IDX 45 78 51 79 53 80 46 81 47 82 48 83 49 84 50 85 76 86 77 87
REMARK SMILES IDX 86 88 78 89 79 90 85 91 87 92 80 93 81 94 82 95 83 96 84 97
REMARK SMILES IDX 60 98 61 99 70 100 62 101 63 102 69 103 71 104 64 105 65 106
REMARK SMILES IDX 66 107 67 108 68 109
REMARK H PARENT 23 6 15 19 30 40 92 59 58 70
REMARK Flexibility Score: inf
ROOT
ATOM      1  C   UNL A   1      38.632  28.244  30.420  1.00  0.00     0.021 C 
ENDROOT
BRANCH   1   2
ATOM      2  C   UNL A   1      37.299  28.999  30.460  1.00  0.00     0.116 C 
BRANCH   2   3
ATOM      3  N   UNL A   1      37.463  30.389  30.046  1.00  0.00    -0.352 N 
ATOM      4  C   UNL A   1      36.769  31.183  29.164  1.00  0.00     0.251 C 
ATOM      5  O   UNL A   1      37.031  32.386  29.129  1.00  0.00    -0.269 OA
ATOM      6  H   UNL A   1      38.217  30.847  30.484  1.00  0.00     0.163 HD
BRANCH   4   7
ATOM      7  C   UNL A   1      35.692  30.667  28.277  1.00  0.00     0.039 A 
ATOM      8  C   UNL A   1      33.535  29.733  26.708  1.00  0.00     0.006 A 
ATOM      9  C   UNL A   1      33.515  31.025  27.251  1.00  0.00     0.010 A 
ATOM     10  C   UNL A   1      34.702  28.975  26.851  1.00  0.00     0.010 A 
ATOM     11  C   UNL A   1      34.584  31.487  28.029  1.00  0.00     0.014 A 
ATOM     12  C   UNL A   1      35.773  29.439  27.626  1.00  0.00     0.014 A 
BRANCH   8  13
ATOM     13  C   UNL A   1      32.300  29.154  26.047  1.00  0.00     0.299 C 
BRANCH  13  14
ATOM     14  N   UNL A   1      32.037  29.559  24.655  1.00  0.00    -0.330 N 
ATOM     15  C   UNL A   1      32.135  28.008  22.786  1.00  0.00     0.138 C 
ATOM     16  C   UNL A   1      30.743  27.993  23.411  1.00  0.00     0.081 C 
ATOM     17  C   UNL A   1      32.948  28.968  23.659  1.00  0.00     0.276 C 
ATOM     18  C   UNL A   1      30.676  29.309  24.174  1.00  0.00     0.263 C 
ATOM     19  H   UNL A   1      32.193  30.564  24.726  1.00  0.00     0.348 HD
BRANCH  15  20
ATOM     20  C   UNL A   1      32.706  26.646  22.605  1.00  0.00     0.225 A 
ATOM     21  C   UNL A   1      33.039  24.566  22.940  1.00  0.00     0.247 A 
ATOM     22  N   UNL A   1      33.905  24.946  22.021  1.00  0.00    -0.108 NA
ATOM     23  O   UNL A   1      32.235  25.595  23.361  1.00  0.00    -0.420 OA
ATOM     24  N   UNL A   1      33.682  26.286  21.796  1.00  0.00    -0.112 NA
BRANCH  21  25
ATOM     25  C   UNL A   1      32.769  23.214  23.412  1.00  0.00     0.039 A 
ATOM     26  C   UNL A   1      32.898  20.419  23.991  1.00  0.00     0.036 A 
ATOM     27  C   UNL A   1      33.417  21.376  24.869  1.00  0.00     0.027 A 
ATOM     28  C   UNL A   1      32.158  20.914  22.910  1.00  0.00     0.027 A 
ATOM     29  C   UNL A   1      33.396  22.747  24.568  1.00  0.00     0.016 A 
ATOM     30  C   UNL A   1      32.060  22.289  22.644  1.00  0.00     0.016 A 
BRANCH  26  31
ATOM     31  N   UNL A   1      33.113  19.052  24.137  1.00  0.00    -0.378 N 
ATOM     32  C   UNL A   1      32.393  18.166  23.219  1.00  0.00     0.143 C 
ATOM     33  C   UNL A   1      34.382  18.526  24.625  1.00  0.00     0.143 C 
ENDBRANCH  26  31
ENDBRANCH  21  25
ENDBRANCH  15  20
ENDBRANCH  13  14
ENDBRANCH   8  13
ENDBRANCH   4   7
ENDBRANCH   2   3
ENDBRANCH   1   2
BRANCH   1  34
ATOM     34  C   UNL A   1      38.984  27.586  29.078  1.00  0.00     0.002 C 
BRANCH  34  35
ATOM     35  C   UNL A   1      39.967  26.407  29.139  1.00  0.00     0.002 C 
BRANCH  35  36
ATOM     36  C   UNL A   1      39.660  25.190  28.251  1.00  0.00     0.021 C 
BRANCH  36  37
ATOM     37  C   UNL A   1      39.541  25.447  26.747  1.00  0.00     0.116 C 
BRANCH  37  38
ATOM     38  N   UNL A   1      40.718  25.046  25.994  1.00  0.00    -0.352 N 
ATOM     39  C   UNL A   1      41.925  25.672  25.781  1.00  0.00     0.251 C 
ATOM     40  H   UNL A   1      40.637  24.166  25.558  1.00  0.00     0.163 HD
ATOM     41  O   UNL A   1      42.722  25.144  25.004  1.00  0.00    -0.269 OA
BRANCH  39  42
ATOM     42  C   UNL A   1      42.310  26.953  26.442  1.00  0.00     0.039 A 
ATOM     43  C   UNL A   1      41.884  28.158  25.874  1.00  0.00     0.014 A 
ATOM     44  C   UNL A   1      43.161  27.005  27.545  1.00  0.00     0.014 A 
ATOM     45  C   UNL A   1      42.277  29.386  26.428  1.00  0.00     0.010 A 
ATOM     46  C   UNL A   1      43.515  28.226  28.135  1.00  0.00     0.010 A 
ATOM     47  C   UNL A   1      43.085  29.435  27.575  1.00  0.00    -0.014 A 
BRANCH  47  48
ATOM     48  C   UNL A   1      43.447  30.741  28.194  1.00  0.00     0.031 A 
ATOM     49  C   UNL A   1      42.544  31.408  29.202  1.00  0.00     0.074 A 
ATOM     50  C   UNL A   1      44.592  31.347  27.824  1.00  0.00     0.049 A 
ATOM     51  N   UNL A   1      42.747  32.502  29.893  1.00  0.00    -0.248 NA
ATOM     52  C   UNL A   1      41.239  30.780  29.452  1.00  0.00     0.031 C 
ATOM     53  C   UNL A   1      45.512  30.852  26.796  1.00  0.00     0.029 A 
ATOM     54  N   UNL A   1      45.179  32.510  28.259  1.00  0.00    -0.354 N 
ATOM     55  C   UNL A   1      41.603  32.692  30.662  1.00  0.00     0.074 A 
ATOM     56  C   UNL A   1      40.687  31.627  30.313  1.00  0.00     0.031 C 
ATOM     57  C   UNL A   1      46.553  31.694  26.694  1.00  0.00     0.029 A 
ATOM     58  C   UNL A   1      46.371  32.795  27.636  1.00  0.00     0.049 A 
ATOM     59  H   UNL A   1      44.783  33.086  28.952  1.00  0.00     0.167 HD
ATOM     60  C   UNL A   1      41.348  33.652  31.586  1.00  0.00     0.037 A 
ATOM     61  C   UNL A   1      47.229  33.819  27.808  1.00  0.00     0.037 A 
ATOM     62  C   UNL A   1      42.271  34.705  31.935  1.00  0.00     0.049 A 
ATOM     63  C   UNL A   1      46.945  34.846  28.871  1.00  0.00     0.074 A 
ATOM     64  C   UNL A   1      42.138  35.675  32.917  1.00  0.00     0.029 A 
ATOM     65  N   UNL A   1      43.489  34.936  31.314  1.00  0.00    -0.354 N 
ATOM     66  N   UNL A   1      45.910  34.942  29.671  1.00  0.00    -0.248 NA
ATOM     67  C   UNL A   1      47.959  35.890  29.075  1.00  0.00     0.031 C 
ATOM     68  C   UNL A   1      43.250  36.522  32.852  1.00  0.00     0.029 A 
ATOM     69  C   UNL A   1      44.105  36.045  31.872  1.00  0.00     0.049 A 
ATOM     70  H   UNL A   1      43.861  34.392  30.582  1.00  0.00     0.167 HD
ATOM     71  C   UNL A   1      46.163  36.035  30.492  1.00  0.00     0.074 A 
ATOM     72  C   UNL A   1      47.458  36.556  30.105  1.00  0.00     0.031 C 
ATOM     73  C   UNL A   1      45.394  36.560  31.480  1.00  0.00     0.037 A 
BRANCH  60  74
ATOM     74  C   UNL A   1      40.024  33.616  32.304  1.00  0.00     0.058 A 
ATOM     75  C   UNL A   1      39.876  32.976  33.545  1.00  0.00     0.135 A 
ATOM     76  C   UNL A   1      38.911  34.301  31.788  1.00  0.00     0.135 A 
ATOM     77  F   UNL A   1      40.901  32.297  34.083  1.00  0.00    -0.206 F 
ATOM     78  C   UNL A   1      38.670  33.004  34.241  1.00  0.00     0.059 A 
ATOM     79  C   UNL A   1      37.703  34.365  32.480  1.00  0.00     0.059 A 
ATOM     80  F   UNL A   1      38.994  34.933  30.607  1.00  0.00    -0.206 F 
ATOM     81  C   UNL A   1      37.591  33.705  33.702  1.00  0.00     0.060 A 
BRANCH  81  82
ATOM     82  S   UNL A   1      36.043  33.759  34.632  1.00  0.00     0.124 S 
ATOM     83  O   UNL A   1      35.270  32.710  33.969  1.00  0.00    -0.237 OA
ATOM     84  O   UNL A   1      36.487  33.452  35.990  1.00  0.00    -0.237 OA
ATOM     85  O   UNL A   1      35.564  35.117  34.424  1.00  0.00    -0.744 OA
ENDBRANCH  81  82
ENDBRANCH  60  74
BRANCH  61  86
ATOM     86  C   UNL A   1      48.459  33.908  26.972  1.00  0.00     0.058 A 
ATOM     87  C   UNL A   1      48.505  34.716  25.826  1.00  0.00     0.135 A 
ATOM     88  C   UNL A   1      49.612  33.181  27.305  1.00  0.00     0.135 A 
ATOM     89  F   UNL A   1      47.427  35.428  25.464  1.00  0.00    -0.206 F 
ATOM     90  C   UNL A   1      49.639  34.777  25.022  1.00  0.00     0.059 A 
ATOM     91  C   UNL A   1      50.768  33.248  26.534  1.00  0.00     0.059 A 
ATOM     92  F   UNL A   1      49.627  32.409  28.404  1.00  0.00    -0.206 F 
ATOM     93  C   UNL A   1      50.766  34.038  25.385  1.00  0.00     0.060 A 
BRANCH  93  94
ATOM     94  S   UNL A   1      52.243  34.145  24.352  1.00  0.00     0.124 S 
ATOM     95  O   UNL A   1      53.289  34.317  25.353  1.00  0.00    -0.237 OA
ATOM     96  O   UNL A   1      52.226  32.861  23.659  1.00  0.00    -0.237 OA
ATOM     97  O   UNL A   1      51.979  35.307  23.508  1.00  0.00    -0.744 OA
ENDBRANCH  93  94
ENDBRANCH  61  86
BRANCH  73  98
ATOM     98  C   UNL A   1      45.954  37.735  32.237  1.00  0.00     0.058 A 
ATOM     99  C   UNL A   1      45.568  39.055  31.954  1.00  0.00     0.135 A 
ATOM    100  C   UNL A   1      46.889  37.535  33.266  1.00  0.00     0.135 A 
ATOM    101  F   UNL A   1      44.677  39.304  30.981  1.00  0.00    -0.206 F 
ATOM    102  C   UNL A   1      46.127  40.136  32.627  1.00  0.00     0.059 A 
ATOM    103  C   UNL A   1      47.437  38.600  33.975  1.00  0.00     0.059 A 
ATOM    104  F   UNL A   1      47.283  36.294  33.591  1.00  0.00    -0.206 F 
ATOM    105  C   UNL A   1      47.067  39.900  33.632  1.00  0.00     0.060 A 
BRANCH 105 106
ATOM    106  S   UNL A   1      47.798  41.311  34.487  1.00  0.00     0.124 S 
ATOM    107  O   UNL A   1      48.907  41.647  33.601  1.00  0.00    -0.237 OA
ATOM    108  O   UNL A   1      46.696  42.267  34.514  1.00  0.00    -0.237 OA
ATOM    109  O   UNL A   1      48.175  40.762  35.786  1.00  0.00    -0.744 OA
ENDBRANCH 105 106
ENDBRANCH  73  98
ENDBRANCH  47  48
ENDBRANCH  39  42
ENDBRANCH  37  38
ENDBRANCH  36  37
ENDBRANCH  35  36
ENDBRANCH  34  35
ENDBRANCH   1  34
TORSDOF 21
ENDMDL
