MODEL 1
REMARK VINA RESULT:      -9.4      0.000      0.000
REMARK SMILES CC[C@H](C)[NH2+][C@H](CS)C(=O)NCCCCCCNC(=O)c1ccc(-c2c3nc(c(-c4c(F)cc(S(=O)(=O)[O-])cc4F)c4ccc([nH]4)c(-c4c(F)cc(S(=O)(=O)[O-])cc4F)c4nc(c(-c5c(F)cc(S(=O)(=O)[O-])cc5F)c5ccc2[nH]5)C=C4)C=C3)cc1
REMARK SMILES IDX 14 1 13 2 12 3 11 4 9 5 10 6 6 8 5 9 3 12 4 13 2 14 1 15
REMARK SMILES IDX 7 16 8 17 15 19 16 20 17 21 18 22 19 23 20 25 21 26 22 27
REMARK SMILES IDX 86 28 23 29 85 30 24 31 25 32 26 33 79 34 27 35 84 36 78 37
REMARK SMILES IDX 80 38 28 39 83 40 77 41 76 42 29 44 63 45 42 46 62 47 43 48
REMARK SMILES IDX 46 49 61 50 81 51 44 52 45 53 60 55 82 56 47 57 30 58 31 59
REMARK SMILES IDX 40 60 32 61 33 62 39 63 41 64 34 65 35 66 36 67 37 68 38 69
REMARK SMILES IDX 64 70 65 71 74 72 66 73 67 74 73 75 75 76 68 77 69 78 70 79
REMARK SMILES IDX 71 80 72 81 48 82 49 83 58 84 50 85 51 86 57 87 59 88 52 89
REMARK SMILES IDX 53 90 54 91 55 92 56 93
REMARK H PARENT 11 7 5 10 5 11 8 18 18 24 80 43 46 54
REMARK Flexibility Score: inf
ROOT
ATOM      1  C   UNL A   1      33.055  29.099  25.722  1.00  0.00     0.002 C 
ENDROOT
BRANCH   1   2
ATOM      2  C   UNL A   1      34.065  27.961  25.790  1.00  0.00     0.021 C 
BRANCH   2   3
ATOM      3  C   UNL A   1      33.534  26.569  25.500  1.00  0.00     0.116 C 
BRANCH   3   4
ATOM      4  N   UNL A   1      34.005  25.969  24.280  1.00  0.00    -0.351 N 
ATOM      5  C   UNL A   1      33.308  25.680  23.144  1.00  0.00     0.279 C 
ATOM      6  O   UNL A   1      33.976  25.339  22.157  1.00  0.00    -0.268 OA
ATOM      7  H   UNL A   1      34.962  25.736  24.264  1.00  0.00     0.163 HD
BRANCH   5   8
ATOM      8  C   UNL A   1      31.754  25.746  23.042  1.00  0.00     0.282 C 
BRANCH   8   9
ATOM      9  N   UNL A   1      31.193  24.425  22.662  1.00  0.00    -0.333 N 
ATOM     10  H   UNL A   1      30.288  24.602  22.228  1.00  0.00     0.347 HD
ATOM     11  H   UNL A   1      31.922  24.020  22.073  1.00  0.00     0.347 HD
BRANCH   9  12
ATOM     12  C   UNL A   1      30.979  23.400  23.685  1.00  0.00     0.179 C 
ATOM     13  C   UNL A   1      32.132  22.400  23.573  1.00  0.00     0.075 C 
BRANCH  12  14
ATOM     14  C   UNL A   1      30.743  23.999  25.088  1.00  0.00     0.061 C 
ATOM     15  C   UNL A   1      31.758  23.602  26.149  1.00  0.00     0.010 C 
ENDBRANCH  12  14
ENDBRANCH   9  12
ENDBRANCH   8   9
BRANCH   8  16
ATOM     16  C   UNL A   1      31.158  26.995  22.374  1.00  0.00     0.141 C 
BRANCH  16  17
ATOM     17  S   UNL A   1      29.709  27.696  23.235  1.00  0.00    -0.173 SA
ATOM     18  H   UNL A   1      29.770  29.055  23.193  1.00  0.00     0.102 HD
ENDBRANCH  16  17
ENDBRANCH   8  16
ENDBRANCH   5   8
ENDBRANCH   3   4
ENDBRANCH   2   3
ENDBRANCH   1   2
BRANCH   1  19
ATOM     19  C   UNL A   1      32.760  29.830  27.035  1.00  0.00     0.002 C 
BRANCH  19  20
ATOM     20  C   UNL A   1      33.652  31.027  27.376  1.00  0.00     0.021 C 
BRANCH  20  21
ATOM     21  C   UNL A   1      34.966  30.712  28.088  1.00  0.00     0.116 C 
BRANCH  21  22
ATOM     22  N   UNL A   1      35.015  31.237  29.441  1.00  0.00    -0.352 N 
ATOM     23  C   UNL A   1      35.999  31.128  30.391  1.00  0.00     0.251 C 
ATOM     24  H   UNL A   1      34.222  31.750  29.719  1.00  0.00     0.163 HD
ATOM     25  O   UNL A   1      35.786  31.521  31.538  1.00  0.00    -0.269 OA
BRANCH  23  26
ATOM     26  C   UNL A   1      37.299  30.515  30.050  1.00  0.00     0.039 A 
ATOM     27  C   UNL A   1      37.712  30.519  28.715  1.00  0.00     0.014 A 
ATOM     28  C   UNL A   1      38.110  29.944  31.035  1.00  0.00     0.014 A 
ATOM     29  C   UNL A   1      38.974  30.021  28.379  1.00  0.00     0.010 A 
ATOM     30  C   UNL A   1      39.392  29.507  30.709  1.00  0.00     0.010 A 
ATOM     31  C   UNL A   1      39.843  29.556  29.380  1.00  0.00    -0.014 A 
BRANCH  31  32
ATOM     32  C   UNL A   1      41.244  29.171  29.064  1.00  0.00     0.031 A 
ATOM     33  C   UNL A   1      42.326  30.213  29.010  1.00  0.00     0.074 A 
ATOM     34  C   UNL A   1      41.515  27.891  28.737  1.00  0.00     0.049 A 
ATOM     35  N   UNL A   1      43.578  30.081  28.655  1.00  0.00    -0.248 NA
ATOM     36  C   UNL A   1      41.952  31.588  29.384  1.00  0.00     0.031 C 
ATOM     37  C   UNL A   1      40.535  26.801  28.706  1.00  0.00     0.029 A 
ATOM     38  N   UNL A   1      42.686  27.290  28.344  1.00  0.00    -0.354 N 
ATOM     39  C   UNL A   1      44.134  31.352  28.739  1.00  0.00     0.074 A 
ATOM     40  C   UNL A   1      43.078  32.250  29.153  1.00  0.00     0.031 C 
ATOM     41  C   UNL A   1      41.144  25.669  28.318  1.00  0.00     0.029 A 
ATOM     42  C   UNL A   1      42.543  25.958  28.025  1.00  0.00     0.049 A 
ATOM     43  H   UNL A   1      43.545  27.767  28.294  1.00  0.00     0.167 HD
ATOM     44  C   UNL A   1      45.413  31.728  28.500  1.00  0.00     0.037 A 
ATOM     45  C   UNL A   1      43.430  25.075  27.523  1.00  0.00     0.037 A 
ATOM     46  C   UNL A   1      46.463  30.819  28.122  1.00  0.00     0.049 A 
ATOM     47  C   UNL A   1      44.841  25.529  27.256  1.00  0.00     0.074 A 
ATOM     48  C   UNL A   1      47.812  31.088  27.960  1.00  0.00     0.029 A 
ATOM     49  N   UNL A   1      46.286  29.476  27.829  1.00  0.00    -0.354 N 
ATOM     50  N   UNL A   1      45.375  26.712  27.447  1.00  0.00    -0.248 NA
ATOM     51  C   UNL A   1      45.771  24.532  26.704  1.00  0.00     0.031 C 
ATOM     52  C   UNL A   1      48.437  29.926  27.503  1.00  0.00     0.029 A 
ATOM     53  C   UNL A   1      47.491  28.915  27.439  1.00  0.00     0.049 A 
ATOM     54  H   UNL A   1      45.431  28.991  27.891  1.00  0.00     0.167 HD
ATOM     55  C   UNL A   1      46.704  26.596  27.054  1.00  0.00     0.074 A 
ATOM     56  C   UNL A   1      46.900  25.223  26.639  1.00  0.00     0.031 C 
ATOM     57  C   UNL A   1      47.673  27.543  27.032  1.00  0.00     0.037 A 
BRANCH  44  58
ATOM     58  C   UNL A   1      45.767  33.184  28.630  1.00  0.00     0.058 A 
ATOM     59  C   UNL A   1      46.347  33.706  29.796  1.00  0.00     0.135 A 
ATOM     60  C   UNL A   1      45.619  34.047  27.530  1.00  0.00     0.135 A 
ATOM     61  F   UNL A   1      46.499  32.930  30.881  1.00  0.00    -0.206 F 
ATOM     62  C   UNL A   1      46.765  35.031  29.869  1.00  0.00     0.059 A 
ATOM     63  C   UNL A   1      46.054  35.368  27.572  1.00  0.00     0.059 A 
ATOM     64  F   UNL A   1      45.067  33.600  26.391  1.00  0.00    -0.206 F 
ATOM     65  C   UNL A   1      46.622  35.852  28.749  1.00  0.00     0.060 A 
BRANCH  65  66
ATOM     66  S   UNL A   1      47.218  37.554  28.847  1.00  0.00     0.124 S 
ATOM     67  O   UNL A   1      47.059  37.998  27.466  1.00  0.00    -0.237 OA
ATOM     68  O   UNL A   1      46.300  38.148  29.813  1.00  0.00    -0.237 OA
ATOM     69  O   UNL A   1      48.597  37.408  29.302  1.00  0.00    -0.744 OA
ENDBRANCH  65  66
ENDBRANCH  44  58
BRANCH  45  70
ATOM     70  C   UNL A   1      43.007  23.683  27.204  1.00  0.00     0.058 A 
ATOM     71  C   UNL A   1      42.943  22.696  28.199  1.00  0.00     0.135 A 
ATOM     72  C   UNL A   1      42.682  23.307  25.891  1.00  0.00     0.135 A 
ATOM     73  F   UNL A   1      43.249  23.003  29.469  1.00  0.00    -0.206 F 
ATOM     74  C   UNL A   1      42.607  21.379  27.899  1.00  0.00     0.059 A 
ATOM     75  C   UNL A   1      42.312  22.005  25.572  1.00  0.00     0.059 A 
ATOM     76  F   UNL A   1      42.709  24.216  24.903  1.00  0.00    -0.206 F 
ATOM     77  C   UNL A   1      42.296  21.043  26.581  1.00  0.00     0.060 A 
BRANCH  77  78
ATOM     78  S   UNL A   1      41.853  19.334  26.202  1.00  0.00     0.124 S 
ATOM     79  O   UNL A   1      42.643  19.087  25.002  1.00  0.00    -0.237 OA
ATOM     80  O   UNL A   1      42.282  18.633  27.407  1.00  0.00    -0.237 OA
ATOM     81  O   UNL A   1      40.408  19.399  26.004  1.00  0.00    -0.744 OA
ENDBRANCH  77  78
ENDBRANCH  45  70
BRANCH  57  82
ATOM     82  C   UNL A   1      49.040  27.135  26.557  1.00  0.00     0.058 A 
ATOM     83  C   UNL A   1      49.976  26.559  27.430  1.00  0.00     0.135 A 
ATOM     84  C   UNL A   1      49.386  27.242  25.201  1.00  0.00     0.135 A 
ATOM     85  F   UNL A   1      49.699  26.444  28.739  1.00  0.00    -0.206 F 
ATOM     86  C   UNL A   1      51.211  26.110  26.976  1.00  0.00     0.059 A 
ATOM     87  C   UNL A   1      50.603  26.772  24.719  1.00  0.00     0.059 A 
ATOM     88  F   UNL A   1      48.524  27.779  24.323  1.00  0.00    -0.206 F 
ATOM     89  C   UNL A   1      51.511  26.212  25.616  1.00  0.00     0.060 A 
BRANCH  89  90
ATOM     90  S   UNL A   1      53.091  25.562  25.032  1.00  0.00     0.124 S 
ATOM     91  O   UNL A   1      52.989  24.156  25.407  1.00  0.00    -0.237 OA
ATOM     92  O   UNL A   1      53.032  25.842  23.600  1.00  0.00    -0.237 OA
ATOM     93  O   UNL A   1      54.077  26.340  25.777  1.00  0.00    -0.744 OA
ENDBRANCH  89  90
ENDBRANCH  57  82
ENDBRANCH  31  32
ENDBRANCH  23  26
ENDBRANCH  21  22
ENDBRANCH  20  21
ENDBRANCH  19  20
ENDBRANCH   1  19
TORSDOF 21
ENDMDL
MODEL 2
REMARK VINA RESULT:      -9.4      1.532      2.315
REMARK SMILES CC[C@H](C)[NH2+][C@H](CS)C(=O)NCCCCCCNC(=O)c1ccc(-c2c3nc(c(-c4c(F)cc(S(=O)(=O)[O-])cc4F)c4ccc([nH]4)c(-c4c(F)cc(S(=O)(=O)[O-])cc4F)c4nc(c(-c5c(F)cc(S(=O)(=O)[O-])cc5F)c5ccc2[nH]5)C=C4)C=C3)cc1
REMARK SMILES IDX 14 1 13 2 12 3 11 4 9 5 10 6 6 8 5 9 3 12 4 13 2 14 1 15
REMARK SMILES IDX 7 16 8 17 15 19 16 20 17 21 18 22 19 23 20 25 21 26 22 27
REMARK SMILES IDX 86 28 23 29 85 30 24 31 25 32 26 33 79 34 27 35 84 36 78 37
REMARK SMILES IDX 80 38 28 39 83 40 77 41 76 42 29 44 63 45 42 46 62 47 43 48
REMARK SMILES IDX 46 49 61 50 81 51 44 52 45 53 60 55 82 56 47 57 30 58 31 59
REMARK SMILES IDX 40 60 32 61 33 62 39 63 41 64 34 65 35 66 36 67 37 68 38 69
REMARK SMILES IDX 64 70 65 71 74 72 66 73 67 74 73 75 75 76 68 77 69 78 70 79
REMARK SMILES IDX 71 80 72 81 48 82 49 83 58 84 50 85 51 86 57 87 59 88 52 89
REMARK SMILES IDX 53 90 54 91 55 92 56 93
REMARK H PARENT 11 7 5 10 5 11 8 18 18 24 80 43 46 54
REMARK Flexibility Score: inf
ROOT
ATOM      1  C   UNL A   1      33.889  30.960  27.798  1.00  0.00     0.002 C 
ENDROOT
BRANCH   1   2
ATOM      2  C   UNL A   1      33.355  30.292  26.537  1.00  0.00     0.021 C 
BRANCH   2   3
ATOM      3  C   UNL A   1      31.866  29.995  26.509  1.00  0.00     0.116 C 
BRANCH   3   4
ATOM      4  N   UNL A   1      31.493  28.669  26.923  1.00  0.00    -0.351 N 
ATOM      5  C   UNL A   1      31.545  27.505  26.212  1.00  0.00     0.279 C 
ATOM      6  O   UNL A   1      31.348  26.460  26.848  1.00  0.00    -0.268 OA
ATOM      7  H   UNL A   1      31.153  28.591  27.844  1.00  0.00     0.163 HD
BRANCH   5   8
ATOM      8  C   UNL A   1      31.823  27.438  24.680  1.00  0.00     0.282 C 
BRANCH   8   9
ATOM      9  N   UNL A   1      30.669  26.841  23.960  1.00  0.00    -0.333 N 
ATOM     10  H   UNL A   1      31.040  26.085  23.385  1.00  0.00     0.347 HD
ATOM     11  H   UNL A   1      30.030  26.585  24.713  1.00  0.00     0.347 HD
BRANCH   9  12
ATOM     12  C   UNL A   1      29.843  27.674  23.085  1.00  0.00     0.179 C 
ATOM     13  C   UNL A   1      28.394  27.529  23.556  1.00  0.00     0.075 C 
BRANCH  12  14
ATOM     14  C   UNL A   1      30.370  29.120  22.968  1.00  0.00     0.061 C 
ATOM     15  C   UNL A   1      29.484  30.192  23.583  1.00  0.00     0.010 C 
ENDBRANCH  12  14
ENDBRANCH   9  12
ENDBRANCH   8   9
BRANCH   8  16
ATOM     16  C   UNL A   1      33.234  27.008  24.251  1.00  0.00     0.141 C 
BRANCH  16  17
ATOM     17  S   UNL A   1      33.374  26.501  22.503  1.00  0.00    -0.173 SA
ATOM     18  H   UNL A   1      33.447  27.608  21.715  1.00  0.00     0.102 HD
ENDBRANCH  16  17
ENDBRANCH   8  16
ENDBRANCH   5   8
ENDBRANCH   3   4
ENDBRANCH   2   3
ENDBRANCH   1   2
BRANCH   1  19
ATOM     19  C   UNL A   1      34.049  32.482  27.749  1.00  0.00     0.002 C 
BRANCH  19  20
ATOM     20  C   UNL A   1      34.889  33.125  28.858  1.00  0.00     0.021 C 
BRANCH  20  21
ATOM     21  C   UNL A   1      36.129  32.354  29.303  1.00  0.00     0.116 C 
BRANCH  21  22
ATOM     22  N   UNL A   1      35.847  31.386  30.348  1.00  0.00    -0.352 N 
ATOM     23  C   UNL A   1      36.609  30.343  30.809  1.00  0.00     0.251 C 
ATOM     24  H   UNL A   1      34.977  31.496  30.795  1.00  0.00     0.163 HD
ATOM     25  O   UNL A   1      36.126  29.540  31.607  1.00  0.00    -0.269 OA
BRANCH  23  26
ATOM     26  C   UNL A   1      37.995  30.164  30.328  1.00  0.00     0.039 A 
ATOM     27  C   UNL A   1      39.035  30.177  31.261  1.00  0.00     0.014 A 
ATOM     28  C   UNL A   1      38.270  29.978  28.970  1.00  0.00     0.014 A 
ATOM     29  C   UNL A   1      40.344  29.926  30.843  1.00  0.00     0.010 A 
ATOM     30  C   UNL A   1      39.566  29.665  28.564  1.00  0.00     0.010 A 
ATOM     31  C   UNL A   1      40.613  29.620  29.498  1.00  0.00    -0.014 A 
BRANCH  31  32
ATOM     32  C   UNL A   1      41.970  29.195  29.063  1.00  0.00     0.031 A 
ATOM     33  C   UNL A   1      43.075  30.204  28.921  1.00  0.00     0.074 A 
ATOM     34  C   UNL A   1      42.172  27.909  28.708  1.00  0.00     0.049 A 
ATOM     35  N   UNL A   1      44.287  30.036  28.460  1.00  0.00    -0.248 NA
ATOM     36  C   UNL A   1      42.777  31.587  29.331  1.00  0.00     0.031 C 
ATOM     37  C   UNL A   1      41.159  26.850  28.756  1.00  0.00     0.029 A 
ATOM     38  N   UNL A   1      43.286  27.275  28.214  1.00  0.00    -0.354 N 
ATOM     39  C   UNL A   1      44.888  31.289  28.501  1.00  0.00     0.074 A 
ATOM     40  C   UNL A   1      43.900  32.216  29.007  1.00  0.00     0.031 C 
ATOM     41  C   UNL A   1      41.698  25.703  28.313  1.00  0.00     0.029 A 
ATOM     42  C   UNL A   1      43.076  25.951  27.903  1.00  0.00     0.049 A 
ATOM     43  H   UNL A   1      44.153  27.726  28.094  1.00  0.00     0.167 HD
ATOM     44  C   UNL A   1      46.153  31.627  28.156  1.00  0.00     0.037 A 
ATOM     45  C   UNL A   1      43.888  25.045  27.323  1.00  0.00     0.037 A 
ATOM     46  C   UNL A   1      47.139  30.689  27.686  1.00  0.00     0.049 A 
ATOM     47  C   UNL A   1      45.285  25.457  26.940  1.00  0.00     0.074 A 
ATOM     48  C   UNL A   1      48.476  30.918  27.411  1.00  0.00     0.029 A 
ATOM     49  N   UNL A   1      46.896  29.354  27.404  1.00  0.00    -0.354 N 
ATOM     50  N   UNL A   1      45.870  26.621  27.089  1.00  0.00    -0.248 NA
ATOM     51  C   UNL A   1      46.133  24.436  26.306  1.00  0.00     0.031 C 
ATOM     52  C   UNL A   1      49.024  29.740  26.897  1.00  0.00     0.029 A 
ATOM     53  C   UNL A   1      48.045  28.759  26.910  1.00  0.00     0.049 A 
ATOM     54  H   UNL A   1      46.034  28.895  27.536  1.00  0.00     0.167 HD
ATOM     55  C   UNL A   1      47.157  26.468  26.584  1.00  0.00     0.074 A 
ATOM     56  C   UNL A   1      47.274  25.093  26.148  1.00  0.00     0.031 C 
ATOM     57  C   UNL A   1      48.149  27.385  26.484  1.00  0.00     0.037 A 
BRANCH  44  58
ATOM     58  C   UNL A   1      46.562  33.071  28.261  1.00  0.00     0.058 A 
ATOM     59  C   UNL A   1      47.166  33.589  29.417  1.00  0.00     0.135 A 
ATOM     60  C   UNL A   1      46.443  33.921  27.149  1.00  0.00     0.135 A 
ATOM     61  F   UNL A   1      47.293  32.825  30.514  1.00  0.00    -0.206 F 
ATOM     62  C   UNL A   1      47.633  34.898  29.468  1.00  0.00     0.059 A 
ATOM     63  C   UNL A   1      46.927  35.225  27.168  1.00  0.00     0.059 A 
ATOM     64  F   UNL A   1      45.869  33.477  26.019  1.00  0.00    -0.206 F 
ATOM     65  C   UNL A   1      47.517  35.706  28.334  1.00  0.00     0.060 A 
BRANCH  65  66
ATOM     66  S   UNL A   1      48.177  37.386  28.403  1.00  0.00     0.124 S 
ATOM     67  O   UNL A   1      47.348  38.065  27.413  1.00  0.00    -0.237 OA
ATOM     68  O   UNL A   1      47.935  37.756  29.794  1.00  0.00    -0.237 OA
ATOM     69  O   UNL A   1      49.579  37.218  28.036  1.00  0.00    -0.744 OA
ENDBRANCH  65  66
ENDBRANCH  44  58
BRANCH  45  70
ATOM     70  C   UNL A   1      43.397  23.669  27.036  1.00  0.00     0.058 A 
ATOM     71  C   UNL A   1      43.318  22.699  28.046  1.00  0.00     0.135 A 
ATOM     72  C   UNL A   1      43.020  23.290  25.737  1.00  0.00     0.135 A 
ATOM     73  F   UNL A   1      43.671  23.009  29.303  1.00  0.00    -0.206 F 
ATOM     74  C   UNL A   1      42.916  21.394  27.775  1.00  0.00     0.059 A 
ATOM     75  C   UNL A   1      42.585  22.002  25.448  1.00  0.00     0.059 A 
ATOM     76  F   UNL A   1      43.059  24.183  24.736  1.00  0.00    -0.206 F 
ATOM     77  C   UNL A   1      42.555  21.054  26.470  1.00  0.00     0.060 A 
BRANCH  77  78
ATOM     78  S   UNL A   1      42.028  19.362  26.128  1.00  0.00     0.124 S 
ATOM     79  O   UNL A   1      40.593  19.536  25.936  1.00  0.00    -0.237 OA
ATOM     80  O   UNL A   1      42.799  19.038  24.932  1.00  0.00    -0.237 OA
ATOM     81  O   UNL A   1      42.420  18.638  27.333  1.00  0.00    -0.744 OA
ENDBRANCH  77  78
ENDBRANCH  45  70
BRANCH  57  82
ATOM     82  C   UNL A   1      49.457  26.939  25.892  1.00  0.00     0.058 A 
ATOM     83  C   UNL A   1      49.766  27.168  24.542  1.00  0.00     0.135 A 
ATOM     84  C   UNL A   1      50.444  26.353  26.701  1.00  0.00     0.135 A 
ATOM     85  F   UNL A   1      48.854  27.716  23.723  1.00  0.00    -0.206 F 
ATOM     86  C   UNL A   1      51.006  26.827  24.013  1.00  0.00     0.059 A 
ATOM     87  C   UNL A   1      51.701  26.030  26.201  1.00  0.00     0.059 A 
ATOM     88  F   UNL A   1      50.202  26.117  28.001  1.00  0.00    -0.206 F 
ATOM     89  C   UNL A   1      51.970  26.267  24.853  1.00  0.00     0.060 A 
BRANCH  89  90
ATOM     90  S   UNL A   1      53.597  25.891  24.167  1.00  0.00     0.124 S 
ATOM     91  O   UNL A   1      53.896  24.611  24.798  1.00  0.00    -0.237 OA
ATOM     92  O   UNL A   1      53.325  25.843  22.733  1.00  0.00    -0.237 OA
ATOM     93  O   UNL A   1      54.420  27.015  24.604  1.00  0.00    -0.744 OA
ENDBRANCH  89  90
ENDBRANCH  57  82
ENDBRANCH  31  32
ENDBRANCH  23  26
ENDBRANCH  21  22
ENDBRANCH  20  21
ENDBRANCH  19  20
ENDBRANCH   1  19
TORSDOF 21
ENDMDL
MODEL 3
REMARK VINA RESULT:      -9.0      5.295     11.755
REMARK SMILES CC[C@H](C)[NH2+][C@H](CS)C(=O)NCCCCCCNC(=O)c1ccc(-c2c3nc(c(-c4c(F)cc(S(=O)(=O)[O-])cc4F)c4ccc([nH]4)c(-c4c(F)cc(S(=O)(=O)[O-])cc4F)c4nc(c(-c5c(F)cc(S(=O)(=O)[O-])cc5F)c5ccc2[nH]5)C=C4)C=C3)cc1
REMARK SMILES IDX 14 1 13 2 12 3 11 4 9 5 10 6 6 8 5 9 3 12 4 13 2 14 1 15
REMARK SMILES IDX 7 16 8 17 15 19 16 20 17 21 18 22 19 23 20 25 21 26 22 27
REMARK SMILES IDX 86 28 23 29 85 30 24 31 25 32 26 33 79 34 27 35 84 36 78 37
REMARK SMILES IDX 80 38 28 39 83 40 77 41 76 42 29 44 63 45 42 46 62 47 43 48
REMARK SMILES IDX 46 49 61 50 81 51 44 52 45 53 60 55 82 56 47 57 30 58 31 59
REMARK SMILES IDX 40 60 32 61 33 62 39 63 41 64 34 65 35 66 36 67 37 68 38 69
REMARK SMILES IDX 64 70 65 71 74 72 66 73 67 74 73 75 75 76 68 77 69 78 70 79
REMARK SMILES IDX 71 80 72 81 48 82 49 83 58 84 50 85 51 86 57 87 59 88 52 89
REMARK SMILES IDX 53 90 54 91 55 92 56 93
REMARK H PARENT 11 7 5 10 5 11 8 18 18 24 80 43 46 54
REMARK Flexibility Score: inf
ROOT
ATOM      1  C   UNL A   1      42.979  21.129  25.499  1.00  0.00     0.002 C 
ENDROOT
BRANCH   1   2
ATOM      2  C   UNL A   1      44.284  21.897  25.667  1.00  0.00     0.021 C 
BRANCH   2   3
ATOM      3  C   UNL A   1      44.592  22.943  24.611  1.00  0.00     0.116 C 
BRANCH   3   4
ATOM      4  N   UNL A   1      43.673  24.048  24.549  1.00  0.00    -0.351 N 
ATOM      5  C   UNL A   1      43.797  25.295  25.089  1.00  0.00     0.279 C 
ATOM      6  O   UNL A   1      42.957  26.135  24.738  1.00  0.00    -0.268 OA
ATOM      7  H   UNL A   1      42.842  23.882  24.048  1.00  0.00     0.163 HD
BRANCH   5   8
ATOM      8  C   UNL A   1      44.909  25.690  26.107  1.00  0.00     0.282 C 
BRANCH   8   9
ATOM      9  N   UNL A   1      44.626  25.115  27.447  1.00  0.00    -0.333 N 
ATOM     10  H   UNL A   1      44.559  25.899  28.096  1.00  0.00     0.347 HD
ATOM     11  H   UNL A   1      43.783  24.562  27.293  1.00  0.00     0.347 HD
BRANCH   9  12
ATOM     12  C   UNL A   1      45.556  24.154  28.041  1.00  0.00     0.179 C 
ATOM     13  C   UNL A   1      46.909  24.856  28.177  1.00  0.00     0.075 C 
BRANCH  12  14
ATOM     14  C   UNL A   1      45.004  23.507  29.328  1.00  0.00     0.061 C 
ATOM     15  C   UNL A   1      43.632  22.860  29.201  1.00  0.00     0.010 C 
ENDBRANCH  12  14
ENDBRANCH   9  12
ENDBRANCH   8   9
BRANCH   8  16
ATOM     16  C   UNL A   1      45.423  27.137  26.043  1.00  0.00     0.141 C 
BRANCH  16  17
ATOM     17  S   UNL A   1      46.674  27.440  24.749  1.00  0.00    -0.173 SA
ATOM     18  H   UNL A   1      47.796  27.960  25.315  1.00  0.00     0.102 HD
ENDBRANCH  16  17
ENDBRANCH   8  16
ENDBRANCH   5   8
ENDBRANCH   3   4
ENDBRANCH   2   3
ENDBRANCH   1   2
BRANCH   1  19
ATOM     19  C   UNL A   1      42.640  20.109  26.588  1.00  0.00     0.002 C 
BRANCH  19  20
ATOM     20  C   UNL A   1      41.293  20.275  27.298  1.00  0.00     0.021 C 
BRANCH  20  21
ATOM     21  C   UNL A   1      40.728  21.691  27.356  1.00  0.00     0.116 C 
BRANCH  21  22
ATOM     22  N   UNL A   1      39.629  21.899  26.431  1.00  0.00    -0.352 N 
ATOM     23  C   UNL A   1      38.848  23.009  26.227  1.00  0.00     0.251 C 
ATOM     24  H   UNL A   1      39.410  21.126  25.862  1.00  0.00     0.163 HD
ATOM     25  O   UNL A   1      37.862  22.936  25.494  1.00  0.00    -0.269 OA
BRANCH  23  26
ATOM     26  C   UNL A   1      39.170  24.281  26.908  1.00  0.00     0.039 A 
ATOM     27  C   UNL A   1      38.631  24.517  28.175  1.00  0.00     0.014 A 
ATOM     28  C   UNL A   1      39.999  25.232  26.307  1.00  0.00     0.014 A 
ATOM     29  C   UNL A   1      38.987  25.673  28.874  1.00  0.00     0.010 A 
ATOM     30  C   UNL A   1      40.404  26.353  27.030  1.00  0.00     0.010 A 
ATOM     31  C   UNL A   1      39.914  26.576  28.327  1.00  0.00    -0.014 A 
BRANCH  31  32
ATOM     32  C   UNL A   1      40.426  27.727  29.118  1.00  0.00     0.031 A 
ATOM     33  C   UNL A   1      41.730  27.622  29.859  1.00  0.00     0.074 A 
ATOM     34  C   UNL A   1      39.663  28.833  29.237  1.00  0.00     0.049 A 
ATOM     35  N   UNL A   1      42.282  28.480  30.676  1.00  0.00    -0.248 NA
ATOM     36  C   UNL A   1      42.507  26.384  29.675  1.00  0.00     0.031 C 
ATOM     37  C   UNL A   1      38.355  29.029  28.604  1.00  0.00     0.029 A 
ATOM     38  N   UNL A   1      39.858  29.991  29.949  1.00  0.00    -0.354 N 
ATOM     39  C   UNL A   1      43.455  27.882  31.122  1.00  0.00     0.074 A 
ATOM     40  C   UNL A   1      43.524  26.574  30.506  1.00  0.00     0.031 C 
ATOM     41  C   UNL A   1      37.870  30.231  28.954  1.00  0.00     0.029 A 
ATOM     42  C   UNL A   1      38.804  30.871  29.873  1.00  0.00     0.049 A 
ATOM     43  H   UNL A   1      40.676  30.173  30.466  1.00  0.00     0.167 HD
ATOM     44  C   UNL A   1      44.391  28.386  31.961  1.00  0.00     0.037 A 
ATOM     45  C   UNL A   1      38.595  32.048  30.497  1.00  0.00     0.037 A 
ATOM     46  C   UNL A   1      44.328  29.702  32.541  1.00  0.00     0.049 A 
ATOM     47  C   UNL A   1      39.649  32.575  31.434  1.00  0.00     0.074 A 
ATOM     48  C   UNL A   1      45.278  30.341  33.319  1.00  0.00     0.029 A 
ATOM     49  N   UNL A   1      43.256  30.573  32.424  1.00  0.00    -0.354 N 
ATOM     50  N   UNL A   1      40.803  32.042  31.757  1.00  0.00    -0.248 NA
ATOM     51  C   UNL A   1      39.376  33.860  32.095  1.00  0.00     0.031 C 
ATOM     52  C   UNL A   1      44.753  31.569  33.730  1.00  0.00     0.029 A 
ATOM     53  C   UNL A   1      43.500  31.723  33.157  1.00  0.00     0.049 A 
ATOM     54  H   UNL A   1      42.442  30.401  31.897  1.00  0.00     0.167 HD
ATOM     55  C   UNL A   1      41.399  32.933  32.645  1.00  0.00     0.074 A 
ATOM     56  C   UNL A   1      40.489  34.050  32.789  1.00  0.00     0.031 C 
ATOM     57  C   UNL A   1      42.587  32.831  33.288  1.00  0.00     0.037 A 
BRANCH  44  58
ATOM     58  C   UNL A   1      45.569  27.523  32.322  1.00  0.00     0.058 A 
ATOM     59  C   UNL A   1      46.727  27.480  31.530  1.00  0.00     0.135 A 
ATOM     60  C   UNL A   1      45.577  26.810  33.532  1.00  0.00     0.135 A 
ATOM     61  F   UNL A   1      46.769  28.132  30.357  1.00  0.00    -0.206 F 
ATOM     62  C   UNL A   1      47.850  26.759  31.924  1.00  0.00     0.059 A 
ATOM     63  C   UNL A   1      46.698  26.104  33.959  1.00  0.00     0.059 A 
ATOM     64  F   UNL A   1      44.494  26.814  34.325  1.00  0.00    -0.206 F 
ATOM     65  C   UNL A   1      47.829  26.082  33.145  1.00  0.00     0.060 A 
BRANCH  65  66
ATOM     66  S   UNL A   1      49.313  25.195  33.664  1.00  0.00     0.124 S 
ATOM     67  O   UNL A   1      49.602  25.832  34.944  1.00  0.00    -0.237 OA
ATOM     68  O   UNL A   1      48.841  23.816  33.735  1.00  0.00    -0.237 OA
ATOM     69  O   UNL A   1      50.268  25.473  32.596  1.00  0.00    -0.744 OA
ENDBRANCH  65  66
ENDBRANCH  44  58
BRANCH  45  70
ATOM     70  C   UNL A   1      37.324  32.796  30.287  1.00  0.00     0.058 A 
ATOM     71  C   UNL A   1      36.186  32.529  31.063  1.00  0.00     0.135 A 
ATOM     72  C   UNL A   1      37.216  33.775  29.287  1.00  0.00     0.135 A 
ATOM     73  F   UNL A   1      36.236  31.598  32.028  1.00  0.00    -0.206 F 
ATOM     74  C   UNL A   1      34.978  33.180  30.834  1.00  0.00     0.059 A 
ATOM     75  C   UNL A   1      36.028  34.463  29.060  1.00  0.00     0.059 A 
ATOM     76  F   UNL A   1      38.278  34.083  28.527  1.00  0.00    -0.206 F 
ATOM     77  C   UNL A   1      34.908  34.144  29.827  1.00  0.00     0.060 A 
BRANCH  77  78
ATOM     78  S   UNL A   1      33.339  34.990  29.541  1.00  0.00     0.124 S 
ATOM     79  O   UNL A   1      33.770  36.154  28.776  1.00  0.00    -0.237 OA
ATOM     80  O   UNL A   1      32.580  33.985  28.804  1.00  0.00    -0.237 OA
ATOM     81  O   UNL A   1      32.856  35.265  30.891  1.00  0.00    -0.744 OA
ENDBRANCH  77  78
ENDBRANCH  45  70
BRANCH  57  82
ATOM     82  C   UNL A   1      42.988  33.958  34.198  1.00  0.00     0.058 A 
ATOM     83  C   UNL A   1      43.698  35.070  33.718  1.00  0.00     0.135 A 
ATOM     84  C   UNL A   1      42.586  33.968  35.543  1.00  0.00     0.135 A 
ATOM     85  F   UNL A   1      44.116  35.106  32.442  1.00  0.00    -0.206 F 
ATOM     86  C   UNL A   1      44.001  36.148  34.541  1.00  0.00     0.059 A 
ATOM     87  C   UNL A   1      42.852  35.049  36.377  1.00  0.00     0.059 A 
ATOM     88  F   UNL A   1      41.898  32.932  36.051  1.00  0.00    -0.206 F 
ATOM     89  C   UNL A   1      43.565  36.133  35.867  1.00  0.00     0.060 A 
BRANCH  89  90
ATOM     90  S   UNL A   1      43.908  37.570  36.904  1.00  0.00     0.124 S 
ATOM     91  O   UNL A   1      42.738  37.593  37.775  1.00  0.00    -0.237 OA
ATOM     92  O   UNL A   1      45.168  37.199  37.543  1.00  0.00    -0.237 OA
ATOM     93  O   UNL A   1      43.998  38.668  35.946  1.00  0.00    -0.744 OA
ENDBRANCH  89  90
ENDBRANCH  57  82
ENDBRANCH  31  32
ENDBRANCH  23  26
ENDBRANCH  21  22
ENDBRANCH  20  21
ENDBRANCH  19  20
ENDBRANCH   1  19
TORSDOF 21
ENDMDL
