MODEL 1
REMARK VINA RESULT:     -10.0      0.000      0.000
REMARK SMILES COCC[C@H]1CCC[C@@]1([NH3+])C(=O)NCCCCCCNC(=O)c1ccc(-c2c3nc(c(-c4c(F)cc(S(=O)(=O)[O-])cc4F)c4ccc([nH]4)c(-c4c(F)cc(S(=O)(=O)[O-])cc4F)c4nc(c(-c5c(F)cc(S(=O)(=O)[O-])cc5F)c5ccc2[nH]5)C=C4)C=C3)cc1
REMARK SMILES IDX 16 1 15 2 14 3 13 4 11 5 12 6 9 8 5 9 6 10 7 11 8 12 4 13
REMARK SMILES IDX 3 14 2 15 1 16 10 17 17 21 18 22 19 23 20 24 21 25 22 27
REMARK SMILES IDX 23 28 24 29 88 30 25 31 87 32 26 33 27 34 28 35 81 36 29 37
REMARK SMILES IDX 86 38 80 39 82 40 30 41 85 42 79 43 78 44 31 46 65 47 44 48
REMARK SMILES IDX 64 49 45 50 48 51 63 52 83 53 46 54 47 55 62 57 84 58 49 59
REMARK SMILES IDX 32 60 33 61 42 62 34 63 35 64 41 65 43 66 36 67 37 68 38 69
REMARK SMILES IDX 39 70 40 71 66 72 67 73 76 74 68 75 69 76 75 77 77 78 70 79
REMARK SMILES IDX 71 80 72 81 73 82 74 83 50 84 51 85 60 86 52 87 53 88 59 89
REMARK SMILES IDX 61 90 54 91 55 92 56 93 57 94 58 95
REMARK H PARENT 13 7 10 18 10 19 10 20 20 26 82 45 48 56
REMARK Flexibility Score: inf
ROOT
ATOM      1  C   UNL A   1      38.153  23.602  26.448  1.00  0.00     0.002 C 
ENDROOT
BRANCH   1   2
ATOM      2  C   UNL A   1      36.932  23.311  25.574  1.00  0.00     0.021 C 
BRANCH   2   3
ATOM      3  C   UNL A   1      35.912  22.358  26.182  1.00  0.00     0.116 C 
BRANCH   3   4
ATOM      4  N   UNL A   1      35.097  21.694  25.183  1.00  0.00    -0.351 N 
ATOM      5  C   UNL A   1      33.753  21.786  24.926  1.00  0.00     0.281 C 
ATOM      6  O   UNL A   1      33.330  21.124  23.977  1.00  0.00    -0.268 OA
ATOM      7  H   UNL A   1      35.587  21.079  24.594  1.00  0.00     0.163 HD
BRANCH   5   8
ATOM      8  C   UNL A   1      32.833  22.651  25.833  1.00  0.00     0.176 C 
ATOM      9  C   UNL A   1      33.171  24.163  25.992  1.00  0.00     0.063 C 
ATOM     10  C   UNL A   1      31.842  24.733  26.528  1.00  0.00     0.011 C 
ATOM     11  C   UNL A   1      30.728  23.902  25.892  1.00  0.00     0.008 C 
ATOM     12  C   UNL A   1      31.397  22.674  25.285  1.00  0.00     0.079 C 
BRANCH   9  13
ATOM     13  C   UNL A   1      33.751  25.005  24.829  1.00  0.00     0.039 C 
BRANCH  13  14
ATOM     14  C   UNL A   1      33.024  26.268  24.368  1.00  0.00     0.160 C 
BRANCH  14  15
ATOM     15  O   UNL A   1      33.615  26.850  23.197  1.00  0.00    -0.385 OA
ATOM     16  C   UNL A   1      33.030  26.404  21.980  1.00  0.00     0.194 C 
ENDBRANCH  14  15
ENDBRANCH  13  14
ENDBRANCH   9  13
BRANCH   8  17
ATOM     17  N   UNL A   1      32.848  22.129  27.231  1.00  0.00    -0.345 N 
ATOM     18  H   UNL A   1      33.163  22.863  27.865  1.00  0.00     0.345 HD
ATOM     19  H   UNL A   1      33.482  21.332  27.290  1.00  0.00     0.345 HD
ATOM     20  H   UNL A   1      31.907  21.834  27.494  1.00  0.00     0.345 HD
ENDBRANCH   8  17
ENDBRANCH   5   8
ENDBRANCH   3   4
ENDBRANCH   2   3
ENDBRANCH   1   2
BRANCH   1  21
ATOM     21  C   UNL A   1      39.377  22.718  26.191  1.00  0.00     0.002 C 
BRANCH  21  22
ATOM     22  C   UNL A   1      40.270  22.448  27.405  1.00  0.00     0.021 C 
BRANCH  22  23
ATOM     23  C   UNL A   1      41.645  23.104  27.364  1.00  0.00     0.116 C 
BRANCH  23  24
ATOM     24  N   UNL A   1      41.832  23.938  26.189  1.00  0.00    -0.352 N 
ATOM     25  C   UNL A   1      41.752  25.302  26.075  1.00  0.00     0.251 C 
ATOM     26  H   UNL A   1      42.046  23.455  25.358  1.00  0.00     0.163 HD
ATOM     27  O   UNL A   1      41.789  25.827  24.963  1.00  0.00    -0.269 OA
BRANCH  25  28
ATOM     28  C   UNL A   1      41.594  26.136  27.285  1.00  0.00     0.039 A 
ATOM     29  C   UNL A   1      42.558  27.105  27.566  1.00  0.00     0.014 A 
ATOM     30  C   UNL A   1      40.498  25.967  28.138  1.00  0.00     0.014 A 
ATOM     31  C   UNL A   1      42.397  27.944  28.672  1.00  0.00     0.010 A 
ATOM     32  C   UNL A   1      40.302  26.850  29.197  1.00  0.00     0.010 A 
ATOM     33  C   UNL A   1      41.251  27.843  29.478  1.00  0.00    -0.014 A 
BRANCH  33  34
ATOM     34  C   UNL A   1      41.030  28.774  30.615  1.00  0.00     0.031 A 
ATOM     35  C   UNL A   1      41.847  28.643  31.871  1.00  0.00     0.074 A 
ATOM     36  C   UNL A   1      40.047  29.692  30.541  1.00  0.00     0.049 A 
ATOM     37  N   UNL A   1      41.759  29.320  32.987  1.00  0.00    -0.248 NA
ATOM     38  C   UNL A   1      42.878  27.593  31.886  1.00  0.00     0.031 C 
ATOM     39  C   UNL A   1      39.147  29.875  29.400  1.00  0.00     0.029 A 
ATOM     40  N   UNL A   1      39.626  30.631  31.448  1.00  0.00    -0.354 N 
ATOM     41  C   UNL A   1      42.706  28.767  33.842  1.00  0.00     0.074 A 
ATOM     42  C   UNL A   1      43.323  27.668  33.133  1.00  0.00     0.031 C 
ATOM     43  C   UNL A   1      38.290  30.873  29.671  1.00  0.00     0.029 A 
ATOM     44  C   UNL A   1      38.555  31.377  31.016  1.00  0.00     0.049 A 
ATOM     45  H   UNL A   1      40.052  30.760  32.327  1.00  0.00     0.167 HD
ATOM     46  C   UNL A   1      43.044  29.154  35.096  1.00  0.00     0.037 A 
ATOM     47  C   UNL A   1      37.856  32.349  31.633  1.00  0.00     0.037 A 
ATOM     48  C   UNL A   1      42.443  30.268  35.784  1.00  0.00     0.049 A 
ATOM     49  C   UNL A   1      38.262  32.779  33.016  1.00  0.00     0.074 A 
ATOM     50  C   UNL A   1      42.770  30.792  37.022  1.00  0.00     0.029 A 
ATOM     51  N   UNL A   1      41.386  31.024  35.297  1.00  0.00    -0.354 N 
ATOM     52  N   UNL A   1      39.219  32.301  33.778  1.00  0.00    -0.248 NA
ATOM     53  C   UNL A   1      37.508  33.885  33.620  1.00  0.00     0.031 C 
ATOM     54  C   UNL A   1      41.879  31.831  37.306  1.00  0.00     0.029 A 
ATOM     55  C   UNL A   1      41.031  31.993  36.222  1.00  0.00     0.049 A 
ATOM     56  H   UNL A   1      40.953  30.892  34.422  1.00  0.00     0.167 HD
ATOM     57  C   UNL A   1      39.193  33.062  34.942  1.00  0.00     0.074 A 
ATOM     58  C   UNL A   1      38.136  34.040  34.777  1.00  0.00     0.031 C 
ATOM     59  C   UNL A   1      39.974  32.960  36.045  1.00  0.00     0.037 A 
BRANCH  46  60
ATOM     60  C   UNL A   1      44.106  28.362  35.808  1.00  0.00     0.058 A 
ATOM     61  C   UNL A   1      43.790  27.273  36.636  1.00  0.00     0.135 A 
ATOM     62  C   UNL A   1      45.465  28.681  35.641  1.00  0.00     0.135 A 
ATOM     63  F   UNL A   1      42.508  26.930  36.844  1.00  0.00    -0.206 F 
ATOM     64  C   UNL A   1      44.777  26.554  37.304  1.00  0.00     0.059 A 
ATOM     65  C   UNL A   1      46.471  27.956  36.273  1.00  0.00     0.059 A 
ATOM     66  F   UNL A   1      45.826  29.710  34.858  1.00  0.00    -0.206 F 
ATOM     67  C   UNL A   1      46.115  26.906  37.118  1.00  0.00     0.060 A 
BRANCH  67  68
ATOM     68  S   UNL A   1      47.383  25.970  37.999  1.00  0.00     0.124 S 
ATOM     69  O   UNL A   1      47.421  24.733  37.225  1.00  0.00    -0.237 OA
ATOM     70  O   UNL A   1      48.553  26.833  37.870  1.00  0.00    -0.237 OA
ATOM     71  O   UNL A   1      46.842  25.850  39.348  1.00  0.00    -0.744 OA
ENDBRANCH  67  68
ENDBRANCH  46  60
BRANCH  47  72
ATOM     72  C   UNL A   1      36.709  32.987  30.934  1.00  0.00     0.058 A 
ATOM     73  C   UNL A   1      35.388  32.742  31.336  1.00  0.00     0.135 A 
ATOM     74  C   UNL A   1      36.915  33.886  29.876  1.00  0.00     0.135 A 
ATOM     75  F   UNL A   1      35.139  31.886  32.338  1.00  0.00    -0.206 F 
ATOM     76  C   UNL A   1      34.309  33.360  30.711  1.00  0.00     0.059 A 
ATOM     77  C   UNL A   1      35.855  34.536  29.252  1.00  0.00     0.059 A 
ATOM     78  F   UNL A   1      38.161  34.167  29.466  1.00  0.00    -0.206 F 
ATOM     79  C   UNL A   1      34.555  34.262  29.673  1.00  0.00     0.060 A 
BRANCH  79  80
ATOM     80  S   UNL A   1      33.154  35.115  28.917  1.00  0.00     0.124 S 
ATOM     81  O   UNL A   1      32.352  35.459  30.086  1.00  0.00    -0.237 OA
ATOM     82  O   UNL A   1      33.805  36.231  28.238  1.00  0.00    -0.237 OA
ATOM     83  O   UNL A   1      32.582  34.103  28.033  1.00  0.00    -0.744 OA
ENDBRANCH  79  80
ENDBRANCH  47  72
BRANCH  59  84
ATOM     84  C   UNL A   1      39.738  33.945  37.157  1.00  0.00     0.058 A 
ATOM     85  C   UNL A   1      38.948  33.623  38.272  1.00  0.00     0.135 A 
ATOM     86  C   UNL A   1      40.353  35.207  37.132  1.00  0.00     0.135 A 
ATOM     87  F   UNL A   1      38.332  32.433  38.345  1.00  0.00    -0.206 F 
ATOM     88  C   UNL A   1      38.760  34.527  39.313  1.00  0.00     0.059 A 
ATOM     89  C   UNL A   1      40.202  36.114  38.174  1.00  0.00     0.059 A 
ATOM     90  F   UNL A   1      41.126  35.560  36.092  1.00  0.00    -0.206 F 
ATOM     91  C   UNL A   1      39.394  35.770  39.256  1.00  0.00     0.060 A 
BRANCH  91  92
ATOM     92  S   UNL A   1      39.171  36.919  40.631  1.00  0.00     0.124 S 
ATOM     93  O   UNL A   1      40.552  37.260  40.956  1.00  0.00    -0.237 OA
ATOM     94  O   UNL A   1      38.382  37.985  40.022  1.00  0.00    -0.237 OA
ATOM     95  O   UNL A   1      38.469  36.121  41.630  1.00  0.00    -0.744 OA
ENDBRANCH  91  92
ENDBRANCH  59  84
ENDBRANCH  33  34
ENDBRANCH  25  28
ENDBRANCH  23  24
ENDBRANCH  22  23
ENDBRANCH  21  22
ENDBRANCH   1  21
TORSDOF 20
ENDMDL
MODEL 2
REMARK VINA RESULT:      -9.7      6.623     12.179
REMARK SMILES COCC[C@H]1CCC[C@@]1([NH3+])C(=O)NCCCCCCNC(=O)c1ccc(-c2c3nc(c(-c4c(F)cc(S(=O)(=O)[O-])cc4F)c4ccc([nH]4)c(-c4c(F)cc(S(=O)(=O)[O-])cc4F)c4nc(c(-c5c(F)cc(S(=O)(=O)[O-])cc5F)c5ccc2[nH]5)C=C4)C=C3)cc1
REMARK SMILES IDX 16 1 15 2 14 3 13 4 11 5 12 6 9 8 5 9 6 10 7 11 8 12 4 13
REMARK SMILES IDX 3 14 2 15 1 16 10 17 17 21 18 22 19 23 20 24 21 25 22 27
REMARK SMILES IDX 23 28 24 29 88 30 25 31 87 32 26 33 27 34 28 35 81 36 29 37
REMARK SMILES IDX 86 38 80 39 82 40 30 41 85 42 79 43 78 44 31 46 65 47 44 48
REMARK SMILES IDX 64 49 45 50 48 51 63 52 83 53 46 54 47 55 62 57 84 58 49 59
REMARK SMILES IDX 32 60 33 61 42 62 34 63 35 64 41 65 43 66 36 67 37 68 38 69
REMARK SMILES IDX 39 70 40 71 66 72 67 73 76 74 68 75 69 76 75 77 77 78 70 79
REMARK SMILES IDX 71 80 72 81 73 82 74 83 50 84 51 85 60 86 52 87 53 88 59 89
REMARK SMILES IDX 61 90 54 91 55 92 56 93 57 94 58 95
REMARK H PARENT 13 7 10 18 10 19 10 20 20 26 82 45 48 56
REMARK Flexibility Score: inf
ROOT
ATOM      1  C   UNL A   1      32.276  29.954  27.058  1.00  0.00     0.002 C 
ENDROOT
BRANCH   1   2
ATOM      2  C   UNL A   1      31.749  30.362  25.683  1.00  0.00     0.021 C 
BRANCH   2   3
ATOM      3  C   UNL A   1      32.320  29.576  24.510  1.00  0.00     0.116 C 
BRANCH   3   4
ATOM      4  N   UNL A   1      31.325  29.267  23.501  1.00  0.00    -0.351 N 
ATOM      5  C   UNL A   1      31.181  28.163  22.701  1.00  0.00     0.281 C 
ATOM      6  O   UNL A   1      30.206  28.155  21.949  1.00  0.00    -0.268 OA
ATOM      7  H   UNL A   1      30.642  29.963  23.370  1.00  0.00     0.163 HD
BRANCH   5   8
ATOM      8  C   UNL A   1      32.237  27.022  22.733  1.00  0.00     0.176 C 
ATOM      9  C   UNL A   1      32.149  25.974  23.882  1.00  0.00     0.063 C 
ATOM     10  C   UNL A   1      33.000  24.815  23.322  1.00  0.00     0.011 C 
ATOM     11  C   UNL A   1      32.802  24.826  21.807  1.00  0.00     0.008 C 
ATOM     12  C   UNL A   1      32.138  26.156  21.467  1.00  0.00     0.079 C 
BRANCH   9  13
ATOM     13  C   UNL A   1      30.795  25.490  24.456  1.00  0.00     0.039 C 
BRANCH  13  14
ATOM     14  C   UNL A   1      30.466  25.727  25.930  1.00  0.00     0.160 C 
BRANCH  14  15
ATOM     15  O   UNL A   1      30.347  24.505  26.672  1.00  0.00    -0.385 OA
ATOM     16  C   UNL A   1      31.588  23.845  26.887  1.00  0.00     0.194 C 
ENDBRANCH  14  15
ENDBRANCH  13  14
ENDBRANCH   9  13
BRANCH   8  17
ATOM     17  N   UNL A   1      33.610  27.592  22.868  1.00  0.00    -0.345 N 
ATOM     18  H   UNL A   1      33.777  27.849  23.841  1.00  0.00     0.345 HD
ATOM     19  H   UNL A   1      33.693  28.420  22.279  1.00  0.00     0.345 HD
ATOM     20  H   UNL A   1      34.296  26.897  22.576  1.00  0.00     0.345 HD
ENDBRANCH   8  17
ENDBRANCH   5   8
ENDBRANCH   3   4
ENDBRANCH   2   3
ENDBRANCH   1   2
BRANCH   1  21
ATOM     21  C   UNL A   1      33.797  30.012  27.230  1.00  0.00     0.002 C 
BRANCH  21  22
ATOM     22  C   UNL A   1      34.332  31.200  28.033  1.00  0.00     0.021 C 
BRANCH  22  23
ATOM     23  C   UNL A   1      35.681  30.980  28.707  1.00  0.00     0.116 C 
BRANCH  23  24
ATOM     24  N   UNL A   1      35.597  31.035  30.157  1.00  0.00    -0.352 N 
ATOM     25  C   UNL A   1      36.551  30.723  31.091  1.00  0.00     0.251 C 
ATOM     26  H   UNL A   1      34.733  31.338  30.519  1.00  0.00     0.163 HD
ATOM     27  O   UNL A   1      36.250  30.683  32.283  1.00  0.00    -0.269 OA
BRANCH  25  28
ATOM     28  C   UNL A   1      37.930  30.410  30.661  1.00  0.00     0.039 A 
ATOM     29  C   UNL A   1      38.748  29.666  31.514  1.00  0.00     0.014 A 
ATOM     30  C   UNL A   1      38.415  30.843  29.423  1.00  0.00     0.014 A 
ATOM     31  C   UNL A   1      40.034  29.309  31.102  1.00  0.00     0.010 A 
ATOM     32  C   UNL A   1      39.669  30.425  28.985  1.00  0.00     0.010 A 
ATOM     33  C   UNL A   1      40.493  29.658  29.821  1.00  0.00    -0.014 A 
BRANCH  33  34
ATOM     34  C   UNL A   1      41.831  29.225  29.341  1.00  0.00     0.031 A 
ATOM     35  C   UNL A   1      42.959  30.216  29.244  1.00  0.00     0.074 A 
ATOM     36  C   UNL A   1      42.010  27.955  28.929  1.00  0.00     0.049 A 
ATOM     37  N   UNL A   1      44.175  30.041  28.795  1.00  0.00    -0.248 NA
ATOM     38  C   UNL A   1      42.673  31.592  29.682  1.00  0.00     0.031 C 
ATOM     39  C   UNL A   1      40.977  26.918  28.917  1.00  0.00     0.029 A 
ATOM     40  N   UNL A   1      43.119  27.324  28.423  1.00  0.00    -0.354 N 
ATOM     41  C   UNL A   1      44.792  31.284  28.876  1.00  0.00     0.074 A 
ATOM     42  C   UNL A   1      43.802  32.215  29.372  1.00  0.00     0.031 C 
ATOM     43  C   UNL A   1      41.502  25.778  28.440  1.00  0.00     0.029 A 
ATOM     44  C   UNL A   1      42.898  26.010  28.081  1.00  0.00     0.049 A 
ATOM     45  H   UNL A   1      43.990  27.770  28.316  1.00  0.00     0.167 HD
ATOM     46  C   UNL A   1      46.073  31.615  28.582  1.00  0.00     0.037 A 
ATOM     47  C   UNL A   1      43.722  25.098  27.529  1.00  0.00     0.037 A 
ATOM     48  C   UNL A   1      47.060  30.676  28.115  1.00  0.00     0.049 A 
ATOM     49  C   UNL A   1      45.146  25.479  27.233  1.00  0.00     0.074 A 
ATOM     50  C   UNL A   1      48.404  30.892  27.868  1.00  0.00     0.029 A 
ATOM     51  N   UNL A   1      46.809  29.344  27.817  1.00  0.00    -0.354 N 
ATOM     52  N   UNL A   1      45.738  26.640  27.397  1.00  0.00    -0.248 NA
ATOM     53  C   UNL A   1      46.019  24.430  26.691  1.00  0.00     0.031 C 
ATOM     54  C   UNL A   1      48.954  29.706  27.372  1.00  0.00     0.029 A 
ATOM     55  C   UNL A   1      47.966  28.733  27.362  1.00  0.00     0.049 A 
ATOM     56  H   UNL A   1      45.936  28.898  27.915  1.00  0.00     0.167 HD
ATOM     57  C   UNL A   1      47.057  26.453  26.997  1.00  0.00     0.074 A 
ATOM     58  C   UNL A   1      47.179  25.066  26.597  1.00  0.00     0.031 C 
ATOM     59  C   UNL A   1      48.073  27.350  26.965  1.00  0.00     0.037 A 
BRANCH  46  60
ATOM     60  C   UNL A   1      46.478  33.054  28.751  1.00  0.00     0.058 A 
ATOM     61  C   UNL A   1      46.980  33.546  29.966  1.00  0.00     0.135 A 
ATOM     62  C   UNL A   1      46.385  33.951  27.673  1.00  0.00     0.135 A 
ATOM     63  F   UNL A   1      47.078  32.738  31.035  1.00  0.00    -0.206 F 
ATOM     64  C   UNL A   1      47.339  34.882  30.119  1.00  0.00     0.059 A 
ATOM     65  C   UNL A   1      46.767  35.284  27.794  1.00  0.00     0.059 A 
ATOM     66  F   UNL A   1      45.914  33.535  26.486  1.00  0.00    -0.206 F 
ATOM     67  C   UNL A   1      47.225  35.745  29.028  1.00  0.00     0.060 A 
BRANCH  67  68
ATOM     68  S   UNL A   1      47.685  37.476  29.245  1.00  0.00     0.124 S 
ATOM     69  O   UNL A   1      48.874  37.359  30.083  1.00  0.00    -0.237 OA
ATOM     70  O   UNL A   1      47.919  37.912  27.872  1.00  0.00    -0.237 OA
ATOM     71  O   UNL A   1      46.515  38.060  29.893  1.00  0.00    -0.744 OA
ENDBRANCH  67  68
ENDBRANCH  46  60
BRANCH  47  72
ATOM     72  C   UNL A   1      43.213  23.731  27.237  1.00  0.00     0.058 A 
ATOM     73  C   UNL A   1      42.885  23.344  25.930  1.00  0.00     0.135 A 
ATOM     74  C   UNL A   1      43.086  22.773  28.255  1.00  0.00     0.135 A 
ATOM     75  F   UNL A   1      42.984  24.225  24.924  1.00  0.00    -0.206 F 
ATOM     76  C   UNL A   1      42.441  22.057  25.641  1.00  0.00     0.059 A 
ATOM     77  C   UNL A   1      42.669  21.473  27.987  1.00  0.00     0.059 A 
ATOM     78  F   UNL A   1      43.405  23.089  29.520  1.00  0.00    -0.206 F 
ATOM     79  C   UNL A   1      42.343  21.126  26.678  1.00  0.00     0.060 A 
BRANCH  79  80
ATOM     80  S   UNL A   1      41.836  19.438  26.282  1.00  0.00     0.124 S 
ATOM     81  O   UNL A   1      42.565  19.196  25.042  1.00  0.00    -0.237 OA
ATOM     82  O   UNL A   1      42.301  18.697  27.451  1.00  0.00    -0.237 OA
ATOM     83  O   UNL A   1      40.386  19.544  26.153  1.00  0.00    -0.744 OA
ENDBRANCH  79  80
ENDBRANCH  47  72
BRANCH  59  84
ATOM     84  C   UNL A   1      49.418  26.859  26.505  1.00  0.00     0.058 A 
ATOM     85  C   UNL A   1      50.330  26.266  27.392  1.00  0.00     0.135 A 
ATOM     86  C   UNL A   1      49.776  26.934  25.149  1.00  0.00     0.135 A 
ATOM     87  F   UNL A   1      50.041  26.175  28.699  1.00  0.00    -0.206 F 
ATOM     88  C   UNL A   1      51.560  25.784  26.954  1.00  0.00     0.059 A 
ATOM     89  C   UNL A   1      50.987  26.432  24.684  1.00  0.00     0.059 A 
ATOM     90  F   UNL A   1      48.935  27.482  24.258  1.00  0.00    -0.206 F 
ATOM     91  C   UNL A   1      51.878  25.869  25.597  1.00  0.00     0.060 A 
BRANCH  91  92
ATOM     92  S   UNL A   1      53.461  25.207  25.036  1.00  0.00     0.124 S 
ATOM     93  O   UNL A   1      53.261  23.773  25.220  1.00  0.00    -0.237 OA
ATOM     94  O   UNL A   1      53.520  25.666  23.652  1.00  0.00    -0.237 OA
ATOM     95  O   UNL A   1      54.427  25.827  25.937  1.00  0.00    -0.744 OA
ENDBRANCH  91  92
ENDBRANCH  59  84
ENDBRANCH  33  34
ENDBRANCH  25  28
ENDBRANCH  23  24
ENDBRANCH  22  23
ENDBRANCH  21  22
ENDBRANCH   1  21
TORSDOF 20
ENDMDL
MODEL 3
REMARK VINA RESULT:      -9.6      5.008      6.331
REMARK SMILES COCC[C@H]1CCC[C@@]1([NH3+])C(=O)NCCCCCCNC(=O)c1ccc(-c2c3nc(c(-c4c(F)cc(S(=O)(=O)[O-])cc4F)c4ccc([nH]4)c(-c4c(F)cc(S(=O)(=O)[O-])cc4F)c4nc(c(-c5c(F)cc(S(=O)(=O)[O-])cc5F)c5ccc2[nH]5)C=C4)C=C3)cc1
REMARK SMILES IDX 16 1 15 2 14 3 13 4 11 5 12 6 9 8 5 9 6 10 7 11 8 12 4 13
REMARK SMILES IDX 3 14 2 15 1 16 10 17 17 21 18 22 19 23 20 24 21 25 22 27
REMARK SMILES IDX 23 28 24 29 88 30 25 31 87 32 26 33 27 34 28 35 81 36 29 37
REMARK SMILES IDX 86 38 80 39 82 40 30 41 85 42 79 43 78 44 31 46 65 47 44 48
REMARK SMILES IDX 64 49 45 50 48 51 63 52 83 53 46 54 47 55 62 57 84 58 49 59
REMARK SMILES IDX 32 60 33 61 42 62 34 63 35 64 41 65 43 66 36 67 37 68 38 69
REMARK SMILES IDX 39 70 40 71 66 72 67 73 76 74 68 75 69 76 75 77 77 78 70 79
REMARK SMILES IDX 71 80 72 81 73 82 74 83 50 84 51 85 60 86 52 87 53 88 59 89
REMARK SMILES IDX 61 90 54 91 55 92 56 93 57 94 58 95
REMARK H PARENT 13 7 10 18 10 19 10 20 20 26 82 45 48 56
REMARK Flexibility Score: inf
ROOT
ATOM      1  C   UNL A   1      34.104  21.313  24.189  1.00  0.00     0.002 C 
ENDROOT
BRANCH   1   2
ATOM      2  C   UNL A   1      32.582  21.263  24.059  1.00  0.00     0.021 C 
BRANCH   2   3
ATOM      3  C   UNL A   1      32.021  21.851  22.770  1.00  0.00     0.116 C 
BRANCH   3   4
ATOM      4  N   UNL A   1      32.812  22.957  22.266  1.00  0.00    -0.351 N 
ATOM      5  C   UNL A   1      32.652  24.309  22.419  1.00  0.00     0.281 C 
ATOM      6  O   UNL A   1      33.509  25.026  21.901  1.00  0.00    -0.268 OA
ATOM      7  H   UNL A   1      33.591  22.693  21.726  1.00  0.00     0.163 HD
BRANCH   5   8
ATOM      8  C   UNL A   1      31.415  24.877  23.171  1.00  0.00     0.176 C 
ATOM      9  C   UNL A   1      31.535  25.114  24.706  1.00  0.00     0.063 C 
ATOM     10  C   UNL A   1      30.358  26.074  24.974  1.00  0.00     0.011 C 
ATOM     11  C   UNL A   1      30.212  26.939  23.723  1.00  0.00     0.008 C 
ATOM     12  C   UNL A   1      31.046  26.270  22.635  1.00  0.00     0.079 C 
BRANCH   9  13
ATOM     13  C   UNL A   1      32.852  25.590  25.367  1.00  0.00     0.039 C 
BRANCH  13  14
ATOM     14  C   UNL A   1      32.844  26.815  26.282  1.00  0.00     0.160 C 
BRANCH  14  15
ATOM     15  O   UNL A   1      33.439  27.967  25.669  1.00  0.00    -0.385 OA
ATOM     16  C   UNL A   1      33.881  27.740  24.337  1.00  0.00     0.194 C 
ENDBRANCH  14  15
ENDBRANCH  13  14
ENDBRANCH   9  13
BRANCH   8  17
ATOM     17  N   UNL A   1      30.257  23.945  23.038  1.00  0.00    -0.345 N 
ATOM     18  H   UNL A   1      30.260  23.529  22.106  1.00  0.00     0.345 HD
ATOM     19  H   UNL A   1      29.388  24.461  23.177  1.00  0.00     0.345 HD
ATOM     20  H   UNL A   1      30.331  23.209  23.740  1.00  0.00     0.345 HD
ENDBRANCH   8  17
ENDBRANCH   5   8
ENDBRANCH   3   4
ENDBRANCH   2   3
ENDBRANCH   1   2
BRANCH   1  21
ATOM     21  C   UNL A   1      34.645  22.224  25.295  1.00  0.00     0.002 C 
BRANCH  21  22
ATOM     22  C   UNL A   1      35.628  23.308  24.845  1.00  0.00     0.021 C 
BRANCH  22  23
ATOM     23  C   UNL A   1      36.672  23.715  25.879  1.00  0.00     0.116 C 
BRANCH  23  24
ATOM     24  N   UNL A   1      37.691  22.698  26.074  1.00  0.00    -0.352 N 
ATOM     25  C   UNL A   1      38.999  22.846  26.457  1.00  0.00     0.251 C 
ATOM     26  H   UNL A   1      37.401  21.771  25.909  1.00  0.00     0.163 HD
ATOM     27  O   UNL A   1      39.761  21.881  26.422  1.00  0.00    -0.269 OA
BRANCH  25  28
ATOM     28  C   UNL A   1      39.498  24.171  26.883  1.00  0.00     0.039 A 
ATOM     29  C   UNL A   1      39.370  24.539  28.224  1.00  0.00     0.014 A 
ATOM     30  C   UNL A   1      40.092  25.046  25.968  1.00  0.00     0.014 A 
ATOM     31  C   UNL A   1      39.888  25.761  28.660  1.00  0.00     0.010 A 
ATOM     32  C   UNL A   1      40.671  26.230  26.417  1.00  0.00     0.010 A 
ATOM     33  C   UNL A   1      40.571  26.602  27.765  1.00  0.00    -0.014 A 
BRANCH  33  34
ATOM     34  C   UNL A   1      41.190  27.872  28.228  1.00  0.00     0.031 A 
ATOM     35  C   UNL A   1      42.685  28.032  28.221  1.00  0.00     0.074 A 
ATOM     36  C   UNL A   1      40.406  28.852  28.717  1.00  0.00     0.049 A 
ATOM     37  N   UNL A   1      43.409  29.038  28.639  1.00  0.00    -0.248 NA
ATOM     38  C   UNL A   1      43.472  26.902  27.703  1.00  0.00     0.031 C 
ATOM     39  C   UNL A   1      38.948  28.790  28.833  1.00  0.00     0.029 A 
ATOM     40  N   UNL A   1      40.726  30.086  29.226  1.00  0.00    -0.354 N 
ATOM     41  C   UNL A   1      44.733  28.657  28.456  1.00  0.00     0.074 A 
ATOM     42  C   UNL A   1      44.713  27.308  27.933  1.00  0.00     0.031 C 
ATOM     43  C   UNL A   1      38.499  29.938  29.366  1.00  0.00     0.029 A 
ATOM     44  C   UNL A   1      39.637  30.803  29.662  1.00  0.00     0.049 A 
ATOM     45  H   UNL A   1      41.649  30.426  29.274  1.00  0.00     0.167 HD
ATOM     46  C   UNL A   1      45.861  29.372  28.683  1.00  0.00     0.037 A 
ATOM     47  C   UNL A   1      39.561  32.016  30.245  1.00  0.00     0.037 A 
ATOM     48  C   UNL A   1      45.870  30.725  29.178  1.00  0.00     0.049 A 
ATOM     49  C   UNL A   1      40.824  32.803  30.467  1.00  0.00     0.074 A 
ATOM     50  C   UNL A   1      46.953  31.565  29.365  1.00  0.00     0.029 A 
ATOM     51  N   UNL A   1      44.743  31.432  29.572  1.00  0.00    -0.354 N 
ATOM     52  N   UNL A   1      42.063  32.459  30.207  1.00  0.00    -0.248 NA
ATOM     53  C   UNL A   1      40.680  34.144  31.048  1.00  0.00     0.031 C 
ATOM     54  C   UNL A   1      46.487  32.761  29.920  1.00  0.00     0.029 A 
ATOM     55  C   UNL A   1      45.107  32.689  30.028  1.00  0.00     0.049 A 
ATOM     56  H   UNL A   1      43.820  31.092  29.534  1.00  0.00     0.167 HD
ATOM     57  C   UNL A   1      42.844  33.550  30.574  1.00  0.00     0.074 A 
ATOM     58  C   UNL A   1      41.936  34.568  31.061  1.00  0.00     0.031 C 
ATOM     59  C   UNL A   1      44.191  33.694  30.512  1.00  0.00     0.037 A 
BRANCH  46  60
ATOM     60  C   UNL A   1      47.179  28.703  28.406  1.00  0.00     0.058 A 
ATOM     61  C   UNL A   1      47.854  27.957  29.387  1.00  0.00     0.135 A 
ATOM     62  C   UNL A   1      47.767  28.787  27.132  1.00  0.00     0.135 A 
ATOM     63  F   UNL A   1      47.346  27.853  30.626  1.00  0.00    -0.206 F 
ATOM     64  C   UNL A   1      49.080  27.353  29.128  1.00  0.00     0.059 A 
ATOM     65  C   UNL A   1      48.978  28.165  26.842  1.00  0.00     0.059 A 
ATOM     66  F   UNL A   1      47.166  29.485  26.155  1.00  0.00    -0.206 F 
ATOM     67  C   UNL A   1      49.637  27.466  27.852  1.00  0.00     0.060 A 
BRANCH  67  68
ATOM     68  S   UNL A   1      51.233  26.686  27.535  1.00  0.00     0.124 S 
ATOM     69  O   UNL A   1      50.824  25.424  26.925  1.00  0.00    -0.237 OA
ATOM     70  O   UNL A   1      51.876  27.643  26.639  1.00  0.00    -0.237 OA
ATOM     71  O   UNL A   1      51.828  26.577  28.863  1.00  0.00    -0.744 OA
ENDBRANCH  67  68
ENDBRANCH  46  60
BRANCH  47  72
ATOM     72  C   UNL A   1      38.235  32.557  30.644  1.00  0.00     0.058 A 
ATOM     73  C   UNL A   1      37.734  32.367  31.940  1.00  0.00     0.135 A 
ATOM     74  C   UNL A   1      37.461  33.312  29.747  1.00  0.00     0.135 A 
ATOM     75  F   UNL A   1      38.433  31.648  32.830  1.00  0.00    -0.206 F 
ATOM     76  C   UNL A   1      36.510  32.899  32.333  1.00  0.00     0.059 A 
ATOM     77  C   UNL A   1      36.247  33.874  30.125  1.00  0.00     0.059 A 
ATOM     78  F   UNL A   1      37.905  33.537  28.501  1.00  0.00    -0.206 F 
ATOM     79  C   UNL A   1      35.777  33.658  31.419  1.00  0.00     0.060 A 
BRANCH  79  80
ATOM     80  S   UNL A   1      34.224  34.405  31.961  1.00  0.00     0.124 S 
ATOM     81  O   UNL A   1      34.695  35.627  32.605  1.00  0.00    -0.237 OA
ATOM     82  O   UNL A   1      33.512  34.582  30.699  1.00  0.00    -0.237 OA
ATOM     83  O   UNL A   1      33.660  33.397  32.854  1.00  0.00    -0.744 OA
ENDBRANCH  79  80
ENDBRANCH  47  72
BRANCH  59  84
ATOM     84  C   UNL A   1      44.770  35.008  30.958  1.00  0.00     0.058 A 
ATOM     85  C   UNL A   1      44.906  36.092  30.076  1.00  0.00     0.135 A 
ATOM     86  C   UNL A   1      45.143  35.202  32.298  1.00  0.00     0.135 A 
ATOM     87  F   UNL A   1      44.571  35.959  28.783  1.00  0.00    -0.206 F 
ATOM     88  C   UNL A   1      45.412  37.316  30.503  1.00  0.00     0.059 A 
ATOM     89  C   UNL A   1      45.624  36.425  32.753  1.00  0.00     0.059 A 
ATOM     90  F   UNL A   1      45.024  34.201  33.184  1.00  0.00    -0.206 F 
ATOM     91  C   UNL A   1      45.766  37.473  31.845  1.00  0.00     0.060 A 
BRANCH  91  92
ATOM     92  S   UNL A   1      46.387  39.077  32.393  1.00  0.00     0.124 S 
ATOM     93  O   UNL A   1      46.955  38.743  33.695  1.00  0.00    -0.237 OA
ATOM     94  O   UNL A   1      47.350  39.414  31.349  1.00  0.00    -0.237 OA
ATOM     95  O   UNL A   1      45.190  39.912  32.426  1.00  0.00    -0.744 OA
ENDBRANCH  91  92
ENDBRANCH  59  84
ENDBRANCH  33  34
ENDBRANCH  25  28
ENDBRANCH  23  24
ENDBRANCH  22  23
ENDBRANCH  21  22
ENDBRANCH   1  21
TORSDOF 20
ENDMDL
