MODEL 1
REMARK VINA RESULT:     -12.1      0.000      0.000
REMARK SMILES O=C(NCCCCCCNC(=O)c1ccc(S(=O)(=O)N[C@@H]2CC[N@@H+]3CCC[C@H]23)cc1)c1ccc(-c2c3nc(c(-c4c(F)cc(S(=O)(=O)[O-])cc4F)c4ccc([nH]4)c(-c4c(F)cc(S(=O)(=O)[O-])cc4F)c4nc(c(-c5c(F)cc(S(=O)(=O)[O-])cc5F)c5ccc2[nH]5)C=C4)C=C3)cc1
REMARK SMILES IDX 6 1 5 2 4 3 3 4 1 5 2 6 31 8 32 9 96 10 33 11 95 12 34 13
REMARK SMILES IDX 35 14 36 15 89 16 37 17 94 18 88 19 90 20 38 21 93 22 87 23
REMARK SMILES IDX 86 24 39 26 73 27 52 28 72 29 53 30 56 31 71 32 91 33 54 34
REMARK SMILES IDX 55 35 70 37 92 38 57 39 40 40 41 41 50 42 42 43 43 44 49 45
REMARK SMILES IDX 51 46 44 47 45 48 46 49 47 50 48 51 74 52 75 53 84 54 76 55
REMARK SMILES IDX 77 56 83 57 85 58 78 59 79 60 80 61 81 62 82 63 58 64 59 65
REMARK SMILES IDX 68 66 60 67 61 68 67 69 69 70 62 71 63 72 64 73 65 74 66 75
REMARK SMILES IDX 7 76 8 77 9 78 10 79 11 80 12 82 13 83 14 84 30 85 15 86
REMARK SMILES IDX 29 87 16 88 17 89 18 90 19 91 20 92 21 94 22 95 28 96 23 97
REMARK SMILES IDX 24 98 27 99 25 100 26 102
REMARK H PARENT 3 7 90 25 56 36 10 81 20 93 24 101
REMARK Flexibility Score: inf
ROOT
ATOM      1  C   UNL A   1      37.474  22.519  25.407  1.00  0.00     0.002 C 
ENDROOT
BRANCH   1   2
ATOM      2  C   UNL A   1      37.809  23.767  26.224  1.00  0.00     0.021 C 
BRANCH   2   3
ATOM      3  C   UNL A   1      39.183  23.783  26.880  1.00  0.00     0.116 C 
BRANCH   3   4
ATOM      4  N   UNL A   1      40.232  24.274  26.004  1.00  0.00    -0.352 N 
ATOM      5  O   UNL A   1      41.743  25.745  25.205  1.00  0.00    -0.269 OA
ATOM      6  C   UNL A   1      40.969  25.430  26.105  1.00  0.00     0.251 C 
ATOM      7  H   UNL A   1      40.445  23.700  25.233  1.00  0.00     0.163 HD
BRANCH   6   8
ATOM      8  C   UNL A   1      40.803  26.310  27.286  1.00  0.00     0.039 A 
ATOM      9  C   UNL A   1      41.548  27.483  27.414  1.00  0.00     0.014 A 
ATOM     10  C   UNL A   1      39.883  25.954  28.278  1.00  0.00     0.014 A 
ATOM     11  C   UNL A   1      41.474  28.226  28.588  1.00  0.00     0.010 A 
ATOM     12  C   UNL A   1      39.748  26.749  29.422  1.00  0.00     0.010 A 
ATOM     13  C   UNL A   1      40.561  27.878  29.598  1.00  0.00    -0.014 A 
BRANCH  13  14
ATOM     14  C   UNL A   1      40.425  28.770  30.779  1.00  0.00     0.031 A 
ATOM     15  C   UNL A   1      41.340  28.649  31.966  1.00  0.00     0.074 A 
ATOM     16  C   UNL A   1      39.484  29.734  30.742  1.00  0.00     0.049 A 
ATOM     17  N   UNL A   1      41.384  29.388  33.047  1.00  0.00    -0.248 NA
ATOM     18  C   UNL A   1      42.330  27.560  31.948  1.00  0.00     0.031 C 
ATOM     19  C   UNL A   1      38.521  29.926  29.653  1.00  0.00     0.029 A 
ATOM     20  N   UNL A   1      39.195  30.745  31.620  1.00  0.00    -0.354 N 
ATOM     21  C   UNL A   1      42.393  28.855  33.839  1.00  0.00     0.074 A 
ATOM     22  C   UNL A   1      42.922  27.710  33.127  1.00  0.00     0.031 C 
ATOM     23  C   UNL A   1      37.785  31.019  29.903  1.00  0.00     0.029 A 
ATOM     24  C   UNL A   1      38.182  31.572  31.192  1.00  0.00     0.049 A 
ATOM     25  H   UNL A   1      39.665  30.868  32.476  1.00  0.00     0.167 HD
ATOM     26  C   UNL A   1      42.841  29.287  35.042  1.00  0.00     0.037 A 
ATOM     27  C   UNL A   1      37.626  32.649  31.774  1.00  0.00     0.037 A 
ATOM     28  C   UNL A   1      42.313  30.434  35.740  1.00  0.00     0.049 A 
ATOM     29  C   UNL A   1      38.145  33.105  33.105  1.00  0.00     0.074 A 
ATOM     30  C   UNL A   1      42.711  30.959  36.958  1.00  0.00     0.029 A 
ATOM     31  N   UNL A   1      41.276  31.234  35.284  1.00  0.00    -0.354 N 
ATOM     32  N   UNL A   1      39.117  32.597  33.827  1.00  0.00    -0.248 NA
ATOM     33  C   UNL A   1      37.494  34.277  33.705  1.00  0.00     0.031 C 
ATOM     34  C   UNL A   1      41.895  32.057  37.253  1.00  0.00     0.029 A 
ATOM     35  C   UNL A   1      41.013  32.241  36.200  1.00  0.00     0.049 A 
ATOM     36  H   UNL A   1      40.796  31.105  34.434  1.00  0.00     0.167 HD
ATOM     37  C   UNL A   1      39.192  33.388  34.966  1.00  0.00     0.074 A 
ATOM     38  C   UNL A   1      38.193  34.428  34.821  1.00  0.00     0.031 C 
ATOM     39  C   UNL A   1      40.008  33.259  36.042  1.00  0.00     0.037 A 
BRANCH  26  40
ATOM     40  C   UNL A   1      43.962  28.524  35.694  1.00  0.00     0.058 A 
ATOM     41  C   UNL A   1      45.306  28.854  35.459  1.00  0.00     0.135 A 
ATOM     42  C   UNL A   1      43.691  27.504  36.622  1.00  0.00     0.135 A 
ATOM     43  F   UNL A   1      45.622  29.811  34.571  1.00  0.00    -0.206 F 
ATOM     44  C   UNL A   1      46.341  28.197  36.115  1.00  0.00     0.059 A 
ATOM     45  C   UNL A   1      44.711  26.846  37.304  1.00  0.00     0.059 A 
ATOM     46  F   UNL A   1      42.424  27.148  36.882  1.00  0.00    -0.206 F 
ATOM     47  C   UNL A   1      46.035  27.195  37.038  1.00  0.00     0.060 A 
BRANCH  47  48
ATOM     48  S   UNL A   1      47.391  26.373  37.901  1.00  0.00     0.124 S 
ATOM     49  O   UNL A   1      47.583  25.185  37.075  1.00  0.00    -0.237 OA
ATOM     50  O   UNL A   1      48.455  27.370  37.831  1.00  0.00    -0.237 OA
ATOM     51  O   UNL A   1      46.850  26.131  39.235  1.00  0.00    -0.744 OA
ENDBRANCH  47  48
ENDBRANCH  26  40
BRANCH  27  52
ATOM     52  C   UNL A   1      36.504  33.356  31.105  1.00  0.00     0.058 A 
ATOM     53  C   UNL A   1      35.194  33.270  31.595  1.00  0.00     0.135 A 
ATOM     54  C   UNL A   1      36.727  34.142  29.963  1.00  0.00     0.135 A 
ATOM     55  F   UNL A   1      34.933  32.530  32.683  1.00  0.00    -0.206 F 
ATOM     56  C   UNL A   1      34.138  33.922  30.966  1.00  0.00     0.059 A 
ATOM     57  C   UNL A   1      35.693  34.824  29.333  1.00  0.00     0.059 A 
ATOM     58  F   UNL A   1      37.967  34.271  29.467  1.00  0.00    -0.206 F 
ATOM     59  C   UNL A   1      34.399  34.695  29.833  1.00  0.00     0.060 A 
BRANCH  59  60
ATOM     60  S   UNL A   1      33.033  35.570  29.040  1.00  0.00     0.124 S 
ATOM     61  O   UNL A   1      33.739  36.639  28.345  1.00  0.00    -0.237 OA
ATOM     62  O   UNL A   1      32.450  34.534  28.194  1.00  0.00    -0.237 OA
ATOM     63  O   UNL A   1      32.205  35.986  30.169  1.00  0.00    -0.744 OA
ENDBRANCH  59  60
ENDBRANCH  27  52
BRANCH  39  64
ATOM     64  C   UNL A   1      39.848  34.276  37.135  1.00  0.00     0.058 A 
ATOM     65  C   UNL A   1      39.042  34.022  38.257  1.00  0.00     0.135 A 
ATOM     66  C   UNL A   1      40.506  35.513  37.063  1.00  0.00     0.135 A 
ATOM     67  F   UNL A   1      38.385  32.856  38.367  1.00  0.00    -0.206 F 
ATOM     68  C   UNL A   1      38.865  34.976  39.252  1.00  0.00     0.059 A 
ATOM     69  C   UNL A   1      40.362  36.472  38.060  1.00  0.00     0.059 A 
ATOM     70  F   UNL A   1      41.295  35.800  36.016  1.00  0.00    -0.206 F 
ATOM     71  C   UNL A   1      39.524  36.202  39.142  1.00  0.00     0.060 A 
BRANCH  71  72
ATOM     72  S   UNL A   1      39.288  37.434  40.438  1.00  0.00     0.124 S 
ATOM     73  O   UNL A   1      40.604  38.063  40.486  1.00  0.00    -0.237 OA
ATOM     74  O   UNL A   1      38.211  38.258  39.899  1.00  0.00    -0.237 OA
ATOM     75  O   UNL A   1      38.931  36.633  41.605  1.00  0.00    -0.744 OA
ENDBRANCH  71  72
ENDBRANCH  39  64
ENDBRANCH  13  14
ENDBRANCH   6   8
ENDBRANCH   3   4
ENDBRANCH   2   3
ENDBRANCH   1   2
BRANCH   1  76
ATOM     76  C   UNL A   1      36.000  22.315  25.048  1.00  0.00     0.002 C 
BRANCH  76  77
ATOM     77  C   UNL A   1      35.504  20.870  25.001  1.00  0.00     0.021 C 
BRANCH  77  78
ATOM     78  C   UNL A   1      34.031  20.662  25.317  1.00  0.00     0.116 C 
BRANCH  78  79
ATOM     79  N   UNL A   1      33.272  20.102  24.212  1.00  0.00    -0.352 N 
ATOM     80  C   UNL A   1      32.550  20.731  23.225  1.00  0.00     0.251 C 
ATOM     81  H   UNL A   1      33.274  19.119  24.163  1.00  0.00     0.163 HD
ATOM     82  O   UNL A   1      31.888  20.054  22.441  1.00  0.00    -0.269 OA
BRANCH  80  83
ATOM     83  C   UNL A   1      32.547  22.211  23.088  1.00  0.00     0.039 A 
ATOM     84  C   UNL A   1      31.597  22.963  23.795  1.00  0.00     0.015 A 
ATOM     85  C   UNL A   1      33.435  22.868  22.237  1.00  0.00     0.015 A 
ATOM     86  C   UNL A   1      31.541  24.357  23.645  1.00  0.00     0.022 A 
ATOM     87  C   UNL A   1      33.461  24.256  22.184  1.00  0.00     0.022 A 
ATOM     88  C   UNL A   1      32.475  24.995  22.826  1.00  0.00     0.082 A 
BRANCH  88  89
ATOM     89  S   UNL A   1      32.345  26.741  22.535  1.00  0.00     0.241 S 
ATOM     90  O   UNL A   1      33.583  27.181  21.925  1.00  0.00    -0.207 OA
ATOM     91  O   UNL A   1      31.063  26.959  21.912  1.00  0.00    -0.207 OA
BRANCH  89  92
ATOM     92  N   UNL A   1      32.238  27.430  24.059  1.00  0.00    -0.202 NA
ATOM     93  H   UNL A   1      31.981  26.672  24.691  1.00  0.00     0.141 HD
BRANCH  92  94
ATOM     94  C   UNL A   1      33.355  28.134  24.710  1.00  0.00     0.133 C 
ATOM     95  C   UNL A   1      33.673  27.575  26.089  1.00  0.00     0.087 C 
ATOM     96  C   UNL A   1      33.044  29.605  25.043  1.00  0.00     0.202 C 
ATOM     97  C   UNL A   1      34.397  28.707  26.795  1.00  0.00     0.264 C 
ATOM     98  N   UNL A   1      33.837  29.951  26.255  1.00  0.00    -0.331 N 
ATOM     99  C   UNL A   1      31.597  29.934  25.408  1.00  0.00     0.072 C 
ATOM    100  C   UNL A   1      32.951  30.630  27.215  1.00  0.00     0.262 C 
ATOM    101  H   UNL A   1      34.608  30.585  26.043  1.00  0.00     0.348 HD
ATOM    102  C   UNL A   1      31.737  31.056  26.412  1.00  0.00     0.068 C 
ENDBRANCH  92  94
ENDBRANCH  89  92
ENDBRANCH  88  89
ENDBRANCH  80  83
ENDBRANCH  78  79
ENDBRANCH  77  78
ENDBRANCH  76  77
ENDBRANCH   1  76
TORSDOF 19
ENDMDL
MODEL 2
REMARK VINA RESULT:     -12.0      2.833      8.735
REMARK SMILES O=C(NCCCCCCNC(=O)c1ccc(S(=O)(=O)N[C@@H]2CC[N@@H+]3CCC[C@H]23)cc1)c1ccc(-c2c3nc(c(-c4c(F)cc(S(=O)(=O)[O-])cc4F)c4ccc([nH]4)c(-c4c(F)cc(S(=O)(=O)[O-])cc4F)c4nc(c(-c5c(F)cc(S(=O)(=O)[O-])cc5F)c5ccc2[nH]5)C=C4)C=C3)cc1
REMARK SMILES IDX 6 1 5 2 4 3 3 4 1 5 2 6 31 8 32 9 96 10 33 11 95 12 34 13
REMARK SMILES IDX 35 14 36 15 89 16 37 17 94 18 88 19 90 20 38 21 93 22 87 23
REMARK SMILES IDX 86 24 39 26 73 27 52 28 72 29 53 30 56 31 71 32 91 33 54 34
REMARK SMILES IDX 55 35 70 37 92 38 57 39 40 40 41 41 50 42 42 43 43 44 49 45
REMARK SMILES IDX 51 46 44 47 45 48 46 49 47 50 48 51 74 52 75 53 84 54 76 55
REMARK SMILES IDX 77 56 83 57 85 58 78 59 79 60 80 61 81 62 82 63 58 64 59 65
REMARK SMILES IDX 68 66 60 67 61 68 67 69 69 70 62 71 63 72 64 73 65 74 66 75
REMARK SMILES IDX 7 76 8 77 9 78 10 79 11 80 12 82 13 83 14 84 30 85 15 86
REMARK SMILES IDX 29 87 16 88 17 89 18 90 19 91 20 92 21 94 22 95 28 96 23 97
REMARK SMILES IDX 24 98 27 99 25 100 26 102
REMARK H PARENT 3 7 90 25 56 36 10 81 20 93 24 101
REMARK Flexibility Score: inf
ROOT
ATOM      1  C   UNL A   1      35.396  22.264  24.289  1.00  0.00     0.002 C 
ENDROOT
BRANCH   1   2
ATOM      2  C   UNL A   1      35.626  23.748  24.577  1.00  0.00     0.021 C 
BRANCH   2   3
ATOM      3  C   UNL A   1      36.803  24.073  25.487  1.00  0.00     0.116 C 
BRANCH   3   4
ATOM      4  N   UNL A   1      37.826  23.042  25.494  1.00  0.00    -0.352 N 
ATOM      5  O   UNL A   1      39.864  22.149  25.862  1.00  0.00    -0.269 OA
ATOM      6  C   UNL A   1      39.082  23.078  26.052  1.00  0.00     0.251 C 
ATOM      7  H   UNL A   1      37.587  22.203  25.037  1.00  0.00     0.163 HD
BRANCH   6   8
ATOM      8  C   UNL A   1      39.500  24.252  26.854  1.00  0.00     0.039 A 
ATOM      9  C   UNL A   1      39.057  24.413  28.168  1.00  0.00     0.014 A 
ATOM     10  C   UNL A   1      40.352  25.201  26.281  1.00  0.00     0.014 A 
ATOM     11  C   UNL A   1      39.352  25.585  28.858  1.00  0.00     0.010 A 
ATOM     12  C   UNL A   1      40.717  26.340  27.009  1.00  0.00     0.010 A 
ATOM     13  C   UNL A   1      40.200  26.553  28.294  1.00  0.00    -0.014 A 
BRANCH  13  14
ATOM     14  C   UNL A   1      40.590  27.729  29.116  1.00  0.00     0.031 A 
ATOM     15  C   UNL A   1      39.676  28.910  29.285  1.00  0.00     0.074 A 
ATOM     16  C   UNL A   1      41.777  27.692  29.754  1.00  0.00     0.049 A 
ATOM     17  N   UNL A   1      39.849  29.985  30.013  1.00  0.00    -0.248 NA
ATOM     18  C   UNL A   1      38.405  28.892  28.543  1.00  0.00     0.031 C 
ATOM     19  C   UNL A   1      42.759  26.609  29.639  1.00  0.00     0.029 A 
ATOM     20  N   UNL A   1      42.351  28.565  30.639  1.00  0.00    -0.354 N 
ATOM     21  C   UNL A   1      38.723  30.773  29.814  1.00  0.00     0.074 A 
ATOM     22  C   UNL A   1      37.879  30.065  28.873  1.00  0.00     0.031 C 
ATOM     23  C   UNL A   1      43.787  26.857  30.463  1.00  0.00     0.029 A 
ATOM     24  C   UNL A   1      43.567  28.139  31.122  1.00  0.00     0.049 A 
ATOM     25  H   UNL A   1      41.935  29.416  30.906  1.00  0.00     0.167 HD
ATOM     26  C   UNL A   1      38.419  31.970  30.371  1.00  0.00     0.037 A 
ATOM     27  C   UNL A   1      44.417  28.717  31.988  1.00  0.00     0.037 A 
ATOM     28  C   UNL A   1      39.262  32.663  31.314  1.00  0.00     0.049 A 
ATOM     29  C   UNL A   1      44.052  30.041  32.591  1.00  0.00     0.074 A 
ATOM     30  C   UNL A   1      39.034  33.875  31.945  1.00  0.00     0.029 A 
ATOM     31  N   UNL A   1      40.494  32.209  31.763  1.00  0.00    -0.354 N 
ATOM     32  N   UNL A   1      42.969  30.759  32.404  1.00  0.00    -0.248 NA
ATOM     33  C   UNL A   1      45.021  30.637  33.519  1.00  0.00     0.031 C 
ATOM     34  C   UNL A   1      40.140  34.167  32.752  1.00  0.00     0.029 A 
ATOM     35  C   UNL A   1      41.041  33.120  32.653  1.00  0.00     0.049 A 
ATOM     36  H   UNL A   1      40.917  31.364  31.488  1.00  0.00     0.167 HD
ATOM     37  C   UNL A   1      43.128  31.891  33.191  1.00  0.00     0.074 A 
ATOM     38  C   UNL A   1      44.394  31.746  33.883  1.00  0.00     0.031 C 
ATOM     39  C   UNL A   1      42.306  32.962  33.323  1.00  0.00     0.037 A 
BRANCH  26  40
ATOM     40  C   UNL A   1      37.117  32.618  29.985  1.00  0.00     0.058 A 
ATOM     41  C   UNL A   1      35.923  32.322  30.660  1.00  0.00     0.135 A 
ATOM     42  C   UNL A   1      37.076  33.603  28.983  1.00  0.00     0.135 A 
ATOM     43  F   UNL A   1      35.902  31.379  31.616  1.00  0.00    -0.206 F 
ATOM     44  C   UNL A   1      34.733  32.973  30.351  1.00  0.00     0.059 A 
ATOM     45  C   UNL A   1      35.901  34.281  28.671  1.00  0.00     0.059 A 
ATOM     46  F   UNL A   1      38.190  33.923  28.306  1.00  0.00    -0.206 F 
ATOM     47  C   UNL A   1      34.731  33.953  29.357  1.00  0.00     0.060 A 
BRANCH  47  48
ATOM     48  S   UNL A   1      33.183  34.807  28.991  1.00  0.00     0.124 S 
ATOM     49  O   UNL A   1      32.564  33.890  28.039  1.00  0.00    -0.237 OA
ATOM     50  O   UNL A   1      32.548  34.880  30.303  1.00  0.00    -0.237 OA
ATOM     51  O   UNL A   1      33.622  36.085  28.439  1.00  0.00    -0.744 OA
ENDBRANCH  47  48
ENDBRANCH  26  40
BRANCH  27  52
ATOM     52  C   UNL A   1      45.703  28.051  32.320  1.00  0.00     0.058 A 
ATOM     53  C   UNL A   1      46.857  28.274  31.557  1.00  0.00     0.135 A 
ATOM     54  C   UNL A   1      45.801  27.183  33.420  1.00  0.00     0.135 A 
ATOM     55  F   UNL A   1      46.811  29.094  30.496  1.00  0.00    -0.206 F 
ATOM     56  C   UNL A   1      48.061  27.645  31.858  1.00  0.00     0.059 A 
ATOM     57  C   UNL A   1      46.999  26.564  33.757  1.00  0.00     0.059 A 
ATOM     58  F   UNL A   1      44.729  26.953  34.193  1.00  0.00    -0.206 F 
ATOM     59  C   UNL A   1      48.120  26.790  32.960  1.00  0.00     0.060 A 
BRANCH  59  60
ATOM     60  S   UNL A   1      49.692  26.003  33.371  1.00  0.00     0.124 S 
ATOM     61  O   UNL A   1      49.410  24.608  33.053  1.00  0.00    -0.237 OA
ATOM     62  O   UNL A   1      50.624  26.685  32.479  1.00  0.00    -0.237 OA
ATOM     63  O   UNL A   1      49.856  26.309  34.789  1.00  0.00    -0.744 OA
ENDBRANCH  59  60
ENDBRANCH  27  52
BRANCH  39  64
ATOM     64  C   UNL A   1      42.757  34.049  34.255  1.00  0.00     0.058 A 
ATOM     65  C   UNL A   1      43.497  35.149  33.791  1.00  0.00     0.135 A 
ATOM     66  C   UNL A   1      42.448  33.992  35.622  1.00  0.00     0.135 A 
ATOM     67  F   UNL A   1      43.825  35.243  32.493  1.00  0.00    -0.206 F 
ATOM     68  C   UNL A   1      43.946  36.138  34.659  1.00  0.00     0.059 A 
ATOM     69  C   UNL A   1      42.866  34.984  36.504  1.00  0.00     0.059 A 
ATOM     70  F   UNL A   1      41.735  32.966  36.113  1.00  0.00    -0.206 F 
ATOM     71  C   UNL A   1      43.631  36.043  36.016  1.00  0.00     0.060 A 
BRANCH  71  72
ATOM     72  S   UNL A   1      44.218  37.331  37.135  1.00  0.00     0.124 S 
ATOM     73  O   UNL A   1      44.546  38.402  36.201  1.00  0.00    -0.237 OA
ATOM     74  O   UNL A   1      43.055  37.565  37.985  1.00  0.00    -0.237 OA
ATOM     75  O   UNL A   1      45.356  36.706  37.801  1.00  0.00    -0.744 OA
ENDBRANCH  71  72
ENDBRANCH  39  64
ENDBRANCH  13  14
ENDBRANCH   6   8
ENDBRANCH   3   4
ENDBRANCH   2   3
ENDBRANCH   1   2
BRANCH   1  76
ATOM     76  C   UNL A   1      33.980  21.735  24.531  1.00  0.00     0.002 C 
BRANCH  76  77
ATOM     77  C   UNL A   1      33.700  21.148  25.914  1.00  0.00     0.021 C 
BRANCH  77  78
ATOM     78  C   UNL A   1      33.488  22.155  27.034  1.00  0.00     0.116 C 
BRANCH  78  79
ATOM     79  N   UNL A   1      32.092  22.350  27.386  1.00  0.00    -0.352 N 
ATOM     80  C   UNL A   1      31.145  23.178  26.828  1.00  0.00     0.251 C 
ATOM     81  H   UNL A   1      31.774  21.805  28.141  1.00  0.00     0.163 HD
ATOM     82  O   UNL A   1      30.039  23.266  27.357  1.00  0.00    -0.269 OA
BRANCH  80  83
ATOM     83  C   UNL A   1      31.433  23.974  25.607  1.00  0.00     0.039 A 
ATOM     84  C   UNL A   1      32.302  25.072  25.692  1.00  0.00     0.015 A 
ATOM     85  C   UNL A   1      30.821  23.685  24.387  1.00  0.00     0.015 A 
ATOM     86  C   UNL A   1      32.550  25.869  24.565  1.00  0.00     0.022 A 
ATOM     87  C   UNL A   1      31.163  24.398  23.244  1.00  0.00     0.022 A 
ATOM     88  C   UNL A   1      31.966  25.528  23.343  1.00  0.00     0.082 A 
BRANCH  88  89
ATOM     89  S   UNL A   1      32.177  26.591  21.937  1.00  0.00     0.241 S 
ATOM     90  O   UNL A   1      33.421  27.312  22.112  1.00  0.00    -0.207 OA
ATOM     91  O   UNL A   1      31.913  25.786  20.771  1.00  0.00    -0.207 OA
BRANCH  89  92
ATOM     92  N   UNL A   1      30.915  27.692  22.030  1.00  0.00    -0.202 NA
ATOM     93  H   UNL A   1      30.180  27.229  22.564  1.00  0.00     0.141 HD
BRANCH  92  94
ATOM     94  C   UNL A   1      31.055  29.035  22.617  1.00  0.00     0.133 C 
ATOM     95  C   UNL A   1      30.923  29.025  24.133  1.00  0.00     0.087 C 
ATOM     96  C   UNL A   1      29.922  29.999  22.220  1.00  0.00     0.202 C 
ATOM     97  C   UNL A   1      30.534  30.450  24.484  1.00  0.00     0.264 C 
ATOM     98  N   UNL A   1      29.747  30.951  23.351  1.00  0.00    -0.331 N 
ATOM     99  C   UNL A   1      28.541  29.382  22.004  1.00  0.00     0.072 C 
ATOM    100  C   UNL A   1      28.312  31.046  23.664  1.00  0.00     0.262 C 
ATOM    101  H   UNL A   1      30.077  31.888  23.121  1.00  0.00     0.348 HD
ATOM    102  C   UNL A   1      27.596  30.473  22.458  1.00  0.00     0.068 C 
ENDBRANCH  92  94
ENDBRANCH  89  92
ENDBRANCH  88  89
ENDBRANCH  80  83
ENDBRANCH  78  79
ENDBRANCH  77  78
ENDBRANCH  76  77
ENDBRANCH   1  76
TORSDOF 19
ENDMDL
MODEL 3
REMARK VINA RESULT:     -12.0      1.635      2.607
REMARK SMILES O=C(NCCCCCCNC(=O)c1ccc(S(=O)(=O)N[C@@H]2CC[N@@H+]3CCC[C@H]23)cc1)c1ccc(-c2c3nc(c(-c4c(F)cc(S(=O)(=O)[O-])cc4F)c4ccc([nH]4)c(-c4c(F)cc(S(=O)(=O)[O-])cc4F)c4nc(c(-c5c(F)cc(S(=O)(=O)[O-])cc5F)c5ccc2[nH]5)C=C4)C=C3)cc1
REMARK SMILES IDX 6 1 5 2 4 3 3 4 1 5 2 6 31 8 32 9 96 10 33 11 95 12 34 13
REMARK SMILES IDX 35 14 36 15 89 16 37 17 94 18 88 19 90 20 38 21 93 22 87 23
REMARK SMILES IDX 86 24 39 26 73 27 52 28 72 29 53 30 56 31 71 32 91 33 54 34
REMARK SMILES IDX 55 35 70 37 92 38 57 39 40 40 41 41 50 42 42 43 43 44 49 45
REMARK SMILES IDX 51 46 44 47 45 48 46 49 47 50 48 51 74 52 75 53 84 54 76 55
REMARK SMILES IDX 77 56 83 57 85 58 78 59 79 60 80 61 81 62 82 63 58 64 59 65
REMARK SMILES IDX 68 66 60 67 61 68 67 69 69 70 62 71 63 72 64 73 65 74 66 75
REMARK SMILES IDX 7 76 8 77 9 78 10 79 11 80 12 82 13 83 14 84 30 85 15 86
REMARK SMILES IDX 29 87 16 88 17 89 18 90 19 91 20 92 21 94 22 95 28 96 23 97
REMARK SMILES IDX 24 98 27 99 25 100 26 102
REMARK H PARENT 3 7 90 25 56 36 10 81 20 93 24 101
REMARK Flexibility Score: inf
ROOT
ATOM      1  C   UNL A   1      41.079  21.807  27.906  1.00  0.00     0.002 C 
ENDROOT
BRANCH   1   2
ATOM      2  C   UNL A   1      42.540  21.944  27.477  1.00  0.00     0.021 C 
BRANCH   2   3
ATOM      3  C   UNL A   1      43.088  23.364  27.430  1.00  0.00     0.116 C 
BRANCH   3   4
ATOM      4  N   UNL A   1      42.723  24.080  26.221  1.00  0.00    -0.352 N 
ATOM      5  O   UNL A   1      41.797  25.726  24.989  1.00  0.00    -0.269 OA
ATOM      6  C   UNL A   1      42.142  25.321  26.095  1.00  0.00     0.251 C 
ATOM      7  H   UNL A   1      42.919  23.615  25.376  1.00  0.00     0.163 HD
BRANCH   6   8
ATOM      8  C   UNL A   1      41.906  26.149  27.301  1.00  0.00     0.039 A 
ATOM      9  C   UNL A   1      40.895  25.820  28.206  1.00  0.00     0.014 A 
ATOM     10  C   UNL A   1      42.711  27.270  27.528  1.00  0.00     0.014 A 
ATOM     11  C   UNL A   1      40.603  26.681  29.259  1.00  0.00     0.010 A 
ATOM     12  C   UNL A   1      42.470  28.089  28.637  1.00  0.00     0.010 A 
ATOM     13  C   UNL A   1      41.397  27.816  29.498  1.00  0.00    -0.014 A 
BRANCH  13  14
ATOM     14  C   UNL A   1      41.128  28.638  30.706  1.00  0.00     0.031 A 
ATOM     15  C   UNL A   1      41.983  28.531  31.938  1.00  0.00     0.074 A 
ATOM     16  C   UNL A   1      40.117  29.528  30.656  1.00  0.00     0.049 A 
ATOM     17  N   UNL A   1      41.910  29.220  33.050  1.00  0.00    -0.248 NA
ATOM     18  C   UNL A   1      43.056  27.524  31.930  1.00  0.00     0.031 C 
ATOM     19  C   UNL A   1      39.202  29.697  29.523  1.00  0.00     0.029 A 
ATOM     20  N   UNL A   1      39.701  30.471  31.559  1.00  0.00    -0.354 N 
ATOM     21  C   UNL A   1      42.914  28.728  33.875  1.00  0.00     0.074 A 
ATOM     22  C   UNL A   1      43.569  27.663  33.147  1.00  0.00     0.031 C 
ATOM     23  C   UNL A   1      38.370  30.717  29.776  1.00  0.00     0.029 A 
ATOM     24  C   UNL A   1      38.651  31.238  31.108  1.00  0.00     0.049 A 
ATOM     25  H   UNL A   1      40.114  30.590  32.445  1.00  0.00     0.167 HD
ATOM     26  C   UNL A   1      43.260  29.137  35.120  1.00  0.00     0.037 A 
ATOM     27  C   UNL A   1      37.981  32.240  31.703  1.00  0.00     0.037 A 
ATOM     28  C   UNL A   1      42.606  30.206  35.835  1.00  0.00     0.049 A 
ATOM     29  C   UNL A   1      38.390  32.672  33.080  1.00  0.00     0.074 A 
ATOM     30  C   UNL A   1      42.894  30.702  37.095  1.00  0.00     0.029 A 
ATOM     31  N   UNL A   1      41.535  30.945  35.354  1.00  0.00    -0.354 N 
ATOM     32  N   UNL A   1      39.357  32.206  33.834  1.00  0.00    -0.248 NA
ATOM     33  C   UNL A   1      37.616  33.760  33.691  1.00  0.00     0.031 C 
ATOM     34  C   UNL A   1      41.979  31.719  37.389  1.00  0.00     0.029 A 
ATOM     35  C   UNL A   1      41.145  31.884  36.296  1.00  0.00     0.049 A 
ATOM     36  H   UNL A   1      41.114  30.819  34.473  1.00  0.00     0.167 HD
ATOM     37  C   UNL A   1      39.308  32.946  35.009  1.00  0.00     0.074 A 
ATOM     38  C   UNL A   1      38.239  33.912  34.851  1.00  0.00     0.031 C 
ATOM     39  C   UNL A   1      40.072  32.829  36.123  1.00  0.00     0.037 A 
BRANCH  26  40
ATOM     40  C   UNL A   1      44.401  28.431  35.802  1.00  0.00     0.058 A 
ATOM     41  C   UNL A   1      44.184  27.312  36.621  1.00  0.00     0.135 A 
ATOM     42  C   UNL A   1      45.729  28.829  35.574  1.00  0.00     0.135 A 
ATOM     43  F   UNL A   1      42.934  26.898  36.884  1.00  0.00    -0.206 F 
ATOM     44  C   UNL A   1      45.243  26.616  37.195  1.00  0.00     0.059 A 
ATOM     45  C   UNL A   1      46.804  28.135  36.123  1.00  0.00     0.059 A 
ATOM     46  F   UNL A   1      45.991  29.893  34.801  1.00  0.00    -0.206 F 
ATOM     47  C   UNL A   1      46.550  27.033  36.939  1.00  0.00     0.060 A 
BRANCH  47  48
ATOM     48  S   UNL A   1      47.912  26.099  37.670  1.00  0.00     0.124 S 
ATOM     49  O   UNL A   1      48.219  26.906  38.846  1.00  0.00    -0.237 OA
ATOM     50  O   UNL A   1      47.295  24.803  37.935  1.00  0.00    -0.237 OA
ATOM     51  O   UNL A   1      48.928  26.102  36.622  1.00  0.00    -0.744 OA
ENDBRANCH  47  48
ENDBRANCH  26  40
BRANCH  27  52
ATOM     52  C   UNL A   1      36.844  32.890  31.000  1.00  0.00     0.058 A 
ATOM     53  C   UNL A   1      35.517  32.598  31.340  1.00  0.00     0.135 A 
ATOM     54  C   UNL A   1      37.070  33.827  29.979  1.00  0.00     0.135 A 
ATOM     55  F   UNL A   1      35.252  31.709  32.309  1.00  0.00    -0.206 F 
ATOM     56  C   UNL A   1      34.449  33.196  30.679  1.00  0.00     0.059 A 
ATOM     57  C   UNL A   1      36.020  34.457  29.322  1.00  0.00     0.059 A 
ATOM     58  F   UNL A   1      38.324  34.154  29.632  1.00  0.00    -0.206 F 
ATOM     59  C   UNL A   1      34.712  34.124  29.669  1.00  0.00     0.060 A 
BRANCH  59  60
ATOM     60  S   UNL A   1      33.326  34.926  28.837  1.00  0.00     0.124 S 
ATOM     61  O   UNL A   1      33.998  36.014  28.137  1.00  0.00    -0.237 OA
ATOM     62  O   UNL A   1      32.803  33.853  27.998  1.00  0.00    -0.237 OA
ATOM     63  O   UNL A   1      32.459  35.323  29.943  1.00  0.00    -0.744 OA
ENDBRANCH  59  60
ENDBRANCH  27  52
BRANCH  39  64
ATOM     64  C   UNL A   1      39.773  33.778  37.248  1.00  0.00     0.058 A 
ATOM     65  C   UNL A   1      40.320  35.071  37.277  1.00  0.00     0.135 A 
ATOM     66  C   UNL A   1      38.935  33.393  38.305  1.00  0.00     0.135 A 
ATOM     67  F   UNL A   1      41.136  35.482  36.293  1.00  0.00    -0.206 F 
ATOM     68  C   UNL A   1      40.073  35.938  38.336  1.00  0.00     0.059 A 
ATOM     69  C   UNL A   1      38.655  34.254  39.361  1.00  0.00     0.059 A 
ATOM     70  F   UNL A   1      38.380  32.171  38.318  1.00  0.00    -0.206 F 
ATOM     71  C   UNL A   1      39.244  35.518  39.377  1.00  0.00     0.060 A 
BRANCH  71  72
ATOM     72  S   UNL A   1      38.930  36.649  40.747  1.00  0.00     0.124 S 
ATOM     73  O   UNL A   1      37.892  35.936  41.483  1.00  0.00    -0.237 OA
ATOM     74  O   UNL A   1      40.233  36.723  41.401  1.00  0.00    -0.237 OA
ATOM     75  O   UNL A   1      38.500  37.875  40.081  1.00  0.00    -0.744 OA
ENDBRANCH  71  72
ENDBRANCH  39  64
ENDBRANCH  13  14
ENDBRANCH   6   8
ENDBRANCH   3   4
ENDBRANCH   2   3
ENDBRANCH   1   2
BRANCH   1  76
ATOM     76  C   UNL A   1      40.038  21.799  26.783  1.00  0.00     0.002 C 
BRANCH  76  77
ATOM     77  C   UNL A   1      39.251  23.093  26.577  1.00  0.00     0.021 C 
BRANCH  77  78
ATOM     78  C   UNL A   1      38.014  22.986  25.699  1.00  0.00     0.116 C 
BRANCH  78  79
ATOM     79  N   UNL A   1      37.682  21.622  25.324  1.00  0.00    -0.352 N 
ATOM     80  C   UNL A   1      36.458  21.001  25.235  1.00  0.00     0.251 C 
ATOM     81  H   UNL A   1      38.453  21.053  25.100  1.00  0.00     0.163 HD
ATOM     82  O   UNL A   1      36.412  19.795  25.000  1.00  0.00    -0.269 OA
BRANCH  80  83
ATOM     83  C   UNL A   1      35.190  21.752  25.424  1.00  0.00     0.039 A 
ATOM     84  C   UNL A   1      34.711  21.976  26.724  1.00  0.00     0.015 A 
ATOM     85  C   UNL A   1      34.438  22.200  24.338  1.00  0.00     0.015 A 
ATOM     86  C   UNL A   1      33.492  22.640  26.926  1.00  0.00     0.022 A 
ATOM     87  C   UNL A   1      33.296  22.965  24.542  1.00  0.00     0.022 A 
ATOM     88  C   UNL A   1      32.784  23.123  25.824  1.00  0.00     0.082 A 
BRANCH  88  89
ATOM     89  S   UNL A   1      31.187  23.861  26.057  1.00  0.00     0.241 S 
ATOM     90  O   UNL A   1      30.480  23.793  24.794  1.00  0.00    -0.207 OA
ATOM     91  O   UNL A   1      30.648  23.297  27.270  1.00  0.00    -0.207 OA
BRANCH  89  92
ATOM     92  N   UNL A   1      31.496  25.473  26.398  1.00  0.00    -0.202 NA
ATOM     93  H   UNL A   1      32.239  25.473  27.096  1.00  0.00     0.141 HD
BRANCH  92  94
ATOM     94  C   UNL A   1      31.905  26.452  25.377  1.00  0.00     0.133 C 
ATOM     95  C   UNL A   1      33.415  26.507  25.193  1.00  0.00     0.087 C 
ATOM     96  C   UNL A   1      31.593  27.909  25.764  1.00  0.00     0.202 C 
ATOM     97  C   UNL A   1      33.668  27.873  24.581  1.00  0.00     0.264 C 
ATOM     98  N   UNL A   1      32.629  28.760  25.116  1.00  0.00    -0.331 N 
ATOM     99  C   UNL A   1      31.669  28.255  27.250  1.00  0.00     0.072 C 
ATOM    100  C   UNL A   1      33.155  29.701  26.118  1.00  0.00     0.262 C 
ATOM    101  H   UNL A   1      32.248  29.310  24.345  1.00  0.00     0.348 HD
ATOM    102  C   UNL A   1      32.148  29.690  27.251  1.00  0.00     0.068 C 
ENDBRANCH  92  94
ENDBRANCH  89  92
ENDBRANCH  88  89
ENDBRANCH  80  83
ENDBRANCH  78  79
ENDBRANCH  77  78
ENDBRANCH  76  77
ENDBRANCH   1  76
TORSDOF 19
ENDMDL
