MODEL 1
REMARK VINA RESULT:     -12.4      0.000      0.000
REMARK SMILES O=C(NCCCCCCNC(=O)c1ccccc1Nc1cccc(S(F)(F)(F)(F)F)c1)c1ccc(-c2c3nc(c(-c4c(F)cc(S(=O)(=O)[O-])cc4F)c4ccc([nH]4)c(-c4c(F)cc(S(=O)(=O)[O-])cc4F)c4nc(c(-c5c(F)cc(S(=O)(=O)[O-])cc5F)c5ccc2[nH]5)C=C4)C=C3)cc1
REMARK SMILES IDX 6 1 5 2 4 3 3 4 1 5 2 6 32 8 33 9 97 10 34 11 96 12 35 13
REMARK SMILES IDX 36 14 37 15 90 16 38 17 95 18 89 19 91 20 39 21 94 22 88 23
REMARK SMILES IDX 87 24 40 26 74 27 53 28 73 29 54 30 57 31 72 32 92 33 55 34
REMARK SMILES IDX 56 35 71 37 93 38 58 39 41 40 42 41 51 42 43 43 44 44 50 45
REMARK SMILES IDX 52 46 45 47 46 48 47 49 48 50 49 51 75 52 76 53 85 54 77 55
REMARK SMILES IDX 78 56 84 57 86 58 79 59 80 60 81 61 82 62 83 63 59 64 60 65
REMARK SMILES IDX 69 66 61 67 62 68 68 69 70 70 63 71 64 72 65 73 66 74 67 75
REMARK SMILES IDX 7 76 8 77 9 78 10 79 11 80 12 82 13 83 14 84 18 85 15 86
REMARK SMILES IDX 17 87 16 88 19 89 20 91 21 92 31 93 22 94 24 95 23 96 25 97
REMARK SMILES IDX 26 98 27 99 28 100 29 101 30 102
REMARK H PARENT 3 7 91 25 57 36 10 81 19 90
REMARK Flexibility Score: inf
ROOT
ATOM      1  C   UNL A   1      34.417  23.431  26.263  1.00  0.00     0.002 C 
ENDROOT
BRANCH   1   2
ATOM      2  C   UNL A   1      35.379  23.519  25.089  1.00  0.00     0.021 C 
BRANCH   2   3
ATOM      3  C   UNL A   1      36.747  23.958  25.586  1.00  0.00     0.116 C 
BRANCH   3   4
ATOM      4  N   UNL A   1      37.693  22.840  25.466  1.00  0.00    -0.352 N 
ATOM      5  O   UNL A   1      39.846  21.970  25.973  1.00  0.00    -0.269 OA
ATOM      6  C   UNL A   1      39.027  22.937  26.077  1.00  0.00     0.251 C 
ATOM      7  H   UNL A   1      37.435  22.025  24.977  1.00  0.00     0.163 HD
BRANCH   6   8
ATOM      8  C   UNL A   1      39.428  24.194  26.832  1.00  0.00     0.039 A 
ATOM      9  C   UNL A   1      39.123  24.329  28.176  1.00  0.00     0.014 A 
ATOM     10  C   UNL A   1      40.128  25.121  26.187  1.00  0.00     0.014 A 
ATOM     11  C   UNL A   1      39.358  25.626  28.690  1.00  0.00     0.010 A 
ATOM     12  C   UNL A   1      40.438  26.312  26.797  1.00  0.00     0.010 A 
ATOM     13  C   UNL A   1      40.116  26.537  28.107  1.00  0.00    -0.014 A 
BRANCH  13  14
ATOM     14  C   UNL A   1      40.605  27.769  28.852  1.00  0.00     0.031 A 
ATOM     15  C   UNL A   1      41.895  27.720  29.381  1.00  0.00     0.074 A 
ATOM     16  C   UNL A   1      39.735  28.831  29.028  1.00  0.00     0.049 A 
ATOM     17  N   UNL A   1      42.518  28.661  30.092  1.00  0.00    -0.248 NA
ATOM     18  C   UNL A   1      42.808  26.577  29.223  1.00  0.00     0.031 C 
ATOM     19  C   UNL A   1      38.434  28.891  28.491  1.00  0.00     0.029 A 
ATOM     20  N   UNL A   1      39.953  29.995  29.733  1.00  0.00    -0.354 N 
ATOM     21  C   UNL A   1      43.753  28.260  30.405  1.00  0.00     0.074 A 
ATOM     22  C   UNL A   1      43.954  26.912  29.857  1.00  0.00     0.031 C 
ATOM     23  C   UNL A   1      37.873  30.067  28.876  1.00  0.00     0.029 A 
ATOM     24  C   UNL A   1      38.814  30.763  29.659  1.00  0.00     0.049 A 
ATOM     25  H   UNL A   1      40.783  30.235  30.207  1.00  0.00     0.167 HD
ATOM     26  C   UNL A   1      44.718  28.966  31.124  1.00  0.00     0.037 A 
ATOM     27  C   UNL A   1      38.586  32.002  30.237  1.00  0.00     0.037 A 
ATOM     28  C   UNL A   1      44.506  30.224  31.666  1.00  0.00     0.049 A 
ATOM     29  C   UNL A   1      39.532  32.684  31.006  1.00  0.00     0.074 A 
ATOM     30  C   UNL A   1      45.470  30.952  32.388  1.00  0.00     0.029 A 
ATOM     31  N   UNL A   1      43.357  30.981  31.613  1.00  0.00    -0.354 N 
ATOM     32  N   UNL A   1      40.778  32.300  31.286  1.00  0.00    -0.248 NA
ATOM     33  C   UNL A   1      39.291  33.981  31.651  1.00  0.00     0.031 C 
ATOM     34  C   UNL A   1      44.909  32.129  32.773  1.00  0.00     0.029 A 
ATOM     35  C   UNL A   1      43.583  32.154  32.299  1.00  0.00     0.049 A 
ATOM     36  H   UNL A   1      42.518  30.729  31.163  1.00  0.00     0.167 HD
ATOM     37  C   UNL A   1      41.388  33.222  32.033  1.00  0.00     0.074 A 
ATOM     38  C   UNL A   1      40.437  34.314  32.285  1.00  0.00     0.031 C 
ATOM     39  C   UNL A   1      42.698  33.200  32.513  1.00  0.00     0.037 A 
BRANCH  26  40
ATOM     40  C   UNL A   1      46.078  28.318  31.326  1.00  0.00     0.058 A 
ATOM     41  C   UNL A   1      47.092  28.510  30.401  1.00  0.00     0.135 A 
ATOM     42  C   UNL A   1      46.221  27.469  32.337  1.00  0.00     0.135 A 
ATOM     43  F   UNL A   1      47.099  29.518  29.533  1.00  0.00    -0.206 F 
ATOM     44  C   UNL A   1      48.117  27.537  30.465  1.00  0.00     0.059 A 
ATOM     45  C   UNL A   1      47.316  26.644  32.409  1.00  0.00     0.059 A 
ATOM     46  F   UNL A   1      45.293  27.418  33.290  1.00  0.00    -0.206 F 
ATOM     47  C   UNL A   1      48.328  26.738  31.495  1.00  0.00     0.060 A 
BRANCH  47  48
ATOM     48  S   UNL A   1      49.874  25.815  31.684  1.00  0.00     0.124 S 
ATOM     49  O   UNL A   1      50.207  25.103  30.371  1.00  0.00    -0.237 OA
ATOM     50  O   UNL A   1      51.005  26.782  32.042  1.00  0.00    -0.237 OA
ATOM     51  O   UNL A   1      49.697  24.658  32.931  1.00  0.00    -0.744 OA
ENDBRANCH  47  48
ENDBRANCH  26  40
BRANCH  27  52
ATOM     52  C   UNL A   1      37.231  32.657  30.021  1.00  0.00     0.058 A 
ATOM     53  C   UNL A   1      36.126  32.414  30.820  1.00  0.00     0.135 A 
ATOM     54  C   UNL A   1      37.195  33.561  29.050  1.00  0.00     0.135 A 
ATOM     55  F   UNL A   1      36.185  31.714  31.949  1.00  0.00    -0.206 F 
ATOM     56  C   UNL A   1      34.926  32.977  30.324  1.00  0.00     0.059 A 
ATOM     57  C   UNL A   1      36.013  34.173  28.709  1.00  0.00     0.059 A 
ATOM     58  F   UNL A   1      38.312  33.878  28.402  1.00  0.00    -0.206 F 
ATOM     59  C   UNL A   1      34.868  33.936  29.417  1.00  0.00     0.060 A 
BRANCH  59  60
ATOM     60  S   UNL A   1      33.353  34.884  29.127  1.00  0.00     0.124 S 
ATOM     61  O   UNL A   1      32.554  34.979  30.429  1.00  0.00    -0.237 OA
ATOM     62  O   UNL A   1      33.715  36.291  28.648  1.00  0.00    -0.237 OA
ATOM     63  O   UNL A   1      32.410  34.100  27.936  1.00  0.00    -0.744 OA
ENDBRANCH  59  60
ENDBRANCH  27  52
BRANCH  39  64
ATOM     64  C   UNL A   1      43.185  34.394  33.317  1.00  0.00     0.058 A 
ATOM     65  C   UNL A   1      43.796  35.466  32.689  1.00  0.00     0.135 A 
ATOM     66  C   UNL A   1      42.929  34.414  34.621  1.00  0.00     0.135 A 
ATOM     67  F   UNL A   1      43.844  35.601  31.366  1.00  0.00    -0.206 F 
ATOM     68  C   UNL A   1      44.366  36.404  33.581  1.00  0.00     0.059 A 
ATOM     69  C   UNL A   1      43.402  35.434  35.410  1.00  0.00     0.059 A 
ATOM     70  F   UNL A   1      42.208  33.439  35.166  1.00  0.00    -0.206 F 
ATOM     71  C   UNL A   1      44.067  36.496  34.864  1.00  0.00     0.060 A 
BRANCH  71  72
ATOM     72  S   UNL A   1      44.512  37.951  35.846  1.00  0.00     0.124 S 
ATOM     73  O   UNL A   1      43.842  39.191  35.251  1.00  0.00    -0.237 OA
ATOM     74  O   UNL A   1      44.038  37.757  37.288  1.00  0.00    -0.237 OA
ATOM     75  O   UNL A   1      46.210  38.154  35.825  1.00  0.00    -0.744 OA
ENDBRANCH  71  72
ENDBRANCH  39  64
ENDBRANCH  13  14
ENDBRANCH   6   8
ENDBRANCH   3   4
ENDBRANCH   2   3
ENDBRANCH   1   2
BRANCH   1  76
ATOM     76  C   UNL A   1      33.074  22.913  25.778  1.00  0.00     0.002 C 
BRANCH  76  77
ATOM     77  C   UNL A   1      33.107  22.754  24.267  1.00  0.00     0.021 C 
BRANCH  77  78
ATOM     78  C   UNL A   1      32.135  23.735  23.633  1.00  0.00     0.116 C 
BRANCH  78  79
ATOM     79  N   UNL A   1      32.777  24.387  22.482  1.00  0.00    -0.352 N 
ATOM     80  C   UNL A   1      33.182  25.798  22.568  1.00  0.00     0.253 C 
ATOM     81  H   UNL A   1      32.935  23.879  21.654  1.00  0.00     0.163 HD
ATOM     82  O   UNL A   1      33.737  26.362  21.575  1.00  0.00    -0.269 OA
BRANCH  80  83
ATOM     83  C   UNL A   1      32.938  26.581  23.848  1.00  0.00     0.063 A 
ATOM     84  C   UNL A   1      33.932  26.634  24.812  1.00  0.00     0.016 A 
ATOM     85  C   UNL A   1      31.777  27.203  24.021  1.00  0.00     0.051 A 
ATOM     86  C   UNL A   1      33.494  27.134  26.060  1.00  0.00     0.001 A 
ATOM     87  C   UNL A   1      31.470  27.787  25.226  1.00  0.00     0.027 A 
ATOM     88  C   UNL A   1      32.383  27.825  26.243  1.00  0.00     0.002 A 
BRANCH  85  89
ATOM     89  N   UNL A   1      30.813  27.265  22.913  1.00  0.00    -0.355 N 
ATOM     90  H   UNL A   1      31.019  26.828  22.056  1.00  0.00     0.167 HD
BRANCH  89  91
ATOM     91  C   UNL A   1      29.541  27.981  23.087  1.00  0.00     0.040 A 
ATOM     92  C   UNL A   1      28.352  27.366  23.444  1.00  0.00     0.026 A 
ATOM     93  C   UNL A   1      29.624  29.301  22.968  1.00  0.00     0.050 A 
ATOM     94  C   UNL A   1      27.223  28.215  23.372  1.00  0.00     0.004 A 
ATOM     95  C   UNL A   1      28.497  30.083  23.044  1.00  0.00     0.109 A 
ATOM     96  C   UNL A   1      27.279  29.534  23.334  1.00  0.00     0.024 A 
BRANCH  95  97
ATOM     97  S   UNL A   1      28.627  31.864  22.756  1.00  0.00     0.310 S 
ATOM     98  F   UNL A   1      27.216  32.183  23.407  1.00  0.00    -0.094 F 
ATOM     99  F   UNL A   1      27.874  31.681  21.383  1.00  0.00    -0.094 F 
ATOM    100  F   UNL A   1      28.783  33.390  22.497  1.00  0.00    -0.094 F 
ATOM    101  F   UNL A   1      29.251  32.053  24.194  1.00  0.00    -0.094 F 
ATOM    102  F   UNL A   1      28.374  30.338  23.081  1.00  0.00    -0.094 F 
ENDBRANCH  95  97
ENDBRANCH  89  91
ENDBRANCH  85  89
ENDBRANCH  80  83
ENDBRANCH  78  79
ENDBRANCH  77  78
ENDBRANCH  76  77
ENDBRANCH   1  76
TORSDOF 19
ENDMDL
MODEL 2
REMARK VINA RESULT:     -12.3      5.627     10.531
REMARK SMILES O=C(NCCCCCCNC(=O)c1ccccc1Nc1cccc(S(F)(F)(F)(F)F)c1)c1ccc(-c2c3nc(c(-c4c(F)cc(S(=O)(=O)[O-])cc4F)c4ccc([nH]4)c(-c4c(F)cc(S(=O)(=O)[O-])cc4F)c4nc(c(-c5c(F)cc(S(=O)(=O)[O-])cc5F)c5ccc2[nH]5)C=C4)C=C3)cc1
REMARK SMILES IDX 6 1 5 2 4 3 3 4 1 5 2 6 32 8 33 9 97 10 34 11 96 12 35 13
REMARK SMILES IDX 36 14 37 15 90 16 38 17 95 18 89 19 91 20 39 21 94 22 88 23
REMARK SMILES IDX 87 24 40 26 74 27 53 28 73 29 54 30 57 31 72 32 92 33 55 34
REMARK SMILES IDX 56 35 71 37 93 38 58 39 41 40 42 41 51 42 43 43 44 44 50 45
REMARK SMILES IDX 52 46 45 47 46 48 47 49 48 50 49 51 75 52 76 53 85 54 77 55
REMARK SMILES IDX 78 56 84 57 86 58 79 59 80 60 81 61 82 62 83 63 59 64 60 65
REMARK SMILES IDX 69 66 61 67 62 68 68 69 70 70 63 71 64 72 65 73 66 74 67 75
REMARK SMILES IDX 7 76 8 77 9 78 10 79 11 80 12 82 13 83 14 84 18 85 15 86
REMARK SMILES IDX 17 87 16 88 19 89 20 91 21 92 31 93 22 94 24 95 23 96 25 97
REMARK SMILES IDX 26 98 27 99 28 100 29 101 30 102
REMARK H PARENT 3 7 91 25 57 36 10 81 19 90
REMARK Flexibility Score: inf
ROOT
ATOM      1  C   UNL A   1      37.616  21.017  24.602  1.00  0.00     0.002 C 
ENDROOT
BRANCH   1   2
ATOM      2  C   UNL A   1      38.270  19.748  25.126  1.00  0.00     0.021 C 
BRANCH   2   3
ATOM      3  C   UNL A   1      39.539  20.107  25.881  1.00  0.00     0.116 C 
BRANCH   3   4
ATOM      4  N   UNL A   1      40.428  18.937  25.929  1.00  0.00    -0.352 N 
ATOM      5  O   UNL A   1      42.627  18.100  26.259  1.00  0.00    -0.269 OA
ATOM      6  C   UNL A   1      41.859  19.112  26.218  1.00  0.00     0.251 C 
ATOM      7  H   UNL A   1      40.065  18.036  25.767  1.00  0.00     0.163 HD
BRANCH   6   8
ATOM      8  C   UNL A   1      42.419  20.502  26.469  1.00  0.00     0.039 A 
ATOM      9  C   UNL A   1      42.947  21.241  25.424  1.00  0.00     0.014 A 
ATOM     10  C   UNL A   1      42.329  21.007  27.694  1.00  0.00     0.014 A 
ATOM     11  C   UNL A   1      43.624  22.414  25.835  1.00  0.00     0.010 A 
ATOM     12  C   UNL A   1      42.899  22.221  27.993  1.00  0.00     0.010 A 
ATOM     13  C   UNL A   1      43.488  22.980  27.021  1.00  0.00    -0.014 A 
BRANCH  13  14
ATOM     14  C   UNL A   1      43.964  24.399  27.290  1.00  0.00     0.031 A 
ATOM     15  C   UNL A   1      42.991  25.340  27.631  1.00  0.00     0.074 A 
ATOM     16  C   UNL A   1      45.304  24.698  27.116  1.00  0.00     0.049 A 
ATOM     17  N   UNL A   1      43.168  26.638  27.879  1.00  0.00    -0.248 NA
ATOM     18  C   UNL A   1      41.562  25.029  27.782  1.00  0.00     0.031 C 
ATOM     19  C   UNL A   1      46.293  23.753  26.779  1.00  0.00     0.029 A 
ATOM     20  N   UNL A   1      45.917  25.927  27.231  1.00  0.00    -0.354 N 
ATOM     21  C   UNL A   1      42.002  27.210  28.192  1.00  0.00     0.074 A 
ATOM     22  C   UNL A   1      40.952  26.185  28.128  1.00  0.00     0.031 C 
ATOM     23  C   UNL A   1      47.482  24.404  26.682  1.00  0.00     0.029 A 
ATOM     24  C   UNL A   1      47.257  25.766  26.957  1.00  0.00     0.049 A 
ATOM     25  H   UNL A   1      45.474  26.773  27.470  1.00  0.00     0.167 HD
ATOM     26  C   UNL A   1      41.776  28.545  28.530  1.00  0.00     0.037 A 
ATOM     27  C   UNL A   1      48.242  26.740  26.939  1.00  0.00     0.037 A 
ATOM     28  C   UNL A   1      42.769  29.511  28.555  1.00  0.00     0.049 A 
ATOM     29  C   UNL A   1      48.006  28.088  27.221  1.00  0.00     0.074 A 
ATOM     30  C   UNL A   1      42.558  30.859  28.900  1.00  0.00     0.029 A 
ATOM     31  N   UNL A   1      44.104  29.355  28.256  1.00  0.00    -0.354 N 
ATOM     32  N   UNL A   1      46.848  28.651  27.572  1.00  0.00    -0.248 NA
ATOM     33  C   UNL A   1      49.034  29.135  27.173  1.00  0.00     0.031 C 
ATOM     34  C   UNL A   1      43.749  31.510  28.803  1.00  0.00     0.029 A 
ATOM     35  C   UNL A   1      44.721  30.579  28.393  1.00  0.00     0.049 A 
ATOM     36  H   UNL A   1      44.543  28.514  27.990  1.00  0.00     0.167 HD
ATOM     37  C   UNL A   1      47.017  29.959  27.779  1.00  0.00     0.074 A 
ATOM     38  C   UNL A   1      48.424  30.290  27.518  1.00  0.00     0.031 C 
ATOM     39  C   UNL A   1      46.055  30.888  28.177  1.00  0.00     0.037 A 
BRANCH  26  40
ATOM     40  C   UNL A   1      40.359  28.962  28.891  1.00  0.00     0.058 A 
ATOM     41  C   UNL A   1      39.494  29.426  27.913  1.00  0.00     0.135 A 
ATOM     42  C   UNL A   1      40.024  28.987  30.176  1.00  0.00     0.135 A 
ATOM     43  F   UNL A   1      39.673  29.192  26.617  1.00  0.00    -0.206 F 
ATOM     44  C   UNL A   1      38.404  30.172  28.422  1.00  0.00     0.059 A 
ATOM     45  C   UNL A   1      38.875  29.616  30.587  1.00  0.00     0.059 A 
ATOM     46  F   UNL A   1      40.810  28.398  31.073  1.00  0.00    -0.206 F 
ATOM     47  C   UNL A   1      38.002  30.151  29.679  1.00  0.00     0.060 A 
BRANCH  47  48
ATOM     48  S   UNL A   1      36.384  30.794  30.175  1.00  0.00     0.124 S 
ATOM     49  O   UNL A   1      36.455  32.319  30.286  1.00  0.00    -0.237 OA
ATOM     50  O   UNL A   1      35.338  30.406  29.129  1.00  0.00    -0.237 OA
ATOM     51  O   UNL A   1      35.949  30.132  31.691  1.00  0.00    -0.744 OA
ENDBRANCH  47  48
ENDBRANCH  26  40
BRANCH  27  52
ATOM     52  C   UNL A   1      49.662  26.319  26.595  1.00  0.00     0.058 A 
ATOM     53  C   UNL A   1      50.537  25.754  27.506  1.00  0.00     0.135 A 
ATOM     54  C   UNL A   1      49.990  26.451  25.314  1.00  0.00     0.135 A 
ATOM     55  F   UNL A   1      50.169  25.373  28.726  1.00  0.00    -0.206 F 
ATOM     56  C   UNL A   1      51.860  25.620  27.023  1.00  0.00     0.059 A 
ATOM     57  C   UNL A   1      51.265  26.171  24.888  1.00  0.00     0.059 A 
ATOM     58  F   UNL A   1      49.075  26.857  24.438  1.00  0.00    -0.206 F 
ATOM     59  C   UNL A   1      52.200  25.665  25.748  1.00  0.00     0.060 A 
BRANCH  59  60
ATOM     60  S   UNL A   1      53.816  25.090  25.169  1.00  0.00     0.124 S 
ATOM     61  O   UNL A   1      53.772  23.574  24.959  1.00  0.00    -0.237 OA
ATOM     62  O   UNL A   1      54.160  25.778  23.847  1.00  0.00    -0.237 OA
ATOM     63  O   UNL A   1      55.006  25.469  26.337  1.00  0.00    -0.744 OA
ENDBRANCH  59  60
ENDBRANCH  27  52
BRANCH  39  64
ATOM     64  C   UNL A   1      46.498  32.327  28.388  1.00  0.00     0.058 A 
ATOM     65  C   UNL A   1      47.026  32.733  29.602  1.00  0.00     0.135 A 
ATOM     66  C   UNL A   1      46.441  33.155  27.350  1.00  0.00     0.135 A 
ATOM     67  F   UNL A   1      47.334  31.883  30.578  1.00  0.00    -0.206 F 
ATOM     68  C   UNL A   1      47.207  34.131  29.710  1.00  0.00     0.059 A 
ATOM     69  C   UNL A   1      46.764  34.482  27.497  1.00  0.00     0.059 A 
ATOM     70  F   UNL A   1      46.070  32.695  26.159  1.00  0.00    -0.206 F 
ATOM     71  C   UNL A   1      47.236  34.965  28.686  1.00  0.00     0.060 A 
BRANCH  71  72
ATOM     72  S   UNL A   1      47.868  36.654  28.847  1.00  0.00     0.124 S 
ATOM     73  O   UNL A   1      46.826  37.521  29.558  1.00  0.00    -0.237 OA
ATOM     74  O   UNL A   1      49.162  36.638  29.664  1.00  0.00    -0.237 OA
ATOM     75  O   UNL A   1      48.181  37.296  27.294  1.00  0.00    -0.744 OA
ENDBRANCH  71  72
ENDBRANCH  39  64
ENDBRANCH  13  14
ENDBRANCH   6   8
ENDBRANCH   3   4
ENDBRANCH   2   3
ENDBRANCH   1   2
BRANCH   1  76
ATOM     76  C   UNL A   1      36.108  20.909  24.756  1.00  0.00     0.002 C 
BRANCH  76  77
ATOM     77  C   UNL A   1      35.462  22.216  24.328  1.00  0.00     0.021 C 
BRANCH  77  78
ATOM     78  C   UNL A   1      35.770  23.294  25.354  1.00  0.00     0.116 C 
BRANCH  78  79
ATOM     79  N   UNL A   1      35.410  22.812  26.696  1.00  0.00    -0.352 N 
ATOM     80  C   UNL A   1      34.020  22.906  27.163  1.00  0.00     0.253 C 
ATOM     81  H   UNL A   1      36.101  22.426  27.280  1.00  0.00     0.163 HD
ATOM     82  O   UNL A   1      33.709  22.489  28.322  1.00  0.00    -0.269 OA
BRANCH  80  83
ATOM     83  C   UNL A   1      32.953  23.502  26.258  1.00  0.00     0.063 A 
ATOM     84  C   UNL A   1      33.010  24.848  25.936  1.00  0.00     0.016 A 
ATOM     85  C   UNL A   1      31.985  22.722  25.791  1.00  0.00     0.051 A 
ATOM     86  C   UNL A   1      31.826  25.345  25.341  1.00  0.00     0.001 A 
ATOM     87  C   UNL A   1      30.926  23.260  25.101  1.00  0.00     0.027 A 
ATOM     88  C   UNL A   1      30.887  24.592  24.798  1.00  0.00     0.002 A 
BRANCH  85  89
ATOM     89  N   UNL A   1      32.047  21.270  26.016  1.00  0.00    -0.355 N 
ATOM     90  H   UNL A   1      31.880  20.903  26.913  1.00  0.00     0.167 HD
BRANCH  89  91
ATOM     91  C   UNL A   1      32.360  20.367  24.898  1.00  0.00     0.040 A 
ATOM     92  C   UNL A   1      32.128  20.677  23.569  1.00  0.00     0.026 A 
ATOM     93  C   UNL A   1      32.981  19.246  25.245  1.00  0.00     0.050 A 
ATOM     94  C   UNL A   1      32.333  19.594  22.683  1.00  0.00     0.004 A 
ATOM     95  C   UNL A   1      33.273  18.288  24.305  1.00  0.00     0.109 A 
ATOM     96  C   UNL A   1      33.016  18.503  22.979  1.00  0.00     0.024 A 
BRANCH  95  97
ATOM     97  S   UNL A   1      34.008  16.720  24.828  1.00  0.00     0.310 S 
ATOM     98  F   UNL A   1      34.117  16.152  23.352  1.00  0.00    -0.094 F 
ATOM     99  F   UNL A   1      32.568  16.084  24.893  1.00  0.00    -0.094 F 
ATOM    100  F   UNL A   1      34.646  15.390  25.321  1.00  0.00    -0.094 F 
ATOM    101  F   UNL A   1      35.452  17.327  24.623  1.00  0.00    -0.094 F 
ATOM    102  F   UNL A   1      33.383  18.038  24.220  1.00  0.00    -0.094 F 
ENDBRANCH  95  97
ENDBRANCH  89  91
ENDBRANCH  85  89
ENDBRANCH  80  83
ENDBRANCH  78  79
ENDBRANCH  77  78
ENDBRANCH  76  77
ENDBRANCH   1  76
TORSDOF 19
ENDMDL
MODEL 3
REMARK VINA RESULT:     -12.2      4.120      9.676
REMARK SMILES O=C(NCCCCCCNC(=O)c1ccccc1Nc1cccc(S(F)(F)(F)(F)F)c1)c1ccc(-c2c3nc(c(-c4c(F)cc(S(=O)(=O)[O-])cc4F)c4ccc([nH]4)c(-c4c(F)cc(S(=O)(=O)[O-])cc4F)c4nc(c(-c5c(F)cc(S(=O)(=O)[O-])cc5F)c5ccc2[nH]5)C=C4)C=C3)cc1
REMARK SMILES IDX 6 1 5 2 4 3 3 4 1 5 2 6 32 8 33 9 97 10 34 11 96 12 35 13
REMARK SMILES IDX 36 14 37 15 90 16 38 17 95 18 89 19 91 20 39 21 94 22 88 23
REMARK SMILES IDX 87 24 40 26 74 27 53 28 73 29 54 30 57 31 72 32 92 33 55 34
REMARK SMILES IDX 56 35 71 37 93 38 58 39 41 40 42 41 51 42 43 43 44 44 50 45
REMARK SMILES IDX 52 46 45 47 46 48 47 49 48 50 49 51 75 52 76 53 85 54 77 55
REMARK SMILES IDX 78 56 84 57 86 58 79 59 80 60 81 61 82 62 83 63 59 64 60 65
REMARK SMILES IDX 69 66 61 67 62 68 68 69 70 70 63 71 64 72 65 73 66 74 67 75
REMARK SMILES IDX 7 76 8 77 9 78 10 79 11 80 12 82 13 83 14 84 18 85 15 86
REMARK SMILES IDX 17 87 16 88 19 89 20 91 21 92 31 93 22 94 24 95 23 96 25 97
REMARK SMILES IDX 26 98 27 99 28 100 29 101 30 102
REMARK H PARENT 3 7 91 25 57 36 10 81 19 90
REMARK Flexibility Score: inf
ROOT
ATOM      1  C   UNL A   1      31.859  28.581  25.635  1.00  0.00     0.002 C 
ENDROOT
BRANCH   1   2
ATOM      2  C   UNL A   1      33.210  27.886  25.630  1.00  0.00     0.021 C 
BRANCH   2   3
ATOM      3  C   UNL A   1      34.007  28.318  26.850  1.00  0.00     0.116 C 
BRANCH   3   4
ATOM      4  N   UNL A   1      33.520  29.624  27.316  1.00  0.00    -0.352 N 
ATOM      5  O   UNL A   1      34.003  31.660  28.442  1.00  0.00    -0.269 OA
ATOM      6  C   UNL A   1      34.424  30.530  28.040  1.00  0.00     0.251 C 
ATOM      7  H   UNL A   1      32.589  29.893  27.143  1.00  0.00     0.163 HD
BRANCH   6   8
ATOM      8  C   UNL A   1      35.862  30.116  28.307  1.00  0.00     0.039 A 
ATOM      9  C   UNL A   1      36.838  30.322  27.347  1.00  0.00     0.014 A 
ATOM     10  C   UNL A   1      36.163  29.616  29.500  1.00  0.00     0.014 A 
ATOM     11  C   UNL A   1      38.073  29.696  27.641  1.00  0.00     0.010 A 
ATOM     12  C   UNL A   1      37.427  29.146  29.761  1.00  0.00     0.010 A 
ATOM     13  C   UNL A   1      38.427  29.264  28.837  1.00  0.00    -0.014 A 
BRANCH  13  14
ATOM     14  C   UNL A   1      39.870  28.916  29.168  1.00  0.00     0.031 A 
ATOM     15  C   UNL A   1      40.635  29.905  29.787  1.00  0.00     0.074 A 
ATOM     16  C   UNL A   1      40.364  27.682  28.782  1.00  0.00     0.049 A 
ATOM     17  N   UNL A   1      41.920  29.838  30.140  1.00  0.00    -0.248 NA
ATOM     18  C   UNL A   1      40.119  31.229  30.167  1.00  0.00     0.031 C 
ATOM     19  C   UNL A   1      39.596  26.675  28.164  1.00  0.00     0.029 A 
ATOM     20  N   UNL A   1      41.651  27.208  28.916  1.00  0.00    -0.354 N 
ATOM     21  C   UNL A   1      42.296  30.976  30.726  1.00  0.00     0.074 A 
ATOM     22  C   UNL A   1      41.146  31.889  30.746  1.00  0.00     0.031 C 
ATOM     23  C   UNL A   1      40.410  25.615  27.920  1.00  0.00     0.029 A 
ATOM     24  C   UNL A   1      41.700  25.940  28.381  1.00  0.00     0.049 A 
ATOM     25  H   UNL A   1      42.404  27.692  29.325  1.00  0.00     0.167 HD
ATOM     26  C   UNL A   1      43.554  31.287  31.246  1.00  0.00     0.037 A 
ATOM     27  C   UNL A   1      42.799  25.101  28.287  1.00  0.00     0.037 A 
ATOM     28  C   UNL A   1      44.642  30.430  31.192  1.00  0.00     0.049 A 
ATOM     29  C   UNL A   1      44.072  25.434  28.756  1.00  0.00     0.074 A 
ATOM     30  C   UNL A   1      45.913  30.726  31.718  1.00  0.00     0.029 A 
ATOM     31  N   UNL A   1      44.697  29.173  30.634  1.00  0.00    -0.354 N 
ATOM     32  N   UNL A   1      44.438  26.556  29.376  1.00  0.00    -0.248 NA
ATOM     33  C   UNL A   1      45.250  24.566  28.633  1.00  0.00     0.031 C 
ATOM     34  C   UNL A   1      46.728  29.664  31.473  1.00  0.00     0.029 A 
ATOM     35  C   UNL A   1      45.978  28.690  30.788  1.00  0.00     0.049 A 
ATOM     36  H   UNL A   1      43.950  28.700  30.199  1.00  0.00     0.167 HD
ATOM     37  C   UNL A   1      45.734  26.506  29.692  1.00  0.00     0.074 A 
ATOM     38  C   UNL A   1      46.277  25.227  29.211  1.00  0.00     0.031 C 
ATOM     39  C   UNL A   1      46.485  27.472  30.363  1.00  0.00     0.037 A 
BRANCH  26  40
ATOM     40  C   UNL A   1      43.740  32.642  31.909  1.00  0.00     0.058 A 
ATOM     41  C   UNL A   1      43.508  32.799  33.265  1.00  0.00     0.135 A 
ATOM     42  C   UNL A   1      44.005  33.686  31.130  1.00  0.00     0.135 A 
ATOM     43  F   UNL A   1      43.491  31.781  34.120  1.00  0.00    -0.206 F 
ATOM     44  C   UNL A   1      43.290  34.142  33.657  1.00  0.00     0.059 A 
ATOM     45  C   UNL A   1      43.905  34.966  31.618  1.00  0.00     0.059 A 
ATOM     46  F   UNL A   1      44.372  33.488  29.867  1.00  0.00    -0.206 F 
ATOM     47  C   UNL A   1      43.620  35.196  32.935  1.00  0.00     0.060 A 
BRANCH  47  48
ATOM     48  S   UNL A   1      43.689  36.858  33.650  1.00  0.00     0.124 S 
ATOM     49  O   UNL A   1      42.414  37.121  34.454  1.00  0.00    -0.237 OA
ATOM     50  O   UNL A   1      44.905  36.966  34.572  1.00  0.00    -0.237 OA
ATOM     51  O   UNL A   1      43.821  38.013  32.395  1.00  0.00    -0.744 OA
ENDBRANCH  47  48
ENDBRANCH  26  40
BRANCH  27  52
ATOM     52  C   UNL A   1      42.607  23.738  27.639  1.00  0.00     0.058 A 
ATOM     53  C   UNL A   1      42.697  23.518  26.275  1.00  0.00     0.135 A 
ATOM     54  C   UNL A   1      42.430  22.734  28.490  1.00  0.00     0.135 A 
ATOM     55  F   UNL A   1      43.120  24.442  25.416  1.00  0.00    -0.206 F 
ATOM     56  C   UNL A   1      42.294  22.221  25.877  1.00  0.00     0.059 A 
ATOM     57  C   UNL A   1      42.177  21.465  28.029  1.00  0.00     0.059 A 
ATOM     58  F   UNL A   1      42.500  22.958  29.799  1.00  0.00    -0.206 F 
ATOM     59  C   UNL A   1      42.190  21.187  26.691  1.00  0.00     0.060 A 
BRANCH  59  60
ATOM     60  S   UNL A   1      42.072  19.491  26.067  1.00  0.00     0.124 S 
ATOM     61  O   UNL A   1      40.614  19.175  25.725  1.00  0.00    -0.237 OA
ATOM     62  O   UNL A   1      42.933  19.347  24.811  1.00  0.00    -0.237 OA
ATOM     63  O   UNL A   1      42.624  18.404  27.265  1.00  0.00    -0.744 OA
ENDBRANCH  59  60
ENDBRANCH  27  52
BRANCH  39  64
ATOM     64  C   UNL A   1      47.948  27.170  30.645  1.00  0.00     0.058 A 
ATOM     65  C   UNL A   1      48.318  26.477  31.786  1.00  0.00     0.135 A 
ATOM     66  C   UNL A   1      48.844  27.514  29.726  1.00  0.00     0.135 A 
ATOM     67  F   UNL A   1      47.439  25.896  32.598  1.00  0.00    -0.206 F 
ATOM     68  C   UNL A   1      49.714  26.444  32.008  1.00  0.00     0.059 A 
ATOM     69  C   UNL A   1      50.186  27.327  29.955  1.00  0.00     0.059 A 
ATOM     70  F   UNL A   1      48.439  28.042  28.576  1.00  0.00    -0.206 F 
ATOM     71  C   UNL A   1      50.627  26.703  31.089  1.00  0.00     0.060 A 
BRANCH  71  72
ATOM     72  S   UNL A   1      52.366  26.254  31.317  1.00  0.00     0.124 S 
ATOM     73  O   UNL A   1      53.029  27.253  32.268  1.00  0.00    -0.237 OA
ATOM     74  O   UNL A   1      52.456  24.847  31.911  1.00  0.00    -0.237 OA
ATOM     75  O   UNL A   1      53.166  26.288  29.806  1.00  0.00    -0.744 OA
ENDBRANCH  71  72
ENDBRANCH  39  64
ENDBRANCH  13  14
ENDBRANCH   6   8
ENDBRANCH   3   4
ENDBRANCH   2   3
ENDBRANCH   1   2
BRANCH   1  76
ATOM     76  C   UNL A   1      31.535  29.071  24.234  1.00  0.00     0.002 C 
BRANCH  76  77
ATOM     77  C   UNL A   1      32.312  28.248  23.219  1.00  0.00     0.021 C 
BRANCH  77  78
ATOM     78  C   UNL A   1      31.341  27.454  22.360  1.00  0.00     0.116 C 
BRANCH  78  79
ATOM     79  N   UNL A   1      32.081  26.442  21.592  1.00  0.00    -0.352 N 
ATOM     80  C   UNL A   1      32.416  25.150  22.209  1.00  0.00     0.253 C 
ATOM     81  H   UNL A   1      32.350  26.629  20.664  1.00  0.00     0.163 HD
ATOM     82  O   UNL A   1      33.054  24.275  21.546  1.00  0.00    -0.269 OA
BRANCH  80  83
ATOM     83  C   UNL A   1      31.997  24.862  23.643  1.00  0.00     0.063 A 
ATOM     84  C   UNL A   1      30.663  24.981  23.997  1.00  0.00     0.016 A 
ATOM     85  C   UNL A   1      32.916  24.499  24.530  1.00  0.00     0.051 A 
ATOM     86  C   UNL A   1      30.440  24.976  25.394  1.00  0.00     0.001 A 
ATOM     87  C   UNL A   1      32.596  24.382  25.860  1.00  0.00     0.027 A 
ATOM     88  C   UNL A   1      31.308  24.545  26.291  1.00  0.00     0.002 A 
BRANCH  85  89
ATOM     89  N   UNL A   1      34.289  24.221  24.083  1.00  0.00    -0.355 N 
ATOM     90  H   UNL A   1      34.794  24.906  23.588  1.00  0.00     0.167 HD
BRANCH  89  91
ATOM     91  C   UNL A   1      34.907  22.919  24.375  1.00  0.00     0.040 A 
ATOM     92  C   UNL A   1      36.272  22.724  24.496  1.00  0.00     0.026 A 
ATOM     93  C   UNL A   1      34.047  21.936  24.612  1.00  0.00     0.050 A 
ATOM     94  C   UNL A   1      36.651  21.364  24.594  1.00  0.00     0.004 A 
ATOM     95  C   UNL A   1      34.492  20.655  24.834  1.00  0.00     0.109 A 
ATOM     96  C   UNL A   1      35.829  20.379  24.907  1.00  0.00     0.024 A 
BRANCH  95  97
ATOM     97  S   UNL A   1      33.292  19.316  25.033  1.00  0.00     0.310 S 
ATOM     98  F   UNL A   1      32.056  20.213  24.607  1.00  0.00    -0.094 F 
ATOM     99  F   UNL A   1      33.036  19.787  26.515  1.00  0.00    -0.094 F 
ATOM    100  F   UNL A   1      32.296  18.134  25.208  1.00  0.00    -0.094 F 
ATOM    101  F   UNL A   1      33.454  18.943  23.507  1.00  0.00    -0.094 F 
ATOM    102  F   UNL A   1      34.218  20.577  24.809  1.00  0.00    -0.094 F 
ENDBRANCH  95  97
ENDBRANCH  89  91
ENDBRANCH  85  89
ENDBRANCH  80  83
ENDBRANCH  78  79
ENDBRANCH  77  78
ENDBRANCH  76  77
ENDBRANCH   1  76
TORSDOF 19
ENDMDL
