MODEL 1
REMARK VINA RESULT:      -8.6      0.000      0.000
REMARK SMILES CCC[C@@H](Oc1ccc(-c2ccccc2)cc1)C(=O)NCCCCCCNC(=O)c1ccc(-c2c3nc(c(-c4c(F)cc(S(=O)(=O)[O-])cc4F)c4ccc([nH]4)c(-c4c(F)cc(S(=O)(=O)[O-])cc4F)c4nc(c(-c5c(F)cc(S(=O)(=O)[O-])cc5F)c5ccc2[nH]5)C=C4)C=C3)cc1
REMARK SMILES IDX 23 1 22 2 21 3 20 4 18 5 19 6 4 8 3 9 2 10 1 11 5 12 6 13
REMARK SMILES IDX 7 14 17 15 8 16 16 17 9 18 10 19 11 20 15 21 12 22 14 23
REMARK SMILES IDX 13 24 24 25 25 26 26 27 27 28 28 29 29 31 30 32 31 33 95 34
REMARK SMILES IDX 32 35 94 36 33 37 34 38 35 39 88 40 36 41 93 42 87 43 89 44
REMARK SMILES IDX 37 45 92 46 86 47 85 48 38 50 72 51 51 52 71 53 52 54 55 55
REMARK SMILES IDX 70 56 90 57 53 58 54 59 69 61 91 62 56 63 39 64 40 65 49 66
REMARK SMILES IDX 41 67 42 68 48 69 50 70 43 71 44 72 45 73 46 74 47 75 73 76
REMARK SMILES IDX 74 77 83 78 75 79 76 80 82 81 84 82 77 83 78 84 79 85 80 86
REMARK SMILES IDX 81 87 57 88 58 89 67 90 59 91 60 92 66 93 68 94 61 95 62 96
REMARK SMILES IDX 63 97 64 98 65 99
REMARK H PARENT 20 7 27 30 89 49 55 60
REMARK Flexibility Score: inf
ROOT
ATOM      1  C   UNL A   1      34.783  33.704  30.729  1.00  0.00     0.002 C 
ENDROOT
BRANCH   1   2
ATOM      2  C   UNL A   1      36.296  33.509  30.621  1.00  0.00     0.021 C 
BRANCH   2   3
ATOM      3  C   UNL A   1      36.847  32.426  31.543  1.00  0.00     0.116 C 
BRANCH   3   4
ATOM      4  N   UNL A   1      36.518  32.690  32.936  1.00  0.00    -0.353 N 
ATOM      5  C   UNL A   1      37.315  32.602  34.047  1.00  0.00     0.261 C 
ATOM      6  O   UNL A   1      36.821  32.883  35.144  1.00  0.00    -0.271 OA
ATOM      7  H   UNL A   1      35.590  32.972  33.104  1.00  0.00     0.163 HD
BRANCH   5   8
ATOM      8  C   UNL A   1      38.765  32.094  33.929  1.00  0.00     0.261 C 
BRANCH   8   9
ATOM      9  C   UNL A   1      39.687  33.335  34.019  1.00  0.00     0.055 C 
BRANCH   9  10
ATOM     10  C   UNL A   1      39.335  34.588  33.204  1.00  0.00     0.001 C 
ATOM     11  C   UNL A   1      39.785  34.580  31.757  1.00  0.00     0.004 C 
ENDBRANCH   9  10
ENDBRANCH   8   9
BRANCH   8  12
ATOM     12  O   UNL A   1      38.846  31.108  34.972  1.00  0.00    -0.481 OA
BRANCH  12  13
ATOM     13  C   UNL A   1      39.750  30.118  34.775  1.00  0.00     0.120 A 
ATOM     14  C   UNL A   1      40.633  29.772  35.787  1.00  0.00     0.047 A 
ATOM     15  C   UNL A   1      39.885  29.573  33.510  1.00  0.00     0.047 A 
ATOM     16  C   UNL A   1      41.592  28.781  35.550  1.00  0.00     0.012 A 
ATOM     17  C   UNL A   1      40.798  28.546  33.294  1.00  0.00     0.012 A 
ATOM     18  C   UNL A   1      41.668  28.115  34.311  1.00  0.00    -0.018 A 
BRANCH  18  19
ATOM     19  C   UNL A   1      42.609  26.999  34.072  1.00  0.00    -0.018 A 
ATOM     20  C   UNL A   1      43.540  27.038  33.019  1.00  0.00     0.009 A 
ATOM     21  C   UNL A   1      42.638  25.873  34.917  1.00  0.00     0.009 A 
ATOM     22  C   UNL A   1      44.459  26.002  32.823  1.00  0.00     0.001 A 
ATOM     23  C   UNL A   1      43.565  24.845  34.732  1.00  0.00     0.001 A 
ATOM     24  C   UNL A   1      44.475  24.910  33.684  1.00  0.00     0.000 A 
ENDBRANCH  18  19
ENDBRANCH  12  13
ENDBRANCH   8  12
ENDBRANCH   5   8
ENDBRANCH   3   4
ENDBRANCH   2   3
ENDBRANCH   1   2
BRANCH   1  25
ATOM     25  C   UNL A   1      34.129  34.355  29.505  1.00  0.00     0.002 C 
BRANCH  25  26
ATOM     26  C   UNL A   1      33.554  33.378  28.475  1.00  0.00     0.021 C 
BRANCH  26  27
ATOM     27  C   UNL A   1      34.548  32.341  27.961  1.00  0.00     0.116 C 
BRANCH  27  28
ATOM     28  N   UNL A   1      33.955  31.016  27.872  1.00  0.00    -0.352 N 
ATOM     29  C   UNL A   1      34.563  29.784  27.902  1.00  0.00     0.251 C 
ATOM     30  H   UNL A   1      32.975  30.999  27.774  1.00  0.00     0.163 HD
ATOM     31  O   UNL A   1      33.931  28.779  27.607  1.00  0.00    -0.269 OA
BRANCH  29  32
ATOM     32  C   UNL A   1      35.992  29.685  28.275  1.00  0.00     0.039 A 
ATOM     33  C   UNL A   1      36.325  29.332  29.584  1.00  0.00     0.014 A 
ATOM     34  C   UNL A   1      36.994  29.925  27.330  1.00  0.00     0.014 A 
ATOM     35  C   UNL A   1      37.667  29.142  29.925  1.00  0.00     0.010 A 
ATOM     36  C   UNL A   1      38.324  29.667  27.654  1.00  0.00     0.010 A 
ATOM     37  C   UNL A   1      38.673  29.261  28.951  1.00  0.00    -0.014 A 
BRANCH  37  38
ATOM     38  C   UNL A   1      40.086  28.921  29.258  1.00  0.00     0.031 A 
ATOM     39  C   UNL A   1      40.998  29.941  29.883  1.00  0.00     0.074 A 
ATOM     40  C   UNL A   1      40.567  27.713  28.900  1.00  0.00     0.049 A 
ATOM     41  N   UNL A   1      42.276  29.851  30.147  1.00  0.00    -0.248 NA
ATOM     42  C   UNL A   1      40.401  31.238  30.236  1.00  0.00     0.031 C 
ATOM     43  C   UNL A   1      39.792  26.656  28.244  1.00  0.00     0.029 A 
ATOM     44  N   UNL A   1      41.823  27.173  29.020  1.00  0.00    -0.354 N 
ATOM     45  C   UNL A   1      42.638  31.079  30.690  1.00  0.00     0.074 A 
ATOM     46  C   UNL A   1      41.456  31.913  30.669  1.00  0.00     0.031 C 
ATOM     47  C   UNL A   1      40.583  25.592  28.038  1.00  0.00     0.029 A 
ATOM     48  C   UNL A   1      41.932  25.904  28.501  1.00  0.00     0.049 A 
ATOM     49  H   UNL A   1      42.576  27.650  29.438  1.00  0.00     0.167 HD
ATOM     50  C   UNL A   1      43.842  31.466  31.177  1.00  0.00     0.037 A 
ATOM     51  C   UNL A   1      42.998  25.088  28.392  1.00  0.00     0.037 A 
ATOM     52  C   UNL A   1      45.009  30.623  31.204  1.00  0.00     0.049 A 
ATOM     53  C   UNL A   1      44.331  25.554  28.914  1.00  0.00     0.074 A 
ATOM     54  C   UNL A   1      46.258  30.902  31.733  1.00  0.00     0.029 A 
ATOM     55  N   UNL A   1      45.079  29.343  30.672  1.00  0.00    -0.354 N 
ATOM     56  N   UNL A   1      44.638  26.690  29.491  1.00  0.00    -0.248 NA
ATOM     57  C   UNL A   1      45.463  24.626  28.770  1.00  0.00     0.031 C 
ATOM     58  C   UNL A   1      47.098  29.816  31.470  1.00  0.00     0.029 A 
ATOM     59  C   UNL A   1      46.358  28.834  30.829  1.00  0.00     0.049 A 
ATOM     60  H   UNL A   1      44.330  28.866  30.247  1.00  0.00     0.167 HD
ATOM     61  C   UNL A   1      45.993  26.607  29.797  1.00  0.00     0.074 A 
ATOM     62  C   UNL A   1      46.440  25.302  29.358  1.00  0.00     0.031 C 
ATOM     63  C   UNL A   1      46.792  27.531  30.387  1.00  0.00     0.037 A 
BRANCH  50  64
ATOM     64  C   UNL A   1      43.962  32.865  31.720  1.00  0.00     0.058 A 
ATOM     65  C   UNL A   1      44.387  33.935  30.916  1.00  0.00     0.135 A 
ATOM     66  C   UNL A   1      43.600  33.150  33.047  1.00  0.00     0.135 A 
ATOM     67  F   UNL A   1      44.757  33.720  29.643  1.00  0.00    -0.206 F 
ATOM     68  C   UNL A   1      44.475  35.231  31.415  1.00  0.00     0.059 A 
ATOM     69  C   UNL A   1      43.651  34.443  33.558  1.00  0.00     0.059 A 
ATOM     70  F   UNL A   1      43.186  32.165  33.860  1.00  0.00    -0.206 F 
ATOM     71  C   UNL A   1      44.103  35.475  32.738  1.00  0.00     0.060 A 
BRANCH  71  72
ATOM     72  S   UNL A   1      44.216  37.163  33.365  1.00  0.00     0.124 S 
ATOM     73  O   UNL A   1      42.887  37.351  33.937  1.00  0.00    -0.237 OA
ATOM     74  O   UNL A   1      45.311  37.065  34.326  1.00  0.00    -0.237 OA
ATOM     75  O   UNL A   1      44.502  37.953  32.172  1.00  0.00    -0.744 OA
ENDBRANCH  71  72
ENDBRANCH  50  64
BRANCH  51  76
ATOM     76  C   UNL A   1      42.849  23.747  27.764  1.00  0.00     0.058 A 
ATOM     77  C   UNL A   1      42.553  22.616  28.539  1.00  0.00     0.135 A 
ATOM     78  C   UNL A   1      42.987  23.571  26.378  1.00  0.00     0.135 A 
ATOM     79  F   UNL A   1      42.420  22.730  29.869  1.00  0.00    -0.206 F 
ATOM     80  C   UNL A   1      42.416  21.355  27.966  1.00  0.00     0.059 A 
ATOM     81  C   UNL A   1      42.825  22.326  25.779  1.00  0.00     0.059 A 
ATOM     82  F   UNL A   1      43.254  24.624  25.589  1.00  0.00    -0.206 F 
ATOM     83  C   UNL A   1      42.551  21.222  26.583  1.00  0.00     0.060 A 
BRANCH  83  84
ATOM     84  S   UNL A   1      42.325  19.589  25.845  1.00  0.00     0.124 S 
ATOM     85  O   UNL A   1      40.922  19.637  25.451  1.00  0.00    -0.237 OA
ATOM     86  O   UNL A   1      43.295  19.611  24.755  1.00  0.00    -0.237 OA
ATOM     87  O   UNL A   1      42.643  18.679  26.941  1.00  0.00    -0.744 OA
ENDBRANCH  83  84
ENDBRANCH  51  76
BRANCH  63  88
ATOM     88  C   UNL A   1      48.233  27.160  30.609  1.00  0.00     0.058 A 
ATOM     89  C   UNL A   1      49.234  27.506  29.688  1.00  0.00     0.135 A 
ATOM     90  C   UNL A   1      48.627  26.507  31.789  1.00  0.00     0.135 A 
ATOM     91  F   UNL A   1      48.911  28.122  28.540  1.00  0.00    -0.206 F 
ATOM     92  C   UNL A   1      50.571  27.204  29.920  1.00  0.00     0.059 A 
ATOM     93  C   UNL A   1      49.962  26.222  32.056  1.00  0.00     0.059 A 
ATOM     94  F   UNL A   1      47.712  26.160  32.708  1.00  0.00    -0.206 F 
ATOM     95  C   UNL A   1      50.927  26.566  31.111  1.00  0.00     0.060 A 
BRANCH  95  96
ATOM     96  S   UNL A   1      52.672  26.226  31.419  1.00  0.00     0.124 S 
ATOM     97  O   UNL A   1      53.239  26.351  30.080  1.00  0.00    -0.237 OA
ATOM     98  O   UNL A   1      53.034  27.280  32.361  1.00  0.00    -0.237 OA
ATOM     99  O   UNL A   1      52.664  24.874  31.972  1.00  0.00    -0.744 OA
ENDBRANCH  95  96
ENDBRANCH  63  88
ENDBRANCH  37  38
ENDBRANCH  29  32
ENDBRANCH  27  28
ENDBRANCH  26  27
ENDBRANCH  25  26
ENDBRANCH   1  25
TORSDOF 21
ENDMDL
MODEL 2
REMARK VINA RESULT:      -8.3      4.915     12.065
REMARK SMILES CCC[C@@H](Oc1ccc(-c2ccccc2)cc1)C(=O)NCCCCCCNC(=O)c1ccc(-c2c3nc(c(-c4c(F)cc(S(=O)(=O)[O-])cc4F)c4ccc([nH]4)c(-c4c(F)cc(S(=O)(=O)[O-])cc4F)c4nc(c(-c5c(F)cc(S(=O)(=O)[O-])cc5F)c5ccc2[nH]5)C=C4)C=C3)cc1
REMARK SMILES IDX 23 1 22 2 21 3 20 4 18 5 19 6 4 8 3 9 2 10 1 11 5 12 6 13
REMARK SMILES IDX 7 14 17 15 8 16 16 17 9 18 10 19 11 20 15 21 12 22 14 23
REMARK SMILES IDX 13 24 24 25 25 26 26 27 27 28 28 29 29 31 30 32 31 33 95 34
REMARK SMILES IDX 32 35 94 36 33 37 34 38 35 39 88 40 36 41 93 42 87 43 89 44
REMARK SMILES IDX 37 45 92 46 86 47 85 48 38 50 72 51 51 52 71 53 52 54 55 55
REMARK SMILES IDX 70 56 90 57 53 58 54 59 69 61 91 62 56 63 39 64 40 65 49 66
REMARK SMILES IDX 41 67 42 68 48 69 50 70 43 71 44 72 45 73 46 74 47 75 73 76
REMARK SMILES IDX 74 77 83 78 75 79 76 80 82 81 84 82 77 83 78 84 79 85 80 86
REMARK SMILES IDX 81 87 57 88 58 89 67 90 59 91 60 92 66 93 68 94 61 95 62 96
REMARK SMILES IDX 63 97 64 98 65 99
REMARK H PARENT 20 7 27 30 89 49 55 60
REMARK Flexibility Score: inf
ROOT
ATOM      1  C   UNL A   1      37.387  21.950  24.588  1.00  0.00     0.002 C 
ENDROOT
BRANCH   1   2
ATOM      2  C   UNL A   1      36.898  23.104  23.711  1.00  0.00     0.021 C 
BRANCH   2   3
ATOM      3  C   UNL A   1      35.472  23.552  24.016  1.00  0.00     0.116 C 
BRANCH   3   4
ATOM      4  N   UNL A   1      34.515  22.955  23.096  1.00  0.00    -0.353 N 
ATOM      5  C   UNL A   1      33.180  22.704  23.276  1.00  0.00     0.261 C 
ATOM      6  O   UNL A   1      32.552  22.189  22.344  1.00  0.00    -0.271 OA
ATOM      7  H   UNL A   1      34.879  22.695  22.219  1.00  0.00     0.163 HD
BRANCH   5   8
ATOM      8  C   UNL A   1      32.507  22.991  24.632  1.00  0.00     0.261 C 
BRANCH   8   9
ATOM      9  C   UNL A   1      33.636  23.068  25.689  1.00  0.00     0.055 C 
BRANCH   9  10
ATOM     10  C   UNL A   1      33.858  21.877  26.632  1.00  0.00     0.001 C 
ATOM     11  C   UNL A   1      33.498  20.516  26.070  1.00  0.00     0.004 C 
ENDBRANCH   9  10
ENDBRANCH   8   9
BRANCH   8  12
ATOM     12  O   UNL A   1      31.740  24.176  24.365  1.00  0.00    -0.481 OA
BRANCH  12  13
ATOM     13  C   UNL A   1      32.185  25.310  24.959  1.00  0.00     0.120 A 
ATOM     14  C   UNL A   1      31.618  25.741  26.149  1.00  0.00     0.047 A 
ATOM     15  C   UNL A   1      33.094  26.109  24.287  1.00  0.00     0.047 A 
ATOM     16  C   UNL A   1      32.056  26.939  26.723  1.00  0.00     0.012 A 
ATOM     17  C   UNL A   1      33.573  27.269  24.888  1.00  0.00     0.012 A 
ATOM     18  C   UNL A   1      33.075  27.709  26.128  1.00  0.00    -0.018 A 
BRANCH  18  19
ATOM     19  C   UNL A   1      33.619  28.926  26.767  1.00  0.00    -0.018 A 
ATOM     20  C   UNL A   1      34.978  29.028  27.113  1.00  0.00     0.009 A 
ATOM     21  C   UNL A   1      32.806  30.048  27.015  1.00  0.00     0.009 A 
ATOM     22  C   UNL A   1      35.500  30.197  27.676  1.00  0.00     0.001 A 
ATOM     23  C   UNL A   1      33.327  31.222  27.562  1.00  0.00     0.001 A 
ATOM     24  C   UNL A   1      34.675  31.296  27.893  1.00  0.00     0.000 A 
ENDBRANCH  18  19
ENDBRANCH  12  13
ENDBRANCH   8  12
ENDBRANCH   5   8
ENDBRANCH   3   4
ENDBRANCH   2   3
ENDBRANCH   1   2
BRANCH   1  25
ATOM     25  C   UNL A   1      37.637  22.319  26.055  1.00  0.00     0.002 C 
BRANCH  25  26
ATOM     26  C   UNL A   1      39.101  22.253  26.502  1.00  0.00     0.021 C 
BRANCH  26  27
ATOM     27  C   UNL A   1      39.670  23.575  27.007  1.00  0.00     0.116 C 
BRANCH  27  28
ATOM     28  N   UNL A   1      40.477  24.242  25.998  1.00  0.00    -0.352 N 
ATOM     29  C   UNL A   1      41.029  25.501  26.014  1.00  0.00     0.251 C 
ATOM     30  H   UNL A   1      40.654  23.715  25.186  1.00  0.00     0.163 HD
ATOM     31  O   UNL A   1      41.506  25.975  24.991  1.00  0.00    -0.269 OA
BRANCH  29  32
ATOM     32  C   UNL A   1      41.022  26.284  27.268  1.00  0.00     0.039 A 
ATOM     33  C   UNL A   1      42.046  27.206  27.494  1.00  0.00     0.014 A 
ATOM     34  C   UNL A   1      40.001  26.119  28.208  1.00  0.00     0.014 A 
ATOM     35  C   UNL A   1      42.002  28.021  28.628  1.00  0.00     0.010 A 
ATOM     36  C   UNL A   1      39.922  26.978  29.301  1.00  0.00     0.010 A 
ATOM     37  C   UNL A   1      40.915  27.947  29.516  1.00  0.00    -0.014 A 
BRANCH  37  38
ATOM     38  C   UNL A   1      40.776  28.902  30.646  1.00  0.00     0.031 A 
ATOM     39  C   UNL A   1      41.620  28.750  31.881  1.00  0.00     0.074 A 
ATOM     40  C   UNL A   1      39.830  29.861  30.586  1.00  0.00     0.049 A 
ATOM     41  N   UNL A   1      41.581  29.436  32.994  1.00  0.00    -0.248 NA
ATOM     42  C   UNL A   1      42.622  27.673  31.873  1.00  0.00     0.031 C 
ATOM     43  C   UNL A   1      38.919  30.080  29.459  1.00  0.00     0.029 A 
ATOM     44  N   UNL A   1      39.466  30.823  31.495  1.00  0.00    -0.354 N 
ATOM     45  C   UNL A   1      42.546  28.871  33.822  1.00  0.00     0.074 A 
ATOM     46  C   UNL A   1      43.117  27.754  33.101  1.00  0.00     0.031 C 
ATOM     47  C   UNL A   1      38.116  31.119  29.736  1.00  0.00     0.029 A 
ATOM     48  C   UNL A   1      38.420  31.611  31.077  1.00  0.00     0.049 A 
ATOM     49  H   UNL A   1      39.913  30.938  32.365  1.00  0.00     0.167 HD
ATOM     50  C   UNL A   1      42.930  29.262  35.061  1.00  0.00     0.037 A 
ATOM     51  C   UNL A   1      37.764  32.607  31.704  1.00  0.00     0.037 A 
ATOM     52  C   UNL A   1      42.364  30.383  35.765  1.00  0.00     0.049 A 
ATOM     53  C   UNL A   1      38.192  33.002  33.093  1.00  0.00     0.074 A 
ATOM     54  C   UNL A   1      42.728  30.896  36.998  1.00  0.00     0.029 A 
ATOM     55  N   UNL A   1      41.308  31.158  35.307  1.00  0.00    -0.354 N 
ATOM     56  N   UNL A   1      39.155  32.504  33.831  1.00  0.00    -0.248 NA
ATOM     57  C   UNL A   1      37.444  34.093  33.734  1.00  0.00     0.031 C 
ATOM     58  C   UNL A   1      41.856  31.943  37.312  1.00  0.00     0.029 A 
ATOM     59  C   UNL A   1      40.985  32.123  36.249  1.00  0.00     0.049 A 
ATOM     60  H   UNL A   1      40.855  31.042  34.441  1.00  0.00     0.167 HD
ATOM     61  C   UNL A   1      39.142  33.235  35.014  1.00  0.00     0.074 A 
ATOM     62  C   UNL A   1      38.089  34.220  34.886  1.00  0.00     0.031 C 
ATOM     63  C   UNL A   1      39.932  33.099  36.109  1.00  0.00     0.037 A 
BRANCH  50  64
ATOM     64  C   UNL A   1      44.016  28.470  35.740  1.00  0.00     0.058 A 
ATOM     65  C   UNL A   1      43.725  27.354  36.542  1.00  0.00     0.135 A 
ATOM     66  C   UNL A   1      45.367  28.799  35.548  1.00  0.00     0.135 A 
ATOM     67  F   UNL A   1      42.450  27.000  36.771  1.00  0.00    -0.206 F 
ATOM     68  C   UNL A   1      44.732  26.612  37.150  1.00  0.00     0.059 A 
ATOM     69  C   UNL A   1      46.392  28.053  36.121  1.00  0.00     0.059 A 
ATOM     70  F   UNL A   1      45.704  29.856  34.790  1.00  0.00    -0.206 F 
ATOM     71  C   UNL A   1      46.063  26.968  36.932  1.00  0.00     0.060 A 
BRANCH  71  72
ATOM     72  S   UNL A   1      47.357  25.988  37.722  1.00  0.00     0.124 S 
ATOM     73  O   UNL A   1      46.761  25.717  39.026  1.00  0.00    -0.237 OA
ATOM     74  O   UNL A   1      47.467  24.841  36.826  1.00  0.00    -0.237 OA
ATOM     75  O   UNL A   1      48.507  26.885  37.732  1.00  0.00    -0.744 OA
ENDBRANCH  71  72
ENDBRANCH  50  64
BRANCH  51  76
ATOM     76  C   UNL A   1      36.636  33.301  31.026  1.00  0.00     0.058 A 
ATOM     77  C   UNL A   1      36.868  34.185  29.962  1.00  0.00     0.135 A 
ATOM     78  C   UNL A   1      35.305  33.085  31.418  1.00  0.00     0.135 A 
ATOM     79  F   UNL A   1      38.122  34.431  29.555  1.00  0.00    -0.206 F 
ATOM     80  C   UNL A   1      35.823  34.844  29.321  1.00  0.00     0.059 A 
ATOM     81  C   UNL A   1      34.243  33.710  30.774  1.00  0.00     0.059 A 
ATOM     82  F   UNL A   1      35.028  32.236  32.420  1.00  0.00    -0.206 F 
ATOM     83  C   UNL A   1      34.512  34.597  29.733  1.00  0.00     0.060 A 
BRANCH  83  84
ATOM     84  S   UNL A   1      33.162  35.422  28.865  1.00  0.00     0.124 S 
ATOM     85  O   UNL A   1      33.885  36.393  28.051  1.00  0.00    -0.237 OA
ATOM     86  O   UNL A   1      32.544  34.316  28.140  1.00  0.00    -0.237 OA
ATOM     87  O   UNL A   1      32.358  35.980  29.948  1.00  0.00    -0.744 OA
ENDBRANCH  83  84
ENDBRANCH  51  76
BRANCH  63  88
ATOM     88  C   UNL A   1      39.701  34.047  37.253  1.00  0.00     0.058 A 
ATOM     89  C   UNL A   1      38.891  33.700  38.346  1.00  0.00     0.135 A 
ATOM     90  C   UNL A   1      40.348  35.295  37.287  1.00  0.00     0.135 A 
ATOM     91  F   UNL A   1      38.243  32.525  38.360  1.00  0.00    -0.206 F 
ATOM     92  C   UNL A   1      38.718  34.561  39.425  1.00  0.00     0.059 A 
ATOM     93  C   UNL A   1      40.213  36.158  38.370  1.00  0.00     0.059 A 
ATOM     94  F   UNL A   1      41.139  35.673  36.272  1.00  0.00    -0.206 F 
ATOM     95  C   UNL A   1      39.389  35.787  39.431  1.00  0.00     0.060 A 
BRANCH  95  96
ATOM     96  S   UNL A   1      39.193  36.871  40.860  1.00  0.00     0.124 S 
ATOM     97  O   UNL A   1      40.580  37.180  41.189  1.00  0.00    -0.237 OA
ATOM     98  O   UNL A   1      38.411  37.974  40.309  1.00  0.00    -0.237 OA
ATOM     99  O   UNL A   1      38.489  36.035  41.828  1.00  0.00    -0.744 OA
ENDBRANCH  95  96
ENDBRANCH  63  88
ENDBRANCH  37  38
ENDBRANCH  29  32
ENDBRANCH  27  28
ENDBRANCH  26  27
ENDBRANCH  25  26
ENDBRANCH   1  25
TORSDOF 21
ENDMDL
MODEL 3
REMARK VINA RESULT:      -8.1      3.060      9.754
REMARK SMILES CCC[C@@H](Oc1ccc(-c2ccccc2)cc1)C(=O)NCCCCCCNC(=O)c1ccc(-c2c3nc(c(-c4c(F)cc(S(=O)(=O)[O-])cc4F)c4ccc([nH]4)c(-c4c(F)cc(S(=O)(=O)[O-])cc4F)c4nc(c(-c5c(F)cc(S(=O)(=O)[O-])cc5F)c5ccc2[nH]5)C=C4)C=C3)cc1
REMARK SMILES IDX 23 1 22 2 21 3 20 4 18 5 19 6 4 8 3 9 2 10 1 11 5 12 6 13
REMARK SMILES IDX 7 14 17 15 8 16 16 17 9 18 10 19 11 20 15 21 12 22 14 23
REMARK SMILES IDX 13 24 24 25 25 26 26 27 27 28 28 29 29 31 30 32 31 33 95 34
REMARK SMILES IDX 32 35 94 36 33 37 34 38 35 39 88 40 36 41 93 42 87 43 89 44
REMARK SMILES IDX 37 45 92 46 86 47 85 48 38 50 72 51 51 52 71 53 52 54 55 55
REMARK SMILES IDX 70 56 90 57 53 58 54 59 69 61 91 62 56 63 39 64 40 65 49 66
REMARK SMILES IDX 41 67 42 68 48 69 50 70 43 71 44 72 45 73 46 74 47 75 73 76
REMARK SMILES IDX 74 77 83 78 75 79 76 80 82 81 84 82 77 83 78 84 79 85 80 86
REMARK SMILES IDX 81 87 57 88 58 89 67 90 59 91 60 92 66 93 68 94 61 95 62 96
REMARK SMILES IDX 63 97 64 98 65 99
REMARK H PARENT 20 7 27 30 89 49 55 60
REMARK Flexibility Score: inf
ROOT
ATOM      1  C   UNL A   1      42.625  23.294  28.704  1.00  0.00     0.002 C 
ENDROOT
BRANCH   1   2
ATOM      2  C   UNL A   1      43.568  23.306  29.908  1.00  0.00     0.021 C 
BRANCH   2   3
ATOM      3  C   UNL A   1      43.885  24.703  30.431  1.00  0.00     0.116 C 
BRANCH   3   4
ATOM      4  N   UNL A   1      45.206  24.760  31.042  1.00  0.00    -0.353 N 
ATOM      5  C   UNL A   1      45.608  25.413  32.177  1.00  0.00     0.261 C 
ATOM      6  O   UNL A   1      46.793  25.317  32.517  1.00  0.00    -0.271 OA
ATOM      7  H   UNL A   1      45.910  24.258  30.572  1.00  0.00     0.163 HD
BRANCH   5   8
ATOM      8  C   UNL A   1      44.621  26.300  32.960  1.00  0.00     0.261 C 
BRANCH   8   9
ATOM      9  C   UNL A   1      44.315  25.570  34.291  1.00  0.00     0.055 C 
BRANCH   9  10
ATOM     10  C   UNL A   1      42.856  25.431  34.748  1.00  0.00     0.001 C 
ATOM     11  C   UNL A   1      42.065  26.721  34.827  1.00  0.00     0.004 C 
ENDBRANCH   9  10
ENDBRANCH   8   9
BRANCH   8  12
ATOM     12  O   UNL A   1      45.300  27.565  33.016  1.00  0.00    -0.481 OA
BRANCH  12  13
ATOM     13  C   UNL A   1      44.522  28.638  33.296  1.00  0.00     0.120 A 
ATOM     14  C   UNL A   1      43.581  29.075  32.376  1.00  0.00     0.047 A 
ATOM     15  C   UNL A   1      44.786  29.382  34.434  1.00  0.00     0.047 A 
ATOM     16  C   UNL A   1      42.820  30.214  32.661  1.00  0.00     0.012 A 
ATOM     17  C   UNL A   1      43.987  30.478  34.745  1.00  0.00     0.012 A 
ATOM     18  C   UNL A   1      42.976  30.916  33.872  1.00  0.00    -0.018 A 
BRANCH  18  19
ATOM     19  C   UNL A   1      42.115  32.063  34.235  1.00  0.00    -0.018 A 
ATOM     20  C   UNL A   1      42.662  33.323  34.537  1.00  0.00     0.009 A 
ATOM     21  C   UNL A   1      40.712  31.949  34.251  1.00  0.00     0.009 A 
ATOM     22  C   UNL A   1      41.844  34.417  34.835  1.00  0.00     0.001 A 
ATOM     23  C   UNL A   1      39.893  33.044  34.533  1.00  0.00     0.001 A 
ATOM     24  C   UNL A   1      40.460  34.278  34.826  1.00  0.00     0.000 A 
ENDBRANCH  18  19
ENDBRANCH  12  13
ENDBRANCH   8  12
ENDBRANCH   5   8
ENDBRANCH   3   4
ENDBRANCH   2   3
ENDBRANCH   1   2
BRANCH   1  25
ATOM     25  C   UNL A   1      43.175  22.580  27.464  1.00  0.00     0.002 C 
BRANCH  25  26
ATOM     26  C   UNL A   1      42.123  21.894  26.587  1.00  0.00     0.021 C 
BRANCH  26  27
ATOM     27  C   UNL A   1      40.900  21.385  27.344  1.00  0.00     0.116 C 
BRANCH  27  28
ATOM     28  N   UNL A   1      39.689  21.469  26.542  1.00  0.00    -0.352 N 
ATOM     29  C   UNL A   1      38.881  22.552  26.292  1.00  0.00     0.251 C 
ATOM     30  H   UNL A   1      39.408  20.627  26.116  1.00  0.00     0.163 HD
ATOM     31  O   UNL A   1      37.789  22.395  25.762  1.00  0.00    -0.269 OA
BRANCH  29  32
ATOM     32  C   UNL A   1      39.332  23.905  26.685  1.00  0.00     0.039 A 
ATOM     33  C   UNL A   1      39.132  24.327  28.001  1.00  0.00     0.014 A 
ATOM     34  C   UNL A   1      39.964  24.744  25.762  1.00  0.00     0.014 A 
ATOM     35  C   UNL A   1      39.637  25.563  28.412  1.00  0.00     0.010 A 
ATOM     36  C   UNL A   1      40.527  25.943  26.191  1.00  0.00     0.010 A 
ATOM     37  C   UNL A   1      40.381  26.359  27.524  1.00  0.00    -0.014 A 
BRANCH  37  38
ATOM     38  C   UNL A   1      41.049  27.605  27.981  1.00  0.00     0.031 A 
ATOM     39  C   UNL A   1      42.547  27.728  27.935  1.00  0.00     0.074 A 
ATOM     40  C   UNL A   1      40.304  28.597  28.511  1.00  0.00     0.049 A 
ATOM     41  N   UNL A   1      43.307  28.703  28.363  1.00  0.00    -0.248 NA
ATOM     42  C   UNL A   1      43.289  26.600  27.351  1.00  0.00     0.031 C 
ATOM     43  C   UNL A   1      38.846  28.575  28.653  1.00  0.00     0.029 A 
ATOM     44  N   UNL A   1      40.668  29.808  29.044  1.00  0.00    -0.354 N 
ATOM     45  C   UNL A   1      44.614  28.304  28.109  1.00  0.00     0.074 A 
ATOM     46  C   UNL A   1      44.546  26.977  27.536  1.00  0.00     0.031 C 
ATOM     47  C   UNL A   1      38.440  29.724  29.215  1.00  0.00     0.029 A 
ATOM     48  C   UNL A   1      39.608  30.544  29.519  1.00  0.00     0.049 A 
ATOM     49  H   UNL A   1      41.601  30.121  29.082  1.00  0.00     0.167 HD
ATOM     50  C   UNL A   1      45.763  28.991  28.319  1.00  0.00     0.037 A 
ATOM     51  C   UNL A   1      39.577  31.738  30.144  1.00  0.00     0.037 A 
ATOM     52  C   UNL A   1      45.820  30.317  28.879  1.00  0.00     0.049 A 
ATOM     53  C   UNL A   1      40.871  32.467  30.392  1.00  0.00     0.074 A 
ATOM     54  C   UNL A   1      46.930  31.121  29.074  1.00  0.00     0.029 A 
ATOM     55  N   UNL A   1      44.725  31.031  29.345  1.00  0.00    -0.354 N 
ATOM     56  N   UNL A   1      42.092  32.107  30.078  1.00  0.00    -0.248 NA
ATOM     57  C   UNL A   1      40.783  33.763  31.079  1.00  0.00     0.031 C 
ATOM     58  C   UNL A   1      46.515  32.294  29.709  1.00  0.00     0.029 A 
ATOM     59  C   UNL A   1      45.137  32.250  29.859  1.00  0.00     0.049 A 
ATOM     60  H   UNL A   1      43.791  30.718  29.315  1.00  0.00     0.167 HD
ATOM     61  C   UNL A   1      42.915  33.141  30.510  1.00  0.00     0.074 A 
ATOM     62  C   UNL A   1      42.051  34.148  31.090  1.00  0.00     0.031 C 
ATOM     63  C   UNL A   1      44.266  33.245  30.434  1.00  0.00     0.037 A 
BRANCH  50  64
ATOM     64  C   UNL A   1      47.059  28.322  27.943  1.00  0.00     0.058 A 
ATOM     65  C   UNL A   1      47.768  27.522  28.854  1.00  0.00     0.135 A 
ATOM     66  C   UNL A   1      47.573  28.441  26.642  1.00  0.00     0.135 A 
ATOM     67  F   UNL A   1      47.331  27.383  30.116  1.00  0.00    -0.206 F 
ATOM     68  C   UNL A   1      48.953  26.888  28.496  1.00  0.00     0.059 A 
ATOM     69  C   UNL A   1      48.740  27.790  26.253  1.00  0.00     0.059 A 
ATOM     70  F   UNL A   1      46.936  29.193  25.729  1.00  0.00    -0.206 F 
ATOM     71  C   UNL A   1      49.430  27.026  27.192  1.00  0.00     0.060 A 
BRANCH  71  72
ATOM     72  S   UNL A   1      50.965  26.188  26.744  1.00  0.00     0.124 S 
ATOM     73  O   UNL A   1      50.780  24.885  27.376  1.00  0.00    -0.237 OA
ATOM     74  O   UNL A   1      50.910  26.198  25.286  1.00  0.00    -0.237 OA
ATOM     75  O   UNL A   1      52.000  27.031  27.336  1.00  0.00    -0.744 OA
ENDBRANCH  71  72
ENDBRANCH  50  64
BRANCH  51  76
ATOM     76  C   UNL A   1      38.277  32.317  30.579  1.00  0.00     0.058 A 
ATOM     77  C   UNL A   1      37.671  31.912  31.776  1.00  0.00     0.135 A 
ATOM     78  C   UNL A   1      37.623  33.296  29.814  1.00  0.00     0.135 A 
ATOM     79  F   UNL A   1      38.251  30.974  32.539  1.00  0.00    -0.206 F 
ATOM     80  C   UNL A   1      36.453  32.441  32.192  1.00  0.00     0.059 A 
ATOM     81  C   UNL A   1      36.420  33.861  30.223  1.00  0.00     0.059 A 
ATOM     82  F   UNL A   1      38.169  33.731  28.667  1.00  0.00    -0.206 F 
ATOM     83  C   UNL A   1      35.837  33.419  31.410  1.00  0.00     0.060 A 
BRANCH  83  84
ATOM     84  S   UNL A   1      34.280  34.133  31.982  1.00  0.00     0.124 S 
ATOM     85  O   UNL A   1      33.696  33.014  32.713  1.00  0.00    -0.237 OA
ATOM     86  O   UNL A   1      34.740  35.255  32.794  1.00  0.00    -0.237 OA
ATOM     87  O   UNL A   1      33.603  34.500  30.742  1.00  0.00    -0.744 OA
ENDBRANCH  83  84
ENDBRANCH  51  76
BRANCH  63  88
ATOM     88  C   UNL A   1      44.897  34.498  30.977  1.00  0.00     0.058 A 
ATOM     89  C   UNL A   1      44.935  35.687  30.232  1.00  0.00     0.135 A 
ATOM     90  C   UNL A   1      45.415  34.526  32.284  1.00  0.00     0.135 A 
ATOM     91  F   UNL A   1      44.463  35.713  28.977  1.00  0.00    -0.206 F 
ATOM     92  C   UNL A   1      45.477  36.856  30.757  1.00  0.00     0.059 A 
ATOM     93  C   UNL A   1      45.934  35.692  32.838  1.00  0.00     0.059 A 
ATOM     94  F   UNL A   1      45.397  33.419  33.042  1.00  0.00    -0.206 F 
ATOM     95  C   UNL A   1      45.969  36.850  32.064  1.00  0.00     0.060 A 
BRANCH  95  96
ATOM     96  S   UNL A   1      46.623  38.387  32.746  1.00  0.00     0.124 S 
ATOM     97  O   UNL A   1      45.418  39.204  32.846  1.00  0.00    -0.237 OA
ATOM     98  O   UNL A   1      47.195  37.946  34.015  1.00  0.00    -0.237 OA
ATOM     99  O   UNL A   1      47.593  38.820  31.745  1.00  0.00    -0.744 OA
ENDBRANCH  95  96
ENDBRANCH  63  88
ENDBRANCH  37  38
ENDBRANCH  29  32
ENDBRANCH  27  28
ENDBRANCH  26  27
ENDBRANCH  25  26
ENDBRANCH   1  25
TORSDOF 21
ENDMDL
