MODEL 1
REMARK VINA RESULT:     -11.5      0.000      0.000
REMARK SMILES C[C@@H](C(=O)NCCCCCCNC(=O)c1ccc(-c2c3nc(c(-c4c(F)cc(S(=O)(=O)[O-])cc4F)c4ccc([nH]4)c(-c4c(F)cc(S(=O)(=O)[O-])cc4F)c4nc(c(-c5c(F)cc(S(=O)(=O)[O-])cc5F)c5ccc2[nH]5)C=C4)C=C3)cc1)c1ccc(C[C@H]2CCCC2=O)cc1I
REMARK SMILES IDX 8 1 7 2 6 3 5 4 3 5 4 6 2 8 1 9 81 10 82 11 93 12 83 13
REMARK SMILES IDX 92 14 94 15 84 16 85 17 86 18 87 19 90 20 88 21 89 22 91 23
REMARK SMILES IDX 9 24 10 25 11 26 12 27 13 28 14 30 15 31 16 32 80 33 17 34
REMARK SMILES IDX 79 35 18 36 19 37 20 38 73 39 21 40 78 41 72 42 74 43 22 44
REMARK SMILES IDX 77 45 71 46 70 47 23 49 57 50 36 51 56 52 37 53 40 54 55 55
REMARK SMILES IDX 75 56 38 57 39 58 54 60 76 61 41 62 24 63 25 64 34 65 26 66
REMARK SMILES IDX 27 67 33 68 35 69 28 70 29 71 30 72 31 73 32 74 58 75 59 76
REMARK SMILES IDX 68 77 60 78 61 79 67 80 69 81 62 82 63 83 64 84 65 85 66 86
REMARK SMILES IDX 42 87 43 88 52 89 44 90 45 91 51 92 53 93 46 94 47 95 48 96
REMARK SMILES IDX 49 97 50 98
REMARK H PARENT 5 7 12 29 74 48 40 59
REMARK Flexibility Score: inf
ROOT
ATOM      1  C   UNL A   1      38.454  21.935  25.829  1.00  0.00     0.002 C 
ENDROOT
BRANCH   1   2
ATOM      2  C   UNL A   1      37.756  20.950  24.883  1.00  0.00     0.021 C 
BRANCH   2   3
ATOM      3  C   UNL A   1      36.256  20.792  25.135  1.00  0.00     0.116 C 
BRANCH   3   4
ATOM      4  N   UNL A   1      35.832  21.622  26.241  1.00  0.00    -0.356 N 
ATOM      5  C   UNL A   1      34.980  22.686  26.277  1.00  0.00     0.227 C 
ATOM      6  O   UNL A   1      34.838  23.222  27.379  1.00  0.00    -0.274 OA
ATOM      7  H   UNL A   1      36.222  21.378  27.112  1.00  0.00     0.163 HD
BRANCH   5   8
ATOM      8  C   UNL A   1      34.221  23.114  25.002  1.00  0.00     0.106 C 
ATOM      9  C   UNL A   1      35.106  23.148  23.752  1.00  0.00     0.023 C 
BRANCH   8  10
ATOM     10  C   UNL A   1      33.525  24.474  25.118  1.00  0.00    -0.022 A 
ATOM     11  C   UNL A   1      34.153  25.604  24.556  1.00  0.00     0.006 A 
ATOM     12  C   UNL A   1      32.250  24.658  25.682  1.00  0.00     0.017 A 
ATOM     13  C   UNL A   1      33.581  26.873  24.619  1.00  0.00     0.004 A 
ATOM     14  C   UNL A   1      31.675  25.938  25.748  1.00  0.00     0.018 A 
ATOM     15  I   UNL A   1      31.062  23.090  26.433  1.00  0.00    -0.044 I 
ATOM     16  C   UNL A   1      32.347  27.057  25.242  1.00  0.00    -0.046 A 
BRANCH  16  17
ATOM     17  C   UNL A   1      31.765  28.440  25.383  1.00  0.00     0.047 C 
BRANCH  17  18
ATOM     18  C   UNL A   1      31.956  29.109  26.750  1.00  0.00     0.060 C 
ATOM     19  C   UNL A   1      33.131  28.610  27.594  1.00  0.00     0.012 C 
ATOM     20  C   UNL A   1      32.250  30.588  26.641  1.00  0.00     0.136 C 
ATOM     21  C   UNL A   1      34.273  29.596  27.377  1.00  0.00     0.009 C 
ATOM     22  C   UNL A   1      33.616  30.952  27.159  1.00  0.00     0.076 C 
ATOM     23  O   UNL A   1      31.451  31.408  26.199  1.00  0.00    -0.299 OA
ENDBRANCH  17  18
ENDBRANCH  16  17
ENDBRANCH   8  10
ENDBRANCH   5   8
ENDBRANCH   3   4
ENDBRANCH   2   3
ENDBRANCH   1   2
BRANCH   1  24
ATOM     24  C   UNL A   1      39.871  21.538  26.250  1.00  0.00     0.002 C 
BRANCH  24  25
ATOM     25  C   UNL A   1      40.377  22.218  27.525  1.00  0.00     0.021 C 
BRANCH  25  26
ATOM     26  C   UNL A   1      41.705  22.949  27.365  1.00  0.00     0.116 C 
BRANCH  26  27
ATOM     27  N   UNL A   1      41.719  23.804  26.189  1.00  0.00    -0.352 N 
ATOM     28  C   UNL A   1      41.468  25.149  26.092  1.00  0.00     0.251 C 
ATOM     29  H   UNL A   1      41.940  23.353  25.342  1.00  0.00     0.163 HD
ATOM     30  O   UNL A   1      41.312  25.666  24.987  1.00  0.00    -0.269 OA
BRANCH  28  31
ATOM     31  C   UNL A   1      41.362  25.969  27.317  1.00  0.00     0.039 A 
ATOM     32  C   UNL A   1      42.412  26.828  27.649  1.00  0.00     0.014 A 
ATOM     33  C   UNL A   1      40.228  25.896  28.133  1.00  0.00     0.014 A 
ATOM     34  C   UNL A   1      42.295  27.665  28.761  1.00  0.00     0.010 A 
ATOM     35  C   UNL A   1      40.083  26.782  29.199  1.00  0.00     0.010 A 
ATOM     36  C   UNL A   1      41.113  27.679  29.521  1.00  0.00    -0.014 A 
BRANCH  36  37
ATOM     37  C   UNL A   1      40.928  28.649  30.632  1.00  0.00     0.031 A 
ATOM     38  C   UNL A   1      41.751  28.536  31.888  1.00  0.00     0.074 A 
ATOM     39  C   UNL A   1      39.974  29.597  30.529  1.00  0.00     0.049 A 
ATOM     40  N   UNL A   1      41.688  29.257  32.979  1.00  0.00    -0.248 NA
ATOM     41  C   UNL A   1      42.758  27.464  31.936  1.00  0.00     0.031 C 
ATOM     42  C   UNL A   1      39.079  29.773  29.382  1.00  0.00     0.029 A 
ATOM     43  N   UNL A   1      39.587  30.583  31.402  1.00  0.00    -0.354 N 
ATOM     44  C   UNL A   1      42.635  28.720  33.844  1.00  0.00     0.074 A 
ATOM     45  C   UNL A   1      43.230  27.587  33.169  1.00  0.00     0.031 C 
ATOM     46  C   UNL A   1      38.263  30.815  29.614  1.00  0.00     0.029 A 
ATOM     47  C   UNL A   1      38.543  31.352  30.941  1.00  0.00     0.049 A 
ATOM     48  H   UNL A   1      40.016  30.727  32.276  1.00  0.00     0.167 HD
ATOM     49  C   UNL A   1      42.990  29.148  35.079  1.00  0.00     0.037 A 
ATOM     50  C   UNL A   1      37.875  32.366  31.526  1.00  0.00     0.037 A 
ATOM     51  C   UNL A   1      42.413  30.295  35.732  1.00  0.00     0.049 A 
ATOM     52  C   UNL A   1      38.287  32.813  32.904  1.00  0.00     0.074 A 
ATOM     53  C   UNL A   1      42.758  30.850  36.952  1.00  0.00     0.029 A 
ATOM     54  N   UNL A   1      41.371  31.059  35.227  1.00  0.00    -0.354 N 
ATOM     55  N   UNL A   1      39.243  32.345  33.671  1.00  0.00    -0.248 NA
ATOM     56  C   UNL A   1      37.534  33.928  33.496  1.00  0.00     0.031 C 
ATOM     57  C   UNL A   1      41.886  31.912  37.212  1.00  0.00     0.029 A 
ATOM     58  C   UNL A   1      41.039  32.059  36.126  1.00  0.00     0.049 A 
ATOM     59  H   UNL A   1      40.932  30.912  34.358  1.00  0.00     0.167 HD
ATOM     60  C   UNL A   1      39.223  33.127  34.821  1.00  0.00     0.074 A 
ATOM     61  C   UNL A   1      38.175  34.109  34.641  1.00  0.00     0.031 C 
ATOM     62  C   UNL A   1      40.000  33.038  35.929  1.00  0.00     0.037 A 
BRANCH  49  63
ATOM     63  C   UNL A   1      44.056  28.386  35.818  1.00  0.00     0.058 A 
ATOM     64  C   UNL A   1      43.740  27.324  36.680  1.00  0.00     0.135 A 
ATOM     65  C   UNL A   1      45.415  28.657  35.583  1.00  0.00     0.135 A 
ATOM     66  F   UNL A   1      42.459  27.031  36.952  1.00  0.00    -0.206 F 
ATOM     67  C   UNL A   1      44.733  26.562  37.288  1.00  0.00     0.059 A 
ATOM     68  C   UNL A   1      46.423  27.890  36.159  1.00  0.00     0.059 A 
ATOM     69  F   UNL A   1      45.772  29.664  34.770  1.00  0.00    -0.206 F 
ATOM     70  C   UNL A   1      46.072  26.846  37.013  1.00  0.00     0.060 A 
BRANCH  70  71
ATOM     71  S   UNL A   1      47.344  25.812  37.769  1.00  0.00     0.124 S 
ATOM     72  O   UNL A   1      46.639  24.542  37.915  1.00  0.00    -0.237 OA
ATOM     73  O   UNL A   1      48.402  25.838  36.765  1.00  0.00    -0.237 OA
ATOM     74  O   UNL A   1      47.650  26.505  39.017  1.00  0.00    -0.744 OA
ENDBRANCH  70  71
ENDBRANCH  49  63
BRANCH  50  75
ATOM     75  C   UNL A   1      36.742  33.029  30.822  1.00  0.00     0.058 A 
ATOM     76  C   UNL A   1      36.961  34.088  29.930  1.00  0.00     0.135 A 
ATOM     77  C   UNL A   1      35.414  32.634  31.052  1.00  0.00     0.135 A 
ATOM     78  F   UNL A   1      38.211  34.507  29.679  1.00  0.00    -0.206 F 
ATOM     79  C   UNL A   1      35.905  34.760  29.320  1.00  0.00     0.059 A 
ATOM     80  C   UNL A   1      34.344  33.267  30.429  1.00  0.00     0.059 A 
ATOM     81  F   UNL A   1      35.149  31.611  31.880  1.00  0.00    -0.206 F 
ATOM     82  C   UNL A   1      34.598  34.343  29.580  1.00  0.00     0.060 A 
BRANCH  82  83
ATOM     83  S   UNL A   1      33.234  35.214  28.781  1.00  0.00     0.124 S 
ATOM     84  O   UNL A   1      32.584  34.132  28.051  1.00  0.00    -0.237 OA
ATOM     85  O   UNL A   1      32.499  35.747  29.923  1.00  0.00    -0.237 OA
ATOM     86  O   UNL A   1      33.911  36.214  27.960  1.00  0.00    -0.744 OA
ENDBRANCH  82  83
ENDBRANCH  50  75
BRANCH  62  87
ATOM     87  C   UNL A   1      39.774  34.050  37.020  1.00  0.00     0.058 A 
ATOM     88  C   UNL A   1      38.966  33.770  38.133  1.00  0.00     0.135 A 
ATOM     89  C   UNL A   1      40.414  35.301  36.972  1.00  0.00     0.135 A 
ATOM     90  F   UNL A   1      38.327  32.593  38.225  1.00  0.00    -0.206 F 
ATOM     91  C   UNL A   1      38.779  34.703  39.147  1.00  0.00     0.059 A 
ATOM     92  C   UNL A   1      40.267  36.236  37.990  1.00  0.00     0.059 A 
ATOM     93  F   UNL A   1      41.205  35.616  35.935  1.00  0.00    -0.206 F 
ATOM     94  C   UNL A   1      39.436  35.932  39.069  1.00  0.00     0.060 A 
BRANCH  94  95
ATOM     95  S   UNL A   1      39.208  37.121  40.408  1.00  0.00     0.124 S 
ATOM     96  O   UNL A   1      40.572  37.593  40.617  1.00  0.00    -0.237 OA
ATOM     97  O   UNL A   1      38.287  38.085  39.817  1.00  0.00    -0.237 OA
ATOM     98  O   UNL A   1      38.651  36.312  41.490  1.00  0.00    -0.744 OA
ENDBRANCH  94  95
ENDBRANCH  62  87
ENDBRANCH  36  37
ENDBRANCH  28  31
ENDBRANCH  26  27
ENDBRANCH  25  26
ENDBRANCH  24  25
ENDBRANCH   1  24
TORSDOF 19
ENDMDL
MODEL 2
REMARK VINA RESULT:     -11.1      6.614     12.419
REMARK SMILES C[C@@H](C(=O)NCCCCCCNC(=O)c1ccc(-c2c3nc(c(-c4c(F)cc(S(=O)(=O)[O-])cc4F)c4ccc([nH]4)c(-c4c(F)cc(S(=O)(=O)[O-])cc4F)c4nc(c(-c5c(F)cc(S(=O)(=O)[O-])cc5F)c5ccc2[nH]5)C=C4)C=C3)cc1)c1ccc(C[C@H]2CCCC2=O)cc1I
REMARK SMILES IDX 8 1 7 2 6 3 5 4 3 5 4 6 2 8 1 9 81 10 82 11 93 12 83 13
REMARK SMILES IDX 92 14 94 15 84 16 85 17 86 18 87 19 90 20 88 21 89 22 91 23
REMARK SMILES IDX 9 24 10 25 11 26 12 27 13 28 14 30 15 31 16 32 80 33 17 34
REMARK SMILES IDX 79 35 18 36 19 37 20 38 73 39 21 40 78 41 72 42 74 43 22 44
REMARK SMILES IDX 77 45 71 46 70 47 23 49 57 50 36 51 56 52 37 53 40 54 55 55
REMARK SMILES IDX 75 56 38 57 39 58 54 60 76 61 41 62 24 63 25 64 34 65 26 66
REMARK SMILES IDX 27 67 33 68 35 69 28 70 29 71 30 72 31 73 32 74 58 75 59 76
REMARK SMILES IDX 68 77 60 78 61 79 67 80 69 81 62 82 63 83 64 84 65 85 66 86
REMARK SMILES IDX 42 87 43 88 52 89 44 90 45 91 51 92 53 93 46 94 47 95 48 96
REMARK SMILES IDX 49 97 50 98
REMARK H PARENT 5 7 12 29 74 48 40 59
REMARK Flexibility Score: inf
ROOT
ATOM      1  C   UNL A   1      32.184  28.354  25.415  1.00  0.00     0.002 C 
ENDROOT
BRANCH   1   2
ATOM      2  C   UNL A   1      32.239  27.550  24.111  1.00  0.00     0.021 C 
BRANCH   2   3
ATOM      3  C   UNL A   1      33.622  26.987  23.777  1.00  0.00     0.116 C 
BRANCH   3   4
ATOM      4  N   UNL A   1      33.512  25.854  22.883  1.00  0.00    -0.356 N 
ATOM      5  C   UNL A   1      33.906  24.559  23.039  1.00  0.00     0.227 C 
ATOM      6  O   UNL A   1      33.705  23.817  22.075  1.00  0.00    -0.274 OA
ATOM      7  H   UNL A   1      33.080  26.051  22.021  1.00  0.00     0.163 HD
BRANCH   5   8
ATOM      8  C   UNL A   1      34.506  24.088  24.383  1.00  0.00     0.106 C 
ATOM      9  C   UNL A   1      36.038  24.060  24.386  1.00  0.00     0.023 C 
BRANCH   8  10
ATOM     10  C   UNL A   1      34.015  22.710  24.836  1.00  0.00    -0.022 A 
ATOM     11  C   UNL A   1      34.903  21.617  24.761  1.00  0.00     0.006 A 
ATOM     12  C   UNL A   1      32.749  22.475  25.403  1.00  0.00     0.017 A 
ATOM     13  C   UNL A   1      34.529  20.335  25.158  1.00  0.00     0.004 A 
ATOM     14  C   UNL A   1      32.372  21.181  25.800  1.00  0.00     0.018 A 
ATOM     15  I   UNL A   1      31.326  23.984  25.760  1.00  0.00    -0.044 I 
ATOM     16  C   UNL A   1      33.248  20.099  25.655  1.00  0.00    -0.046 A 
BRANCH  16  17
ATOM     17  C   UNL A   1      32.815  18.698  26.008  1.00  0.00     0.047 C 
BRANCH  17  18
ATOM     18  C   UNL A   1      32.299  17.845  24.842  1.00  0.00     0.060 C 
ATOM     19  C   UNL A   1      32.704  18.296  23.437  1.00  0.00     0.012 C 
ATOM     20  C   UNL A   1      32.818  16.426  24.883  1.00  0.00     0.136 C 
ATOM     21  C   UNL A   1      33.900  17.441  23.034  1.00  0.00     0.009 C 
ATOM     22  C   UNL A   1      33.689  16.089  23.702  1.00  0.00     0.076 C 
ATOM     23  O   UNL A   1      32.538  15.626  25.770  1.00  0.00    -0.299 OA
ENDBRANCH  17  18
ENDBRANCH  16  17
ENDBRANCH   8  10
ENDBRANCH   5   8
ENDBRANCH   3   4
ENDBRANCH   2   3
ENDBRANCH   1   2
BRANCH   1  24
ATOM     24  C   UNL A   1      33.367  28.136  26.363  1.00  0.00     0.002 C 
BRANCH  24  25
ATOM     25  C   UNL A   1      34.092  29.414  26.790  1.00  0.00     0.021 C 
BRANCH  25  26
ATOM     26  C   UNL A   1      35.109  29.219  27.909  1.00  0.00     0.116 C 
BRANCH  26  27
ATOM     27  N   UNL A   1      35.262  30.416  28.721  1.00  0.00    -0.352 N 
ATOM     28  C   UNL A   1      36.372  30.882  29.378  1.00  0.00     0.251 C 
ATOM     29  H   UNL A   1      34.453  30.970  28.811  1.00  0.00     0.163 HD
ATOM     30  O   UNL A   1      36.264  31.797  30.192  1.00  0.00    -0.269 OA
BRANCH  28  31
ATOM     31  C   UNL A   1      37.692  30.267  29.121  1.00  0.00     0.039 A 
ATOM     32  C   UNL A   1      38.057  29.974  27.806  1.00  0.00     0.014 A 
ATOM     33  C   UNL A   1      38.569  29.987  30.174  1.00  0.00     0.014 A 
ATOM     34  C   UNL A   1      39.330  29.464  27.539  1.00  0.00     0.010 A 
ATOM     35  C   UNL A   1      39.862  29.546  29.900  1.00  0.00     0.010 A 
ATOM     36  C   UNL A   1      40.258  29.285  28.580  1.00  0.00    -0.014 A 
BRANCH  36  37
ATOM     37  C   UNL A   1      41.653  28.859  28.296  1.00  0.00     0.031 A 
ATOM     38  C   UNL A   1      42.768  29.871  28.254  1.00  0.00     0.074 A 
ATOM     39  C   UNL A   1      41.904  27.563  28.017  1.00  0.00     0.049 A 
ATOM     40  N   UNL A   1      44.032  29.690  27.969  1.00  0.00    -0.248 NA
ATOM     41  C   UNL A   1      42.414  31.269  28.548  1.00  0.00     0.031 C 
ATOM     42  C   UNL A   1      40.897  26.498  27.977  1.00  0.00     0.029 A 
ATOM     43  N   UNL A   1      43.075  26.919  27.704  1.00  0.00    -0.354 N 
ATOM     44  C   UNL A   1      44.621  30.947  28.038  1.00  0.00     0.074 A 
ATOM     45  C   UNL A   1      43.569  31.891  28.350  1.00  0.00     0.031 C 
ATOM     46  C   UNL A   1      41.498  25.334  27.677  1.00  0.00     0.029 A 
ATOM     47  C   UNL A   1      42.919  25.574  27.460  1.00  0.00     0.049 A 
ATOM     48  H   UNL A   1      43.945  27.378  27.659  1.00  0.00     0.167 HD
ATOM     49  C   UNL A   1      45.924  31.280  27.876  1.00  0.00     0.037 A 
ATOM     50  C   UNL A   1      43.817  24.640  27.087  1.00  0.00     0.037 A 
ATOM     51  C   UNL A   1      46.970  30.330  27.594  1.00  0.00     0.049 A 
ATOM     52  C   UNL A   1      45.257  25.043  26.906  1.00  0.00     0.074 A 
ATOM     53  C   UNL A   1      48.330  30.561  27.486  1.00  0.00     0.029 A 
ATOM     54  N   UNL A   1      46.777  28.975  27.371  1.00  0.00    -0.354 N 
ATOM     55  N   UNL A   1      45.809  26.224  27.058  1.00  0.00    -0.248 NA
ATOM     56  C   UNL A   1      46.200  23.988  26.507  1.00  0.00     0.031 C 
ATOM     57  C   UNL A   1      48.953  29.358  27.139  1.00  0.00     0.029 A 
ATOM     58  C   UNL A   1      47.989  28.365  27.093  1.00  0.00     0.049 A 
ATOM     59  H   UNL A   1      45.907  28.515  27.405  1.00  0.00     0.167 HD
ATOM     60  C   UNL A   1      47.164  26.046  26.802  1.00  0.00     0.074 A 
ATOM     61  C   UNL A   1      47.352  24.642  26.504  1.00  0.00     0.031 C 
ATOM     62  C   UNL A   1      48.163  26.962  26.808  1.00  0.00     0.037 A 
BRANCH  49  63
ATOM     63  C   UNL A   1      46.310  32.728  28.003  1.00  0.00     0.058 A 
ATOM     64  C   UNL A   1      46.193  33.620  26.926  1.00  0.00     0.135 A 
ATOM     65  C   UNL A   1      46.708  33.251  29.246  1.00  0.00     0.135 A 
ATOM     66  F   UNL A   1      45.832  33.173  25.713  1.00  0.00    -0.206 F 
ATOM     67  C   UNL A   1      46.462  34.978  27.074  1.00  0.00     0.059 A 
ATOM     68  C   UNL A   1      46.956  34.609  29.422  1.00  0.00     0.059 A 
ATOM     69  F   UNL A   1      46.840  32.441  30.309  1.00  0.00    -0.206 F 
ATOM     70  C   UNL A   1      46.833  35.464  28.329  1.00  0.00     0.060 A 
BRANCH  70  71
ATOM     71  S   UNL A   1      47.125  37.236  28.512  1.00  0.00     0.124 S 
ATOM     72  O   UNL A   1      47.578  37.315  29.898  1.00  0.00    -0.237 OA
ATOM     73  O   UNL A   1      48.143  37.489  27.497  1.00  0.00    -0.237 OA
ATOM     74  O   UNL A   1      45.817  37.827  28.247  1.00  0.00    -0.744 OA
ENDBRANCH  70  71
ENDBRANCH  49  63
BRANCH  50  75
ATOM     75  C   UNL A   1      43.389  23.234  26.849  1.00  0.00     0.058 A 
ATOM     76  C   UNL A   1      43.138  22.361  27.917  1.00  0.00     0.135 A 
ATOM     77  C   UNL A   1      43.251  22.727  25.547  1.00  0.00     0.135 A 
ATOM     78  F   UNL A   1      43.260  22.795  29.182  1.00  0.00    -0.206 F 
ATOM     79  C   UNL A   1      42.805  21.026  27.707  1.00  0.00     0.059 A 
ATOM     80  C   UNL A   1      42.887  21.406  25.311  1.00  0.00     0.059 A 
ATOM     81  F   UNL A   1      43.459  23.525  24.487  1.00  0.00    -0.206 F 
ATOM     82  C   UNL A   1      42.686  20.557  26.398  1.00  0.00     0.060 A 
BRANCH  82  83
ATOM     83  S   UNL A   1      42.247  18.826  26.133  1.00  0.00     0.124 S 
ATOM     84  O   UNL A   1      42.458  18.264  27.461  1.00  0.00    -0.237 OA
ATOM     85  O   UNL A   1      40.858  18.925  25.694  1.00  0.00    -0.237 OA
ATOM     86  O   UNL A   1      43.191  18.395  25.106  1.00  0.00    -0.744 OA
ENDBRANCH  82  83
ENDBRANCH  50  75
BRANCH  62  87
ATOM     87  C   UNL A   1      49.557  26.473  26.521  1.00  0.00     0.058 A 
ATOM     88  C   UNL A   1      50.098  26.500  25.226  1.00  0.00     0.135 A 
ATOM     89  C   UNL A   1      50.379  26.015  27.566  1.00  0.00     0.135 A 
ATOM     90  F   UNL A   1      49.354  26.922  24.192  1.00  0.00    -0.206 F 
ATOM     91  C   UNL A   1      51.395  26.066  24.972  1.00  0.00     0.059 A 
ATOM     92  C   UNL A   1      51.688  25.607  27.339  1.00  0.00     0.059 A 
ATOM     93  F   UNL A   1      49.915  25.978  28.824  1.00  0.00    -0.206 F 
ATOM     94  C   UNL A   1      52.184  25.624  26.036  1.00  0.00     0.060 A 
BRANCH  94  95
ATOM     95  S   UNL A   1      53.875  25.093  25.695  1.00  0.00     0.124 S 
ATOM     96  O   UNL A   1      54.581  25.589  26.870  1.00  0.00    -0.237 OA
ATOM     97  O   UNL A   1      53.735  23.644  25.604  1.00  0.00    -0.237 OA
ATOM     98  O   UNL A   1      54.196  25.766  24.439  1.00  0.00    -0.744 OA
ENDBRANCH  94  95
ENDBRANCH  62  87
ENDBRANCH  36  37
ENDBRANCH  28  31
ENDBRANCH  26  27
ENDBRANCH  25  26
ENDBRANCH  24  25
ENDBRANCH   1  24
TORSDOF 19
ENDMDL
MODEL 3
REMARK VINA RESULT:     -10.8      1.232      8.231
REMARK SMILES C[C@@H](C(=O)NCCCCCCNC(=O)c1ccc(-c2c3nc(c(-c4c(F)cc(S(=O)(=O)[O-])cc4F)c4ccc([nH]4)c(-c4c(F)cc(S(=O)(=O)[O-])cc4F)c4nc(c(-c5c(F)cc(S(=O)(=O)[O-])cc5F)c5ccc2[nH]5)C=C4)C=C3)cc1)c1ccc(C[C@H]2CCCC2=O)cc1I
REMARK SMILES IDX 8 1 7 2 6 3 5 4 3 5 4 6 2 8 1 9 81 10 82 11 93 12 83 13
REMARK SMILES IDX 92 14 94 15 84 16 85 17 86 18 87 19 90 20 88 21 89 22 91 23
REMARK SMILES IDX 9 24 10 25 11 26 12 27 13 28 14 30 15 31 16 32 80 33 17 34
REMARK SMILES IDX 79 35 18 36 19 37 20 38 73 39 21 40 78 41 72 42 74 43 22 44
REMARK SMILES IDX 77 45 71 46 70 47 23 49 57 50 36 51 56 52 37 53 40 54 55 55
REMARK SMILES IDX 75 56 38 57 39 58 54 60 76 61 41 62 24 63 25 64 34 65 26 66
REMARK SMILES IDX 27 67 33 68 35 69 28 70 29 71 30 72 31 73 32 74 58 75 59 76
REMARK SMILES IDX 68 77 60 78 61 79 67 80 69 81 62 82 63 83 64 84 65 85 66 86
REMARK SMILES IDX 42 87 43 88 52 89 44 90 45 91 51 92 53 93 46 94 47 95 48 96
REMARK SMILES IDX 49 97 50 98
REMARK H PARENT 5 7 12 29 74 48 40 59
REMARK Flexibility Score: inf
ROOT
ATOM      1  C   UNL A   1      39.345  24.102  26.633  1.00  0.00     0.002 C 
ENDROOT
BRANCH   1   2
ATOM      2  C   UNL A   1      37.822  23.992  26.495  1.00  0.00     0.021 C 
BRANCH   2   3
ATOM      3  C   UNL A   1      37.344  22.711  25.809  1.00  0.00     0.116 C 
BRANCH   3   4
ATOM      4  N   UNL A   1      37.250  22.901  24.377  1.00  0.00    -0.356 N 
ATOM      5  C   UNL A   1      36.173  22.856  23.544  1.00  0.00     0.227 C 
ATOM      6  O   UNL A   1      36.413  23.027  22.347  1.00  0.00    -0.274 OA
ATOM      7  H   UNL A   1      38.106  23.094  23.931  1.00  0.00     0.163 HD
BRANCH   5   8
ATOM      8  C   UNL A   1      34.754  22.661  24.123  1.00  0.00     0.106 C 
ATOM      9  C   UNL A   1      33.733  22.193  23.080  1.00  0.00     0.023 C 
BRANCH   8  10
ATOM     10  C   UNL A   1      34.183  23.906  24.808  1.00  0.00    -0.022 A 
ATOM     11  C   UNL A   1      34.159  25.121  24.092  1.00  0.00     0.006 A 
ATOM     12  C   UNL A   1      33.600  23.900  26.088  1.00  0.00     0.017 A 
ATOM     13  C   UNL A   1      33.653  26.293  24.648  1.00  0.00     0.004 A 
ATOM     14  C   UNL A   1      33.093  25.085  26.649  1.00  0.00     0.018 A 
ATOM     15  I   UNL A   1      33.380  22.171  27.269  1.00  0.00    -0.044 I 
ATOM     16  C   UNL A   1      33.140  26.293  25.944  1.00  0.00    -0.046 A 
BRANCH  16  17
ATOM     17  C   UNL A   1      32.668  27.578  26.576  1.00  0.00     0.047 C 
BRANCH  17  18
ATOM     18  C   UNL A   1      33.004  28.863  25.808  1.00  0.00     0.060 C 
ATOM     19  C   UNL A   1      32.054  29.245  24.671  1.00  0.00     0.012 C 
ATOM     20  C   UNL A   1      32.963  30.094  26.684  1.00  0.00     0.136 C 
ATOM     21  C   UNL A   1      31.095  30.286  25.237  1.00  0.00     0.009 C 
ATOM     22  C   UNL A   1      31.894  31.070  26.269  1.00  0.00     0.076 C 
ATOM     23  O   UNL A   1      33.734  30.289  27.618  1.00  0.00    -0.299 OA
ENDBRANCH  17  18
ENDBRANCH  16  17
ENDBRANCH   8  10
ENDBRANCH   5   8
ENDBRANCH   3   4
ENDBRANCH   2   3
ENDBRANCH   1   2
BRANCH   1  24
ATOM     24  C   UNL A   1      40.061  22.795  26.981  1.00  0.00     0.002 C 
BRANCH  24  25
ATOM     25  C   UNL A   1      41.455  22.643  26.368  1.00  0.00     0.021 C 
BRANCH  25  26
ATOM     26  C   UNL A   1      42.435  23.749  26.746  1.00  0.00     0.116 C 
BRANCH  26  27
ATOM     27  N   UNL A   1      42.573  24.738  25.689  1.00  0.00    -0.352 N 
ATOM     28  C   UNL A   1      42.375  26.094  25.740  1.00  0.00     0.251 C 
ATOM     29  H   UNL A   1      42.849  24.384  24.813  1.00  0.00     0.163 HD
ATOM     30  O   UNL A   1      42.328  26.747  24.699  1.00  0.00    -0.269 OA
BRANCH  28  31
ATOM     31  C   UNL A   1      42.194  26.764  27.045  1.00  0.00     0.039 A 
ATOM     32  C   UNL A   1      42.907  27.935  27.309  1.00  0.00     0.014 A 
ATOM     33  C   UNL A   1      41.319  26.242  28.003  1.00  0.00     0.014 A 
ATOM     34  C   UNL A   1      42.690  28.621  28.507  1.00  0.00     0.010 A 
ATOM     35  C   UNL A   1      41.051  26.964  29.164  1.00  0.00     0.010 A 
ATOM     36  C   UNL A   1      41.730  28.164  29.425  1.00  0.00    -0.014 A 
BRANCH  36  37
ATOM     37  C   UNL A   1      41.403  28.949  30.645  1.00  0.00     0.031 A 
ATOM     38  C   UNL A   1      40.232  29.895  30.653  1.00  0.00     0.074 A 
ATOM     39  C   UNL A   1      42.202  28.850  31.727  1.00  0.00     0.049 A 
ATOM     40  N   UNL A   1      39.832  30.699  31.605  1.00  0.00    -0.248 NA
ATOM     41  C   UNL A   1      39.419  29.965  29.429  1.00  0.00     0.031 C 
ATOM     42  C   UNL A   1      43.396  28.004  31.821  1.00  0.00     0.029 A 
ATOM     43  N   UNL A   1      42.142  29.469  32.951  1.00  0.00    -0.354 N 
ATOM     44  C   UNL A   1      38.731  31.376  31.092  1.00  0.00     0.074 A 
ATOM     45  C   UNL A   1      38.551  30.922  29.731  1.00  0.00     0.031 C 
ATOM     46  C   UNL A   1      43.942  28.145  33.041  1.00  0.00     0.029 A 
ATOM     47  C   UNL A   1      43.167  29.120  33.799  1.00  0.00     0.049 A 
ATOM     48  H   UNL A   1      41.431  30.104  33.198  1.00  0.00     0.167 HD
ATOM     49  C   UNL A   1      37.932  32.279  31.710  1.00  0.00     0.037 A 
ATOM     50  C   UNL A   1      43.461  29.549  35.043  1.00  0.00     0.037 A 
ATOM     51  C   UNL A   1      38.101  32.705  33.076  1.00  0.00     0.049 A 
ATOM     52  C   UNL A   1      42.559  30.560  35.699  1.00  0.00     0.074 A 
ATOM     53  C   UNL A   1      37.299  33.560  33.812  1.00  0.00     0.029 A 
ATOM     54  N   UNL A   1      39.140  32.317  33.909  1.00  0.00    -0.354 N 
ATOM     55  N   UNL A   1      41.474  31.126  35.227  1.00  0.00    -0.248 NA
ATOM     56  C   UNL A   1      42.917  30.990  37.059  1.00  0.00     0.031 C 
ATOM     57  C   UNL A   1      37.885  33.736  35.070  1.00  0.00     0.029 A 
ATOM     58  C   UNL A   1      39.017  32.941  35.139  1.00  0.00     0.049 A 
ATOM     59  H   UNL A   1      39.858  31.691  33.662  1.00  0.00     0.167 HD
ATOM     60  C   UNL A   1      41.005  31.954  36.241  1.00  0.00     0.074 A 
ATOM     61  C   UNL A   1      41.913  31.801  37.359  1.00  0.00     0.031 C 
ATOM     62  C   UNL A   1      39.923  32.771  36.248  1.00  0.00     0.037 A 
BRANCH  49  63
ATOM     63  C   UNL A   1      36.792  32.873  30.928  1.00  0.00     0.058 A 
ATOM     64  C   UNL A   1      35.460  32.500  31.166  1.00  0.00     0.135 A 
ATOM     65  C   UNL A   1      37.028  33.901  29.998  1.00  0.00     0.135 A 
ATOM     66  F   UNL A   1      35.179  31.514  32.032  1.00  0.00    -0.206 F 
ATOM     67  C   UNL A   1      34.403  33.120  30.507  1.00  0.00     0.059 A 
ATOM     68  C   UNL A   1      35.984  34.552  29.348  1.00  0.00     0.059 A 
ATOM     69  F   UNL A   1      38.283  34.294  29.730  1.00  0.00    -0.206 F 
ATOM     70  C   UNL A   1      34.674  34.152  29.607  1.00  0.00     0.060 A 
BRANCH  70  71
ATOM     71  S   UNL A   1      33.286  34.980  28.803  1.00  0.00     0.124 S 
ATOM     72  O   UNL A   1      32.420  35.271  29.942  1.00  0.00    -0.237 OA
ATOM     73  O   UNL A   1      33.930  36.134  28.184  1.00  0.00    -0.237 OA
ATOM     74  O   UNL A   1      32.781  33.973  27.874  1.00  0.00    -0.744 OA
ENDBRANCH  70  71
ENDBRANCH  49  63
BRANCH  50  75
ATOM     75  C   UNL A   1      44.665  29.035  35.753  1.00  0.00     0.058 A 
ATOM     76  C   UNL A   1      44.593  27.907  36.583  1.00  0.00     0.135 A 
ATOM     77  C   UNL A   1      45.907  29.681  35.638  1.00  0.00     0.135 A 
ATOM     78  F   UNL A   1      43.429  27.256  36.730  1.00  0.00    -0.206 F 
ATOM     79  C   UNL A   1      45.696  27.460  37.306  1.00  0.00     0.059 A 
ATOM     80  C   UNL A   1      47.031  29.234  36.325  1.00  0.00     0.059 A 
ATOM     81  F   UNL A   1      46.038  30.753  34.841  1.00  0.00    -0.206 F 
ATOM     82  C   UNL A   1      46.911  28.134  37.172  1.00  0.00     0.060 A 
BRANCH  82  83
ATOM     83  S   UNL A   1      48.338  27.544  38.107  1.00  0.00     0.124 S 
ATOM     84  O   UNL A   1      48.696  28.731  38.874  1.00  0.00    -0.237 OA
ATOM     85  O   UNL A   1      47.769  26.437  38.870  1.00  0.00    -0.237 OA
ATOM     86  O   UNL A   1      49.284  27.156  37.064  1.00  0.00    -0.744 OA
ENDBRANCH  82  83
ENDBRANCH  50  75
BRANCH  62  87
ATOM     87  C   UNL A   1      39.637  33.536  37.511  1.00  0.00     0.058 A 
ATOM     88  C   UNL A   1      38.742  33.056  38.480  1.00  0.00     0.135 A 
ATOM     89  C   UNL A   1      40.304  34.744  37.777  1.00  0.00     0.135 A 
ATOM     90  F   UNL A   1      38.073  31.911  38.272  1.00  0.00    -0.206 F 
ATOM     91  C   UNL A   1      38.498  33.759  39.655  1.00  0.00     0.059 A 
ATOM     92  C   UNL A   1      40.100  35.446  38.960  1.00  0.00     0.059 A 
ATOM     93  F   UNL A   1      41.179  35.244  36.890  1.00  0.00    -0.206 F 
ATOM     94  C   UNL A   1      39.184  34.952  39.888  1.00  0.00     0.060 A 
BRANCH  94  95
ATOM     95  S   UNL A   1      38.881  35.836  41.432  1.00  0.00     0.124 S 
ATOM     96  O   UNL A   1      40.026  35.425  42.236  1.00  0.00    -0.237 OA
ATOM     97  O   UNL A   1      38.877  37.229  40.998  1.00  0.00    -0.237 OA
ATOM     98  O   UNL A   1      37.587  35.319  41.872  1.00  0.00    -0.744 OA
ENDBRANCH  94  95
ENDBRANCH  62  87
ENDBRANCH  36  37
ENDBRANCH  28  31
ENDBRANCH  26  27
ENDBRANCH  25  26
ENDBRANCH  24  25
ENDBRANCH   1  24
TORSDOF 19
ENDMDL
