MODEL 1
REMARK VINA RESULT:     -13.1      0.000      0.000
REMARK SMILES Cc1ccc(C[C@@H](Cc2cc(F)cc(Br)c2)C(=O)NCCCCCCNC(=O)c2ccc(-c3c4nc(c(-c5c(F)cc(S(=O)(=O)[O-])cc5F)c5ccc([nH]5)c(-c5c(F)cc(S(=O)(=O)[O-])cc5F)c5nc(c(-c6c(F)cc(S(=O)(=O)[O-])cc6F)c6ccc3[nH]6)C=C5)C=C4)cc2)cc1
REMARK SMILES IDX 23 1 22 2 21 3 20 4 19 5 17 6 18 7 7 9 6 10 5 11 1 12 2 13
REMARK SMILES IDX 3 14 96 15 4 16 95 17 8 18 9 19 10 20 16 21 11 22 14 23
REMARK SMILES IDX 12 24 13 25 15 26 24 27 25 28 26 29 27 30 28 32 29 33 30 34
REMARK SMILES IDX 94 35 31 36 93 37 32 38 33 39 34 40 87 41 35 42 92 43 86 44
REMARK SMILES IDX 88 45 36 46 91 47 85 48 84 49 37 51 71 52 50 53 70 54 51 55
REMARK SMILES IDX 54 56 69 57 89 58 52 59 53 60 68 62 90 63 55 64 38 65 39 66
REMARK SMILES IDX 48 67 40 68 41 69 47 70 49 71 42 72 43 73 44 74 45 75 46 76
REMARK SMILES IDX 72 77 73 78 82 79 74 80 75 81 81 82 83 83 76 84 77 85 78 86
REMARK SMILES IDX 79 87 80 88 56 89 57 90 66 91 58 92 59 93 65 94 67 95 60 96
REMARK SMILES IDX 61 97 62 98 63 99 64 100
REMARK H PARENT 19 8 26 31 88 50 54 61
REMARK Flexibility Score: inf
ROOT
ATOM      1  C   UNL A   1      36.032  21.648  25.800  1.00  0.00     0.002 C 
ENDROOT
BRANCH   1   2
ATOM      2  C   UNL A   1      34.860  21.400  24.830  1.00  0.00     0.002 C 
BRANCH   2   3
ATOM      3  C   UNL A   1      34.304  22.618  24.080  1.00  0.00     0.021 C 
BRANCH   3   4
ATOM      4  C   UNL A   1      32.803  22.825  24.227  1.00  0.00     0.116 C 
BRANCH   4   5
ATOM      5  N   UNL A   1      32.378  22.836  25.615  1.00  0.00    -0.356 N 
ATOM      6  C   UNL A   1      31.820  23.833  26.351  1.00  0.00     0.223 C 
ATOM      7  O   UNL A   1      31.398  23.555  27.479  1.00  0.00    -0.275 OA
ATOM      8  H   UNL A   1      32.517  21.989  26.099  1.00  0.00     0.163 HD
BRANCH   6   9
ATOM      9  C   UNL A   1      31.729  25.269  25.842  1.00  0.00     0.087 C 
BRANCH   9  10
ATOM     10  C   UNL A   1      33.107  25.931  26.123  1.00  0.00     0.049 C 
BRANCH  10  11
ATOM     11  C   UNL A   1      33.162  27.362  26.611  1.00  0.00    -0.047 A 
ATOM     12  C   UNL A   1      33.257  31.600  27.492  1.00  0.00     0.044 C 
ATOM     13  C   UNL A   1      33.241  30.129  27.201  1.00  0.00    -0.051 A 
ATOM     14  C   UNL A   1      32.051  29.408  27.329  1.00  0.00     0.004 A 
ATOM     15  C   UNL A   1      34.396  29.456  26.794  1.00  0.00     0.004 A 
ATOM     16  C   UNL A   1      32.010  28.046  27.021  1.00  0.00     0.004 A 
ATOM     17  C   UNL A   1      34.358  28.087  26.506  1.00  0.00     0.004 A 
ENDBRANCH  10  11
ENDBRANCH   9  10
BRANCH   9  18
ATOM     18  C   UNL A   1      31.183  25.466  24.408  1.00  0.00     0.049 C 
BRANCH  18  19
ATOM     19  C   UNL A   1      30.717  26.795  23.846  1.00  0.00    -0.043 A 
ATOM     20  C   UNL A   1      31.697  27.620  23.259  1.00  0.00     0.043 A 
ATOM     21  C   UNL A   1      29.391  27.246  23.827  1.00  0.00     0.019 A 
ATOM     22  C   UNL A   1      31.344  28.786  22.587  1.00  0.00     0.124 A 
ATOM     23  C   UNL A   1      29.047  28.402  23.110  1.00  0.00     0.021 A 
ATOM     24  F   UNL A   1      32.300  29.530  22.018  1.00  0.00    -0.207 F 
ATOM     25  C   UNL A   1      30.018  29.171  22.478  1.00  0.00     0.055 A 
ATOM     26  Br  UNL A   1      27.228  28.894  22.952  1.00  0.00    -0.051 Br
ENDBRANCH  18  19
ENDBRANCH   9  18
ENDBRANCH   6   9
ENDBRANCH   4   5
ENDBRANCH   3   4
ENDBRANCH   2   3
ENDBRANCH   1   2
BRANCH   1  27
ATOM     27  C   UNL A   1      36.550  23.084  25.928  1.00  0.00     0.021 C 
BRANCH  27  28
ATOM     28  C   UNL A   1      38.057  23.230  25.825  1.00  0.00     0.116 C 
BRANCH  28  29
ATOM     29  N   UNL A   1      38.795  23.203  27.074  1.00  0.00    -0.352 N 
ATOM     30  C   UNL A   1      39.987  23.929  27.107  1.00  0.00     0.251 C 
ATOM     31  H   UNL A   1      38.473  22.700  27.856  1.00  0.00     0.163 HD
ATOM     32  O   UNL A   1      41.067  23.530  26.711  1.00  0.00    -0.269 OA
BRANCH  30  33
ATOM     33  C   UNL A   1      39.747  25.376  27.308  1.00  0.00     0.039 A 
ATOM     34  C   UNL A   1      40.346  26.351  26.515  1.00  0.00     0.014 A 
ATOM     35  C   UNL A   1      39.096  25.707  28.500  1.00  0.00     0.014 A 
ATOM     36  C   UNL A   1      40.399  27.666  26.990  1.00  0.00     0.010 A 
ATOM     37  C   UNL A   1      39.241  26.976  29.010  1.00  0.00     0.010 A 
ATOM     38  C   UNL A   1      39.911  27.954  28.267  1.00  0.00    -0.014 A 
BRANCH  38  39
ATOM     39  C   UNL A   1      40.089  29.221  28.966  1.00  0.00     0.031 A 
ATOM     40  C   UNL A   1      38.999  30.225  28.983  1.00  0.00     0.074 A 
ATOM     41  C   UNL A   1      41.174  29.395  29.751  1.00  0.00     0.049 A 
ATOM     42  N   UNL A   1      39.155  31.464  29.308  1.00  0.00    -0.248 NA
ATOM     43  C   UNL A   1      37.625  29.904  28.607  1.00  0.00     0.031 C 
ATOM     44  C   UNL A   1      41.340  30.373  30.823  1.00  0.00     0.029 A 
ATOM     45  N   UNL A   1      42.436  28.820  29.613  1.00  0.00    -0.354 N 
ATOM     46  C   UNL A   1      37.906  32.028  29.445  1.00  0.00     0.074 A 
ATOM     47  C   UNL A   1      36.988  31.027  28.953  1.00  0.00     0.031 C 
ATOM     48  C   UNL A   1      42.647  30.514  31.089  1.00  0.00     0.029 A 
ATOM     49  C   UNL A   1      43.375  29.754  30.088  1.00  0.00     0.049 A 
ATOM     50  H   UNL A   1      42.634  27.926  29.252  1.00  0.00     0.167 HD
ATOM     51  C   UNL A   1      37.774  33.229  30.079  1.00  0.00     0.037 A 
ATOM     52  C   UNL A   1      44.316  30.287  29.252  1.00  0.00     0.037 A 
ATOM     53  C   UNL A   1      39.076  33.760  30.475  1.00  0.00     0.049 A 
ATOM     54  C   UNL A   1      44.200  31.783  29.066  1.00  0.00     0.074 A 
ATOM     55  C   UNL A   1      39.782  33.708  31.666  1.00  0.00     0.029 A 
ATOM     56  N   UNL A   1      39.975  34.181  29.502  1.00  0.00    -0.354 N 
ATOM     57  N   UNL A   1      43.138  32.478  29.371  1.00  0.00    -0.248 NA
ATOM     58  C   UNL A   1      45.268  32.616  28.522  1.00  0.00     0.031 C 
ATOM     59  C   UNL A   1      41.130  34.043  31.394  1.00  0.00     0.029 A 
ATOM     60  C   UNL A   1      41.240  34.316  30.042  1.00  0.00     0.049 A 
ATOM     61  H   UNL A   1      39.744  34.359  28.561  1.00  0.00     0.167 HD
ATOM     62  C   UNL A   1      43.339  33.797  29.050  1.00  0.00     0.074 A 
ATOM     63  C   UNL A   1      44.701  33.835  28.551  1.00  0.00     0.031 C 
ATOM     64  C   UNL A   1      42.365  34.740  29.219  1.00  0.00     0.037 A 
BRANCH  51  65
ATOM     65  C   UNL A   1      36.454  33.768  30.590  1.00  0.00     0.058 A 
ATOM     66  C   UNL A   1      35.474  34.258  29.696  1.00  0.00     0.135 A 
ATOM     67  C   UNL A   1      36.111  33.874  31.952  1.00  0.00     0.135 A 
ATOM     68  F   UNL A   1      35.613  34.145  28.370  1.00  0.00    -0.206 F 
ATOM     69  C   UNL A   1      34.311  34.903  30.120  1.00  0.00     0.059 A 
ATOM     70  C   UNL A   1      34.979  34.564  32.404  1.00  0.00     0.059 A 
ATOM     71  F   UNL A   1      36.848  33.275  32.899  1.00  0.00    -0.206 F 
ATOM     72  C   UNL A   1      34.089  35.088  31.477  1.00  0.00     0.060 A 
BRANCH  72  73
ATOM     73  S   UNL A   1      32.635  36.020  31.996  1.00  0.00     0.124 S 
ATOM     74  O   UNL A   1      33.191  36.925  32.999  1.00  0.00    -0.237 OA
ATOM     75  O   UNL A   1      32.209  36.640  30.747  1.00  0.00    -0.237 OA
ATOM     76  O   UNL A   1      31.742  34.991  32.522  1.00  0.00    -0.744 OA
ENDBRANCH  72  73
ENDBRANCH  51  65
BRANCH  52  77
ATOM     77  C   UNL A   1      44.791  29.312  28.228  1.00  0.00     0.058 A 
ATOM     78  C   UNL A   1      45.725  28.346  28.651  1.00  0.00     0.135 A 
ATOM     79  C   UNL A   1      44.007  29.007  27.106  1.00  0.00     0.135 A 
ATOM     80  F   UNL A   1      46.524  28.602  29.700  1.00  0.00    -0.206 F 
ATOM     81  C   UNL A   1      45.732  27.058  28.126  1.00  0.00     0.059 A 
ATOM     82  C   UNL A   1      44.009  27.724  26.553  1.00  0.00     0.059 A 
ATOM     83  F   UNL A   1      43.111  29.893  26.646  1.00  0.00    -0.206 F 
ATOM     84  C   UNL A   1      44.804  26.736  27.138  1.00  0.00     0.060 A 
BRANCH  84  85
ATOM     85  S   UNL A   1      44.523  24.986  26.772  1.00  0.00     0.124 S 
ATOM     86  O   UNL A   1      43.764  24.545  27.937  1.00  0.00    -0.237 OA
ATOM     87  O   UNL A   1      43.775  25.055  25.514  1.00  0.00    -0.237 OA
ATOM     88  O   UNL A   1      45.874  24.445  26.660  1.00  0.00    -0.744 OA
ENDBRANCH  84  85
ENDBRANCH  52  77
BRANCH  64  89
ATOM     89  C   UNL A   1      42.401  36.169  28.722  1.00  0.00     0.058 A 
ATOM     90  C   UNL A   1      42.962  37.240  29.437  1.00  0.00     0.135 A 
ATOM     91  C   UNL A   1      41.977  36.477  27.404  1.00  0.00     0.135 A 
ATOM     92  F   UNL A   1      43.508  37.061  30.648  1.00  0.00    -0.206 F 
ATOM     93  C   UNL A   1      43.035  38.534  28.916  1.00  0.00     0.059 A 
ATOM     94  C   UNL A   1      42.093  37.748  26.844  1.00  0.00     0.059 A 
ATOM     95  F   UNL A   1      41.445  35.544  26.601  1.00  0.00    -0.206 F 
ATOM     96  C   UNL A   1      42.599  38.780  27.618  1.00  0.00     0.060 A 
BRANCH  96  97
ATOM     97  S   UNL A   1      42.749  40.431  26.912  1.00  0.00     0.124 S 
ATOM     98  O   UNL A   1      43.460  41.138  27.972  1.00  0.00    -0.237 OA
ATOM     99  O   UNL A   1      43.514  40.195  25.690  1.00  0.00    -0.237 OA
ATOM    100  O   UNL A   1      41.361  40.829  26.703  1.00  0.00    -0.744 OA
ENDBRANCH  96  97
ENDBRANCH  64  89
ENDBRANCH  38  39
ENDBRANCH  30  33
ENDBRANCH  28  29
ENDBRANCH  27  28
ENDBRANCH   1  27
TORSDOF 20
ENDMDL
MODEL 2
REMARK VINA RESULT:     -12.8      4.474     10.927
REMARK SMILES Cc1ccc(C[C@@H](Cc2cc(F)cc(Br)c2)C(=O)NCCCCCCNC(=O)c2ccc(-c3c4nc(c(-c5c(F)cc(S(=O)(=O)[O-])cc5F)c5ccc([nH]5)c(-c5c(F)cc(S(=O)(=O)[O-])cc5F)c5nc(c(-c6c(F)cc(S(=O)(=O)[O-])cc6F)c6ccc3[nH]6)C=C5)C=C4)cc2)cc1
REMARK SMILES IDX 23 1 22 2 21 3 20 4 19 5 17 6 18 7 7 9 6 10 5 11 1 12 2 13
REMARK SMILES IDX 3 14 96 15 4 16 95 17 8 18 9 19 10 20 16 21 11 22 14 23
REMARK SMILES IDX 12 24 13 25 15 26 24 27 25 28 26 29 27 30 28 32 29 33 30 34
REMARK SMILES IDX 94 35 31 36 93 37 32 38 33 39 34 40 87 41 35 42 92 43 86 44
REMARK SMILES IDX 88 45 36 46 91 47 85 48 84 49 37 51 71 52 50 53 70 54 51 55
REMARK SMILES IDX 54 56 69 57 89 58 52 59 53 60 68 62 90 63 55 64 38 65 39 66
REMARK SMILES IDX 48 67 40 68 41 69 47 70 49 71 42 72 43 73 44 74 45 75 46 76
REMARK SMILES IDX 72 77 73 78 82 79 74 80 75 81 81 82 83 83 76 84 77 85 78 86
REMARK SMILES IDX 79 87 80 88 56 89 57 90 66 91 58 92 59 93 65 94 67 95 60 96
REMARK SMILES IDX 61 97 62 98 63 99 64 100
REMARK H PARENT 19 8 26 31 88 50 54 61
REMARK Flexibility Score: inf
ROOT
ATOM      1  C   UNL A   1      32.885  28.881  24.908  1.00  0.00     0.002 C 
ENDROOT
BRANCH   1   2
ATOM      2  C   UNL A   1      31.432  29.394  24.845  1.00  0.00     0.002 C 
BRANCH   2   3
ATOM      3  C   UNL A   1      30.540  28.830  23.732  1.00  0.00     0.021 C 
BRANCH   3   4
ATOM      4  C   UNL A   1      30.747  27.351  23.438  1.00  0.00     0.116 C 
BRANCH   4   5
ATOM      5  N   UNL A   1      31.110  27.106  22.054  1.00  0.00    -0.356 N 
ATOM      6  C   UNL A   1      31.731  26.037  21.489  1.00  0.00     0.223 C 
ATOM      7  O   UNL A   1      31.794  25.988  20.256  1.00  0.00    -0.275 OA
ATOM      8  H   UNL A   1      30.870  27.827  21.427  1.00  0.00     0.163 HD
BRANCH   6   9
ATOM      9  C   UNL A   1      32.369  24.929  22.323  1.00  0.00     0.087 C 
BRANCH   9  10
ATOM     10  C   UNL A   1      33.558  25.574  23.088  1.00  0.00     0.049 C 
BRANCH  10  11
ATOM     11  C   UNL A   1      34.622  24.686  23.698  1.00  0.00    -0.047 A 
ATOM     12  C   UNL A   1      37.259  21.866  25.656  1.00  0.00     0.044 C 
ATOM     13  C   UNL A   1      36.359  22.859  24.984  1.00  0.00    -0.051 A 
ATOM     14  C   UNL A   1      36.008  22.684  23.643  1.00  0.00     0.004 A 
ATOM     15  C   UNL A   1      35.852  23.964  25.674  1.00  0.00     0.004 A 
ATOM     16  C   UNL A   1      35.137  23.576  23.015  1.00  0.00     0.004 A 
ATOM     17  C   UNL A   1      34.997  24.869  25.037  1.00  0.00     0.004 A 
ENDBRANCH  10  11
ENDBRANCH   9  10
BRANCH   9  18
ATOM     18  C   UNL A   1      31.414  24.074  23.190  1.00  0.00     0.049 C 
BRANCH  18  19
ATOM     19  C   UNL A   1      31.863  22.930  24.080  1.00  0.00    -0.043 A 
ATOM     20  C   UNL A   1      32.073  21.682  23.461  1.00  0.00     0.043 A 
ATOM     21  C   UNL A   1      32.126  23.028  25.452  1.00  0.00     0.019 A 
ATOM     22  C   UNL A   1      32.626  20.617  24.164  1.00  0.00     0.124 A 
ATOM     23  C   UNL A   1      32.721  21.958  26.136  1.00  0.00     0.021 A 
ATOM     24  F   UNL A   1      32.836  19.455  23.535  1.00  0.00    -0.207 F 
ATOM     25  C   UNL A   1      32.985  20.752  25.495  1.00  0.00     0.055 A 
ATOM     26  Br  UNL A   1      33.228  22.173  27.946  1.00  0.00    -0.051 Br
ENDBRANCH  18  19
ENDBRANCH   9  18
ENDBRANCH   6   9
ENDBRANCH   4   5
ENDBRANCH   3   4
ENDBRANCH   2   3
ENDBRANCH   1   2
BRANCH   1  27
ATOM     27  C   UNL A   1      33.504  28.687  26.297  1.00  0.00     0.021 C 
BRANCH  27  28
ATOM     28  C   UNL A   1      33.461  29.911  27.191  1.00  0.00     0.116 C 
BRANCH  28  29
ATOM     29  N   UNL A   1      34.550  30.858  27.045  1.00  0.00    -0.352 N 
ATOM     30  C   UNL A   1      35.309  31.114  28.188  1.00  0.00     0.251 C 
ATOM     31  H   UNL A   1      34.743  31.297  26.185  1.00  0.00     0.163 HD
ATOM     32  O   UNL A   1      35.021  31.912  29.061  1.00  0.00    -0.269 OA
BRANCH  30  33
ATOM     33  C   UNL A   1      36.304  30.046  28.441  1.00  0.00     0.039 A 
ATOM     34  C   UNL A   1      36.482  29.473  29.697  1.00  0.00     0.014 A 
ATOM     35  C   UNL A   1      37.225  29.841  27.410  1.00  0.00     0.014 A 
ATOM     36  C   UNL A   1      37.670  28.782  29.959  1.00  0.00     0.010 A 
ATOM     37  C   UNL A   1      38.432  29.251  27.701  1.00  0.00     0.010 A 
ATOM     38  C   UNL A   1      38.668  28.739  28.982  1.00  0.00    -0.014 A 
BRANCH  38  39
ATOM     39  C   UNL A   1      40.022  28.240  29.190  1.00  0.00     0.031 A 
ATOM     40  C   UNL A   1      40.383  26.863  28.776  1.00  0.00     0.074 A 
ATOM     41  C   UNL A   1      40.988  29.097  29.583  1.00  0.00     0.049 A 
ATOM     42  N   UNL A   1      41.439  26.237  29.174  1.00  0.00    -0.248 NA
ATOM     43  C   UNL A   1      39.551  26.064  27.881  1.00  0.00     0.031 C 
ATOM     44  C   UNL A   1      42.432  28.919  29.456  1.00  0.00     0.029 A 
ATOM     45  N   UNL A   1      40.851  30.251  30.354  1.00  0.00    -0.354 N 
ATOM     46  C   UNL A   1      41.571  25.099  28.408  1.00  0.00     0.074 A 
ATOM     47  C   UNL A   1      40.345  25.015  27.649  1.00  0.00     0.031 C 
ATOM     48  C   UNL A   1      43.053  29.758  30.299  1.00  0.00     0.029 A 
ATOM     49  C   UNL A   1      42.028  30.388  31.113  1.00  0.00     0.049 A 
ATOM     50  H   UNL A   1      40.076  30.857  30.365  1.00  0.00     0.167 HD
ATOM     51  C   UNL A   1      42.756  24.423  28.405  1.00  0.00     0.037 A 
ATOM     52  C   UNL A   1      41.991  30.336  32.478  1.00  0.00     0.037 A 
ATOM     53  C   UNL A   1      43.716  25.039  29.317  1.00  0.00     0.049 A 
ATOM     54  C   UNL A   1      42.762  29.180  33.072  1.00  0.00     0.074 A 
ATOM     55  C   UNL A   1      44.741  25.951  29.117  1.00  0.00     0.029 A 
ATOM     56  N   UNL A   1      43.497  24.987  30.689  1.00  0.00    -0.354 N 
ATOM     57  N   UNL A   1      43.148  28.132  32.396  1.00  0.00    -0.248 NA
ATOM     58  C   UNL A   1      43.161  29.108  34.475  1.00  0.00     0.031 C 
ATOM     59  C   UNL A   1      45.099  26.494  30.374  1.00  0.00     0.029 A 
ATOM     60  C   UNL A   1      44.305  25.900  31.340  1.00  0.00     0.049 A 
ATOM     61  H   UNL A   1      42.857  24.386  31.134  1.00  0.00     0.167 HD
ATOM     62  C   UNL A   1      43.792  27.253  33.229  1.00  0.00     0.074 A 
ATOM     63  C   UNL A   1      43.800  27.925  34.514  1.00  0.00     0.031 C 
ATOM     64  C   UNL A   1      44.257  26.045  32.789  1.00  0.00     0.037 A 
BRANCH  51  65
ATOM     65  C   UNL A   1      43.130  23.389  27.363  1.00  0.00     0.058 A 
ATOM     66  C   UNL A   1      42.545  22.102  27.375  1.00  0.00     0.135 A 
ATOM     67  C   UNL A   1      44.093  23.587  26.354  1.00  0.00     0.135 A 
ATOM     68  F   UNL A   1      41.551  21.789  28.215  1.00  0.00    -0.206 F 
ATOM     69  C   UNL A   1      42.964  21.067  26.537  1.00  0.00     0.059 A 
ATOM     70  C   UNL A   1      44.568  22.553  25.538  1.00  0.00     0.059 A 
ATOM     71  F   UNL A   1      44.583  24.808  26.096  1.00  0.00    -0.206 F 
ATOM     72  C   UNL A   1      44.005  21.289  25.647  1.00  0.00     0.060 A 
BRANCH  72  73
ATOM     73  S   UNL A   1      44.601  19.908  24.652  1.00  0.00     0.124 S 
ATOM     74  O   UNL A   1      45.955  19.719  25.167  1.00  0.00    -0.237 OA
ATOM     75  O   UNL A   1      43.644  18.859  24.983  1.00  0.00    -0.237 OA
ATOM     76  O   UNL A   1      44.528  20.417  23.285  1.00  0.00    -0.744 OA
ENDBRANCH  72  73
ENDBRANCH  51  65
BRANCH  52  77
ATOM     77  C   UNL A   1      40.749  30.941  33.041  1.00  0.00     0.058 A 
ATOM     78  C   UNL A   1      40.703  32.347  33.120  1.00  0.00     0.135 A 
ATOM     79  C   UNL A   1      39.528  30.255  32.992  1.00  0.00     0.135 A 
ATOM     80  F   UNL A   1      41.845  33.050  33.204  1.00  0.00    -0.206 F 
ATOM     81  C   UNL A   1      39.517  33.050  32.939  1.00  0.00     0.059 A 
ATOM     82  C   UNL A   1      38.322  30.942  32.825  1.00  0.00     0.059 A 
ATOM     83  F   UNL A   1      39.506  28.915  32.932  1.00  0.00    -0.206 F 
ATOM     84  C   UNL A   1      38.347  32.332  32.701  1.00  0.00     0.060 A 
BRANCH  84  85
ATOM     85  S   UNL A   1      36.917  33.228  32.045  1.00  0.00     0.124 S 
ATOM     86  O   UNL A   1      35.839  32.263  32.225  1.00  0.00    -0.237 OA
ATOM     87  O   UNL A   1      36.871  34.405  32.918  1.00  0.00    -0.237 OA
ATOM     88  O   UNL A   1      37.296  33.499  30.663  1.00  0.00    -0.744 OA
ENDBRANCH  84  85
ENDBRANCH  52  77
BRANCH  64  89
ATOM     89  C   UNL A   1      44.797  24.922  33.647  1.00  0.00     0.058 A 
ATOM     90  C   UNL A   1      46.159  24.599  33.760  1.00  0.00     0.135 A 
ATOM     91  C   UNL A   1      43.931  24.208  34.516  1.00  0.00     0.135 A 
ATOM     92  F   UNL A   1      47.096  25.278  33.083  1.00  0.00    -0.206 F 
ATOM     93  C   UNL A   1      46.625  23.596  34.614  1.00  0.00     0.059 A 
ATOM     94  C   UNL A   1      44.382  23.245  35.416  1.00  0.00     0.059 A 
ATOM     95  F   UNL A   1      42.609  24.433  34.531  1.00  0.00    -0.206 F 
ATOM     96  C   UNL A   1      45.729  22.924  35.439  1.00  0.00     0.060 A 
BRANCH  96  97
ATOM     97  S   UNL A   1      46.327  21.675  36.593  1.00  0.00     0.124 S 
ATOM     98  O   UNL A   1      45.832  22.194  37.865  1.00  0.00    -0.237 OA
ATOM     99  O   UNL A   1      45.680  20.455  36.117  1.00  0.00    -0.237 OA
ATOM    100  O   UNL A   1      47.773  21.719  36.409  1.00  0.00    -0.744 OA
ENDBRANCH  96  97
ENDBRANCH  64  89
ENDBRANCH  38  39
ENDBRANCH  30  33
ENDBRANCH  28  29
ENDBRANCH  27  28
ENDBRANCH   1  27
TORSDOF 20
ENDMDL
MODEL 3
REMARK VINA RESULT:     -12.7      1.619      1.959
REMARK SMILES Cc1ccc(C[C@@H](Cc2cc(F)cc(Br)c2)C(=O)NCCCCCCNC(=O)c2ccc(-c3c4nc(c(-c5c(F)cc(S(=O)(=O)[O-])cc5F)c5ccc([nH]5)c(-c5c(F)cc(S(=O)(=O)[O-])cc5F)c5nc(c(-c6c(F)cc(S(=O)(=O)[O-])cc6F)c6ccc3[nH]6)C=C5)C=C4)cc2)cc1
REMARK SMILES IDX 23 1 22 2 21 3 20 4 19 5 17 6 18 7 7 9 6 10 5 11 1 12 2 13
REMARK SMILES IDX 3 14 96 15 4 16 95 17 8 18 9 19 10 20 16 21 11 22 14 23
REMARK SMILES IDX 12 24 13 25 15 26 24 27 25 28 26 29 27 30 28 32 29 33 30 34
REMARK SMILES IDX 94 35 31 36 93 37 32 38 33 39 34 40 87 41 35 42 92 43 86 44
REMARK SMILES IDX 88 45 36 46 91 47 85 48 84 49 37 51 71 52 50 53 70 54 51 55
REMARK SMILES IDX 54 56 69 57 89 58 52 59 53 60 68 62 90 63 55 64 38 65 39 66
REMARK SMILES IDX 48 67 40 68 41 69 47 70 49 71 42 72 43 73 44 74 45 75 46 76
REMARK SMILES IDX 72 77 73 78 82 79 74 80 75 81 81 82 83 83 76 84 77 85 78 86
REMARK SMILES IDX 79 87 80 88 56 89 57 90 66 91 58 92 59 93 65 94 67 95 60 96
REMARK SMILES IDX 61 97 62 98 63 99 64 100
REMARK H PARENT 19 8 26 31 88 50 54 61
REMARK Flexibility Score: inf
ROOT
ATOM      1  C   UNL A   1      35.777  23.566  25.438  1.00  0.00     0.002 C 
ENDROOT
BRANCH   1   2
ATOM      2  C   UNL A   1      34.932  23.766  24.165  1.00  0.00     0.002 C 
BRANCH   2   3
ATOM      3  C   UNL A   1      33.665  22.911  24.025  1.00  0.00     0.021 C 
BRANCH   3   4
ATOM      4  C   UNL A   1      32.558  23.548  23.196  1.00  0.00     0.116 C 
BRANCH   4   5
ATOM      5  N   UNL A   1      33.066  24.515  22.241  1.00  0.00    -0.356 N 
ATOM      6  C   UNL A   1      32.934  25.868  22.212  1.00  0.00     0.223 C 
ATOM      7  O   UNL A   1      33.591  26.497  21.377  1.00  0.00    -0.275 OA
ATOM      8  H   UNL A   1      33.586  24.132  21.498  1.00  0.00     0.163 HD
BRANCH   6   9
ATOM      9  C   UNL A   1      31.988  26.615  23.149  1.00  0.00     0.087 C 
BRANCH   9  10
ATOM     10  C   UNL A   1      32.510  26.376  24.594  1.00  0.00     0.049 C 
BRANCH  10  11
ATOM     11  C   UNL A   1      32.775  27.562  25.497  1.00  0.00    -0.047 A 
ATOM     12  C   UNL A   1      33.659  31.224  27.631  1.00  0.00     0.044 C 
ATOM     13  C   UNL A   1      33.364  29.944  26.907  1.00  0.00    -0.051 A 
ATOM     14  C   UNL A   1      32.047  29.629  26.561  1.00  0.00     0.004 A 
ATOM     15  C   UNL A   1      34.382  29.052  26.562  1.00  0.00     0.004 A 
ATOM     16  C   UNL A   1      31.761  28.462  25.849  1.00  0.00     0.004 A 
ATOM     17  C   UNL A   1      34.091  27.873  25.868  1.00  0.00     0.004 A 
ENDBRANCH  10  11
ENDBRANCH   9  10
BRANCH   9  18
ATOM     18  C   UNL A   1      31.680  28.090  22.796  1.00  0.00     0.049 C 
BRANCH  18  19
ATOM     19  C   UNL A   1      30.283  28.648  22.607  1.00  0.00    -0.043 A 
ATOM     20  C   UNL A   1      29.215  27.889  23.126  1.00  0.00     0.043 A 
ATOM     21  C   UNL A   1      29.975  29.872  21.999  1.00  0.00     0.019 A 
ATOM     22  C   UNL A   1      27.917  28.389  23.134  1.00  0.00     0.124 A 
ATOM     23  C   UNL A   1      28.669  30.380  22.052  1.00  0.00     0.021 A 
ATOM     24  F   UNL A   1      26.933  27.651  23.661  1.00  0.00    -0.207 F 
ATOM     25  C   UNL A   1      27.636  29.648  22.629  1.00  0.00     0.055 A 
ATOM     26  Br  UNL A   1      28.312  32.112  21.381  1.00  0.00    -0.051 Br
ENDBRANCH  18  19
ENDBRANCH   9  18
ENDBRANCH   6   9
ENDBRANCH   4   5
ENDBRANCH   3   4
ENDBRANCH   2   3
ENDBRANCH   1   2
BRANCH   1  27
ATOM     27  C   UNL A   1      36.506  22.227  25.598  1.00  0.00     0.021 C 
BRANCH  27  28
ATOM     28  C   UNL A   1      38.011  22.297  25.420  1.00  0.00     0.116 C 
BRANCH  28  29
ATOM     29  N   UNL A   1      38.810  22.203  26.628  1.00  0.00    -0.352 N 
ATOM     30  C   UNL A   1      40.028  22.885  26.622  1.00  0.00     0.251 C 
ATOM     31  H   UNL A   1      38.509  21.685  27.409  1.00  0.00     0.163 HD
ATOM     32  O   UNL A   1      41.071  22.461  26.160  1.00  0.00    -0.269 OA
BRANCH  30  33
ATOM     33  C   UNL A   1      39.851  24.332  26.882  1.00  0.00     0.039 A 
ATOM     34  C   UNL A   1      40.507  25.310  26.139  1.00  0.00     0.014 A 
ATOM     35  C   UNL A   1      39.199  24.643  28.078  1.00  0.00     0.014 A 
ATOM     36  C   UNL A   1      40.614  26.600  26.670  1.00  0.00     0.010 A 
ATOM     37  C   UNL A   1      39.394  25.881  28.643  1.00  0.00     0.010 A 
ATOM     38  C   UNL A   1      40.120  26.857  27.951  1.00  0.00    -0.014 A 
BRANCH  38  39
ATOM     39  C   UNL A   1      40.346  28.084  28.705  1.00  0.00     0.031 A 
ATOM     40  C   UNL A   1      39.329  29.163  28.699  1.00  0.00     0.074 A 
ATOM     41  C   UNL A   1      41.392  28.154  29.556  1.00  0.00     0.049 A 
ATOM     42  N   UNL A   1      39.553  30.376  29.077  1.00  0.00    -0.248 NA
ATOM     43  C   UNL A   1      37.960  28.955  28.235  1.00  0.00     0.031 C 
ATOM     44  C   UNL A   1      41.563  29.081  30.671  1.00  0.00     0.029 A 
ATOM     45  N   UNL A   1      42.616  27.493  29.467  1.00  0.00    -0.354 N 
ATOM     46  C   UNL A   1      38.340  31.024  29.166  1.00  0.00     0.074 A 
ATOM     47  C   UNL A   1      37.384  30.108  28.587  1.00  0.00     0.031 C 
ATOM     48  C   UNL A   1      42.859  29.119  31.014  1.00  0.00     0.029 A 
ATOM     49  C   UNL A   1      43.589  28.342  30.028  1.00  0.00     0.049 A 
ATOM     50  H   UNL A   1      42.772  26.600  29.085  1.00  0.00     0.167 HD
ATOM     51  C   UNL A   1      38.257  32.210  29.835  1.00  0.00     0.037 A 
ATOM     52  C   UNL A   1      44.613  28.832  29.266  1.00  0.00     0.037 A 
ATOM     53  C   UNL A   1      39.567  32.633  30.323  1.00  0.00     0.049 A 
ATOM     54  C   UNL A   1      44.613  30.337  29.130  1.00  0.00     0.074 A 
ATOM     55  C   UNL A   1      40.197  32.490  31.549  1.00  0.00     0.029 A 
ATOM     56  N   UNL A   1      40.549  33.020  29.417  1.00  0.00    -0.354 N 
ATOM     57  N   UNL A   1      43.587  31.097  29.400  1.00  0.00    -0.248 NA
ATOM     58  C   UNL A   1      45.767  31.109  28.678  1.00  0.00     0.031 C 
ATOM     59  C   UNL A   1      41.579  32.736  31.365  1.00  0.00     0.029 A 
ATOM     60  C   UNL A   1      41.786  33.045  30.032  1.00  0.00     0.049 A 
ATOM     61  H   UNL A   1      40.386  33.244  28.473  1.00  0.00     0.167 HD
ATOM     62  C   UNL A   1      43.898  32.408  29.140  1.00  0.00     0.074 A 
ATOM     63  C   UNL A   1      45.286  32.364  28.719  1.00  0.00     0.031 C 
ATOM     64  C   UNL A   1      42.984  33.414  29.290  1.00  0.00     0.037 A 
BRANCH  51  65
ATOM     65  C   UNL A   1      36.950  32.826  30.292  1.00  0.00     0.058 A 
ATOM     66  C   UNL A   1      36.105  33.497  29.378  1.00  0.00     0.135 A 
ATOM     67  C   UNL A   1      36.495  32.832  31.625  1.00  0.00     0.135 A 
ATOM     68  F   UNL A   1      36.353  33.501  28.063  1.00  0.00    -0.206 F 
ATOM     69  C   UNL A   1      34.972  34.210  29.772  1.00  0.00     0.059 A 
ATOM     70  C   UNL A   1      35.395  33.583  32.053  1.00  0.00     0.059 A 
ATOM     71  F   UNL A   1      37.085  32.072  32.559  1.00  0.00    -0.206 F 
ATOM     72  C   UNL A   1      34.645  34.283  31.118  1.00  0.00     0.060 A 
BRANCH  72  73
ATOM     73  S   UNL A   1      33.241  35.300  31.614  1.00  0.00     0.124 S 
ATOM     74  O   UNL A   1      32.677  34.531  32.720  1.00  0.00    -0.237 OA
ATOM     75  O   UNL A   1      33.888  36.555  31.978  1.00  0.00    -0.237 OA
ATOM     76  O   UNL A   1      32.413  35.346  30.411  1.00  0.00    -0.744 OA
ENDBRANCH  72  73
ENDBRANCH  51  65
BRANCH  52  77
ATOM     77  C   UNL A   1      45.077  27.859  28.235  1.00  0.00     0.058 A 
ATOM     78  C   UNL A   1      45.949  26.840  28.665  1.00  0.00     0.135 A 
ATOM     79  C   UNL A   1      44.320  27.619  27.080  1.00  0.00     0.135 A 
ATOM     80  F   UNL A   1      46.722  27.033  29.747  1.00  0.00    -0.206 F 
ATOM     81  C   UNL A   1      45.914  25.566  28.108  1.00  0.00     0.059 A 
ATOM     82  C   UNL A   1      44.281  26.350  26.495  1.00  0.00     0.059 A 
ATOM     83  F   UNL A   1      43.483  28.557  26.611  1.00  0.00    -0.206 F 
ATOM     84  C   UNL A   1      45.007  25.312  27.082  1.00  0.00     0.060 A 
BRANCH  84  85
ATOM     85  S   UNL A   1      44.657  23.586  26.663  1.00  0.00     0.124 S 
ATOM     86  O   UNL A   1      43.914  23.129  27.832  1.00  0.00    -0.237 OA
ATOM     87  O   UNL A   1      43.879  23.726  25.429  1.00  0.00    -0.237 OA
ATOM     88  O   UNL A   1      45.985  23.006  26.495  1.00  0.00    -0.744 OA
ENDBRANCH  84  85
ENDBRANCH  52  77
BRANCH  64  89
ATOM     89  C   UNL A   1      43.150  34.851  28.849  1.00  0.00     0.058 A 
ATOM     90  C   UNL A   1      43.204  35.946  29.728  1.00  0.00     0.135 A 
ATOM     91  C   UNL A   1      43.406  35.156  27.487  1.00  0.00     0.135 A 
ATOM     92  F   UNL A   1      43.096  35.782  31.053  1.00  0.00    -0.206 F 
ATOM     93  C   UNL A   1      43.423  37.253  29.286  1.00  0.00     0.059 A 
ATOM     94  C   UNL A   1      43.684  36.443  27.033  1.00  0.00     0.059 A 
ATOM     95  F   UNL A   1      43.410  34.202  26.543  1.00  0.00    -0.206 F 
ATOM     96  C   UNL A   1      43.662  37.493  27.937  1.00  0.00     0.060 A 
BRANCH  96  97
ATOM     97  S   UNL A   1      44.012  39.166  27.365  1.00  0.00     0.124 S 
ATOM     98  O   UNL A   1      44.294  39.851  28.623  1.00  0.00    -0.237 OA
ATOM     99  O   UNL A   1      45.160  38.976  26.481  1.00  0.00    -0.237 OA
ATOM    100  O   UNL A   1      42.776  39.553  26.695  1.00  0.00    -0.744 OA
ENDBRANCH  96  97
ENDBRANCH  64  89
ENDBRANCH  38  39
ENDBRANCH  30  33
ENDBRANCH  28  29
ENDBRANCH  27  28
ENDBRANCH   1  27
TORSDOF 20
ENDMDL
