MODEL 1
REMARK VINA RESULT:     -11.2      0.000      0.000
REMARK SMILES O=C(NCCCCCCNC(=O)[C@@H](CCO)NC(=O)c1c(F)ccc([N+](=O)[O-])c1F)c1ccc(-c2c3nc(c(-c4c(F)cc(S(=O)(=O)[O-])cc4F)c4ccc([nH]4)c(-c4c(F)cc(S(=O)(=O)[O-])cc4F)c4nc(c(-c5c(F)cc(S(=O)(=O)[O-])cc5F)c5ccc2[nH]5)C=C4)C=C3)cc1
REMARK SMILES IDX 6 1 5 2 4 3 3 4 1 5 2 6 31 8 32 9 96 10 33 11 95 12 34 13
REMARK SMILES IDX 35 14 36 15 89 16 37 17 94 18 88 19 90 20 38 21 93 22 87 23
REMARK SMILES IDX 86 24 39 26 73 27 52 28 72 29 53 30 56 31 71 32 91 33 54 34
REMARK SMILES IDX 55 35 70 37 92 38 57 39 40 40 41 41 50 42 42 43 43 44 49 45
REMARK SMILES IDX 51 46 44 47 45 48 46 49 47 50 48 51 74 52 75 53 84 54 76 55
REMARK SMILES IDX 77 56 83 57 85 58 78 59 79 60 80 61 81 62 82 63 58 64 59 65
REMARK SMILES IDX 68 66 60 67 61 68 67 69 69 70 62 71 63 72 64 73 65 74 66 75
REMARK SMILES IDX 7 76 8 77 9 78 10 79 11 80 12 82 13 83 14 84 15 85 16 86
REMARK SMILES IDX 17 88 18 89 19 91 20 92 21 93 29 94 22 95 23 96 25 97 30 98
REMARK SMILES IDX 24 99 26 100 27 101 28 102
REMARK H PARENT 3 7 90 25 56 36 10 81 16 87 17 90
REMARK Flexibility Score: inf
ROOT
ATOM      1  C   UNL A   1      33.556  28.889  27.149  1.00  0.00     0.002 C 
ENDROOT
BRANCH   1   2
ATOM      2  C   UNL A   1      34.211  30.260  27.315  1.00  0.00     0.021 C 
BRANCH   2   3
ATOM      3  C   UNL A   1      35.585  30.235  27.971  1.00  0.00     0.116 C 
BRANCH   3   4
ATOM      4  N   UNL A   1      35.509  30.358  29.418  1.00  0.00    -0.352 N 
ATOM      5  O   UNL A   1      36.156  30.016  31.551  1.00  0.00    -0.269 OA
ATOM      6  C   UNL A   1      36.450  30.023  30.365  1.00  0.00     0.251 C 
ATOM      7  H   UNL A   1      34.670  30.733  29.768  1.00  0.00     0.163 HD
BRANCH   6   8
ATOM      8  C   UNL A   1      37.817  29.656  29.930  1.00  0.00     0.039 A 
ATOM      9  C   UNL A   1      38.722  29.113  30.841  1.00  0.00     0.014 A 
ATOM     10  C   UNL A   1      38.193  29.855  28.597  1.00  0.00     0.014 A 
ATOM     11  C   UNL A   1      40.040  28.897  30.458  1.00  0.00     0.010 A 
ATOM     12  C   UNL A   1      39.496  29.549  28.190  1.00  0.00     0.010 A 
ATOM     13  C   UNL A   1      40.435  29.085  29.122  1.00  0.00    -0.014 A 
BRANCH  13  14
ATOM     14  C   UNL A   1      41.812  28.689  28.730  1.00  0.00     0.031 A 
ATOM     15  C   UNL A   1      42.131  27.299  28.255  1.00  0.00     0.074 A 
ATOM     16  C   UNL A   1      42.767  29.642  28.744  1.00  0.00     0.049 A 
ATOM     17  N   UNL A   1      43.268  26.828  27.811  1.00  0.00    -0.248 NA
ATOM     18  C   UNL A   1      41.044  26.307  28.286  1.00  0.00     0.031 C 
ATOM     19  C   UNL A   1      42.569  31.021  29.207  1.00  0.00     0.029 A 
ATOM     20  N   UNL A   1      44.072  29.621  28.328  1.00  0.00    -0.354 N 
ATOM     21  C   UNL A   1      43.042  25.488  27.519  1.00  0.00     0.074 A 
ATOM     22  C   UNL A   1      41.662  25.212  27.859  1.00  0.00     0.031 C 
ATOM     23  C   UNL A   1      43.683  31.728  28.978  1.00  0.00     0.029 A 
ATOM     24  C   UNL A   1      44.696  30.843  28.418  1.00  0.00     0.049 A 
ATOM     25  H   UNL A   1      44.520  28.809  27.997  1.00  0.00     0.167 HD
ATOM     26  C   UNL A   1      43.907  24.579  27.009  1.00  0.00     0.037 A 
ATOM     27  C   UNL A   1      45.948  31.212  28.092  1.00  0.00     0.037 A 
ATOM     28  C   UNL A   1      45.276  24.873  26.659  1.00  0.00     0.049 A 
ATOM     29  C   UNL A   1      46.881  30.182  27.529  1.00  0.00     0.074 A 
ATOM     30  C   UNL A   1      46.228  24.022  26.121  1.00  0.00     0.029 A 
ATOM     31  N   UNL A   1      45.886  26.110  26.804  1.00  0.00    -0.354 N 
ATOM     32  N   UNL A   1      46.644  28.922  27.256  1.00  0.00    -0.248 NA
ATOM     33  C   UNL A   1      48.254  30.617  27.240  1.00  0.00     0.031 C 
ATOM     34  C   UNL A   1      47.421  24.736  25.974  1.00  0.00     0.029 A 
ATOM     35  C   UNL A   1      47.203  26.043  26.380  1.00  0.00     0.049 A 
ATOM     36  H   UNL A   1      45.446  26.918  27.157  1.00  0.00     0.167 HD
ATOM     37  C   UNL A   1      47.838  28.411  26.767  1.00  0.00     0.074 A 
ATOM     38  C   UNL A   1      48.785  29.508  26.746  1.00  0.00     0.031 C 
ATOM     39  C   UNL A   1      48.132  27.144  26.381  1.00  0.00     0.037 A 
BRANCH  26  40
ATOM     40  C   UNL A   1      43.418  23.174  26.788  1.00  0.00     0.058 A 
ATOM     41  C   UNL A   1      43.186  22.319  27.879  1.00  0.00     0.135 A 
ATOM     42  C   UNL A   1      43.274  22.640  25.498  1.00  0.00     0.135 A 
ATOM     43  F   UNL A   1      43.306  22.780  29.134  1.00  0.00    -0.206 F 
ATOM     44  C   UNL A   1      42.851  20.980  27.701  1.00  0.00     0.059 A 
ATOM     45  C   UNL A   1      42.921  21.309  25.297  1.00  0.00     0.059 A 
ATOM     46  F   UNL A   1      43.467  23.418  24.421  1.00  0.00    -0.206 F 
ATOM     47  C   UNL A   1      42.720  20.484  26.405  1.00  0.00     0.060 A 
BRANCH  47  48
ATOM     48  S   UNL A   1      42.311  18.748  26.122  1.00  0.00     0.124 S 
ATOM     49  O   UNL A   1      42.597  18.163  27.429  1.00  0.00    -0.237 OA
ATOM     50  O   UNL A   1      40.901  18.817  25.755  1.00  0.00    -0.237 OA
ATOM     51  O   UNL A   1      43.219  18.353  25.049  1.00  0.00    -0.744 OA
ENDBRANCH  47  48
ENDBRANCH  26  40
BRANCH  27  52
ATOM     52  C   UNL A   1      46.388  32.617  28.306  1.00  0.00     0.058 A 
ATOM     53  C   UNL A   1      46.973  33.017  29.518  1.00  0.00     0.135 A 
ATOM     54  C   UNL A   1      46.216  33.589  27.310  1.00  0.00     0.135 A 
ATOM     55  F   UNL A   1      47.142  32.127  30.509  1.00  0.00    -0.206 F 
ATOM     56  C   UNL A   1      47.361  34.332  29.743  1.00  0.00     0.059 A 
ATOM     57  C   UNL A   1      46.623  34.905  27.501  1.00  0.00     0.059 A 
ATOM     58  F   UNL A   1      45.663  33.255  26.134  1.00  0.00    -0.206 F 
ATOM     59  C   UNL A   1      47.194  35.267  28.723  1.00  0.00     0.060 A 
BRANCH  59  60
ATOM     60  S   UNL A   1      47.685  36.985  28.977  1.00  0.00     0.124 S 
ATOM     61  O   UNL A   1      48.047  36.980  30.389  1.00  0.00    -0.237 OA
ATOM     62  O   UNL A   1      48.790  37.133  28.034  1.00  0.00    -0.237 OA
ATOM     63  O   UNL A   1      46.478  37.732  28.635  1.00  0.00    -0.744 OA
ENDBRANCH  59  60
ENDBRANCH  27  52
BRANCH  39  64
ATOM     64  C   UNL A   1      49.533  26.889  25.907  1.00  0.00     0.058 A 
ATOM     65  C   UNL A   1      49.882  27.090  24.563  1.00  0.00     0.135 A 
ATOM     66  C   UNL A   1      50.527  26.429  26.786  1.00  0.00     0.135 A 
ATOM     67  F   UNL A   1      48.965  27.520  23.683  1.00  0.00    -0.206 F 
ATOM     68  C   UNL A   1      51.173  26.852  24.105  1.00  0.00     0.059 A 
ATOM     69  C   UNL A   1      51.829  26.209  26.354  1.00  0.00     0.059 A 
ATOM     70  F   UNL A   1      50.243  26.230  28.083  1.00  0.00    -0.206 F 
ATOM     71  C   UNL A   1      52.145  26.427  25.011  1.00  0.00     0.060 A 
BRANCH  71  72
ATOM     72  S   UNL A   1      53.839  26.134  24.464  1.00  0.00     0.124 S 
ATOM     73  O   UNL A   1      53.711  26.289  23.019  1.00  0.00    -0.237 OA
ATOM     74  O   UNL A   1      54.576  27.190  25.152  1.00  0.00    -0.237 OA
ATOM     75  O   UNL A   1      54.117  24.778  24.928  1.00  0.00    -0.744 OA
ENDBRANCH  71  72
ENDBRANCH  39  64
ENDBRANCH  13  14
ENDBRANCH   6   8
ENDBRANCH   3   4
ENDBRANCH   2   3
ENDBRANCH   1   2
BRANCH   1  76
ATOM     76  C   UNL A   1      32.025  28.882  27.200  1.00  0.00     0.002 C 
BRANCH  76  77
ATOM     77  C   UNL A   1      31.348  27.722  26.463  1.00  0.00     0.021 C 
BRANCH  77  78
ATOM     78  C   UNL A   1      32.163  26.429  26.426  1.00  0.00     0.116 C 
BRANCH  78  79
ATOM     79  N   UNL A   1      31.387  25.330  26.959  1.00  0.00    -0.354 N 
ATOM     80  C   UNL A   1      31.490  23.990  26.785  1.00  0.00     0.242 C 
ATOM     81  H   UNL A   1      30.653  25.605  27.554  1.00  0.00     0.163 HD
ATOM     82  O   UNL A   1      30.547  23.305  27.205  1.00  0.00    -0.273 OA
BRANCH  80  83
ATOM     83  C   UNL A   1      32.663  23.292  26.057  1.00  0.00     0.173 C 
BRANCH  83  84
ATOM     84  C   UNL A   1      33.668  22.547  26.952  1.00  0.00     0.063 C 
BRANCH  84  85
ATOM     85  C   UNL A   1      34.992  22.080  26.364  1.00  0.00     0.158 C 
BRANCH  85  86
ATOM     86  O   UNL A   1      35.002  20.698  26.054  1.00  0.00    -0.396 OA
ATOM     87  H   UNL A   1      35.417  20.207  26.779  1.00  0.00     0.210 HD
ENDBRANCH  85  86
ENDBRANCH  84  85
ENDBRANCH  83  84
BRANCH  83  88
ATOM     88  N   UNL A   1      32.282  22.563  24.846  1.00  0.00    -0.340 N 
ATOM     89  C   UNL A   1      31.971  23.038  23.597  1.00  0.00     0.258 C 
ATOM     90  H   UNL A   1      32.242  21.584  24.943  1.00  0.00     0.164 HD
ATOM     91  O   UNL A   1      31.563  22.283  22.722  1.00  0.00    -0.269 OA
BRANCH  89  92
ATOM     92  C   UNL A   1      32.156  24.457  23.268  1.00  0.00     0.118 A 
ATOM     93  C   UNL A   1      33.421  24.941  22.936  1.00  0.00     0.139 A 
ATOM     94  C   UNL A   1      31.051  25.308  23.216  1.00  0.00     0.216 A 
ATOM     95  F   UNL A   1      34.483  24.125  22.901  1.00  0.00    -0.206 F 
ATOM     96  C   UNL A   1      33.617  26.287  22.637  1.00  0.00     0.047 A 
ATOM     97  C   UNL A   1      31.237  26.650  22.875  1.00  0.00     0.305 A 
ATOM     98  F   UNL A   1      29.837  24.835  23.533  1.00  0.00    -0.198 F 
ATOM     99  C   UNL A   1      32.524  27.151  22.608  1.00  0.00     0.092 A 
BRANCH  97 100
ATOM    100  N   UNL A   1      30.096  27.556  22.784  1.00  0.00     0.065 N 
ATOM    101  O   UNL A   1      29.158  27.410  23.576  1.00  0.00    -0.258 OA
ATOM    102  O   UNL A   1      30.122  28.403  21.879  1.00  0.00    -0.258 OA
ENDBRANCH  97 100
ENDBRANCH  89  92
ENDBRANCH  83  88
ENDBRANCH  80  83
ENDBRANCH  78  79
ENDBRANCH  77  78
ENDBRANCH  76  77
ENDBRANCH   1  76
TORSDOF 22
ENDMDL
MODEL 2
REMARK VINA RESULT:     -11.1      0.948      8.164
REMARK SMILES O=C(NCCCCCCNC(=O)[C@@H](CCO)NC(=O)c1c(F)ccc([N+](=O)[O-])c1F)c1ccc(-c2c3nc(c(-c4c(F)cc(S(=O)(=O)[O-])cc4F)c4ccc([nH]4)c(-c4c(F)cc(S(=O)(=O)[O-])cc4F)c4nc(c(-c5c(F)cc(S(=O)(=O)[O-])cc5F)c5ccc2[nH]5)C=C4)C=C3)cc1
REMARK SMILES IDX 6 1 5 2 4 3 3 4 1 5 2 6 31 8 32 9 96 10 33 11 95 12 34 13
REMARK SMILES IDX 35 14 36 15 89 16 37 17 94 18 88 19 90 20 38 21 93 22 87 23
REMARK SMILES IDX 86 24 39 26 73 27 52 28 72 29 53 30 56 31 71 32 91 33 54 34
REMARK SMILES IDX 55 35 70 37 92 38 57 39 40 40 41 41 50 42 42 43 43 44 49 45
REMARK SMILES IDX 51 46 44 47 45 48 46 49 47 50 48 51 74 52 75 53 84 54 76 55
REMARK SMILES IDX 77 56 83 57 85 58 78 59 79 60 80 61 81 62 82 63 58 64 59 65
REMARK SMILES IDX 68 66 60 67 61 68 67 69 69 70 62 71 63 72 64 73 65 74 66 75
REMARK SMILES IDX 7 76 8 77 9 78 10 79 11 80 12 82 13 83 14 84 15 85 16 86
REMARK SMILES IDX 17 88 18 89 19 91 20 92 21 93 29 94 22 95 23 96 25 97 30 98
REMARK SMILES IDX 24 99 26 100 27 101 28 102
REMARK H PARENT 3 7 90 25 56 36 10 81 16 87 17 90
REMARK Flexibility Score: inf
ROOT
ATOM      1  C   UNL A   1      33.738  30.180  26.905  1.00  0.00     0.002 C 
ENDROOT
BRANCH   1   2
ATOM      2  C   UNL A   1      34.389  31.311  27.700  1.00  0.00     0.021 C 
BRANCH   2   3
ATOM      3  C   UNL A   1      35.745  30.967  28.305  1.00  0.00     0.116 C 
BRANCH   3   4
ATOM      4  N   UNL A   1      35.652  30.644  29.719  1.00  0.00    -0.352 N 
ATOM      5  O   UNL A   1      36.245  29.628  31.643  1.00  0.00    -0.269 OA
ATOM      6  C   UNL A   1      36.558  29.981  30.516  1.00  0.00     0.251 C 
ATOM      7  H   UNL A   1      34.829  30.939  30.169  1.00  0.00     0.163 HD
BRANCH   6   8
ATOM      8  C   UNL A   1      37.910  29.691  29.987  1.00  0.00     0.039 A 
ATOM      9  C   UNL A   1      38.921  29.256  30.844  1.00  0.00     0.014 A 
ATOM     10  C   UNL A   1      38.165  29.851  28.621  1.00  0.00     0.014 A 
ATOM     11  C   UNL A   1      40.217  29.114  30.365  1.00  0.00     0.010 A 
ATOM     12  C   UNL A   1      39.452  29.617  28.123  1.00  0.00     0.010 A 
ATOM     13  C   UNL A   1      40.493  29.265  28.994  1.00  0.00    -0.014 A 
BRANCH  13  14
ATOM     14  C   UNL A   1      41.860  28.947  28.509  1.00  0.00     0.031 A 
ATOM     15  C   UNL A   1      42.971  29.960  28.556  1.00  0.00     0.074 A 
ATOM     16  C   UNL A   1      42.099  27.689  28.087  1.00  0.00     0.049 A 
ATOM     17  N   UNL A   1      44.231  29.805  28.238  1.00  0.00    -0.248 NA
ATOM     18  C   UNL A   1      42.631  31.317  29.010  1.00  0.00     0.031 C 
ATOM     19  C   UNL A   1      41.086  26.632  27.982  1.00  0.00     0.029 A 
ATOM     20  N   UNL A   1      43.260  27.068  27.707  1.00  0.00    -0.354 N 
ATOM     21  C   UNL A   1      44.833  31.041  28.441  1.00  0.00     0.074 A 
ATOM     22  C   UNL A   1      43.794  31.945  28.888  1.00  0.00     0.031 C 
ATOM     23  C   UNL A   1      41.682  25.482  27.642  1.00  0.00     0.029 A 
ATOM     24  C   UNL A   1      43.103  25.729  27.437  1.00  0.00     0.049 A 
ATOM     25  H   UNL A   1      44.124  27.535  27.634  1.00  0.00     0.167 HD
ATOM     26  C   UNL A   1      46.133  31.382  28.273  1.00  0.00     0.037 A 
ATOM     27  C   UNL A   1      44.001  24.800  27.059  1.00  0.00     0.037 A 
ATOM     28  C   UNL A   1      47.161  30.466  27.842  1.00  0.00     0.049 A 
ATOM     29  C   UNL A   1      45.432  25.211  26.884  1.00  0.00     0.074 A 
ATOM     30  C   UNL A   1      48.511  30.713  27.657  1.00  0.00     0.029 A 
ATOM     31  N   UNL A   1      46.957  29.128  27.536  1.00  0.00    -0.354 N 
ATOM     32  N   UNL A   1      45.981  26.384  27.087  1.00  0.00    -0.248 NA
ATOM     33  C   UNL A   1      46.366  24.177  26.418  1.00  0.00     0.031 C 
ATOM     34  C   UNL A   1      49.115  29.534  27.206  1.00  0.00     0.029 A 
ATOM     35  C   UNL A   1      48.151  28.541  27.150  1.00  0.00     0.049 A 
ATOM     36  H   UNL A   1      46.089  28.664  27.586  1.00  0.00     0.167 HD
ATOM     37  C   UNL A   1      47.324  26.233  26.769  1.00  0.00     0.074 A 
ATOM     38  C   UNL A   1      47.511  24.845  26.397  1.00  0.00     0.031 C 
ATOM     39  C   UNL A   1      48.312  27.161  26.772  1.00  0.00     0.037 A 
BRANCH  26  40
ATOM     40  C   UNL A   1      46.540  32.803  28.554  1.00  0.00     0.058 A 
ATOM     41  C   UNL A   1      46.484  33.775  27.541  1.00  0.00     0.135 A 
ATOM     42  C   UNL A   1      47.078  33.181  29.794  1.00  0.00     0.135 A 
ATOM     43  F   UNL A   1      45.976  33.467  26.338  1.00  0.00    -0.206 F 
ATOM     44  C   UNL A   1      46.967  35.066  27.739  1.00  0.00     0.059 A 
ATOM     45  C   UNL A   1      47.549  34.471  30.019  1.00  0.00     0.059 A 
ATOM     46  F   UNL A   1      47.139  32.296  30.802  1.00  0.00    -0.206 F 
ATOM     47  C   UNL A   1      47.498  35.404  28.982  1.00  0.00     0.060 A 
BRANCH  47  48
ATOM     48  S   UNL A   1      48.160  37.058  29.279  1.00  0.00     0.124 S 
ATOM     49  O   UNL A   1      48.257  37.583  27.920  1.00  0.00    -0.237 OA
ATOM     50  O   UNL A   1      47.129  37.659  30.118  1.00  0.00    -0.237 OA
ATOM     51  O   UNL A   1      49.435  36.802  29.943  1.00  0.00    -0.744 OA
ENDBRANCH  47  48
ENDBRANCH  26  40
BRANCH  27  52
ATOM     52  C   UNL A   1      43.563  23.401  26.811  1.00  0.00     0.058 A 
ATOM     53  C   UNL A   1      43.422  22.906  25.505  1.00  0.00     0.135 A 
ATOM     54  C   UNL A   1      43.259  22.538  27.874  1.00  0.00     0.135 A 
ATOM     55  F   UNL A   1      43.682  23.699  24.454  1.00  0.00    -0.206 F 
ATOM     56  C   UNL A   1      42.985  21.610  25.257  1.00  0.00     0.059 A 
ATOM     57  C   UNL A   1      42.849  21.228  27.653  1.00  0.00     0.059 A 
ATOM     58  F   UNL A   1      43.380  22.965  29.141  1.00  0.00    -0.206 F 
ATOM     59  C   UNL A   1      42.714  20.774  26.338  1.00  0.00     0.060 A 
BRANCH  59  60
ATOM     60  S   UNL A   1      42.143  19.084  26.058  1.00  0.00     0.124 S 
ATOM     61  O   UNL A   1      40.708  19.283  25.896  1.00  0.00    -0.237 OA
ATOM     62  O   UNL A   1      42.877  18.707  24.854  1.00  0.00    -0.237 OA
ATOM     63  O   UNL A   1      42.552  18.387  27.275  1.00  0.00    -0.744 OA
ENDBRANCH  59  60
ENDBRANCH  27  52
BRANCH  39  64
ATOM     64  C   UNL A   1      49.678  26.695  26.358  1.00  0.00     0.058 A 
ATOM     65  C   UNL A   1      50.074  26.745  25.012  1.00  0.00     0.135 A 
ATOM     66  C   UNL A   1      50.589  26.183  27.295  1.00  0.00     0.135 A 
ATOM     67  F   UNL A   1      49.235  27.218  24.077  1.00  0.00    -0.206 F 
ATOM     68  C   UNL A   1      51.332  26.311  24.609  1.00  0.00     0.059 A 
ATOM     69  C   UNL A   1      51.860  25.767  26.918  1.00  0.00     0.059 A 
ATOM     70  F   UNL A   1      50.258  26.122  28.595  1.00  0.00    -0.206 F 
ATOM     71  C   UNL A   1      52.224  25.838  25.571  1.00  0.00     0.060 A 
BRANCH  71  72
ATOM     72  S   UNL A   1      53.877  25.292  25.095  1.00  0.00     0.124 S 
ATOM     73  O   UNL A   1      54.648  25.615  26.290  1.00  0.00    -0.237 OA
ATOM     74  O   UNL A   1      53.674  23.870  24.836  1.00  0.00    -0.237 OA
ATOM     75  O   UNL A   1      54.176  26.102  23.917  1.00  0.00    -0.744 OA
ENDBRANCH  71  72
ENDBRANCH  39  64
ENDBRANCH  13  14
ENDBRANCH   6   8
ENDBRANCH   3   4
ENDBRANCH   2   3
ENDBRANCH   1   2
BRANCH   1  76
ATOM     76  C   UNL A   1      32.208  30.226  26.832  1.00  0.00     0.002 C 
BRANCH  76  77
ATOM     77  C   UNL A   1      31.531  28.920  26.403  1.00  0.00     0.021 C 
BRANCH  77  78
ATOM     78  C   UNL A   1      32.235  27.650  26.885  1.00  0.00     0.116 C 
BRANCH  78  79
ATOM     79  N   UNL A   1      31.281  26.572  27.033  1.00  0.00    -0.354 N 
ATOM     80  C   UNL A   1      31.270  25.308  26.543  1.00  0.00     0.242 C 
ATOM     81  H   UNL A   1      30.500  26.797  27.589  1.00  0.00     0.163 HD
ATOM     82  O   UNL A   1      30.211  24.678  26.666  1.00  0.00    -0.273 OA
BRANCH  80  83
ATOM     83  C   UNL A   1      32.458  24.649  25.806  1.00  0.00     0.173 C 
BRANCH  83  84
ATOM     84  C   UNL A   1      33.372  23.753  26.658  1.00  0.00     0.063 C 
BRANCH  84  85
ATOM     85  C   UNL A   1      32.948  22.322  26.961  1.00  0.00     0.158 C 
BRANCH  85  86
ATOM     86  O   UNL A   1      32.425  22.167  28.268  1.00  0.00    -0.396 OA
ATOM     87  H   UNL A   1      32.851  22.802  28.864  1.00  0.00     0.210 HD
ENDBRANCH  85  86
ENDBRANCH  84  85
ENDBRANCH  83  84
BRANCH  83  88
ATOM     88  N   UNL A   1      32.128  24.093  24.493  1.00  0.00    -0.340 N 
ATOM     89  C   UNL A   1      31.919  24.731  23.296  1.00  0.00     0.258 C 
ATOM     90  H   UNL A   1      32.041  23.112  24.464  1.00  0.00     0.164 HD
ATOM     91  O   UNL A   1      31.538  24.108  22.311  1.00  0.00    -0.269 OA
BRANCH  89  92
ATOM     92  C   UNL A   1      32.183  26.168  23.158  1.00  0.00     0.118 A 
ATOM     93  C   UNL A   1      33.495  26.636  23.078  1.00  0.00     0.139 A 
ATOM     94  C   UNL A   1      31.119  27.062  23.032  1.00  0.00     0.216 A 
ATOM     95  F   UNL A   1      34.531  25.789  23.116  1.00  0.00    -0.206 F 
ATOM     96  C   UNL A   1      33.763  27.998  22.963  1.00  0.00     0.047 A 
ATOM     97  C   UNL A   1      31.384  28.424  22.874  1.00  0.00     0.305 A 
ATOM     98  F   UNL A   1      29.860  26.604  23.106  1.00  0.00    -0.198 F 
ATOM     99  C   UNL A   1      32.707  28.901  22.863  1.00  0.00     0.092 A 
BRANCH  97 100
ATOM    100  N   UNL A   1      30.290  29.377  22.711  1.00  0.00     0.065 N 
ATOM    101  O   UNL A   1      29.970  30.084  23.674  1.00  0.00    -0.258 OA
ATOM    102  O   UNL A   1      29.716  29.391  21.612  1.00  0.00    -0.258 OA
ENDBRANCH  97 100
ENDBRANCH  89  92
ENDBRANCH  83  88
ENDBRANCH  80  83
ENDBRANCH  78  79
ENDBRANCH  77  78
ENDBRANCH  76  77
ENDBRANCH   1  76
TORSDOF 22
ENDMDL
MODEL 3
REMARK VINA RESULT:     -11.1      1.388      8.592
REMARK SMILES O=C(NCCCCCCNC(=O)[C@@H](CCO)NC(=O)c1c(F)ccc([N+](=O)[O-])c1F)c1ccc(-c2c3nc(c(-c4c(F)cc(S(=O)(=O)[O-])cc4F)c4ccc([nH]4)c(-c4c(F)cc(S(=O)(=O)[O-])cc4F)c4nc(c(-c5c(F)cc(S(=O)(=O)[O-])cc5F)c5ccc2[nH]5)C=C4)C=C3)cc1
REMARK SMILES IDX 6 1 5 2 4 3 3 4 1 5 2 6 31 8 32 9 96 10 33 11 95 12 34 13
REMARK SMILES IDX 35 14 36 15 89 16 37 17 94 18 88 19 90 20 38 21 93 22 87 23
REMARK SMILES IDX 86 24 39 26 73 27 52 28 72 29 53 30 56 31 71 32 91 33 54 34
REMARK SMILES IDX 55 35 70 37 92 38 57 39 40 40 41 41 50 42 42 43 43 44 49 45
REMARK SMILES IDX 51 46 44 47 45 48 46 49 47 50 48 51 74 52 75 53 84 54 76 55
REMARK SMILES IDX 77 56 83 57 85 58 78 59 79 60 80 61 81 62 82 63 58 64 59 65
REMARK SMILES IDX 68 66 60 67 61 68 67 69 69 70 62 71 63 72 64 73 65 74 66 75
REMARK SMILES IDX 7 76 8 77 9 78 10 79 11 80 12 82 13 83 14 84 15 85 16 86
REMARK SMILES IDX 17 88 18 89 19 91 20 92 21 93 29 94 22 95 23 96 25 97 30 98
REMARK SMILES IDX 24 99 26 100 27 101 28 102
REMARK H PARENT 3 7 90 25 56 36 10 81 16 87 17 90
REMARK Flexibility Score: inf
ROOT
ATOM      1  C   UNL A   1      33.238  30.050  27.195  1.00  0.00     0.002 C 
ENDROOT
BRANCH   1   2
ATOM      2  C   UNL A   1      34.703  29.616  27.241  1.00  0.00     0.021 C 
BRANCH   2   3
ATOM      3  C   UNL A   1      35.636  30.595  27.943  1.00  0.00     0.116 C 
BRANCH   3   4
ATOM      4  N   UNL A   1      35.501  30.545  29.389  1.00  0.00    -0.352 N 
ATOM      5  O   UNL A   1      36.060  29.949  31.491  1.00  0.00    -0.269 OA
ATOM      6  C   UNL A   1      36.402  30.094  30.327  1.00  0.00     0.251 C 
ATOM      7  H   UNL A   1      34.649  30.880  29.748  1.00  0.00     0.163 HD
BRANCH   6   8
ATOM      8  C   UNL A   1      37.786  29.775  29.907  1.00  0.00     0.039 A 
ATOM      9  C   UNL A   1      38.169  29.934  28.575  1.00  0.00     0.014 A 
ATOM     10  C   UNL A   1      38.707  29.317  30.855  1.00  0.00     0.014 A 
ATOM     11  C   UNL A   1      39.425  29.507  28.164  1.00  0.00     0.010 A 
ATOM     12  C   UNL A   1      40.004  28.975  30.455  1.00  0.00     0.010 A 
ATOM     13  C   UNL A   1      40.367  29.050  29.103  1.00  0.00    -0.014 A 
BRANCH  13  14
ATOM     14  C   UNL A   1      41.746  28.757  28.635  1.00  0.00     0.031 A 
ATOM     15  C   UNL A   1      42.838  29.788  28.695  1.00  0.00     0.074 A 
ATOM     16  C   UNL A   1      42.013  27.502  28.217  1.00  0.00     0.049 A 
ATOM     17  N   UNL A   1      44.104  29.656  28.392  1.00  0.00    -0.248 NA
ATOM     18  C   UNL A   1      42.468  31.140  29.143  1.00  0.00     0.031 C 
ATOM     19  C   UNL A   1      41.020  26.428  28.101  1.00  0.00     0.029 A 
ATOM     20  N   UNL A   1      43.189  26.902  27.852  1.00  0.00    -0.354 N 
ATOM     21  C   UNL A   1      44.682  30.903  28.601  1.00  0.00     0.074 A 
ATOM     22  C   UNL A   1      43.622  31.788  29.035  1.00  0.00     0.031 C 
ATOM     23  C   UNL A   1      41.640  25.287  27.769  1.00  0.00     0.029 A 
ATOM     24  C   UNL A   1      43.059  25.559  27.582  1.00  0.00     0.049 A 
ATOM     25  H   UNL A   1      44.045  27.384  27.790  1.00  0.00     0.167 HD
ATOM     26  C   UNL A   1      45.978  31.266  28.449  1.00  0.00     0.037 A 
ATOM     27  C   UNL A   1      43.977  24.647  27.216  1.00  0.00     0.037 A 
ATOM     28  C   UNL A   1      47.027  30.368  28.032  1.00  0.00     0.049 A 
ATOM     29  C   UNL A   1      45.404  25.082  27.058  1.00  0.00     0.074 A 
ATOM     30  C   UNL A   1      48.375  30.639  27.863  1.00  0.00     0.029 A 
ATOM     31  N   UNL A   1      46.850  29.027  27.725  1.00  0.00    -0.354 N 
ATOM     32  N   UNL A   1      45.929  26.265  27.266  1.00  0.00    -0.248 NA
ATOM     33  C   UNL A   1      46.361  24.065  26.605  1.00  0.00     0.031 C 
ATOM     34  C   UNL A   1      49.005  29.471  27.421  1.00  0.00     0.029 A 
ATOM     35  C   UNL A   1      48.060  28.461  27.355  1.00  0.00     0.049 A 
ATOM     36  H   UNL A   1      45.991  28.547  27.765  1.00  0.00     0.167 HD
ATOM     37  C   UNL A   1      47.278  26.138  26.966  1.00  0.00     0.074 A 
ATOM     38  C   UNL A   1      47.494  24.753  26.597  1.00  0.00     0.031 C 
ATOM     39  C   UNL A   1      48.250  27.083  26.979  1.00  0.00     0.037 A 
BRANCH  26  40
ATOM     40  C   UNL A   1      46.356  32.695  28.734  1.00  0.00     0.058 A 
ATOM     41  C   UNL A   1      46.366  33.649  27.703  1.00  0.00     0.135 A 
ATOM     42  C   UNL A   1      46.803  33.097  30.002  1.00  0.00     0.135 A 
ATOM     43  F   UNL A   1      45.944  33.318  26.473  1.00  0.00    -0.206 F 
ATOM     44  C   UNL A   1      46.827  34.946  27.912  1.00  0.00     0.059 A 
ATOM     45  C   UNL A   1      47.251  34.393  30.237  1.00  0.00     0.059 A 
ATOM     46  F   UNL A   1      46.799  32.229  31.026  1.00  0.00    -0.206 F 
ATOM     47  C   UNL A   1      47.267  35.309  29.183  1.00  0.00     0.060 A 
BRANCH  47  48
ATOM     48  S   UNL A   1      47.897  36.972  29.497  1.00  0.00     0.124 S 
ATOM     49  O   UNL A   1      48.845  37.138  28.399  1.00  0.00    -0.237 OA
ATOM     50  O   UNL A   1      46.687  37.782  29.418  1.00  0.00    -0.237 OA
ATOM     51  O   UNL A   1      48.493  36.867  30.826  1.00  0.00    -0.744 OA
ENDBRANCH  47  48
ENDBRANCH  26  40
BRANCH  27  52
ATOM     52  C   UNL A   1      43.568  23.240  26.964  1.00  0.00     0.058 A 
ATOM     53  C   UNL A   1      43.474  22.735  25.658  1.00  0.00     0.135 A 
ATOM     54  C   UNL A   1      43.244  22.379  28.023  1.00  0.00     0.135 A 
ATOM     55  F   UNL A   1      43.755  23.525  24.610  1.00  0.00    -0.206 F 
ATOM     56  C   UNL A   1      43.064  21.431  25.406  1.00  0.00     0.059 A 
ATOM     57  C   UNL A   1      42.859  21.062  27.798  1.00  0.00     0.059 A 
ATOM     58  F   UNL A   1      43.320  22.815  29.290  1.00  0.00    -0.206 F 
ATOM     59  C   UNL A   1      42.771  20.597  26.483  1.00  0.00     0.060 A 
BRANCH  59  60
ATOM     60  S   UNL A   1      42.234  18.898  26.197  1.00  0.00     0.124 S 
ATOM     61  O   UNL A   1      42.439  18.301  27.511  1.00  0.00    -0.237 OA
ATOM     62  O   UNL A   1      40.845  19.079  25.787  1.00  0.00    -0.237 OA
ATOM     63  O   UNL A   1      43.134  18.436  25.144  1.00  0.00    -0.744 OA
ENDBRANCH  59  60
ENDBRANCH  27  52
BRANCH  39  64
ATOM     64  C   UNL A   1      49.628  26.641  26.583  1.00  0.00     0.058 A 
ATOM     65  C   UNL A   1      50.513  26.114  27.536  1.00  0.00     0.135 A 
ATOM     66  C   UNL A   1      50.078  26.756  25.258  1.00  0.00     0.135 A 
ATOM     67  F   UNL A   1      50.133  25.993  28.818  1.00  0.00    -0.206 F 
ATOM     68  C   UNL A   1      51.797  25.707  27.189  1.00  0.00     0.059 A 
ATOM     69  C   UNL A   1      51.347  26.332  24.884  1.00  0.00     0.059 A 
ATOM     70  F   UNL A   1      49.265  27.247  24.309  1.00  0.00    -0.206 F 
ATOM     71  C   UNL A   1      52.200  25.804  25.857  1.00  0.00     0.060 A 
BRANCH  71  72
ATOM     72  S   UNL A   1      53.846  25.260  25.359  1.00  0.00     0.124 S 
ATOM     73  O   UNL A   1      53.542  24.020  24.650  1.00  0.00    -0.237 OA
ATOM     74  O   UNL A   1      54.304  26.369  24.528  1.00  0.00    -0.237 OA
ATOM     75  O   UNL A   1      54.550  25.101  26.627  1.00  0.00    -0.744 OA
ENDBRANCH  71  72
ENDBRANCH  39  64
ENDBRANCH  13  14
ENDBRANCH   6   8
ENDBRANCH   3   4
ENDBRANCH   2   3
ENDBRANCH   1   2
BRANCH   1  76
ATOM     76  C   UNL A   1      32.250  28.975  26.730  1.00  0.00     0.002 C 
BRANCH  76  77
ATOM     77  C   UNL A   1      31.862  29.035  25.249  1.00  0.00     0.021 C 
BRANCH  77  78
ATOM     78  C   UNL A   1      32.651  28.084  24.347  1.00  0.00     0.116 C 
BRANCH  78  79
ATOM     79  N   UNL A   1      33.198  26.993  25.123  1.00  0.00    -0.354 N 
ATOM     80  C   UNL A   1      32.850  25.686  25.206  1.00  0.00     0.242 C 
ATOM     81  H   UNL A   1      33.960  27.246  25.693  1.00  0.00     0.163 HD
ATOM     82  O   UNL A   1      33.371  25.033  26.121  1.00  0.00    -0.273 OA
BRANCH  80  83
ATOM     83  C   UNL A   1      31.819  24.998  24.281  1.00  0.00     0.173 C 
BRANCH  83  84
ATOM     84  C   UNL A   1      30.371  25.502  24.388  1.00  0.00     0.063 C 
BRANCH  84  85
ATOM     85  C   UNL A   1      29.766  25.763  25.761  1.00  0.00     0.158 C 
BRANCH  85  86
ATOM     86  O   UNL A   1      29.647  24.589  26.544  1.00  0.00    -0.396 OA
ATOM     87  H   UNL A   1      28.747  24.239  26.465  1.00  0.00     0.210 HD
ENDBRANCH  85  86
ENDBRANCH  84  85
ENDBRANCH  83  84
BRANCH  83  88
ATOM     88  N   UNL A   1      32.280  24.782  22.909  1.00  0.00    -0.340 N 
ATOM     89  C   UNL A   1      32.975  23.729  22.371  1.00  0.00     0.258 C 
ATOM     90  H   UNL A   1      32.059  25.504  22.275  1.00  0.00     0.164 HD
ATOM     91  O   UNL A   1      33.378  23.767  21.213  1.00  0.00    -0.269 OA
BRANCH  89  92
ATOM     92  C   UNL A   1      33.219  22.513  23.158  1.00  0.00     0.118 A 
ATOM     93  C   UNL A   1      32.339  21.435  23.075  1.00  0.00     0.139 A 
ATOM     94  C   UNL A   1      34.374  22.408  23.934  1.00  0.00     0.216 A 
ATOM     95  F   UNL A   1      31.266  21.481  22.274  1.00  0.00    -0.206 F 
ATOM     96  C   UNL A   1      32.547  20.281  23.827  1.00  0.00     0.047 A 
ATOM     97  C   UNL A   1      34.609  21.237  24.658  1.00  0.00     0.305 A 
ATOM     98  F   UNL A   1      35.218  23.448  24.006  1.00  0.00    -0.198 F 
ATOM     99  C   UNL A   1      33.684  20.177  24.626  1.00  0.00     0.092 A 
BRANCH  97 100
ATOM    100  N   UNL A   1      35.822  21.089  25.454  1.00  0.00     0.065 N 
ATOM    101  O   UNL A   1      35.864  21.609  26.575  1.00  0.00    -0.258 OA
ATOM    102  O   UNL A   1      36.765  20.474  24.933  1.00  0.00    -0.258 OA
ENDBRANCH  97 100
ENDBRANCH  89  92
ENDBRANCH  83  88
ENDBRANCH  80  83
ENDBRANCH  78  79
ENDBRANCH  77  78
ENDBRANCH  76  77
ENDBRANCH   1  76
TORSDOF 22
ENDMDL
