MODEL 1
REMARK VINA RESULT:     -10.3      0.000      0.000
REMARK SMILES Cc1ccc(S(=O)(=O)n2cc(C(=O)C(=O)N[C@H](Cc3c[nH]c4ccccc34)C(=O)NCC(=O)NCCCCCCNC(=O)c3ccc(-c4c5nc(c(-c6c(F)cc(S(=O)(=O)[O-])cc6F)c6ccc([nH]6)c(-c6c(F)cc(S(=O)(=O)[O-])cc6F)c6nc(c(-c7c(F)cc(S(=O)(=O)[O-])cc7F)c7ccc4[nH]7)C=C6)C=C5)cc3)c3ccccc32)cc1
REMARK SMILES IDX 35 1 34 2 32 3 33 4 31 6 30 7 28 8 29 9 17 11 16 12 14 13
REMARK SMILES IDX 15 14 12 16 13 17 11 18 9 19 10 20 115 21 110 22 114 23
REMARK SMILES IDX 111 24 113 25 112 26 6 27 7 28 8 29 5 30 1 31 2 32 3 33
REMARK SMILES IDX 117 34 4 35 116 36 18 37 19 38 20 39 27 40 21 41 22 42 26 43
REMARK SMILES IDX 23 45 25 46 24 47 36 48 37 49 38 50 39 51 40 52 41 53 42 54
REMARK SMILES IDX 43 56 44 57 45 58 109 59 46 60 108 61 47 62 48 63 49 64
REMARK SMILES IDX 102 65 50 66 107 67 101 68 103 69 51 70 106 71 100 72 99 73
REMARK SMILES IDX 52 75 86 76 65 77 85 78 66 79 69 80 84 81 104 82 67 83 68 84
REMARK SMILES IDX 83 86 105 87 70 88 53 89 54 90 63 91 55 92 56 93 62 94 64 95
REMARK SMILES IDX 57 96 58 97 59 98 60 99 61 100 87 101 88 102 97 103 89 104
REMARK SMILES IDX 90 105 96 106 98 107 91 108 92 109 93 110 94 111 95 112
REMARK SMILES IDX 71 113 72 114 81 115 73 116 74 117 80 118 82 119 75 120
REMARK SMILES IDX 76 121 77 122 78 123 79 124
REMARK H PARENT 34 5 30 10 16 15 21 44 41 55 103 74 69 85
REMARK Flexibility Score: inf
ROOT
ATOM      1  C   UNL A   1      40.815  34.836  29.134  1.00  0.00     0.116 C 
ENDROOT
BRANCH   1   2
ATOM      2  N   UNL A   1      41.178  35.999  28.333  1.00  0.00    -0.355 N 
ATOM      3  C   UNL A   1      42.246  36.202  27.503  1.00  0.00     0.239 C 
ATOM      4  O   UNL A   1      42.193  37.175  26.741  1.00  0.00    -0.273 OA
ATOM      5  H   UNL A   1      40.558  36.760  28.403  1.00  0.00     0.163 HD
BRANCH   3   6
ATOM      6  C   UNL A   1      43.404  35.197  27.358  1.00  0.00     0.216 C 
BRANCH   6   7
ATOM      7  N   UNL A   1      44.705  35.741  27.057  1.00  0.00    -0.345 N 
ATOM      8  C   UNL A   1      45.953  35.475  27.497  1.00  0.00     0.243 C 
ATOM      9  O   UNL A   1      46.847  35.957  26.786  1.00  0.00    -0.273 OA
ATOM     10  H   UNL A   1      44.677  36.460  26.387  1.00  0.00     0.164 HD
BRANCH   8  11
ATOM     11  C   UNL A   1      46.358  34.710  28.799  1.00  0.00     0.176 C 
BRANCH  11  12
ATOM     12  N   UNL A   1      46.598  35.423  30.100  1.00  0.00    -0.337 N 
ATOM     13  C   UNL A   1      45.989  36.461  30.795  1.00  0.00     0.293 C 
ATOM     14  O   UNL A   1      46.515  36.894  31.816  1.00  0.00    -0.265 OA
ATOM     15  H   UNL A   1      47.381  35.067  30.579  1.00  0.00     0.164 HD
BRANCH  13  16
ATOM     16  C   UNL A   1      44.663  37.053  30.325  1.00  0.00     0.252 C 
ATOM     17  O   UNL A   1      43.677  36.347  30.547  1.00  0.00    -0.283 OA
BRANCH  16  18
ATOM     18  C   UNL A   1      44.469  38.348  29.639  1.00  0.00     0.054 A 
ATOM     19  N   UNL A   1      44.166  40.147  28.292  1.00  0.00    -0.240 N 
ATOM     20  C   UNL A   1      44.797  38.883  28.388  1.00  0.00     0.117 A 
ATOM     21  C   UNL A   1      43.184  40.151  29.292  1.00  0.00     0.065 A 
ATOM     22  C   UNL A   1      43.802  39.422  30.296  1.00  0.00     0.012 A 
ATOM     23  C   UNL A   1      42.106  41.006  29.555  1.00  0.00     0.028 A 
ATOM     24  C   UNL A   1      43.598  39.807  31.625  1.00  0.00     0.011 A 
ATOM     25  C   UNL A   1      41.878  41.328  30.901  1.00  0.00     0.002 A 
ATOM     26  C   UNL A   1      42.671  40.801  31.915  1.00  0.00     0.001 A 
BRANCH  19  27
ATOM     27  S   UNL A   1      45.112  41.668  28.314  1.00  0.00     0.268 S 
ATOM     28  O   UNL A   1      44.438  42.547  27.379  1.00  0.00    -0.201 OA
ATOM     29  O   UNL A   1      46.482  41.226  28.090  1.00  0.00    -0.201 OA
BRANCH  27  30
ATOM     30  C   UNL A   1      45.235  42.532  29.850  1.00  0.00     0.088 A 
ATOM     31  C   UNL A   1      44.865  44.899  33.439  1.00  0.00     0.044 C 
ATOM     32  C   UNL A   1      44.995  44.043  32.212  1.00  0.00    -0.051 A 
ATOM     33  C   UNL A   1      44.261  44.403  31.088  1.00  0.00     0.005 A 
ATOM     34  C   UNL A   1      45.850  42.922  32.142  1.00  0.00     0.005 A 
ATOM     35  C   UNL A   1      44.374  43.649  29.930  1.00  0.00     0.022 A 
ATOM     36  C   UNL A   1      45.975  42.156  30.960  1.00  0.00     0.022 A 
ENDBRANCH  27  30
ENDBRANCH  19  27
ENDBRANCH  16  18
ENDBRANCH  13  16
ENDBRANCH  11  12
BRANCH  11  37
ATOM     37  C   UNL A   1      47.148  33.376  28.604  1.00  0.00     0.072 C 
BRANCH  37  38
ATOM     38  C   UNL A   1      46.655  32.402  27.567  1.00  0.00    -0.020 A 
ATOM     39  C   UNL A   1      45.704  32.693  26.609  1.00  0.00     0.087 A 
ATOM     40  C   UNL A   1      47.062  31.040  27.323  1.00  0.00     0.003 A 
ATOM     41  N   UNL A   1      45.445  31.559  25.894  1.00  0.00    -0.361 N 
ATOM     42  C   UNL A   1      46.231  30.527  26.327  1.00  0.00     0.046 A 
ATOM     43  C   UNL A   1      48.025  30.169  27.874  1.00  0.00     0.010 A 
ATOM     44  H   UNL A   1      44.785  31.494  25.166  1.00  0.00     0.166 HD
ATOM     45  C   UNL A   1      46.257  29.190  25.913  1.00  0.00     0.026 A 
ATOM     46  C   UNL A   1      48.086  28.832  27.448  1.00  0.00     0.001 A 
ATOM     47  C   UNL A   1      47.199  28.346  26.493  1.00  0.00     0.002 A 
ENDBRANCH  37  38
ENDBRANCH  11  37
ENDBRANCH   8  11
ENDBRANCH   6   7
ENDBRANCH   3   6
ENDBRANCH   1   2
BRANCH   1  48
ATOM     48  C   UNL A   1      39.373  34.870  29.645  1.00  0.00     0.021 C 
BRANCH  48  49
ATOM     49  C   UNL A   1      38.575  33.558  29.620  1.00  0.00     0.002 C 
BRANCH  49  50
ATOM     50  C   UNL A   1      38.142  32.884  30.934  1.00  0.00     0.002 C 
BRANCH  50  51
ATOM     51  C   UNL A   1      36.762  33.140  31.556  1.00  0.00     0.021 C 
BRANCH  51  52
ATOM     52  C   UNL A   1      35.754  31.993  31.510  1.00  0.00     0.116 C 
BRANCH  52  53
ATOM     53  N   UNL A   1      34.861  32.064  30.357  1.00  0.00    -0.352 N 
ATOM     54  C   UNL A   1      35.011  31.503  29.090  1.00  0.00     0.251 C 
ATOM     55  H   UNL A   1      34.035  32.582  30.495  1.00  0.00     0.163 HD
ATOM     56  O   UNL A   1      34.284  31.763  28.172  1.00  0.00    -0.269 OA
BRANCH  54  57
ATOM     57  C   UNL A   1      36.061  30.466  28.955  1.00  0.00     0.039 A 
ATOM     58  C   UNL A   1      36.308  29.647  30.063  1.00  0.00     0.014 A 
ATOM     59  C   UNL A   1      36.928  30.495  27.872  1.00  0.00     0.014 A 
ATOM     60  C   UNL A   1      37.536  28.997  30.174  1.00  0.00     0.010 A 
ATOM     61  C   UNL A   1      38.177  29.929  28.029  1.00  0.00     0.010 A 
ATOM     62  C   UNL A   1      38.501  29.219  29.195  1.00  0.00    -0.014 A 
BRANCH  62  63
ATOM     63  C   UNL A   1      39.900  28.814  29.294  1.00  0.00     0.031 A 
ATOM     64  C   UNL A   1      40.313  27.463  28.850  1.00  0.00     0.074 A 
ATOM     65  C   UNL A   1      40.836  29.734  29.617  1.00  0.00     0.049 A 
ATOM     66  N   UNL A   1      41.479  26.949  29.050  1.00  0.00    -0.248 NA
ATOM     67  C   UNL A   1      39.405  26.562  28.151  1.00  0.00     0.031 C 
ATOM     68  C   UNL A   1      42.275  29.652  29.384  1.00  0.00     0.029 A 
ATOM     69  N   UNL A   1      40.681  30.858  30.431  1.00  0.00    -0.354 N 
ATOM     70  C   UNL A   1      41.565  25.778  28.331  1.00  0.00     0.074 A 
ATOM     71  C   UNL A   1      40.233  25.571  27.808  1.00  0.00     0.031 C 
ATOM     72  C   UNL A   1      42.899  30.488  30.227  1.00  0.00     0.029 A 
ATOM     73  C   UNL A   1      41.896  31.013  31.135  1.00  0.00     0.049 A 
ATOM     74  H   UNL A   1      39.883  31.430  30.501  1.00  0.00     0.167 HD
ATOM     75  C   UNL A   1      42.778  25.169  28.190  1.00  0.00     0.037 A 
ATOM     76  C   UNL A   1      41.925  30.874  32.495  1.00  0.00     0.037 A 
ATOM     77  C   UNL A   1      43.799  25.834  29.000  1.00  0.00     0.049 A 
ATOM     78  C   UNL A   1      42.738  29.695  32.995  1.00  0.00     0.074 A 
ATOM     79  C   UNL A   1      44.762  26.798  28.755  1.00  0.00     0.029 A 
ATOM     80  N   UNL A   1      43.717  25.716  30.373  1.00  0.00    -0.354 N 
ATOM     81  N   UNL A   1      43.367  28.849  32.226  1.00  0.00    -0.248 NA
ATOM     82  C   UNL A   1      42.847  29.337  34.412  1.00  0.00     0.031 C 
ATOM     83  C   UNL A   1      45.215  27.298  30.012  1.00  0.00     0.029 A 
ATOM     84  C   UNL A   1      44.532  26.629  31.011  1.00  0.00     0.049 A 
ATOM     85  H   UNL A   1      43.148  25.061  30.839  1.00  0.00     0.167 HD
ATOM     86  C   UNL A   1      43.869  27.829  32.988  1.00  0.00     0.074 A 
ATOM     87  C   UNL A   1      43.549  28.192  34.354  1.00  0.00     0.031 C 
ATOM     88  C   UNL A   1      44.467  26.725  32.458  1.00  0.00     0.037 A 
BRANCH  75  89
ATOM     89  C   UNL A   1      43.093  24.080  27.187  1.00  0.00     0.058 A 
ATOM     90  C   UNL A   1      43.386  22.769  27.626  1.00  0.00     0.135 A 
ATOM     91  C   UNL A   1      43.162  24.259  25.792  1.00  0.00     0.135 A 
ATOM     92  F   UNL A   1      43.283  22.424  28.917  1.00  0.00    -0.206 F 
ATOM     93  C   UNL A   1      43.812  21.755  26.767  1.00  0.00     0.059 A 
ATOM     94  C   UNL A   1      43.644  23.278  24.918  1.00  0.00     0.059 A 
ATOM     95  F   UNL A   1      42.710  25.375  25.206  1.00  0.00    -0.206 F 
ATOM     96  C   UNL A   1      43.976  22.028  25.416  1.00  0.00     0.060 A 
BRANCH  96  97
ATOM     97  S   UNL A   1      44.615  20.735  24.336  1.00  0.00     0.124 S 
ATOM     98  O   UNL A   1      45.956  20.521  24.874  1.00  0.00    -0.237 OA
ATOM     99  O   UNL A   1      43.662  19.654  24.557  1.00  0.00    -0.237 OA
ATOM    100  O   UNL A   1      44.572  21.347  23.011  1.00  0.00    -0.744 OA
ENDBRANCH  96  97
ENDBRANCH  75  89
BRANCH  76 101
ATOM    101  C   UNL A   1      40.695  31.422  33.135  1.00  0.00     0.058 A 
ATOM    102  C   UNL A   1      39.665  30.509  33.442  1.00  0.00     0.135 A 
ATOM    103  C   UNL A   1      40.725  32.630  33.845  1.00  0.00     0.135 A 
ATOM    104  F   UNL A   1      39.581  29.343  32.778  1.00  0.00    -0.206 F 
ATOM    105  C   UNL A   1      38.822  30.699  34.530  1.00  0.00     0.059 A 
ATOM    106  C   UNL A   1      39.875  32.849  34.929  1.00  0.00     0.059 A 
ATOM    107  F   UNL A   1      41.678  33.540  33.592  1.00  0.00    -0.206 F 
ATOM    108  C   UNL A   1      38.986  31.842  35.310  1.00  0.00     0.060 A 
BRANCH 108 109
ATOM    109  S   UNL A   1      38.158  31.891  36.916  1.00  0.00     0.124 S 
ATOM    110  O   UNL A   1      39.225  32.356  37.796  1.00  0.00    -0.237 OA
ATOM    111  O   UNL A   1      37.083  32.851  36.668  1.00  0.00    -0.237 OA
ATOM    112  O   UNL A   1      37.732  30.511  37.116  1.00  0.00    -0.744 OA
ENDBRANCH 108 109
ENDBRANCH  76 101
BRANCH  88 113
ATOM    113  C   UNL A   1      45.031  25.626  33.304  1.00  0.00     0.058 A 
ATOM    114  C   UNL A   1      44.206  24.816  34.098  1.00  0.00     0.135 A 
ATOM    115  C   UNL A   1      46.422  25.447  33.447  1.00  0.00     0.135 A 
ATOM    116  F   UNL A   1      42.869  24.940  34.039  1.00  0.00    -0.206 F 
ATOM    117  C   UNL A   1      44.729  23.867  34.976  1.00  0.00     0.059 A 
ATOM    118  C   UNL A   1      46.967  24.538  34.347  1.00  0.00     0.059 A 
ATOM    119  F   UNL A   1      47.289  26.141  32.693  1.00  0.00    -0.206 F 
ATOM    120  C   UNL A   1      46.112  23.739  35.096  1.00  0.00     0.060 A 
BRANCH 120 121
ATOM    121  S   UNL A   1      46.796  22.539  36.257  1.00  0.00     0.124 S 
ATOM    122  O   UNL A   1      45.650  22.219  37.103  1.00  0.00    -0.237 OA
ATOM    123  O   UNL A   1      47.230  21.479  35.354  1.00  0.00    -0.237 OA
ATOM    124  O   UNL A   1      47.864  23.284  36.917  1.00  0.00    -0.744 OA
ENDBRANCH 120 121
ENDBRANCH  88 113
ENDBRANCH  62  63
ENDBRANCH  54  57
ENDBRANCH  52  53
ENDBRANCH  51  52
ENDBRANCH  50  51
ENDBRANCH  49  50
ENDBRANCH  48  49
ENDBRANCH   1  48
TORSDOF 25
ENDMDL
MODEL 2
REMARK VINA RESULT:     -10.1      4.935     10.619
REMARK SMILES Cc1ccc(S(=O)(=O)n2cc(C(=O)C(=O)N[C@H](Cc3c[nH]c4ccccc34)C(=O)NCC(=O)NCCCCCCNC(=O)c3ccc(-c4c5nc(c(-c6c(F)cc(S(=O)(=O)[O-])cc6F)c6ccc([nH]6)c(-c6c(F)cc(S(=O)(=O)[O-])cc6F)c6nc(c(-c7c(F)cc(S(=O)(=O)[O-])cc7F)c7ccc4[nH]7)C=C6)C=C5)cc3)c3ccccc32)cc1
REMARK SMILES IDX 35 1 34 2 32 3 33 4 31 6 30 7 28 8 29 9 17 11 16 12 14 13
REMARK SMILES IDX 15 14 12 16 13 17 11 18 9 19 10 20 115 21 110 22 114 23
REMARK SMILES IDX 111 24 113 25 112 26 6 27 7 28 8 29 5 30 1 31 2 32 3 33
REMARK SMILES IDX 117 34 4 35 116 36 18 37 19 38 20 39 27 40 21 41 22 42 26 43
REMARK SMILES IDX 23 45 25 46 24 47 36 48 37 49 38 50 39 51 40 52 41 53 42 54
REMARK SMILES IDX 43 56 44 57 45 58 109 59 46 60 108 61 47 62 48 63 49 64
REMARK SMILES IDX 102 65 50 66 107 67 101 68 103 69 51 70 106 71 100 72 99 73
REMARK SMILES IDX 52 75 86 76 65 77 85 78 66 79 69 80 84 81 104 82 67 83 68 84
REMARK SMILES IDX 83 86 105 87 70 88 53 89 54 90 63 91 55 92 56 93 62 94 64 95
REMARK SMILES IDX 57 96 58 97 59 98 60 99 61 100 87 101 88 102 97 103 89 104
REMARK SMILES IDX 90 105 96 106 98 107 91 108 92 109 93 110 94 111 95 112
REMARK SMILES IDX 71 113 72 114 81 115 73 116 74 117 80 118 82 119 75 120
REMARK SMILES IDX 76 121 77 122 78 123 79 124
REMARK H PARENT 34 5 30 10 16 15 21 44 41 55 103 74 69 85
REMARK Flexibility Score: inf
ROOT
ATOM      1  C   UNL A   1      34.930  35.394  32.156  1.00  0.00     0.116 C 
ENDROOT
BRANCH   1   2
ATOM      2  N   UNL A   1      34.123  35.324  30.944  1.00  0.00    -0.355 N 
ATOM      3  C   UNL A   1      33.875  34.272  30.106  1.00  0.00     0.239 C 
ATOM      4  O   UNL A   1      32.954  34.403  29.291  1.00  0.00    -0.273 OA
ATOM      5  H   UNL A   1      33.689  36.169  30.686  1.00  0.00     0.163 HD
BRANCH   3   6
ATOM      6  C   UNL A   1      34.564  32.902  30.247  1.00  0.00     0.216 C 
BRANCH   6   7
ATOM      7  N   UNL A   1      35.722  32.666  29.421  1.00  0.00    -0.345 N 
ATOM      8  C   UNL A   1      35.949  31.914  28.324  1.00  0.00     0.243 C 
ATOM      9  O   UNL A   1      37.000  32.200  27.731  1.00  0.00    -0.273 OA
ATOM     10  H   UNL A   1      36.518  33.159  29.724  1.00  0.00     0.164 HD
BRANCH   8  11
ATOM     11  C   UNL A   1      35.086  30.724  27.793  1.00  0.00     0.176 C 
BRANCH  11  12
ATOM     12  N   UNL A   1      33.595  30.834  27.627  1.00  0.00    -0.337 N 
ATOM     13  C   UNL A   1      32.652  30.330  26.740  1.00  0.00     0.293 C 
ATOM     14  O   UNL A   1      31.487  30.712  26.817  1.00  0.00    -0.265 OA
ATOM     15  H   UNL A   1      33.187  31.405  28.316  1.00  0.00     0.164 HD
BRANCH  13  16
ATOM     16  C   UNL A   1      33.032  29.289  25.691  1.00  0.00     0.252 C 
ATOM     17  O   UNL A   1      33.709  29.725  24.757  1.00  0.00    -0.283 OA
BRANCH  16  18
ATOM     18  C   UNL A   1      32.658  27.859  25.690  1.00  0.00     0.054 A 
ATOM     19  N   UNL A   1      32.230  25.655  26.005  1.00  0.00    -0.240 N 
ATOM     20  C   UNL A   1      33.168  26.686  26.258  1.00  0.00     0.117 A 
ATOM     21  C   UNL A   1      31.041  26.309  25.656  1.00  0.00     0.065 A 
ATOM     22  C   UNL A   1      31.519  27.410  24.962  1.00  0.00     0.012 A 
ATOM     23  C   UNL A   1      29.721  25.859  25.512  1.00  0.00     0.028 A 
ATOM     24  C   UNL A   1      30.805  27.858  23.846  1.00  0.00     0.011 A 
ATOM     25  C   UNL A   1      29.002  26.371  24.423  1.00  0.00     0.002 A 
ATOM     26  C   UNL A   1      29.570  27.295  23.551  1.00  0.00     0.001 A 
BRANCH  19  27
ATOM     27  S   UNL A   1      32.591  24.323  24.862  1.00  0.00     0.268 S 
ATOM     28  O   UNL A   1      32.360  24.881  23.544  1.00  0.00    -0.201 OA
ATOM     29  O   UNL A   1      31.798  23.211  25.367  1.00  0.00    -0.201 OA
BRANCH  27  30
ATOM     30  C   UNL A   1      34.228  23.660  24.871  1.00  0.00     0.088 A 
ATOM     31  C   UNL A   1      37.925  21.465  25.235  1.00  0.00     0.044 C 
ATOM     32  C   UNL A   1      36.642  22.226  25.069  1.00  0.00    -0.051 A 
ATOM     33  C   UNL A   1      35.613  21.968  25.967  1.00  0.00     0.005 A 
ATOM     34  C   UNL A   1      36.452  23.209  24.073  1.00  0.00     0.005 A 
ATOM     35  C   UNL A   1      34.422  22.669  25.859  1.00  0.00     0.022 A 
ATOM     36  C   UNL A   1      35.242  23.932  23.964  1.00  0.00     0.022 A 
ENDBRANCH  27  30
ENDBRANCH  19  27
ENDBRANCH  16  18
ENDBRANCH  13  16
ENDBRANCH  11  12
BRANCH  11  37
ATOM     37  C   UNL A   1      35.628  29.287  28.078  1.00  0.00     0.072 C 
BRANCH  37  38
ATOM     38  C   UNL A   1      36.937  29.154  28.809  1.00  0.00    -0.020 A 
ATOM     39  C   UNL A   1      38.144  28.851  28.209  1.00  0.00     0.087 A 
ATOM     40  C   UNL A   1      37.226  29.337  30.211  1.00  0.00     0.003 A 
ATOM     41  N   UNL A   1      39.096  28.733  29.179  1.00  0.00    -0.361 N 
ATOM     42  C   UNL A   1      38.562  28.989  30.412  1.00  0.00     0.046 A 
ATOM     43  C   UNL A   1      36.480  29.723  31.345  1.00  0.00     0.010 A 
ATOM     44  H   UNL A   1      40.038  28.498  29.014  1.00  0.00     0.166 HD
ATOM     45  C   UNL A   1      39.163  28.931  31.675  1.00  0.00     0.026 A 
ATOM     46  C   UNL A   1      37.076  29.700  32.616  1.00  0.00     0.001 A 
ATOM     47  C   UNL A   1      38.395  29.290  32.780  1.00  0.00     0.002 A 
ENDBRANCH  37  38
ENDBRANCH  11  37
ENDBRANCH   8  11
ENDBRANCH   6   7
ENDBRANCH   3   6
ENDBRANCH   1   2
BRANCH   1  48
ATOM     48  C   UNL A   1      34.320  34.646  33.343  1.00  0.00     0.021 C 
BRANCH  48  49
ATOM     49  C   UNL A   1      35.214  33.650  34.095  1.00  0.00     0.002 C 
BRANCH  49  50
ATOM     50  C   UNL A   1      36.591  33.259  33.532  1.00  0.00     0.002 C 
BRANCH  50  51
ATOM     51  C   UNL A   1      37.868  34.017  33.922  1.00  0.00     0.021 C 
BRANCH  51  52
ATOM     52  C   UNL A   1      38.731  34.561  32.784  1.00  0.00     0.116 C 
BRANCH  52  53
ATOM     53  N   UNL A   1      37.976  34.787  31.554  1.00  0.00    -0.352 N 
ATOM     54  C   UNL A   1      38.377  34.617  30.230  1.00  0.00     0.251 C 
ATOM     55  H   UNL A   1      37.052  35.104  31.678  1.00  0.00     0.163 HD
ATOM     56  O   UNL A   1      37.720  34.988  29.297  1.00  0.00    -0.269 OA
BRANCH  54  57
ATOM     57  C   UNL A   1      39.624  33.844  30.019  1.00  0.00     0.039 A 
ATOM     58  C   UNL A   1      39.541  32.448  30.100  1.00  0.00     0.014 A 
ATOM     59  C   UNL A   1      40.850  34.493  30.009  1.00  0.00     0.014 A 
ATOM     60  C   UNL A   1      40.691  31.708  30.370  1.00  0.00     0.010 A 
ATOM     61  C   UNL A   1      41.967  33.770  30.371  1.00  0.00     0.010 A 
ATOM     62  C   UNL A   1      41.884  32.387  30.596  1.00  0.00    -0.014 A 
BRANCH  62  63
ATOM     63  C   UNL A   1      43.103  31.781  31.125  1.00  0.00     0.031 A 
ATOM     64  C   UNL A   1      43.778  30.699  30.374  1.00  0.00     0.074 A 
ATOM     65  C   UNL A   1      43.706  32.334  32.200  1.00  0.00     0.049 A 
ATOM     66  N   UNL A   1      44.752  29.986  30.829  1.00  0.00    -0.248 NA
ATOM     67  C   UNL A   1      43.372  30.316  29.026  1.00  0.00     0.031 C 
ATOM     68  C   UNL A   1      45.090  32.152  32.630  1.00  0.00     0.029 A 
ATOM     69  N   UNL A   1      43.105  33.021  33.256  1.00  0.00    -0.354 N 
ATOM     70  C   UNL A   1      45.253  29.227  29.795  1.00  0.00     0.074 A 
ATOM     71  C   UNL A   1      44.339  29.454  28.698  1.00  0.00     0.031 C 
ATOM     72  C   UNL A   1      45.183  32.456  33.933  1.00  0.00     0.029 A 
ATOM     73  C   UNL A   1      43.836  32.689  34.419  1.00  0.00     0.049 A 
ATOM     74  H   UNL A   1      42.324  33.619  33.202  1.00  0.00     0.167 HD
ATOM     75  C   UNL A   1      46.434  28.566  29.965  1.00  0.00     0.037 A 
ATOM     76  C   UNL A   1      43.237  31.988  35.429  1.00  0.00     0.037 A 
ATOM     77  C   UNL A   1      46.906  28.673  31.345  1.00  0.00     0.049 A 
ATOM     78  C   UNL A   1      43.811  30.605  35.669  1.00  0.00     0.074 A 
ATOM     79  C   UNL A   1      47.795  29.501  32.010  1.00  0.00     0.029 A 
ATOM     80  N   UNL A   1      46.203  28.002  32.325  1.00  0.00    -0.354 N 
ATOM     81  N   UNL A   1      44.789  30.080  34.982  1.00  0.00    -0.248 NA
ATOM     82  C   UNL A   1      43.275  29.673  36.664  1.00  0.00     0.031 C 
ATOM     83  C   UNL A   1      47.570  29.355  33.410  1.00  0.00     0.029 A 
ATOM     84  C   UNL A   1      46.554  28.434  33.589  1.00  0.00     0.049 A 
ATOM     85  H   UNL A   1      45.535  27.301  32.145  1.00  0.00     0.167 HD
ATOM     86  C   UNL A   1      44.956  28.773  35.354  1.00  0.00     0.074 A 
ATOM     87  C   UNL A   1      44.009  28.570  36.433  1.00  0.00     0.031 C 
ATOM     88  C   UNL A   1      45.815  27.921  34.727  1.00  0.00     0.037 A 
BRANCH  75  89
ATOM     89  C   UNL A   1      47.263  27.967  28.849  1.00  0.00     0.058 A 
ATOM     90  C   UNL A   1      48.333  28.697  28.283  1.00  0.00     0.135 A 
ATOM     91  C   UNL A   1      47.043  26.705  28.264  1.00  0.00     0.135 A 
ATOM     92  F   UNL A   1      48.717  29.878  28.785  1.00  0.00    -0.206 F 
ATOM     93  C   UNL A   1      49.050  28.259  27.168  1.00  0.00     0.059 A 
ATOM     94  C   UNL A   1      47.705  26.270  27.110  1.00  0.00     0.059 A 
ATOM     95  F   UNL A   1      46.214  25.811  28.818  1.00  0.00    -0.206 F 
ATOM     96  C   UNL A   1      48.704  27.059  26.562  1.00  0.00     0.060 A 
BRANCH  96  97
ATOM     97  S   UNL A   1      49.577  26.552  25.070  1.00  0.00     0.124 S 
ATOM     98  O   UNL A   1      50.758  25.890  25.615  1.00  0.00    -0.237 OA
ATOM     99  O   UNL A   1      48.600  25.680  24.427  1.00  0.00    -0.237 OA
ATOM    100  O   UNL A   1      49.837  27.813  24.382  1.00  0.00    -0.744 OA
ENDBRANCH  96  97
ENDBRANCH  75  89
BRANCH  76 101
ATOM    101  C   UNL A   1      41.813  32.387  35.614  1.00  0.00     0.058 A 
ATOM    102  C   UNL A   1      40.827  31.513  35.113  1.00  0.00     0.135 A 
ATOM    103  C   UNL A   1      41.436  33.277  36.630  1.00  0.00     0.135 A 
ATOM    104  F   UNL A   1      41.132  30.652  34.127  1.00  0.00    -0.206 F 
ATOM    105  C   UNL A   1      39.582  31.393  35.718  1.00  0.00     0.059 A 
ATOM    106  C   UNL A   1      40.184  33.186  37.239  1.00  0.00     0.059 A 
ATOM    107  F   UNL A   1      42.330  34.137  37.142  1.00  0.00    -0.206 F 
ATOM    108  C   UNL A   1      39.300  32.187  36.828  1.00  0.00     0.060 A 
BRANCH 108 109
ATOM    109  S   UNL A   1      37.854  31.757  37.824  1.00  0.00     0.124 S 
ATOM    110  O   UNL A   1      38.358  31.927  39.183  1.00  0.00    -0.237 OA
ATOM    111  O   UNL A   1      36.882  32.759  37.385  1.00  0.00    -0.237 OA
ATOM    112  O   UNL A   1      37.566  30.386  37.424  1.00  0.00    -0.744 OA
ENDBRANCH 108 109
ENDBRANCH  76 101
BRANCH  88 113
ATOM    113  C   UNL A   1      46.002  26.500  35.159  1.00  0.00     0.058 A 
ATOM    114  C   UNL A   1      45.184  25.471  34.669  1.00  0.00     0.135 A 
ATOM    115  C   UNL A   1      46.914  26.153  36.177  1.00  0.00     0.135 A 
ATOM    116  F   UNL A   1      44.272  25.723  33.715  1.00  0.00    -0.206 F 
ATOM    117  C   UNL A   1      45.274  24.165  35.149  1.00  0.00     0.059 A 
ATOM    118  C   UNL A   1      46.992  24.868  36.701  1.00  0.00     0.059 A 
ATOM    119  F   UNL A   1      47.773  27.058  36.672  1.00  0.00    -0.206 F 
ATOM    120  C   UNL A   1      46.179  23.875  36.169  1.00  0.00     0.060 A 
BRANCH 120 121
ATOM    121  S   UNL A   1      46.275  22.195  36.821  1.00  0.00     0.124 S 
ATOM    122  O   UNL A   1      45.313  21.472  35.994  1.00  0.00    -0.237 OA
ATOM    123  O   UNL A   1      47.677  21.874  36.584  1.00  0.00    -0.237 OA
ATOM    124  O   UNL A   1      45.891  22.357  38.220  1.00  0.00    -0.744 OA
ENDBRANCH 120 121
ENDBRANCH  88 113
ENDBRANCH  62  63
ENDBRANCH  54  57
ENDBRANCH  52  53
ENDBRANCH  51  52
ENDBRANCH  50  51
ENDBRANCH  49  50
ENDBRANCH  48  49
ENDBRANCH   1  48
TORSDOF 25
ENDMDL
MODEL 3
REMARK VINA RESULT:      -9.9      6.479     13.610
REMARK SMILES Cc1ccc(S(=O)(=O)n2cc(C(=O)C(=O)N[C@H](Cc3c[nH]c4ccccc34)C(=O)NCC(=O)NCCCCCCNC(=O)c3ccc(-c4c5nc(c(-c6c(F)cc(S(=O)(=O)[O-])cc6F)c6ccc([nH]6)c(-c6c(F)cc(S(=O)(=O)[O-])cc6F)c6nc(c(-c7c(F)cc(S(=O)(=O)[O-])cc7F)c7ccc4[nH]7)C=C6)C=C5)cc3)c3ccccc32)cc1
REMARK SMILES IDX 35 1 34 2 32 3 33 4 31 6 30 7 28 8 29 9 17 11 16 12 14 13
REMARK SMILES IDX 15 14 12 16 13 17 11 18 9 19 10 20 115 21 110 22 114 23
REMARK SMILES IDX 111 24 113 25 112 26 6 27 7 28 8 29 5 30 1 31 2 32 3 33
REMARK SMILES IDX 117 34 4 35 116 36 18 37 19 38 20 39 27 40 21 41 22 42 26 43
REMARK SMILES IDX 23 45 25 46 24 47 36 48 37 49 38 50 39 51 40 52 41 53 42 54
REMARK SMILES IDX 43 56 44 57 45 58 109 59 46 60 108 61 47 62 48 63 49 64
REMARK SMILES IDX 102 65 50 66 107 67 101 68 103 69 51 70 106 71 100 72 99 73
REMARK SMILES IDX 52 75 86 76 65 77 85 78 66 79 69 80 84 81 104 82 67 83 68 84
REMARK SMILES IDX 83 86 105 87 70 88 53 89 54 90 63 91 55 92 56 93 62 94 64 95
REMARK SMILES IDX 57 96 58 97 59 98 60 99 61 100 87 101 88 102 97 103 89 104
REMARK SMILES IDX 90 105 96 106 98 107 91 108 92 109 93 110 94 111 95 112
REMARK SMILES IDX 71 113 72 114 81 115 73 116 74 117 80 118 82 119 75 120
REMARK SMILES IDX 76 121 77 122 78 123 79 124
REMARK H PARENT 34 5 30 10 16 15 21 44 41 55 103 74 69 85
REMARK Flexibility Score: inf
ROOT
ATOM      1  C   UNL A   1      34.062  29.810  27.019  1.00  0.00     0.116 C 
ENDROOT
BRANCH   1   2
ATOM      2  N   UNL A   1      32.749  29.497  27.570  1.00  0.00    -0.355 N 
ATOM      3  C   UNL A   1      32.033  28.332  27.541  1.00  0.00     0.239 C 
ATOM      4  O   UNL A   1      31.060  28.247  28.301  1.00  0.00    -0.273 OA
ATOM      5  H   UNL A   1      32.306  30.243  28.035  1.00  0.00     0.163 HD
BRANCH   3   6
ATOM      6  C   UNL A   1      32.479  27.088  26.750  1.00  0.00     0.216 C 
BRANCH   6   7
ATOM      7  N   UNL A   1      31.442  26.313  26.115  1.00  0.00    -0.345 N 
ATOM      8  C   UNL A   1      30.922  26.292  24.870  1.00  0.00     0.243 C 
ATOM      9  O   UNL A   1      30.242  25.282  24.630  1.00  0.00    -0.273 OA
ATOM     10  H   UNL A   1      31.024  25.660  26.720  1.00  0.00     0.164 HD
BRANCH   8  11
ATOM     11  C   UNL A   1      31.034  27.401  23.774  1.00  0.00     0.176 C 
BRANCH  11  12
ATOM     12  N   UNL A   1      32.126  27.391  22.741  1.00  0.00    -0.337 N 
ATOM     13  C   UNL A   1      32.995  26.441  22.219  1.00  0.00     0.293 C 
ATOM     14  O   UNL A   1      33.874  26.793  21.436  1.00  0.00    -0.265 OA
ATOM     15  H   UNL A   1      32.259  28.277  22.333  1.00  0.00     0.164 HD
BRANCH  13  16
ATOM     16  C   UNL A   1      32.861  24.964  22.580  1.00  0.00     0.252 C 
ATOM     17  O   UNL A   1      31.937  24.379  22.012  1.00  0.00    -0.283 OA
BRANCH  16  18
ATOM     18  C   UNL A   1      33.703  24.208  23.530  1.00  0.00     0.054 A 
ATOM     19  N   UNL A   1      35.050  23.354  25.142  1.00  0.00    -0.240 N 
ATOM     20  C   UNL A   1      34.832  24.481  24.312  1.00  0.00     0.117 A 
ATOM     21  C   UNL A   1      33.848  22.633  25.117  1.00  0.00     0.065 A 
ATOM     22  C   UNL A   1      33.423  22.840  23.815  1.00  0.00     0.012 A 
ATOM     23  C   UNL A   1      33.368  21.569  25.893  1.00  0.00     0.028 A 
ATOM     24  C   UNL A   1      32.794  21.788  23.142  1.00  0.00     0.011 A 
ATOM     25  C   UNL A   1      32.682  20.556  25.207  1.00  0.00     0.002 A 
ATOM     26  C   UNL A   1      32.474  20.626  23.834  1.00  0.00     0.001 A 
BRANCH  19  27
ATOM     27  S   UNL A   1      36.456  22.270  24.896  1.00  0.00     0.268 S 
ATOM     28  O   UNL A   1      36.741  22.336  23.477  1.00  0.00    -0.201 OA
ATOM     29  O   UNL A   1      36.047  21.026  25.533  1.00  0.00    -0.201 OA
BRANCH  27  30
ATOM     30  C   UNL A   1      37.950  22.664  25.750  1.00  0.00     0.088 A 
ATOM     31  C   UNL A   1      41.208  24.161  28.152  1.00  0.00     0.044 C 
ATOM     32  C   UNL A   1      40.077  23.606  27.336  1.00  0.00    -0.051 A 
ATOM     33  C   UNL A   1      39.029  24.460  27.011  1.00  0.00     0.005 A 
ATOM     34  C   UNL A   1      40.050  22.278  26.858  1.00  0.00     0.005 A 
ATOM     35  C   UNL A   1      37.979  23.989  26.240  1.00  0.00     0.022 A 
ATOM     36  C   UNL A   1      38.985  21.795  26.063  1.00  0.00     0.022 A 
ENDBRANCH  27  30
ENDBRANCH  19  27
ENDBRANCH  16  18
ENDBRANCH  13  16
ENDBRANCH  11  12
BRANCH  11  37
ATOM     37  C   UNL A   1      30.472  28.810  24.149  1.00  0.00     0.072 C 
BRANCH  37  38
ATOM     38  C   UNL A   1      29.449  29.432  23.237  1.00  0.00    -0.020 A 
ATOM     39  C   UNL A   1      28.609  28.723  22.401  1.00  0.00     0.087 A 
ATOM     40  C   UNL A   1      29.104  30.822  23.062  1.00  0.00     0.003 A 
ATOM     41  N   UNL A   1      27.875  29.609  21.667  1.00  0.00    -0.361 N 
ATOM     42  C   UNL A   1      28.177  30.895  22.021  1.00  0.00     0.046 A 
ATOM     43  C   UNL A   1      29.512  32.037  23.651  1.00  0.00     0.010 A 
ATOM     44  H   UNL A   1      27.217  29.356  20.979  1.00  0.00     0.166 HD
ATOM     45  C   UNL A   1      27.703  32.101  21.493  1.00  0.00     0.026 A 
ATOM     46  C   UNL A   1      29.022  33.256  23.154  1.00  0.00     0.001 A 
ATOM     47  C   UNL A   1      28.144  33.286  22.075  1.00  0.00     0.002 A 
ENDBRANCH  37  38
ENDBRANCH  11  37
ENDBRANCH   8  11
ENDBRANCH   6   7
ENDBRANCH   3   6
ENDBRANCH   1   2
BRANCH   1  48
ATOM     48  C   UNL A   1      35.221  29.205  27.814  1.00  0.00     0.021 C 
BRANCH  48  49
ATOM     49  C   UNL A   1      36.012  30.136  28.744  1.00  0.00     0.002 C 
BRANCH  49  50
ATOM     50  C   UNL A   1      37.448  29.778  29.167  1.00  0.00     0.002 C 
BRANCH  50  51
ATOM     51  C   UNL A   1      37.752  29.128  30.524  1.00  0.00     0.021 C 
BRANCH  51  52
ATOM     52  C   UNL A   1      37.185  29.811  31.767  1.00  0.00     0.116 C 
BRANCH  52  53
ATOM     53  N   UNL A   1      37.623  31.197  31.906  1.00  0.00    -0.352 N 
ATOM     54  C   UNL A   1      38.507  31.753  32.830  1.00  0.00     0.251 C 
ATOM     55  H   UNL A   1      37.241  31.828  31.254  1.00  0.00     0.163 HD
ATOM     56  O   UNL A   1      38.669  32.936  32.946  1.00  0.00    -0.269 OA
BRANCH  54  57
ATOM     57  C   UNL A   1      39.335  30.796  33.599  1.00  0.00     0.039 A 
ATOM     58  C   UNL A   1      39.163  30.762  34.989  1.00  0.00     0.014 A 
ATOM     59  C   UNL A   1      40.411  30.164  32.991  1.00  0.00     0.014 A 
ATOM     60  C   UNL A   1      40.183  30.256  35.793  1.00  0.00     0.010 A 
ATOM     61  C   UNL A   1      41.456  29.753  33.792  1.00  0.00     0.010 A 
ATOM     62  C   UNL A   1      41.366  29.839  35.189  1.00  0.00    -0.014 A 
BRANCH  62  63
ATOM     63  C   UNL A   1      42.600  29.521  35.901  1.00  0.00     0.031 A 
ATOM     64  C   UNL A   1      42.836  28.145  36.395  1.00  0.00     0.074 A 
ATOM     65  C   UNL A   1      43.596  30.433  35.944  1.00  0.00     0.049 A 
ATOM     66  N   UNL A   1      43.803  27.801  37.176  1.00  0.00    -0.248 NA
ATOM     67  C   UNL A   1      41.956  27.033  36.054  1.00  0.00     0.031 C 
ATOM     68  C   UNL A   1      45.006  30.191  36.233  1.00  0.00     0.029 A 
ATOM     69  N   UNL A   1      43.478  31.825  35.940  1.00  0.00    -0.354 N 
ATOM     70  C   UNL A   1      43.825  26.427  37.259  1.00  0.00     0.074 A 
ATOM     71  C   UNL A   1      42.635  25.999  36.559  1.00  0.00     0.031 C 
ATOM     72  C   UNL A   1      45.569  31.338  36.639  1.00  0.00     0.029 A 
ATOM     73  C   UNL A   1      44.505  32.316  36.777  1.00  0.00     0.049 A 
ATOM     74  H   UNL A   1      42.810  32.359  35.452  1.00  0.00     0.167 HD
ATOM     75  C   UNL A   1      44.897  25.810  37.835  1.00  0.00     0.037 A 
ATOM     76  C   UNL A   1      44.193  32.972  37.935  1.00  0.00     0.037 A 
ATOM     77  C   UNL A   1      45.813  26.786  38.425  1.00  0.00     0.049 A 
ATOM     78  C   UNL A   1      44.627  32.263  39.203  1.00  0.00     0.074 A 
ATOM     79  C   UNL A   1      46.974  27.412  38.003  1.00  0.00     0.029 A 
ATOM     80  N   UNL A   1      45.398  27.471  39.549  1.00  0.00    -0.354 N 
ATOM     81  N   UNL A   1      45.241  31.111  39.235  1.00  0.00    -0.248 NA
ATOM     82  C   UNL A   1      44.337  32.769  40.548  1.00  0.00     0.031 C 
ATOM     83  C   UNL A   1      47.214  28.523  38.865  1.00  0.00     0.029 A 
ATOM     84  C   UNL A   1      46.204  28.560  39.809  1.00  0.00     0.049 A 
ATOM     85  H   UNL A   1      44.621  27.213  40.098  1.00  0.00     0.167 HD
ATOM     86  C   UNL A   1      45.349  30.688  40.533  1.00  0.00     0.074 A 
ATOM     87  C   UNL A   1      44.799  31.773  41.323  1.00  0.00     0.031 C 
ATOM     88  C   UNL A   1      45.828  29.462  40.882  1.00  0.00     0.037 A 
BRANCH  75  89
ATOM     89  C   UNL A   1      45.218  24.336  37.719  1.00  0.00     0.058 A 
ATOM     90  C   UNL A   1      45.434  23.558  38.879  1.00  0.00     0.135 A 
ATOM     91  C   UNL A   1      45.366  23.632  36.508  1.00  0.00     0.135 A 
ATOM     92  F   UNL A   1      45.250  24.066  40.105  1.00  0.00    -0.206 F 
ATOM     93  C   UNL A   1      45.862  22.230  38.839  1.00  0.00     0.059 A 
ATOM     94  C   UNL A   1      45.852  22.321  36.439  1.00  0.00     0.059 A 
ATOM     95  F   UNL A   1      44.993  24.165  35.338  1.00  0.00    -0.206 F 
ATOM     96  C   UNL A   1      46.106  21.628  37.612  1.00  0.00     0.060 A 
BRANCH  96  97
ATOM     97  S   UNL A   1      46.746  19.945  37.578  1.00  0.00     0.124 S 
ATOM     98  O   UNL A   1      47.731  19.969  38.656  1.00  0.00    -0.237 OA
ATOM     99  O   UNL A   1      45.546  19.157  37.832  1.00  0.00    -0.237 OA
ATOM    100  O   UNL A   1      47.304  19.820  36.235  1.00  0.00    -0.744 OA
ENDBRANCH  96  97
ENDBRANCH  75  89
BRANCH  76 101
ATOM    101  C   UNL A   1      42.978  33.823  37.782  1.00  0.00     0.058 A 
ATOM    102  C   UNL A   1      41.772  33.330  38.322  1.00  0.00     0.135 A 
ATOM    103  C   UNL A   1      43.084  35.206  37.581  1.00  0.00     0.135 A 
ATOM    104  F   UNL A   1      41.614  32.010  38.517  1.00  0.00    -0.206 F 
ATOM    105  C   UNL A   1      40.794  34.182  38.818  1.00  0.00     0.059 A 
ATOM    106  C   UNL A   1      42.103  36.079  38.056  1.00  0.00     0.059 A 
ATOM    107  F   UNL A   1      44.205  35.732  37.065  1.00  0.00    -0.206 F 
ATOM    108  C   UNL A   1      41.006  35.558  38.743  1.00  0.00     0.060 A 
BRANCH 108 109
ATOM    109  S   UNL A   1      39.926  36.629  39.720  1.00  0.00     0.124 S 
ATOM    110  O   UNL A   1      39.094  37.243  38.691  1.00  0.00    -0.237 OA
ATOM    111  O   UNL A   1      39.248  35.662  40.582  1.00  0.00    -0.237 OA
ATOM    112  O   UNL A   1      40.860  37.523  40.394  1.00  0.00    -0.744 OA
ENDBRANCH 108 109
ENDBRANCH  76 101
BRANCH  88 113
ATOM    113  C   UNL A   1      45.960  29.022  42.307  1.00  0.00     0.058 A 
ATOM    114  C   UNL A   1      44.901  28.398  42.983  1.00  0.00     0.135 A 
ATOM    115  C   UNL A   1      47.102  29.336  43.072  1.00  0.00     0.135 A 
ATOM    116  F   UNL A   1      43.768  28.086  42.331  1.00  0.00    -0.206 F 
ATOM    117  C   UNL A   1      44.973  28.088  44.340  1.00  0.00     0.059 A 
ATOM    118  C   UNL A   1      47.180  29.076  44.436  1.00  0.00     0.059 A 
ATOM    119  F   UNL A   1      48.185  29.888  42.502  1.00  0.00    -0.206 F 
ATOM    120  C   UNL A   1      46.115  28.435  45.059  1.00  0.00     0.060 A 
BRANCH 120 121
ATOM    121  S   UNL A   1      46.201  28.071  46.824  1.00  0.00     0.124 S 
ATOM    122  O   UNL A   1      45.355  29.108  47.409  1.00  0.00    -0.237 OA
ATOM    123  O   UNL A   1      45.659  26.718  46.866  1.00  0.00    -0.237 OA
ATOM    124  O   UNL A   1      47.624  28.192  47.122  1.00  0.00    -0.744 OA
ENDBRANCH 120 121
ENDBRANCH  88 113
ENDBRANCH  62  63
ENDBRANCH  54  57
ENDBRANCH  52  53
ENDBRANCH  51  52
ENDBRANCH  50  51
ENDBRANCH  49  50
ENDBRANCH  48  49
ENDBRANCH   1  48
TORSDOF 25
ENDMDL
