MODEL 1
REMARK VINA RESULT:     -11.3      0.000      0.000
REMARK SMILES CN(C(=O)N[C@@](C)(C(=O)NCCCCCCNC(=O)c1ccc(-c2c3nc(c(-c4c(F)cc(S(=O)(=O)[O-])cc4F)c4ccc([nH]4)c(-c4c(F)cc(S(=O)(=O)[O-])cc4F)c4nc(c(-c5c(F)cc(S(=O)(=O)[O-])cc5F)c5ccc2[nH]5)C=C4)C=C3)cc1)C(F)(F)F)c1ccc(F)cc1
REMARK SMILES IDX 13 1 12 2 11 3 10 4 8 5 9 6 6 8 7 9 5 10 3 11 4 12 2 14 1 15
REMARK SMILES IDX 90 16 91 17 96 18 92 19 95 20 93 21 94 22 86 23 87 24 88 25
REMARK SMILES IDX 89 26 14 27 15 28 16 29 17 30 18 31 19 33 20 34 21 35 85 36
REMARK SMILES IDX 22 37 84 38 23 39 24 40 25 41 78 42 26 43 83 44 77 45 79 46
REMARK SMILES IDX 27 47 82 48 76 49 75 50 28 52 62 53 41 54 61 55 42 56 45 57
REMARK SMILES IDX 60 58 80 59 43 60 44 61 59 63 81 64 46 65 29 66 30 67 39 68
REMARK SMILES IDX 31 69 32 70 38 71 40 72 33 73 34 74 35 75 36 76 37 77 63 78
REMARK SMILES IDX 64 79 73 80 65 81 66 82 72 83 74 84 67 85 68 86 69 87 70 88
REMARK SMILES IDX 71 89 47 90 48 91 57 92 49 93 50 94 56 95 58 96 51 97 52 98
REMARK SMILES IDX 53 99 54 100 55 101
REMARK H PARENT 10 7 5 13 17 32 79 51 45 62
REMARK Flexibility Score: inf
ROOT
ATOM      1  C   UNL A   1      30.616  27.265  25.055  1.00  0.00     0.002 C 
ENDROOT
BRANCH   1   2
ATOM      2  C   UNL A   1      30.825  28.044  23.748  1.00  0.00     0.021 C 
BRANCH   2   3
ATOM      3  C   UNL A   1      30.660  27.216  22.473  1.00  0.00     0.116 C 
BRANCH   3   4
ATOM      4  N   UNL A   1      31.958  26.871  21.928  1.00  0.00    -0.354 N 
ATOM      5  C   UNL A   1      32.835  25.856  22.122  1.00  0.00     0.255 C 
ATOM      6  O   UNL A   1      33.952  26.066  21.635  1.00  0.00    -0.272 OA
ATOM      7  H   UNL A   1      32.277  27.525  21.264  1.00  0.00     0.163 HD
BRANCH   5   8
ATOM      8  C   UNL A   1      32.512  24.573  22.926  1.00  0.00     0.213 C 
ATOM      9  C   UNL A   1      30.996  24.302  23.009  1.00  0.00     0.056 C 
BRANCH   8  10
ATOM     10  N   UNL A   1      33.000  24.817  24.336  1.00  0.00    -0.316 N 
ATOM     11  C   UNL A   1      33.286  24.246  25.517  1.00  0.00     0.322 C 
ATOM     12  O   UNL A   1      34.060  24.934  26.196  1.00  0.00    -0.248 OA
ATOM     13  H   UNL A   1      33.182  25.780  24.423  1.00  0.00     0.166 HD
BRANCH  11  14
ATOM     14  N   UNL A   1      32.784  23.057  25.954  1.00  0.00    -0.298 N 
ATOM     15  C   UNL A   1      32.113  22.834  27.221  1.00  0.00     0.155 C 
BRANCH  14  16
ATOM     16  C   UNL A   1      33.190  21.826  25.341  1.00  0.00     0.045 A 
ATOM     17  C   UNL A   1      34.549  21.497  25.225  1.00  0.00     0.029 A 
ATOM     18  C   UNL A   1      32.218  20.854  25.060  1.00  0.00     0.029 A 
ATOM     19  C   UNL A   1      34.925  20.192  24.891  1.00  0.00     0.041 A 
ATOM     20  C   UNL A   1      32.597  19.560  24.700  1.00  0.00     0.041 A 
ATOM     21  C   UNL A   1      33.947  19.237  24.642  1.00  0.00     0.123 A 
ATOM     22  F   UNL A   1      34.309  17.976  24.365  1.00  0.00    -0.207 F 
ENDBRANCH  14  16
ENDBRANCH  11  14
ENDBRANCH   8  10
BRANCH   8  23
ATOM     23  C   UNL A   1      33.089  23.468  22.007  1.00  0.00     0.420 C 
ATOM     24  F   UNL A   1      33.086  23.786  20.697  1.00  0.00    -0.168 F 
ATOM     25  F   UNL A   1      34.365  23.149  22.343  1.00  0.00    -0.168 F 
ATOM     26  F   UNL A   1      32.407  22.299  22.145  1.00  0.00    -0.168 F 
ENDBRANCH   8  23
ENDBRANCH   5   8
ENDBRANCH   3   4
ENDBRANCH   2   3
ENDBRANCH   1   2
BRANCH   1  27
ATOM     27  C   UNL A   1      31.487  27.719  26.229  1.00  0.00     0.002 C 
BRANCH  27  28
ATOM     28  C   UNL A   1      32.910  28.128  25.852  1.00  0.00     0.021 C 
BRANCH  28  29
ATOM     29  C   UNL A   1      33.815  28.437  27.039  1.00  0.00     0.116 C 
BRANCH  29  30
ATOM     30  N   UNL A   1      33.678  29.811  27.492  1.00  0.00    -0.352 N 
ATOM     31  C   UNL A   1      34.572  30.578  28.196  1.00  0.00     0.251 C 
ATOM     32  H   UNL A   1      32.827  30.252  27.264  1.00  0.00     0.163 HD
ATOM     33  O   UNL A   1      34.224  31.660  28.662  1.00  0.00    -0.269 OA
BRANCH  31  34
ATOM     34  C   UNL A   1      35.947  30.079  28.410  1.00  0.00     0.039 A 
ATOM     35  C   UNL A   1      36.856  30.126  27.352  1.00  0.00     0.014 A 
ATOM     36  C   UNL A   1      36.341  29.584  29.658  1.00  0.00     0.014 A 
ATOM     37  C   UNL A   1      38.179  29.730  27.562  1.00  0.00     0.010 A 
ATOM     38  C   UNL A   1      37.676  29.265  29.885  1.00  0.00     0.010 A 
ATOM     39  C   UNL A   1      38.609  29.330  28.839  1.00  0.00    -0.014 A 
BRANCH  39  40
ATOM     40  C   UNL A   1      40.029  28.978  29.097  1.00  0.00     0.031 A 
ATOM     41  C   UNL A   1      40.968  30.002  29.674  1.00  0.00     0.074 A 
ATOM     42  C   UNL A   1      40.484  27.754  28.759  1.00  0.00     0.049 A 
ATOM     43  N   UNL A   1      42.250  29.903  29.914  1.00  0.00    -0.248 NA
ATOM     44  C   UNL A   1      40.399  31.321  29.999  1.00  0.00     0.031 C 
ATOM     45  C   UNL A   1      39.681  26.692  28.148  1.00  0.00     0.029 A 
ATOM     46  N   UNL A   1      41.734  27.200  28.870  1.00  0.00    -0.354 N 
ATOM     47  C   UNL A   1      42.641  31.142  30.409  1.00  0.00     0.074 A 
ATOM     48  C   UNL A   1      41.473  31.995  30.380  1.00  0.00     0.031 C 
ATOM     49  C   UNL A   1      40.451  25.609  27.962  1.00  0.00     0.029 A 
ATOM     50  C   UNL A   1      41.812  25.910  28.398  1.00  0.00     0.049 A 
ATOM     51  H   UNL A   1      42.504  27.680  29.253  1.00  0.00     0.167 HD
ATOM     52  C   UNL A   1      43.856  31.527  30.867  1.00  0.00     0.037 A 
ATOM     53  C   UNL A   1      42.861  25.070  28.313  1.00  0.00     0.037 A 
ATOM     54  C   UNL A   1      45.008  30.664  30.912  1.00  0.00     0.049 A 
ATOM     55  C   UNL A   1      44.205  25.524  28.817  1.00  0.00     0.074 A 
ATOM     56  C   UNL A   1      46.269  30.939  31.410  1.00  0.00     0.029 A 
ATOM     57  N   UNL A   1      45.043  29.361  30.436  1.00  0.00    -0.354 N 
ATOM     58  N   UNL A   1      44.540  26.678  29.344  1.00  0.00    -0.248 NA
ATOM     59  C   UNL A   1      45.312  24.564  28.722  1.00  0.00     0.031 C 
ATOM     60  C   UNL A   1      47.081  29.824  31.186  1.00  0.00     0.029 A 
ATOM     61  C   UNL A   1      46.312  28.829  30.606  1.00  0.00     0.049 A 
ATOM     62  H   UNL A   1      44.280  28.884  30.038  1.00  0.00     0.167 HD
ATOM     63  C   UNL A   1      45.887  26.571  29.671  1.00  0.00     0.074 A 
ATOM     64  C   UNL A   1      46.301  25.235  29.294  1.00  0.00     0.031 C 
ATOM     65  C   UNL A   1      46.708  27.493  30.234  1.00  0.00     0.037 A 
BRANCH  52  66
ATOM     66  C   UNL A   1      44.005  32.940  31.363  1.00  0.00     0.058 A 
ATOM     67  C   UNL A   1      43.836  33.270  32.718  1.00  0.00     0.135 A 
ATOM     68  C   UNL A   1      44.370  33.971  30.482  1.00  0.00     0.135 A 
ATOM     69  F   UNL A   1      43.473  32.328  33.604  1.00  0.00    -0.206 F 
ATOM     70  C   UNL A   1      43.997  34.573  33.176  1.00  0.00     0.059 A 
ATOM     71  C   UNL A   1      44.567  35.276  30.923  1.00  0.00     0.059 A 
ATOM     72  F   UNL A   1      44.543  33.714  29.175  1.00  0.00    -0.206 F 
ATOM     73  C   UNL A   1      44.367  35.570  32.271  1.00  0.00     0.060 A 
BRANCH  73  74
ATOM     74  S   UNL A   1      44.588  37.251  32.887  1.00  0.00     0.124 S 
ATOM     75  O   UNL A   1      44.933  37.967  31.663  1.00  0.00    -0.237 OA
ATOM     76  O   UNL A   1      43.275  37.552  33.448  1.00  0.00    -0.237 OA
ATOM     77  O   UNL A   1      45.668  37.118  33.861  1.00  0.00    -0.744 OA
ENDBRANCH  73  74
ENDBRANCH  52  66
BRANCH  53  78
ATOM     78  C   UNL A   1      42.682  23.707  27.739  1.00  0.00     0.058 A 
ATOM     79  C   UNL A   1      42.464  22.595  28.568  1.00  0.00     0.135 A 
ATOM     80  C   UNL A   1      42.725  23.489  26.354  1.00  0.00     0.135 A 
ATOM     81  F   UNL A   1      42.421  22.750  29.900  1.00  0.00    -0.206 F 
ATOM     82  C   UNL A   1      42.318  21.315  28.046  1.00  0.00     0.059 A 
ATOM     83  C   UNL A   1      42.552  22.222  25.806  1.00  0.00     0.059 A 
ATOM     84  F   UNL A   1      42.913  24.521  25.516  1.00  0.00    -0.206 F 
ATOM     85  C   UNL A   1      42.362  21.138  26.662  1.00  0.00     0.060 A 
BRANCH  85  86
ATOM     86  S   UNL A   1      42.134  19.477  25.992  1.00  0.00     0.124 S 
ATOM     87  O   UNL A   1      42.537  18.647  27.121  1.00  0.00    -0.237 OA
ATOM     88  O   UNL A   1      40.710  19.471  25.669  1.00  0.00    -0.237 OA
ATOM     89  O   UNL A   1      43.029  19.455  24.839  1.00  0.00    -0.744 OA
ENDBRANCH  85  86
ENDBRANCH  53  78
BRANCH  65  90
ATOM     90  C   UNL A   1      48.127  27.081  30.516  1.00  0.00     0.058 A 
ATOM     91  C   UNL A   1      49.163  27.311  29.597  1.00  0.00     0.135 A 
ATOM     92  C   UNL A   1      48.463  26.497  31.748  1.00  0.00     0.135 A 
ATOM     93  F   UNL A   1      48.896  27.861  28.400  1.00  0.00    -0.206 F 
ATOM     94  C   UNL A   1      50.477  26.953  29.878  1.00  0.00     0.059 A 
ATOM     95  C   UNL A   1      49.776  26.161  32.064  1.00  0.00     0.059 A 
ATOM     96  F   UNL A   1      47.514  26.264  32.668  1.00  0.00    -0.206 F 
ATOM     97  C   UNL A   1      50.775  26.382  31.117  1.00  0.00     0.060 A 
BRANCH  97  98
ATOM     98  S   UNL A   1      52.490  25.957  31.483  1.00  0.00     0.124 S 
ATOM     99  O   UNL A   1      52.849  26.990  32.449  1.00  0.00    -0.237 OA
ATOM    100  O   UNL A   1      52.368  24.605  32.018  1.00  0.00    -0.237 OA
ATOM    101  O   UNL A   1      53.151  26.055  30.185  1.00  0.00    -0.744 OA
ENDBRANCH  97  98
ENDBRANCH  65  90
ENDBRANCH  39  40
ENDBRANCH  31  34
ENDBRANCH  29  30
ENDBRANCH  28  29
ENDBRANCH  27  28
ENDBRANCH   1  27
TORSDOF 20
ENDMDL
MODEL 2
REMARK VINA RESULT:     -10.9      4.789     10.432
REMARK SMILES CN(C(=O)N[C@@](C)(C(=O)NCCCCCCNC(=O)c1ccc(-c2c3nc(c(-c4c(F)cc(S(=O)(=O)[O-])cc4F)c4ccc([nH]4)c(-c4c(F)cc(S(=O)(=O)[O-])cc4F)c4nc(c(-c5c(F)cc(S(=O)(=O)[O-])cc5F)c5ccc2[nH]5)C=C4)C=C3)cc1)C(F)(F)F)c1ccc(F)cc1
REMARK SMILES IDX 13 1 12 2 11 3 10 4 8 5 9 6 6 8 7 9 5 10 3 11 4 12 2 14 1 15
REMARK SMILES IDX 90 16 91 17 96 18 92 19 95 20 93 21 94 22 86 23 87 24 88 25
REMARK SMILES IDX 89 26 14 27 15 28 16 29 17 30 18 31 19 33 20 34 21 35 85 36
REMARK SMILES IDX 22 37 84 38 23 39 24 40 25 41 78 42 26 43 83 44 77 45 79 46
REMARK SMILES IDX 27 47 82 48 76 49 75 50 28 52 62 53 41 54 61 55 42 56 45 57
REMARK SMILES IDX 60 58 80 59 43 60 44 61 59 63 81 64 46 65 29 66 30 67 39 68
REMARK SMILES IDX 31 69 32 70 38 71 40 72 33 73 34 74 35 75 36 76 37 77 63 78
REMARK SMILES IDX 64 79 73 80 65 81 66 82 72 83 74 84 67 85 68 86 69 87 70 88
REMARK SMILES IDX 71 89 47 90 48 91 57 92 49 93 50 94 56 95 58 96 51 97 52 98
REMARK SMILES IDX 53 99 54 100 55 101
REMARK H PARENT 10 7 5 13 17 32 79 51 45 62
REMARK Flexibility Score: inf
ROOT
ATOM      1  C   UNL A   1      38.194  22.090  25.764  1.00  0.00     0.002 C 
ENDROOT
BRANCH   1   2
ATOM      2  C   UNL A   1      37.156  21.492  24.803  1.00  0.00     0.021 C 
BRANCH   2   3
ATOM      3  C   UNL A   1      35.838  21.077  25.457  1.00  0.00     0.116 C 
BRANCH   3   4
ATOM      4  N   UNL A   1      34.716  21.565  24.680  1.00  0.00    -0.354 N 
ATOM      5  C   UNL A   1      33.788  22.537  24.853  1.00  0.00     0.255 C 
ATOM      6  O   UNL A   1      32.843  22.466  24.059  1.00  0.00    -0.272 OA
ATOM      7  H   UNL A   1      34.602  21.078  23.832  1.00  0.00     0.163 HD
BRANCH   5   8
ATOM      8  C   UNL A   1      33.851  23.609  25.969  1.00  0.00     0.213 C 
ATOM      9  C   UNL A   1      34.544  23.083  27.243  1.00  0.00     0.056 C 
BRANCH   8  10
ATOM     10  N   UNL A   1      32.420  23.929  26.337  1.00  0.00    -0.316 N 
ATOM     11  C   UNL A   1      31.308  24.584  25.967  1.00  0.00     0.322 C 
ATOM     12  O   UNL A   1      30.291  24.122  26.501  1.00  0.00    -0.248 OA
ATOM     13  H   UNL A   1      32.226  23.475  27.188  1.00  0.00     0.166 HD
BRANCH  11  14
ATOM     14  N   UNL A   1      31.273  25.651  25.120  1.00  0.00    -0.298 N 
ATOM     15  C   UNL A   1      31.241  25.582  23.670  1.00  0.00     0.155 C 
BRANCH  14  16
ATOM     16  C   UNL A   1      31.624  26.961  25.585  1.00  0.00     0.045 A 
ATOM     17  C   UNL A   1      31.727  28.036  24.690  1.00  0.00     0.029 A 
ATOM     18  C   UNL A   1      31.645  27.208  26.966  1.00  0.00     0.029 A 
ATOM     19  C   UNL A   1      31.789  29.345  25.176  1.00  0.00     0.041 A 
ATOM     20  C   UNL A   1      31.735  28.514  27.448  1.00  0.00     0.041 A 
ATOM     21  C   UNL A   1      31.783  29.572  26.547  1.00  0.00     0.123 A 
ATOM     22  F   UNL A   1      31.797  30.829  27.011  1.00  0.00    -0.207 F 
ENDBRANCH  14  16
ENDBRANCH  11  14
ENDBRANCH   8  10
BRANCH   8  23
ATOM     23  C   UNL A   1      34.824  24.647  25.357  1.00  0.00     0.420 C 
ATOM     24  F   UNL A   1      34.835  24.663  24.010  1.00  0.00    -0.168 F 
ATOM     25  F   UNL A   1      34.543  25.908  25.776  1.00  0.00    -0.168 F 
ATOM     26  F   UNL A   1      36.103  24.437  25.773  1.00  0.00    -0.168 F 
ENDBRANCH   8  23
ENDBRANCH   5   8
ENDBRANCH   3   4
ENDBRANCH   2   3
ENDBRANCH   1   2
BRANCH   1  27
ATOM     27  C   UNL A   1      39.407  21.200  26.048  1.00  0.00     0.002 C 
BRANCH  27  28
ATOM     28  C   UNL A   1      40.392  21.765  27.071  1.00  0.00     0.021 C 
BRANCH  28  29
ATOM     29  C   UNL A   1      40.434  23.286  27.137  1.00  0.00     0.116 C 
BRANCH  29  30
ATOM     30  N   UNL A   1      41.294  23.857  26.113  1.00  0.00    -0.352 N 
ATOM     31  C   UNL A   1      41.700  25.159  25.960  1.00  0.00     0.251 C 
ATOM     32  H   UNL A   1      41.631  23.225  25.439  1.00  0.00     0.163 HD
ATOM     33  O   UNL A   1      42.276  25.508  24.932  1.00  0.00    -0.269 OA
BRANCH  31  34
ATOM     34  C   UNL A   1      41.414  26.141  27.027  1.00  0.00     0.039 A 
ATOM     35  C   UNL A   1      40.434  25.844  27.975  1.00  0.00     0.014 A 
ATOM     36  C   UNL A   1      42.126  27.343  27.102  1.00  0.00     0.014 A 
ATOM     37  C   UNL A   1      40.208  26.727  29.033  1.00  0.00     0.010 A 
ATOM     38  C   UNL A   1      41.955  28.181  28.199  1.00  0.00     0.010 A 
ATOM     39  C   UNL A   1      40.990  27.885  29.174  1.00  0.00    -0.014 A 
BRANCH  39  40
ATOM     40  C   UNL A   1      40.814  28.796  30.334  1.00  0.00     0.031 A 
ATOM     41  C   UNL A   1      41.663  28.625  31.564  1.00  0.00     0.074 A 
ATOM     42  C   UNL A   1      39.851  29.740  30.300  1.00  0.00     0.049 A 
ATOM     43  N   UNL A   1      41.618  29.281  32.696  1.00  0.00    -0.248 NA
ATOM     44  C   UNL A   1      42.680  27.560  31.530  1.00  0.00     0.031 C 
ATOM     45  C   UNL A   1      38.933  29.971  29.182  1.00  0.00     0.029 A 
ATOM     46  N   UNL A   1      39.477  30.674  31.233  1.00  0.00    -0.354 N 
ATOM     47  C   UNL A   1      42.589  28.705  33.507  1.00  0.00     0.074 A 
ATOM     48  C   UNL A   1      43.168  27.610  32.761  1.00  0.00     0.031 C 
ATOM     49  C   UNL A   1      38.120  30.995  29.485  1.00  0.00     0.029 A 
ATOM     50  C   UNL A   1      38.426  31.466  30.833  1.00  0.00     0.049 A 
ATOM     51  H   UNL A   1      39.919  30.768  32.108  1.00  0.00     0.167 HD
ATOM     52  C   UNL A   1      42.979  29.071  34.751  1.00  0.00     0.037 A 
ATOM     53  C   UNL A   1      37.775  32.451  31.481  1.00  0.00     0.037 A 
ATOM     54  C   UNL A   1      42.412  30.177  35.479  1.00  0.00     0.049 A 
ATOM     55  C   UNL A   1      38.218  32.831  32.869  1.00  0.00     0.074 A 
ATOM     56  C   UNL A   1      42.775  30.664  36.722  1.00  0.00     0.029 A 
ATOM     57  N   UNL A   1      41.358  30.963  35.035  1.00  0.00    -0.354 N 
ATOM     58  N   UNL A   1      39.184  32.319  33.595  1.00  0.00    -0.248 NA
ATOM     59  C   UNL A   1      37.489  33.925  33.525  1.00  0.00     0.031 C 
ATOM     60  C   UNL A   1      41.906  31.709  37.053  1.00  0.00     0.029 A 
ATOM     61  C   UNL A   1      41.042  31.915  35.990  1.00  0.00     0.049 A 
ATOM     62  H   UNL A   1      40.903  30.861  34.168  1.00  0.00     0.167 HD
ATOM     63  C   UNL A   1      39.198  33.049  34.778  1.00  0.00     0.074 A 
ATOM     64  C   UNL A   1      38.154  34.046  34.665  1.00  0.00     0.031 C 
ATOM     65  C   UNL A   1      40.004  32.908  35.860  1.00  0.00     0.037 A 
BRANCH  52  66
ATOM     66  C   UNL A   1      44.075  28.274  35.407  1.00  0.00     0.058 A 
ATOM     67  C   UNL A   1      43.811  27.074  36.088  1.00  0.00     0.135 A 
ATOM     68  C   UNL A   1      45.413  28.690  35.315  1.00  0.00     0.135 A 
ATOM     69  F   UNL A   1      42.548  26.636  36.221  1.00  0.00    -0.206 F 
ATOM     70  C   UNL A   1      44.828  26.329  36.674  1.00  0.00     0.059 A 
ATOM     71  C   UNL A   1      46.452  27.944  35.865  1.00  0.00     0.059 A 
ATOM     72  F   UNL A   1      45.725  29.830  34.678  1.00  0.00    -0.206 F 
ATOM     73  C   UNL A   1      46.148  26.771  36.554  1.00  0.00     0.060 A 
BRANCH  73  74
ATOM     74  S   UNL A   1      47.456  25.782  37.306  1.00  0.00     0.124 S 
ATOM     75  O   UNL A   1      47.059  24.432  36.920  1.00  0.00    -0.237 OA
ATOM     76  O   UNL A   1      48.653  26.303  36.653  1.00  0.00    -0.237 OA
ATOM     77  O   UNL A   1      47.339  26.087  38.729  1.00  0.00    -0.744 OA
ENDBRANCH  73  74
ENDBRANCH  52  66
BRANCH  53  78
ATOM     78  C   UNL A   1      36.642  33.157  30.821  1.00  0.00     0.058 A 
ATOM     79  C   UNL A   1      36.870  34.122  29.827  1.00  0.00     0.135 A 
ATOM     80  C   UNL A   1      35.311  32.884  31.170  1.00  0.00     0.135 A 
ATOM     81  F   UNL A   1      38.126  34.425  29.462  1.00  0.00    -0.206 F 
ATOM     82  C   UNL A   1      35.822  34.804  29.219  1.00  0.00     0.059 A 
ATOM     83  C   UNL A   1      34.244  33.532  30.555  1.00  0.00     0.059 A 
ATOM     84  F   UNL A   1      35.037  31.958  32.102  1.00  0.00    -0.206 F 
ATOM     85  C   UNL A   1      34.511  34.501  29.589  1.00  0.00     0.060 A 
BRANCH  85  86
ATOM     86  S   UNL A   1      33.156  35.366  28.768  1.00  0.00     0.124 S 
ATOM     87  O   UNL A   1      33.879  36.308  27.921  1.00  0.00    -0.237 OA
ATOM     88  O   UNL A   1      32.473  34.277  28.075  1.00  0.00    -0.237 OA
ATOM     89  O   UNL A   1      32.413  35.955  29.877  1.00  0.00    -0.744 OA
ENDBRANCH  85  86
ENDBRANCH  53  78
BRANCH  65  90
ATOM     90  C   UNL A   1      39.819  33.878  36.995  1.00  0.00     0.058 A 
ATOM     91  C   UNL A   1      40.393  35.159  36.979  1.00  0.00     0.135 A 
ATOM     92  C   UNL A   1      39.009  33.538  38.092  1.00  0.00     0.135 A 
ATOM     93  F   UNL A   1      41.181  35.533  35.957  1.00  0.00    -0.206 F 
ATOM     94  C   UNL A   1      40.192  36.059  38.020  1.00  0.00     0.059 A 
ATOM     95  C   UNL A   1      38.768  34.434  39.129  1.00  0.00     0.059 A 
ATOM     96  F   UNL A   1      38.427  32.330  38.155  1.00  0.00    -0.206 F 
ATOM     97  C   UNL A   1      39.374  35.689  39.089  1.00  0.00     0.060 A 
BRANCH  97  98
ATOM     98  S   UNL A   1      39.093  36.881  40.415  1.00  0.00     0.124 S 
ATOM     99  O   UNL A   1      38.226  36.122  41.312  1.00  0.00    -0.237 OA
ATOM    100  O   UNL A   1      40.446  37.130  40.902  1.00  0.00    -0.237 OA
ATOM    101  O   UNL A   1      38.460  38.006  39.734  1.00  0.00    -0.744 OA
ENDBRANCH  97  98
ENDBRANCH  65  90
ENDBRANCH  39  40
ENDBRANCH  31  34
ENDBRANCH  29  30
ENDBRANCH  28  29
ENDBRANCH  27  28
ENDBRANCH   1  27
TORSDOF 20
ENDMDL
MODEL 3
REMARK VINA RESULT:     -10.4      2.974      8.738
REMARK SMILES CN(C(=O)N[C@@](C)(C(=O)NCCCCCCNC(=O)c1ccc(-c2c3nc(c(-c4c(F)cc(S(=O)(=O)[O-])cc4F)c4ccc([nH]4)c(-c4c(F)cc(S(=O)(=O)[O-])cc4F)c4nc(c(-c5c(F)cc(S(=O)(=O)[O-])cc5F)c5ccc2[nH]5)C=C4)C=C3)cc1)C(F)(F)F)c1ccc(F)cc1
REMARK SMILES IDX 13 1 12 2 11 3 10 4 8 5 9 6 6 8 7 9 5 10 3 11 4 12 2 14 1 15
REMARK SMILES IDX 90 16 91 17 96 18 92 19 95 20 93 21 94 22 86 23 87 24 88 25
REMARK SMILES IDX 89 26 14 27 15 28 16 29 17 30 18 31 19 33 20 34 21 35 85 36
REMARK SMILES IDX 22 37 84 38 23 39 24 40 25 41 78 42 26 43 83 44 77 45 79 46
REMARK SMILES IDX 27 47 82 48 76 49 75 50 28 52 62 53 41 54 61 55 42 56 45 57
REMARK SMILES IDX 60 58 80 59 43 60 44 61 59 63 81 64 46 65 29 66 30 67 39 68
REMARK SMILES IDX 31 69 32 70 38 71 40 72 33 73 34 74 35 75 36 76 37 77 63 78
REMARK SMILES IDX 64 79 73 80 65 81 66 82 72 83 74 84 67 85 68 86 69 87 70 88
REMARK SMILES IDX 71 89 47 90 48 91 57 92 49 93 50 94 56 95 58 96 51 97 52 98
REMARK SMILES IDX 53 99 54 100 55 101
REMARK H PARENT 10 7 5 13 17 32 79 51 45 62
REMARK Flexibility Score: inf
ROOT
ATOM      1  C   UNL A   1      32.126  29.359  25.594  1.00  0.00     0.002 C 
ENDROOT
BRANCH   1   2
ATOM      2  C   UNL A   1      31.590  29.187  24.165  1.00  0.00     0.021 C 
BRANCH   2   3
ATOM      3  C   UNL A   1      30.919  27.842  23.888  1.00  0.00     0.116 C 
BRANCH   3   4
ATOM      4  N   UNL A   1      30.901  27.032  25.090  1.00  0.00    -0.354 N 
ATOM      5  C   UNL A   1      31.308  25.778  25.402  1.00  0.00     0.255 C 
ATOM      6  O   UNL A   1      30.881  25.375  26.490  1.00  0.00    -0.272 OA
ATOM      7  H   UNL A   1      30.499  27.502  25.857  1.00  0.00     0.163 HD
BRANCH   5   8
ATOM      8  C   UNL A   1      32.176  24.893  24.474  1.00  0.00     0.213 C 
ATOM      9  C   UNL A   1      31.905  25.171  22.981  1.00  0.00     0.056 C 
BRANCH   8  10
ATOM     10  N   UNL A   1      31.768  23.462  24.743  1.00  0.00    -0.316 N 
ATOM     11  C   UNL A   1      31.869  22.430  25.596  1.00  0.00     0.322 C 
ATOM     12  O   UNL A   1      30.944  21.617  25.461  1.00  0.00    -0.248 OA
ATOM     13  H   UNL A   1      31.200  23.171  23.993  1.00  0.00     0.166 HD
BRANCH  11  14
ATOM     14  N   UNL A   1      32.871  22.259  26.503  1.00  0.00    -0.298 N 
ATOM     15  C   UNL A   1      33.028  22.996  27.743  1.00  0.00     0.155 C 
BRANCH  14  16
ATOM     16  C   UNL A   1      34.073  21.568  26.137  1.00  0.00     0.045 A 
ATOM     17  C   UNL A   1      34.030  20.461  25.277  1.00  0.00     0.029 A 
ATOM     18  C   UNL A   1      35.312  22.139  26.465  1.00  0.00     0.029 A 
ATOM     19  C   UNL A   1      35.210  19.973  24.706  1.00  0.00     0.041 A 
ATOM     20  C   UNL A   1      36.490  21.633  25.916  1.00  0.00     0.041 A 
ATOM     21  C   UNL A   1      36.425  20.570  25.024  1.00  0.00     0.123 A 
ATOM     22  F   UNL A   1      37.550  20.131  24.442  1.00  0.00    -0.207 F 
ENDBRANCH  14  16
ENDBRANCH  11  14
ENDBRANCH   8  10
BRANCH   8  23
ATOM     23  C   UNL A   1      33.598  25.437  24.754  1.00  0.00     0.420 C 
ATOM     24  F   UNL A   1      33.915  26.539  24.045  1.00  0.00    -0.168 F 
ATOM     25  F   UNL A   1      33.773  25.736  26.067  1.00  0.00    -0.168 F 
ATOM     26  F   UNL A   1      34.550  24.499  24.497  1.00  0.00    -0.168 F 
ENDBRANCH   8  23
ENDBRANCH   5   8
ENDBRANCH   3   4
ENDBRANCH   2   3
ENDBRANCH   1   2
BRANCH   1  27
ATOM     27  C   UNL A   1      33.652  29.393  25.717  1.00  0.00     0.002 C 
BRANCH  27  28
ATOM     28  C   UNL A   1      34.208  28.756  26.990  1.00  0.00     0.021 C 
BRANCH  28  29
ATOM     29  C   UNL A   1      35.474  29.414  27.525  1.00  0.00     0.116 C 
BRANCH  29  30
ATOM     30  N   UNL A   1      35.368  29.745  28.936  1.00  0.00    -0.352 N 
ATOM     31  C   UNL A   1      36.352  29.758  29.893  1.00  0.00     0.251 C 
ATOM     32  H   UNL A   1      34.468  29.992  29.249  1.00  0.00     0.163 HD
ATOM     33  O   UNL A   1      36.056  29.880  31.080  1.00  0.00    -0.269 OA
BRANCH  31  34
ATOM     34  C   UNL A   1      37.764  29.599  29.486  1.00  0.00     0.039 A 
ATOM     35  C   UNL A   1      38.718  29.296  30.459  1.00  0.00     0.014 A 
ATOM     36  C   UNL A   1      38.141  29.731  28.146  1.00  0.00     0.014 A 
ATOM     37  C   UNL A   1      40.042  29.067  30.079  1.00  0.00     0.010 A 
ATOM     38  C   UNL A   1      39.442  29.425  27.760  1.00  0.00     0.010 A 
ATOM     39  C   UNL A   1      40.408  29.095  28.723  1.00  0.00    -0.014 A 
BRANCH  39  40
ATOM     40  C   UNL A   1      41.795  28.779  28.294  1.00  0.00     0.031 A 
ATOM     41  C   UNL A   1      42.163  27.374  27.899  1.00  0.00     0.074 A 
ATOM     42  C   UNL A   1      42.735  29.746  28.315  1.00  0.00     0.049 A 
ATOM     43  N   UNL A   1      43.329  26.893  27.554  1.00  0.00    -0.248 NA
ATOM     44  C   UNL A   1      41.084  26.372  27.919  1.00  0.00     0.031 C 
ATOM     45  C   UNL A   1      42.511  31.135  28.724  1.00  0.00     0.029 A 
ATOM     46  N   UNL A   1      44.069  29.708  27.995  1.00  0.00    -0.354 N 
ATOM     47  C   UNL A   1      43.128  25.537  27.326  1.00  0.00     0.074 A 
ATOM     48  C   UNL A   1      41.741  25.259  27.628  1.00  0.00     0.031 C 
ATOM     49  C   UNL A   1      43.659  31.819  28.607  1.00  0.00     0.029 A 
ATOM     50  C   UNL A   1      44.712  30.913  28.157  1.00  0.00     0.049 A 
ATOM     51  H   UNL A   1      44.523  28.894  27.678  1.00  0.00     0.167 HD
ATOM     52  C   UNL A   1      44.012  24.612  26.883  1.00  0.00     0.037 A 
ATOM     53  C   UNL A   1      46.005  31.248  27.977  1.00  0.00     0.037 A 
ATOM     54  C   UNL A   1      45.387  24.901  26.565  1.00  0.00     0.049 A 
ATOM     55  C   UNL A   1      46.972  30.199  27.497  1.00  0.00     0.074 A 
ATOM     56  C   UNL A   1      46.349  24.047  26.055  1.00  0.00     0.029 A 
ATOM     57  N   UNL A   1      45.997  26.136  26.731  1.00  0.00    -0.354 N 
ATOM     58  N   UNL A   1      46.748  28.935  27.222  1.00  0.00    -0.248 NA
ATOM     59  C   UNL A   1      48.365  30.619  27.296  1.00  0.00     0.031 C 
ATOM     60  C   UNL A   1      47.554  24.751  25.965  1.00  0.00     0.029 A 
ATOM     61  C   UNL A   1      47.330  26.060  26.358  1.00  0.00     0.049 A 
ATOM     62  H   UNL A   1      45.550  26.947  27.063  1.00  0.00     0.167 HD
ATOM     63  C   UNL A   1      47.963  28.419  26.787  1.00  0.00     0.074 A 
ATOM     64  C   UNL A   1      48.915  29.511  26.823  1.00  0.00     0.031 C 
ATOM     65  C   UNL A   1      48.265  27.158  26.391  1.00  0.00     0.037 A 
BRANCH  52  66
ATOM     66  C   UNL A   1      43.524  23.199  26.709  1.00  0.00     0.058 A 
ATOM     67  C   UNL A   1      43.356  22.625  25.439  1.00  0.00     0.135 A 
ATOM     68  C   UNL A   1      43.267  22.390  27.828  1.00  0.00     0.135 A 
ATOM     69  F   UNL A   1      43.572  23.355  24.332  1.00  0.00    -0.206 F 
ATOM     70  C   UNL A   1      42.926  21.312  25.283  1.00  0.00     0.059 A 
ATOM     71  C   UNL A   1      42.867  21.063  27.697  1.00  0.00     0.059 A 
ATOM     72  F   UNL A   1      43.409  22.885  29.068  1.00  0.00    -0.206 F 
ATOM     73  C   UNL A   1      42.687  20.536  26.419  1.00  0.00     0.060 A 
BRANCH  73  74
ATOM     74  S   UNL A   1      42.147  18.829  26.197  1.00  0.00     0.124 S 
ATOM     75  O   UNL A   1      43.077  18.360  25.176  1.00  0.00    -0.237 OA
ATOM     76  O   UNL A   1      42.333  18.268  27.531  1.00  0.00    -0.237 OA
ATOM     77  O   UNL A   1      40.758  18.965  25.765  1.00  0.00    -0.744 OA
ENDBRANCH  73  74
ENDBRANCH  52  66
BRANCH  53  78
ATOM     78  C   UNL A   1      46.458  32.641  28.240  1.00  0.00     0.058 A 
ATOM     79  C   UNL A   1      46.416  33.619  27.234  1.00  0.00     0.135 A 
ATOM     80  C   UNL A   1      46.943  33.024  29.500  1.00  0.00     0.135 A 
ATOM     81  F   UNL A   1      45.967  33.302  26.009  1.00  0.00    -0.206 F 
ATOM     82  C   UNL A   1      46.857  34.918  27.460  1.00  0.00     0.059 A 
ATOM     83  C   UNL A   1      47.362  34.326  29.759  1.00  0.00     0.059 A 
ATOM     84  F   UNL A   1      46.987  32.133  30.503  1.00  0.00    -0.206 F 
ATOM     85  C   UNL A   1      47.328  35.263  28.728  1.00  0.00     0.060 A 
BRANCH  85  86
ATOM     86  S   UNL A   1      47.864  36.961  29.022  1.00  0.00     0.124 S 
ATOM     87  O   UNL A   1      47.619  37.103  30.453  1.00  0.00    -0.237 OA
ATOM     88  O   UNL A   1      49.265  36.915  28.615  1.00  0.00    -0.237 OA
ATOM     89  O   UNL A   1      46.992  37.744  28.151  1.00  0.00    -0.744 OA
ENDBRANCH  85  86
ENDBRANCH  53  78
BRANCH  65  90
ATOM     90  C   UNL A   1      49.670  26.892  25.926  1.00  0.00     0.058 A 
ATOM     91  C   UNL A   1      50.063  27.098  24.594  1.00  0.00     0.135 A 
ATOM     92  C   UNL A   1      50.653  26.477  26.841  1.00  0.00     0.135 A 
ATOM     93  F   UNL A   1      49.163  27.488  23.676  1.00  0.00    -0.206 F 
ATOM     94  C   UNL A   1      51.372  26.877  24.180  1.00  0.00     0.059 A 
ATOM     95  C   UNL A   1      51.975  26.281  26.455  1.00  0.00     0.059 A 
ATOM     96  F   UNL A   1      50.335  26.274  28.129  1.00  0.00    -0.206 F 
ATOM     97  C   UNL A   1      52.323  26.473  25.119  1.00  0.00     0.060 A 
BRANCH  97  98
ATOM     98  S   UNL A   1      54.026  26.225  24.575  1.00  0.00     0.124 S 
ATOM     99  O   UNL A   1      53.889  26.335  23.126  1.00  0.00    -0.237 OA
ATOM    100  O   UNL A   1      54.725  27.325  25.230  1.00  0.00    -0.237 OA
ATOM    101  O   UNL A   1      54.354  24.893  25.074  1.00  0.00    -0.744 OA
ENDBRANCH  97  98
ENDBRANCH  65  90
ENDBRANCH  39  40
ENDBRANCH  31  34
ENDBRANCH  29  30
ENDBRANCH  28  29
ENDBRANCH  27  28
ENDBRANCH   1  27
TORSDOF 20
ENDMDL
