MODEL 1
REMARK VINA RESULT:     -11.7      0.000      0.000
REMARK SMILES O=C(NCCCCCCNC(=O)c1cccc2c(=O)oc(=O)[nH]c12)c1ccc(-c2c3nc(c(-c4c(F)cc(S(=O)(=O)[O-])cc4F)c4ccc([nH]4)c(-c4c(F)cc(S(=O)(=O)[O-])cc4F)c4nc(c(-c5c(F)cc(S(=O)(=O)[O-])cc5F)c5ccc2[nH]5)C=C4)C=C3)cc1
REMARK SMILES IDX 5 1 4 2 3 3 1 4 2 5 25 7 26 8 90 9 27 10 89 11 28 12 29 13
REMARK SMILES IDX 30 14 83 15 31 16 88 17 82 18 84 19 32 20 87 21 81 22 80 23
REMARK SMILES IDX 33 25 67 26 46 27 66 28 47 29 50 30 65 31 85 32 48 33 49 34
REMARK SMILES IDX 64 36 86 37 51 38 34 39 35 40 44 41 36 42 37 43 43 44 45 45
REMARK SMILES IDX 38 46 39 47 40 48 41 49 42 50 68 51 69 52 78 53 70 54 71 55
REMARK SMILES IDX 77 56 79 57 72 58 73 59 74 60 75 61 76 62 52 63 53 64 62 65
REMARK SMILES IDX 54 66 55 67 61 68 63 69 56 70 57 71 58 72 59 73 60 74 6 75
REMARK SMILES IDX 7 76 8 77 9 78 10 79 11 80 12 82 13 83 14 84 24 85 15 86
REMARK SMILES IDX 17 87 23 88 16 89 18 90 21 91 19 93 20 94 22 95
REMARK H PARENT 3 6 84 24 50 35 10 81 23 92
REMARK Flexibility Score: inf
ROOT
ATOM      1  C   UNL A   1      32.353  27.817  26.767  1.00  0.00     0.021 C 
ENDROOT
BRANCH   1   2
ATOM      2  C   UNL A   1      33.709  28.462  27.026  1.00  0.00     0.116 C 
BRANCH   2   3
ATOM      3  N   UNL A   1      33.578  29.843  27.456  1.00  0.00    -0.352 N 
ATOM      4  O   UNL A   1      34.081  31.689  28.635  1.00  0.00    -0.269 OA
ATOM      5  C   UNL A   1      34.458  30.619  28.166  1.00  0.00     0.251 C 
ATOM      6  H   UNL A   1      32.736  30.286  27.200  1.00  0.00     0.163 HD
BRANCH   5   7
ATOM      7  C   UNL A   1      35.851  30.166  28.372  1.00  0.00     0.039 A 
ATOM      8  C   UNL A   1      36.221  29.666  29.624  1.00  0.00     0.014 A 
ATOM      9  C   UNL A   1      36.803  30.280  27.356  1.00  0.00     0.014 A 
ATOM     10  C   UNL A   1      37.540  29.265  29.848  1.00  0.00     0.010 A 
ATOM     11  C   UNL A   1      38.097  29.806  27.556  1.00  0.00     0.010 A 
ATOM     12  C   UNL A   1      38.486  29.323  28.814  1.00  0.00    -0.014 A 
BRANCH  12  13
ATOM     13  C   UNL A   1      39.911  28.971  29.044  1.00  0.00     0.031 A 
ATOM     14  C   UNL A   1      40.833  29.991  29.661  1.00  0.00     0.074 A 
ATOM     15  C   UNL A   1      40.382  27.762  28.683  1.00  0.00     0.049 A 
ATOM     16  N   UNL A   1      42.125  29.929  29.854  1.00  0.00    -0.248 NA
ATOM     17  C   UNL A   1      40.224  31.259  30.097  1.00  0.00     0.031 C 
ATOM     18  C   UNL A   1      39.587  26.689  28.081  1.00  0.00     0.029 A 
ATOM     19  N   UNL A   1      41.644  27.231  28.769  1.00  0.00    -0.354 N 
ATOM     20  C   UNL A   1      42.481  31.145  30.428  1.00  0.00     0.074 A 
ATOM     21  C   UNL A   1      41.282  31.951  30.489  1.00  0.00     0.031 C 
ATOM     22  C   UNL A   1      40.374  25.619  27.883  1.00  0.00     0.029 A 
ATOM     23  C   UNL A   1      41.737  25.944  28.294  1.00  0.00     0.049 A 
ATOM     24  H   UNL A   1      42.412  27.726  29.136  1.00  0.00     0.167 HD
ATOM     25  C   UNL A   1      43.688  31.542  30.893  1.00  0.00     0.037 A 
ATOM     26  C   UNL A   1      42.802  25.124  28.196  1.00  0.00     0.037 A 
ATOM     27  C   UNL A   1      44.873  30.725  30.853  1.00  0.00     0.049 A 
ATOM     28  C   UNL A   1      44.148  25.612  28.664  1.00  0.00     0.074 A 
ATOM     29  C   UNL A   1      46.143  31.031  31.307  1.00  0.00     0.029 A 
ATOM     30  N   UNL A   1      44.931  29.438  30.340  1.00  0.00    -0.354 N 
ATOM     31  N   UNL A   1      44.466  26.765  29.203  1.00  0.00    -0.248 NA
ATOM     32  C   UNL A   1      45.280  24.689  28.507  1.00  0.00     0.031 C 
ATOM     33  C   UNL A   1      46.979  29.946  31.028  1.00  0.00     0.029 A 
ATOM     34  C   UNL A   1      46.218  28.942  30.451  1.00  0.00     0.049 A 
ATOM     35  H   UNL A   1      44.169  28.949  29.952  1.00  0.00     0.167 HD
ATOM     36  C   UNL A   1      45.828  26.692  29.483  1.00  0.00     0.074 A 
ATOM     37  C   UNL A   1      46.268  25.378  29.061  1.00  0.00     0.031 C 
ATOM     38  C   UNL A   1      46.640  27.627  30.036  1.00  0.00     0.037 A 
BRANCH  25  39
ATOM     39  C   UNL A   1      43.788  32.914  31.504  1.00  0.00     0.058 A 
ATOM     40  C   UNL A   1      43.951  34.060  30.709  1.00  0.00     0.135 A 
ATOM     41  C   UNL A   1      43.661  33.093  32.891  1.00  0.00     0.135 A 
ATOM     42  F   UNL A   1      44.098  33.946  29.380  1.00  0.00    -0.206 F 
ATOM     43  C   UNL A   1      44.003  35.332  31.267  1.00  0.00     0.059 A 
ATOM     44  C   UNL A   1      43.679  34.360  33.469  1.00  0.00     0.059 A 
ATOM     45  F   UNL A   1      43.509  32.032  33.699  1.00  0.00    -0.206 F 
ATOM     46  C   UNL A   1      43.858  35.473  32.648  1.00  0.00     0.060 A 
BRANCH  46  47
ATOM     47  S   UNL A   1      43.900  37.136  33.350  1.00  0.00     0.124 S 
ATOM     48  O   UNL A   1      43.953  37.959  32.145  1.00  0.00    -0.237 OA
ATOM     49  O   UNL A   1      42.648  37.186  34.096  1.00  0.00    -0.237 OA
ATOM     50  O   UNL A   1      45.114  37.134  34.160  1.00  0.00    -0.744 OA
ENDBRANCH  46  47
ENDBRANCH  25  39
BRANCH  26  51
ATOM     51  C   UNL A   1      42.638  23.747  27.656  1.00  0.00     0.058 A 
ATOM     52  C   UNL A   1      42.436  22.659  28.520  1.00  0.00     0.135 A 
ATOM     53  C   UNL A   1      42.669  23.488  26.277  1.00  0.00     0.135 A 
ATOM     54  F   UNL A   1      42.406  22.852  29.846  1.00  0.00    -0.206 F 
ATOM     55  C   UNL A   1      42.287  21.362  28.037  1.00  0.00     0.059 A 
ATOM     56  C   UNL A   1      42.495  22.204  25.769  1.00  0.00     0.059 A 
ATOM     57  F   UNL A   1      42.846  24.494  25.407  1.00  0.00    -0.206 F 
ATOM     58  C   UNL A   1      42.313  21.146  26.659  1.00  0.00     0.060 A 
BRANCH  58  59
ATOM     59  S   UNL A   1      42.074  19.464  26.045  1.00  0.00     0.124 S 
ATOM     60  O   UNL A   1      42.559  18.669  27.166  1.00  0.00    -0.237 OA
ATOM     61  O   UNL A   1      40.633  19.429  25.812  1.00  0.00    -0.237 OA
ATOM     62  O   UNL A   1      42.898  19.426  24.840  1.00  0.00    -0.744 OA
ENDBRANCH  58  59
ENDBRANCH  26  51
BRANCH  38  63
ATOM     63  C   UNL A   1      48.081  27.257  30.254  1.00  0.00     0.058 A 
ATOM     64  C   UNL A   1      49.068  27.530  29.295  1.00  0.00     0.135 A 
ATOM     65  C   UNL A   1      48.490  26.672  31.465  1.00  0.00     0.135 A 
ATOM     66  F   UNL A   1      48.732  28.084  28.119  1.00  0.00    -0.206 F 
ATOM     67  C   UNL A   1      50.404  27.210  29.515  1.00  0.00     0.059 A 
ATOM     68  C   UNL A   1      49.824  26.375  31.721  1.00  0.00     0.059 A 
ATOM     69  F   UNL A   1      47.589  26.402  32.423  1.00  0.00    -0.206 F 
ATOM     70  C   UNL A   1      50.773  26.636  30.733  1.00  0.00     0.060 A 
BRANCH  70  71
ATOM     71  S   UNL A   1      52.514  26.251  31.012  1.00  0.00     0.124 S 
ATOM     72  O   UNL A   1      52.944  27.395  31.810  1.00  0.00    -0.237 OA
ATOM     73  O   UNL A   1      52.440  24.977  31.719  1.00  0.00    -0.237 OA
ATOM     74  O   UNL A   1      53.069  26.184  29.663  1.00  0.00    -0.744 OA
ENDBRANCH  70  71
ENDBRANCH  38  63
ENDBRANCH  12  13
ENDBRANCH   5   7
ENDBRANCH   2   3
ENDBRANCH   1   2
BRANCH   1  75
ATOM     75  C   UNL A   1      32.011  27.622  25.288  1.00  0.00     0.002 C 
BRANCH  75  76
ATOM     76  C   UNL A   1      30.813  26.708  25.013  1.00  0.00     0.002 C 
BRANCH  76  77
ATOM     77  C   UNL A   1      30.976  25.760  23.821  1.00  0.00     0.021 C 
BRANCH  77  78
ATOM     78  C   UNL A   1      30.592  24.309  24.101  1.00  0.00     0.116 C 
BRANCH  78  79
ATOM     79  N   UNL A   1      30.405  24.075  25.523  1.00  0.00    -0.352 N 
ATOM     80  C   UNL A   1      31.266  23.505  26.422  1.00  0.00     0.253 C 
ATOM     81  H   UNL A   1      29.541  24.368  25.891  1.00  0.00     0.163 HD
ATOM     82  O   UNL A   1      30.854  23.106  27.508  1.00  0.00    -0.269 OA
BRANCH  80  83
ATOM     83  C   UNL A   1      32.693  23.333  26.083  1.00  0.00     0.064 A 
ATOM     84  C   UNL A   1      33.566  24.427  26.172  1.00  0.00     0.016 A 
ATOM     85  C   UNL A   1      33.186  22.071  25.727  1.00  0.00     0.071 A 
ATOM     86  C   UNL A   1      34.914  24.272  25.851  1.00  0.00     0.002 A 
ATOM     87  C   UNL A   1      34.527  21.921  25.424  1.00  0.00     0.085 A 
ATOM     88  N   UNL A   1      32.378  20.944  25.654  1.00  0.00    -0.289 N 
ATOM     89  C   UNL A   1      35.396  23.019  25.474  1.00  0.00     0.018 A 
ATOM     90  C   UNL A   1      35.019  20.582  25.066  1.00  0.00     0.349 A 
ATOM     91  C   UNL A   1      32.822  19.714  25.277  1.00  0.00     0.419 A 
ATOM     92  H   UNL A   1      31.426  21.041  25.891  1.00  0.00     0.173 HD
ATOM     93  O   UNL A   1      36.215  20.416  24.852  1.00  0.00    -0.246 OA
ATOM     94  O   UNL A   1      34.137  19.563  24.981  1.00  0.00    -0.372 OA
ATOM     95  O   UNL A   1      32.044  18.766  25.211  1.00  0.00    -0.224 OA
ENDBRANCH  80  83
ENDBRANCH  78  79
ENDBRANCH  77  78
ENDBRANCH  76  77
ENDBRANCH  75  76
ENDBRANCH   1  75
TORSDOF 16
ENDMDL
MODEL 2
REMARK VINA RESULT:     -11.6      0.286      1.504
REMARK SMILES O=C(NCCCCCCNC(=O)c1cccc2c(=O)oc(=O)[nH]c12)c1ccc(-c2c3nc(c(-c4c(F)cc(S(=O)(=O)[O-])cc4F)c4ccc([nH]4)c(-c4c(F)cc(S(=O)(=O)[O-])cc4F)c4nc(c(-c5c(F)cc(S(=O)(=O)[O-])cc5F)c5ccc2[nH]5)C=C4)C=C3)cc1
REMARK SMILES IDX 5 1 4 2 3 3 1 4 2 5 25 7 26 8 90 9 27 10 89 11 28 12 29 13
REMARK SMILES IDX 30 14 83 15 31 16 88 17 82 18 84 19 32 20 87 21 81 22 80 23
REMARK SMILES IDX 33 25 67 26 46 27 66 28 47 29 50 30 65 31 85 32 48 33 49 34
REMARK SMILES IDX 64 36 86 37 51 38 34 39 35 40 44 41 36 42 37 43 43 44 45 45
REMARK SMILES IDX 38 46 39 47 40 48 41 49 42 50 68 51 69 52 78 53 70 54 71 55
REMARK SMILES IDX 77 56 79 57 72 58 73 59 74 60 75 61 76 62 52 63 53 64 62 65
REMARK SMILES IDX 54 66 55 67 61 68 63 69 56 70 57 71 58 72 59 73 60 74 6 75
REMARK SMILES IDX 7 76 8 77 9 78 10 79 11 80 12 82 13 83 14 84 24 85 15 86
REMARK SMILES IDX 17 87 23 88 16 89 18 90 21 91 19 93 20 94 22 95
REMARK H PARENT 3 6 84 24 50 35 10 81 23 92
REMARK Flexibility Score: inf
ROOT
ATOM      1  C   UNL A   1      32.266  27.625  26.905  1.00  0.00     0.021 C 
ENDROOT
BRANCH   1   2
ATOM      2  C   UNL A   1      33.622  28.287  27.116  1.00  0.00     0.116 C 
BRANCH   2   3
ATOM      3  N   UNL A   1      33.490  29.683  27.493  1.00  0.00    -0.352 N 
ATOM      4  O   UNL A   1      34.012  31.581  28.579  1.00  0.00    -0.269 OA
ATOM      5  C   UNL A   1      34.384  30.495  28.143  1.00  0.00     0.251 C 
ATOM      6  H   UNL A   1      32.637  30.108  27.245  1.00  0.00     0.163 HD
BRANCH   5   7
ATOM      7  C   UNL A   1      35.787  30.063  28.324  1.00  0.00     0.039 A 
ATOM      8  C   UNL A   1      36.190  29.580  29.572  1.00  0.00     0.014 A 
ATOM      9  C   UNL A   1      36.717  30.181  27.287  1.00  0.00     0.014 A 
ATOM     10  C   UNL A   1      37.519  29.199  29.772  1.00  0.00     0.010 A 
ATOM     11  C   UNL A   1      38.020  29.726  27.464  1.00  0.00     0.010 A 
ATOM     12  C   UNL A   1      38.443  29.261  28.718  1.00  0.00    -0.014 A 
BRANCH  12  13
ATOM     13  C   UNL A   1      39.876  28.930  28.921  1.00  0.00     0.031 A 
ATOM     14  C   UNL A   1      40.801  29.973  29.493  1.00  0.00     0.074 A 
ATOM     15  C   UNL A   1      40.353  27.718  28.575  1.00  0.00     0.049 A 
ATOM     16  N   UNL A   1      42.098  29.931  29.656  1.00  0.00    -0.248 NA
ATOM     17  C   UNL A   1      40.188  31.244  29.915  1.00  0.00     0.031 C 
ATOM     18  C   UNL A   1      39.558  26.623  28.017  1.00  0.00     0.029 A 
ATOM     19  N   UNL A   1      41.623  27.204  28.643  1.00  0.00    -0.354 N 
ATOM     20  C   UNL A   1      42.453  31.163  30.195  1.00  0.00     0.074 A 
ATOM     21  C   UNL A   1      41.246  31.957  30.266  1.00  0.00     0.031 C 
ATOM     22  C   UNL A   1      40.352  25.558  27.824  1.00  0.00     0.029 A 
ATOM     23  C   UNL A   1      41.720  25.907  28.195  1.00  0.00     0.049 A 
ATOM     24  H   UNL A   1      42.394  27.716  28.980  1.00  0.00     0.167 HD
ATOM     25  C   UNL A   1      43.666  31.584  30.622  1.00  0.00     0.037 A 
ATOM     26  C   UNL A   1      42.793  25.098  28.089  1.00  0.00     0.037 A 
ATOM     27  C   UNL A   1      44.859  30.781  30.571  1.00  0.00     0.049 A 
ATOM     28  C   UNL A   1      44.144  25.612  28.513  1.00  0.00     0.074 A 
ATOM     29  C   UNL A   1      46.136  31.111  30.987  1.00  0.00     0.029 A 
ATOM     30  N   UNL A   1      44.920  29.483  30.085  1.00  0.00    -0.354 N 
ATOM     31  N   UNL A   1      44.460  26.780  29.019  1.00  0.00    -0.248 NA
ATOM     32  C   UNL A   1      45.283  24.699  28.350  1.00  0.00     0.031 C 
ATOM     33  C   UNL A   1      46.978  30.030  30.712  1.00  0.00     0.029 A 
ATOM     34  C   UNL A   1      46.216  29.004  30.176  1.00  0.00     0.049 A 
ATOM     35  H   UNL A   1      44.155  28.977  29.726  1.00  0.00     0.167 HD
ATOM     36  C   UNL A   1      45.829  26.729  29.267  1.00  0.00     0.074 A 
ATOM     37  C   UNL A   1      46.275  25.411  28.864  1.00  0.00     0.031 C 
ATOM     38  C   UNL A   1      46.643  27.685  29.780  1.00  0.00     0.037 A 
BRANCH  25  39
ATOM     39  C   UNL A   1      43.764  32.971  31.199  1.00  0.00     0.058 A 
ATOM     40  C   UNL A   1      43.544  33.213  32.564  1.00  0.00     0.135 A 
ATOM     41  C   UNL A   1      44.139  34.059  30.393  1.00  0.00     0.135 A 
ATOM     42  F   UNL A   1      43.165  32.215  33.376  1.00  0.00    -0.206 F 
ATOM     43  C   UNL A   1      43.674  34.487  33.107  1.00  0.00     0.059 A 
ATOM     44  C   UNL A   1      44.305  35.336  30.922  1.00  0.00     0.059 A 
ATOM     45  F   UNL A   1      44.356  33.885  29.080  1.00  0.00    -0.206 F 
ATOM     46  C   UNL A   1      44.062  35.541  32.279  1.00  0.00     0.060 A 
BRANCH  46  47
ATOM     47  S   UNL A   1      44.252  37.181  33.011  1.00  0.00     0.124 S 
ATOM     48  O   UNL A   1      43.296  37.121  34.113  1.00  0.00    -0.237 OA
ATOM     49  O   UNL A   1      45.659  37.186  33.393  1.00  0.00    -0.237 OA
ATOM     50  O   UNL A   1      43.895  38.084  31.921  1.00  0.00    -0.744 OA
ENDBRANCH  46  47
ENDBRANCH  25  39
BRANCH  26  51
ATOM     51  C   UNL A   1      42.632  23.707  27.584  1.00  0.00     0.058 A 
ATOM     52  C   UNL A   1      42.676  23.435  26.208  1.00  0.00     0.135 A 
ATOM     53  C   UNL A   1      42.440  22.625  28.457  1.00  0.00     0.135 A 
ATOM     54  F   UNL A   1      42.849  24.436  25.332  1.00  0.00    -0.206 F 
ATOM     55  C   UNL A   1      42.520  22.144  25.714  1.00  0.00     0.059 A 
ATOM     56  C   UNL A   1      42.310  21.321  27.989  1.00  0.00     0.059 A 
ATOM     57  F   UNL A   1      42.403  22.828  29.783  1.00  0.00    -0.206 F 
ATOM     58  C   UNL A   1      42.342  21.092  26.614  1.00  0.00     0.060 A 
BRANCH  58  59
ATOM     59  S   UNL A   1      42.187  19.415  25.961  1.00  0.00     0.124 S 
ATOM     60  O   UNL A   1      43.021  19.485  24.767  1.00  0.00    -0.237 OA
ATOM     61  O   UNL A   1      42.710  18.611  27.061  1.00  0.00    -0.237 OA
ATOM     62  O   UNL A   1      40.753  19.280  25.721  1.00  0.00    -0.744 OA
ENDBRANCH  58  59
ENDBRANCH  26  51
BRANCH  38  63
ATOM     63  C   UNL A   1      48.094  27.336  29.971  1.00  0.00     0.058 A 
ATOM     64  C   UNL A   1      49.084  27.779  29.082  1.00  0.00     0.135 A 
ATOM     65  C   UNL A   1      48.505  26.597  31.094  1.00  0.00     0.135 A 
ATOM     66  F   UNL A   1      48.746  28.486  27.991  1.00  0.00    -0.206 F 
ATOM     67  C   UNL A   1      50.427  27.477  29.280  1.00  0.00     0.059 A 
ATOM     68  C   UNL A   1      49.845  26.312  31.330  1.00  0.00     0.059 A 
ATOM     69  F   UNL A   1      47.600  26.161  31.984  1.00  0.00    -0.206 F 
ATOM     70  C   UNL A   1      50.798  26.745  30.410  1.00  0.00     0.060 A 
BRANCH  70  71
ATOM     71  S   UNL A   1      52.548  26.383  30.665  1.00  0.00     0.124 S 
ATOM     72  O   UNL A   1      52.951  25.930  29.338  1.00  0.00    -0.237 OA
ATOM     73  O   UNL A   1      53.075  27.680  31.079  1.00  0.00    -0.237 OA
ATOM     74  O   UNL A   1      52.537  25.356  31.702  1.00  0.00    -0.744 OA
ENDBRANCH  70  71
ENDBRANCH  38  63
ENDBRANCH  12  13
ENDBRANCH   5   7
ENDBRANCH   2   3
ENDBRANCH   1   2
BRANCH   1  75
ATOM     75  C   UNL A   1      31.690  27.784  25.496  1.00  0.00     0.002 C 
BRANCH  75  76
ATOM     76  C   UNL A   1      30.510  26.863  25.168  1.00  0.00     0.002 C 
BRANCH  76  77
ATOM     77  C   UNL A   1      30.677  26.016  23.902  1.00  0.00     0.021 C 
BRANCH  77  78
ATOM     78  C   UNL A   1      30.575  24.509  24.124  1.00  0.00     0.116 C 
BRANCH  78  79
ATOM     79  N   UNL A   1      30.382  24.191  25.529  1.00  0.00    -0.352 N 
ATOM     80  C   UNL A   1      31.235  23.562  26.394  1.00  0.00     0.253 C 
ATOM     81  H   UNL A   1      29.518  24.468  25.911  1.00  0.00     0.163 HD
ATOM     82  O   UNL A   1      30.818  23.102  27.454  1.00  0.00    -0.269 OA
BRANCH  80  83
ATOM     83  C   UNL A   1      32.663  23.401  26.049  1.00  0.00     0.064 A 
ATOM     84  C   UNL A   1      33.525  24.505  26.121  1.00  0.00     0.016 A 
ATOM     85  C   UNL A   1      33.167  22.140  25.705  1.00  0.00     0.071 A 
ATOM     86  C   UNL A   1      34.873  24.359  25.794  1.00  0.00     0.002 A 
ATOM     87  C   UNL A   1      34.506  21.999  25.396  1.00  0.00     0.085 A 
ATOM     88  N   UNL A   1      32.369  21.004  25.649  1.00  0.00    -0.289 N 
ATOM     89  C   UNL A   1      35.365  23.107  25.429  1.00  0.00     0.018 A 
ATOM     90  C   UNL A   1      35.010  20.662  25.051  1.00  0.00     0.349 A 
ATOM     91  C   UNL A   1      32.823  19.774  25.284  1.00  0.00     0.419 A 
ATOM     92  H   UNL A   1      31.418  21.094  25.890  1.00  0.00     0.173 HD
ATOM     93  O   UNL A   1      36.207  20.506  24.831  1.00  0.00    -0.246 OA
ATOM     94  O   UNL A   1      34.138  19.633  24.982  1.00  0.00    -0.372 OA
ATOM     95  O   UNL A   1      32.054  18.817  25.232  1.00  0.00    -0.224 OA
ENDBRANCH  80  83
ENDBRANCH  78  79
ENDBRANCH  77  78
ENDBRANCH  76  77
ENDBRANCH  75  76
ENDBRANCH   1  75
TORSDOF 16
ENDMDL
MODEL 3
REMARK VINA RESULT:     -11.4      4.786     10.361
REMARK SMILES O=C(NCCCCCCNC(=O)c1cccc2c(=O)oc(=O)[nH]c12)c1ccc(-c2c3nc(c(-c4c(F)cc(S(=O)(=O)[O-])cc4F)c4ccc([nH]4)c(-c4c(F)cc(S(=O)(=O)[O-])cc4F)c4nc(c(-c5c(F)cc(S(=O)(=O)[O-])cc5F)c5ccc2[nH]5)C=C4)C=C3)cc1
REMARK SMILES IDX 5 1 4 2 3 3 1 4 2 5 25 7 26 8 90 9 27 10 89 11 28 12 29 13
REMARK SMILES IDX 30 14 83 15 31 16 88 17 82 18 84 19 32 20 87 21 81 22 80 23
REMARK SMILES IDX 33 25 67 26 46 27 66 28 47 29 50 30 65 31 85 32 48 33 49 34
REMARK SMILES IDX 64 36 86 37 51 38 34 39 35 40 44 41 36 42 37 43 43 44 45 45
REMARK SMILES IDX 38 46 39 47 40 48 41 49 42 50 68 51 69 52 78 53 70 54 71 55
REMARK SMILES IDX 77 56 79 57 72 58 73 59 74 60 75 61 76 62 52 63 53 64 62 65
REMARK SMILES IDX 54 66 55 67 61 68 63 69 56 70 57 71 58 72 59 73 60 74 6 75
REMARK SMILES IDX 7 76 8 77 9 78 10 79 11 80 12 82 13 83 14 84 24 85 15 86
REMARK SMILES IDX 17 87 23 88 16 89 18 90 21 91 19 93 20 94 22 95
REMARK H PARENT 3 6 84 24 50 35 10 81 23 92
REMARK Flexibility Score: inf
ROOT
ATOM      1  C   UNL A   1      37.367  23.384  25.364  1.00  0.00     0.021 C 
ENDROOT
BRANCH   1   2
ATOM      2  C   UNL A   1      38.248  24.225  26.280  1.00  0.00     0.116 C 
BRANCH   2   3
ATOM      3  N   UNL A   1      39.654  23.900  26.125  1.00  0.00    -0.352 N 
ATOM      4  O   UNL A   1      41.871  24.270  26.177  1.00  0.00    -0.269 OA
ATOM      5  C   UNL A   1      40.757  24.565  26.599  1.00  0.00     0.251 C 
ATOM      6  H   UNL A   1      39.845  23.085  25.606  1.00  0.00     0.163 HD
BRANCH   5   7
ATOM      7  C   UNL A   1      40.603  25.636  27.608  1.00  0.00     0.039 A 
ATOM      8  C   UNL A   1      41.480  26.723  27.578  1.00  0.00     0.014 A 
ATOM      9  C   UNL A   1      39.636  25.545  28.613  1.00  0.00     0.014 A 
ATOM     10  C   UNL A   1      41.373  27.728  28.544  1.00  0.00     0.010 A 
ATOM     11  C   UNL A   1      39.479  26.585  29.525  1.00  0.00     0.010 A 
ATOM     12  C   UNL A   1      40.366  27.671  29.519  1.00  0.00    -0.014 A 
BRANCH  12  13
ATOM     13  C   UNL A   1      40.274  28.686  30.599  1.00  0.00     0.031 A 
ATOM     14  C   UNL A   1      41.200  28.591  31.784  1.00  0.00     0.074 A 
ATOM     15  C   UNL A   1      39.354  29.669  30.535  1.00  0.00     0.049 A 
ATOM     16  N   UNL A   1      41.222  29.307  32.878  1.00  0.00    -0.248 NA
ATOM     17  C   UNL A   1      42.226  27.535  31.741  1.00  0.00     0.031 C 
ATOM     18  C   UNL A   1      38.404  29.869  29.440  1.00  0.00     0.029 A 
ATOM     19  N   UNL A   1      39.067  30.684  31.412  1.00  0.00    -0.354 N 
ATOM     20  C   UNL A   1      42.255  28.786  33.651  1.00  0.00     0.074 A 
ATOM     21  C   UNL A   1      42.792  27.652  32.932  1.00  0.00     0.031 C 
ATOM     22  C   UNL A   1      37.663  30.960  29.696  1.00  0.00     0.029 A 
ATOM     23  C   UNL A   1      38.047  31.506  30.993  1.00  0.00     0.049 A 
ATOM     24  H   UNL A   1      39.547  30.812  32.263  1.00  0.00     0.167 HD
ATOM     25  C   UNL A   1      42.735  29.232  34.835  1.00  0.00     0.037 A 
ATOM     26  C   UNL A   1      37.483  32.573  31.594  1.00  0.00     0.037 A 
ATOM     27  C   UNL A   1      42.212  30.376  35.535  1.00  0.00     0.049 A 
ATOM     28  C   UNL A   1      37.995  33.011  32.941  1.00  0.00     0.074 A 
ATOM     29  C   UNL A   1      42.635  30.915  36.736  1.00  0.00     0.029 A 
ATOM     30  N   UNL A   1      41.161  31.164  35.090  1.00  0.00    -0.354 N 
ATOM     31  N   UNL A   1      38.972  32.507  33.657  1.00  0.00    -0.248 NA
ATOM     32  C   UNL A   1      37.326  34.162  33.563  1.00  0.00     0.031 C 
ATOM     33  C   UNL A   1      41.811  32.002  37.041  1.00  0.00     0.029 A 
ATOM     34  C   UNL A   1      40.911  32.176  36.001  1.00  0.00     0.049 A 
ATOM     35  H   UNL A   1      40.665  31.025  34.251  1.00  0.00     0.167 HD
ATOM     36  C   UNL A   1      39.057  33.301  34.797  1.00  0.00     0.074 A 
ATOM     37  C   UNL A   1      38.039  34.323  34.668  1.00  0.00     0.031 C 
ATOM     38  C   UNL A   1      39.899  33.193  35.854  1.00  0.00     0.037 A 
BRANCH  25  39
ATOM     39  C   UNL A   1      43.895  28.492  35.444  1.00  0.00     0.058 A 
ATOM     40  C   UNL A   1      45.222  28.816  35.120  1.00  0.00     0.135 A 
ATOM     41  C   UNL A   1      43.683  27.490  36.405  1.00  0.00     0.135 A 
ATOM     42  F   UNL A   1      45.483  29.752  34.194  1.00  0.00    -0.206 F 
ATOM     43  C   UNL A   1      46.297  28.162  35.712  1.00  0.00     0.059 A 
ATOM     44  C   UNL A   1      44.744  26.843  37.033  1.00  0.00     0.059 A 
ATOM     45  F   UNL A   1      42.435  27.135  36.749  1.00  0.00    -0.206 F 
ATOM     46  C   UNL A   1      46.048  27.182  36.673  1.00  0.00     0.060 A 
BRANCH  46  47
ATOM     47  S   UNL A   1      47.458  26.364  37.450  1.00  0.00     0.124 S 
ATOM     48  O   UNL A   1      47.411  25.046  36.825  1.00  0.00    -0.237 OA
ATOM     49  O   UNL A   1      48.570  27.217  37.045  1.00  0.00    -0.237 OA
ATOM     50  O   UNL A   1      47.130  26.395  38.872  1.00  0.00    -0.744 OA
ENDBRANCH  46  47
ENDBRANCH  25  39
BRANCH  26  51
ATOM     51  C   UNL A   1      36.389  33.319  30.915  1.00  0.00     0.058 A 
ATOM     52  C   UNL A   1      35.069  33.242  31.387  1.00  0.00     0.135 A 
ATOM     53  C   UNL A   1      36.634  34.128  29.794  1.00  0.00     0.135 A 
ATOM     54  F   UNL A   1      34.782  32.476  32.450  1.00  0.00    -0.206 F 
ATOM     55  C   UNL A   1      34.030  33.925  30.764  1.00  0.00     0.059 A 
ATOM     56  C   UNL A   1      35.616  34.843  29.171  1.00  0.00     0.059 A 
ATOM     57  F   UNL A   1      37.880  34.247  29.310  1.00  0.00    -0.206 F 
ATOM     58  C   UNL A   1      34.315  34.727  29.658  1.00  0.00     0.060 A 
BRANCH  58  59
ATOM     59  S   UNL A   1      32.963  35.644  28.887  1.00  0.00     0.124 S 
ATOM     60  O   UNL A   1      32.340  34.614  28.064  1.00  0.00    -0.237 OA
ATOM     61  O   UNL A   1      32.197  36.087  30.047  1.00  0.00    -0.237 OA
ATOM     62  O   UNL A   1      33.651  36.704  28.156  1.00  0.00    -0.744 OA
ENDBRANCH  58  59
ENDBRANCH  26  51
BRANCH  38  63
ATOM     63  C   UNL A   1      39.787  34.225  36.943  1.00  0.00     0.058 A 
ATOM     64  C   UNL A   1      39.056  33.984  38.117  1.00  0.00     0.135 A 
ATOM     65  C   UNL A   1      40.467  35.450  36.835  1.00  0.00     0.135 A 
ATOM     66  F   UNL A   1      38.383  32.832  38.270  1.00  0.00    -0.206 F 
ATOM     67  C   UNL A   1      38.979  34.932  39.132  1.00  0.00     0.059 A 
ATOM     68  C   UNL A   1      40.432  36.398  37.852  1.00  0.00     0.059 A 
ATOM     69  F   UNL A   1      41.192  35.726  35.740  1.00  0.00    -0.206 F 
ATOM     70  C   UNL A   1      39.674  36.135  38.992  1.00  0.00     0.060 A 
BRANCH  70  71
ATOM     71  S   UNL A   1      39.584  37.343  40.330  1.00  0.00     0.124 S 
ATOM     72  O   UNL A   1      39.114  38.530  39.624  1.00  0.00    -0.237 OA
ATOM     73  O   UNL A   1      38.624  36.725  41.240  1.00  0.00    -0.237 OA
ATOM     74  O   UNL A   1      40.956  37.410  40.824  1.00  0.00    -0.744 OA
ENDBRANCH  70  71
ENDBRANCH  38  63
ENDBRANCH  12  13
ENDBRANCH   5   7
ENDBRANCH   2   3
ENDBRANCH   1   2
BRANCH   1  75
ATOM     75  C   UNL A   1      35.906  23.835  25.292  1.00  0.00     0.002 C 
BRANCH  75  76
ATOM     76  C   UNL A   1      35.000  23.276  26.394  1.00  0.00     0.002 C 
BRANCH  76  77
ATOM     77  C   UNL A   1      35.123  21.769  26.636  1.00  0.00     0.021 C 
BRANCH  77  78
ATOM     78  C   UNL A   1      33.856  21.101  27.165  1.00  0.00     0.116 C 
BRANCH  78  79
ATOM     79  N   UNL A   1      33.331  20.134  26.216  1.00  0.00    -0.352 N 
ATOM     80  C   UNL A   1      32.543  20.347  25.118  1.00  0.00     0.253 C 
ATOM     81  H   UNL A   1      33.576  19.196  26.387  1.00  0.00     0.163 HD
ATOM     82  O   UNL A   1      31.939  19.413  24.597  1.00  0.00    -0.269 OA
BRANCH  80  83
ATOM     83  C   UNL A   1      32.384  21.707  24.565  1.00  0.00     0.064 A 
ATOM     84  C   UNL A   1      33.062  22.064  23.390  1.00  0.00     0.016 A 
ATOM     85  C   UNL A   1      31.519  22.621  25.180  1.00  0.00     0.071 A 
ATOM     86  C   UNL A   1      32.918  23.348  22.865  1.00  0.00     0.002 A 
ATOM     87  C   UNL A   1      31.369  23.888  24.646  1.00  0.00     0.085 A 
ATOM     88  N   UNL A   1      30.796  22.315  26.325  1.00  0.00    -0.289 N 
ATOM     89  C   UNL A   1      32.074  24.263  23.494  1.00  0.00     0.018 A 
ATOM     90  C   UNL A   1      30.445  24.822  25.305  1.00  0.00     0.349 A 
ATOM     91  C   UNL A   1      29.975  23.194  26.964  1.00  0.00     0.419 A 
ATOM     92  H   UNL A   1      30.881  21.406  26.697  1.00  0.00     0.173 HD
ATOM     93  O   UNL A   1      30.254  25.930  24.813  1.00  0.00    -0.246 OA
ATOM     94  O   UNL A   1      29.826  24.437  26.441  1.00  0.00    -0.372 OA
ATOM     95  O   UNL A   1      29.385  22.861  27.989  1.00  0.00    -0.224 OA
ENDBRANCH  80  83
ENDBRANCH  78  79
ENDBRANCH  77  78
ENDBRANCH  76  77
ENDBRANCH  75  76
ENDBRANCH   1  75
TORSDOF 16
ENDMDL
