MODEL 1
REMARK VINA RESULT:     -11.5      0.000      0.000
REMARK SMILES Cc1ccc(-c2nc(NC(=O)[C@H]3[C@@H](C(=O)NCCCCCCNC(=O)c4ccc(-c5c6nc(c(-c7c(F)cc(S(=O)(=O)[O-])cc7F)c7ccc([nH]7)c(-c7c(F)cc(S(=O)(=O)[O-])cc7F)c7nc(c(-c8c(F)cc(S(=O)(=O)[O-])cc8F)c8ccc5[nH]8)C=C7)C=C6)cc4)[C@@H]4CC[C@H]3O4)sc2C)cc1
REMARK SMILES IDX 19 1 18 2 17 3 16 4 14 5 15 6 13 8 12 9 95 10 92 11 94 12
REMARK SMILES IDX 96 13 93 14 10 15 9 16 11 18 8 19 6 20 7 21 98 22 97 23
REMARK SMILES IDX 99 24 5 25 1 26 2 27 3 28 101 29 4 30 100 31 20 32 21 33
REMARK SMILES IDX 22 34 23 35 24 36 25 38 26 39 27 40 91 41 28 42 90 43 29 44
REMARK SMILES IDX 30 45 31 46 84 47 32 48 89 49 83 50 85 51 33 52 88 53 82 54
REMARK SMILES IDX 81 55 34 57 68 58 47 59 67 60 48 61 51 62 66 63 86 64 49 65
REMARK SMILES IDX 50 66 65 68 87 69 52 70 35 71 36 72 45 73 37 74 38 75 44 76
REMARK SMILES IDX 46 77 39 78 40 79 41 80 42 81 43 82 69 83 70 84 79 85 71 86
REMARK SMILES IDX 72 87 78 88 80 89 73 90 74 91 75 92 76 93 77 94 53 95 54 96
REMARK SMILES IDX 63 97 55 98 56 99 62 100 64 101 57 102 58 103 59 104 60 105
REMARK SMILES IDX 61 106
REMARK H PARENT 16 7 9 17 23 37 85 56 51 67
REMARK Flexibility Score: inf
ROOT
ATOM      1  C   UNL A   1      40.824  33.188  30.275  1.00  0.00     0.002 C 
ENDROOT
BRANCH   1   2
ATOM      2  C   UNL A   1      40.617  34.674  29.994  1.00  0.00     0.021 C 
BRANCH   2   3
ATOM      3  C   UNL A   1      40.681  35.171  28.556  1.00  0.00     0.116 C 
BRANCH   3   4
ATOM      4  N   UNL A   1      41.640  36.219  28.270  1.00  0.00    -0.356 N 
ATOM      5  C   UNL A   1      42.631  36.163  27.332  1.00  0.00     0.226 C 
ATOM      6  O   UNL A   1      42.791  37.139  26.596  1.00  0.00    -0.275 OA
ATOM      7  H   UNL A   1      41.572  37.046  28.799  1.00  0.00     0.163 HD
BRANCH   5   8
ATOM      8  C   UNL A   1      43.378  34.870  27.124  1.00  0.00     0.122 C 
ATOM      9  C   UNL A   1      44.374  34.251  28.114  1.00  0.00     0.123 C 
ATOM     10  C   UNL A   1      45.234  33.442  27.125  1.00  0.00     0.132 C 
ATOM     11  C   UNL A   1      44.160  34.765  25.782  1.00  0.00     0.132 C 
ATOM     12  C   UNL A   1      44.390  32.479  26.252  1.00  0.00     0.035 C 
ATOM     13  O   UNL A   1      45.530  34.503  26.190  1.00  0.00    -0.373 OA
ATOM     14  C   UNL A   1      43.868  33.410  25.148  1.00  0.00     0.035 C 
BRANCH   9  15
ATOM     15  C   UNL A   1      45.333  34.808  29.203  1.00  0.00     0.232 C 
ATOM     16  N   UNL A   1      46.336  35.709  29.237  1.00  0.00    -0.302 N 
ATOM     17  H   UNL A   1      46.653  35.847  30.158  1.00  0.00     0.172 HD
ATOM     18  O   UNL A   1      45.158  34.279  30.326  1.00  0.00    -0.274 OA
BRANCH  16  19
ATOM     19  C   UNL A   1      47.036  36.484  28.357  1.00  0.00     0.190 A 
ATOM     20  C   UNL A   1      48.657  37.155  26.969  1.00  0.00     0.086 A 
ATOM     21  N   UNL A   1      48.149  36.103  27.751  1.00  0.00    -0.220 NA
ATOM     22  C   UNL A   1      47.839  38.278  26.961  1.00  0.00     0.031 A 
ATOM     23  S   UNL A   1      46.435  37.962  27.868  1.00  0.00    -0.101 S 
ATOM     24  C   UNL A   1      47.934  39.610  26.311  1.00  0.00     0.059 C 
BRANCH  20  25
ATOM     25  C   UNL A   1      49.914  37.077  26.200  1.00  0.00     0.001 A 
ATOM     26  C   UNL A   1      53.561  37.348  23.843  1.00  0.00     0.044 C 
ATOM     27  C   UNL A   1      52.305  37.233  24.657  1.00  0.00    -0.051 A 
ATOM     28  C   UNL A   1      51.148  36.636  24.136  1.00  0.00     0.004 A 
ATOM     29  C   UNL A   1      52.274  37.700  25.971  1.00  0.00     0.004 A 
ATOM     30  C   UNL A   1      49.962  36.559  24.899  1.00  0.00     0.010 A 
ATOM     31  C   UNL A   1      51.104  37.602  26.732  1.00  0.00     0.010 A 
ENDBRANCH  20  25
ENDBRANCH  16  19
ENDBRANCH   9  15
ENDBRANCH   5   8
ENDBRANCH   3   4
ENDBRANCH   2   3
ENDBRANCH   1   2
BRANCH   1  32
ATOM     32  C   UNL A   1      39.621  32.244  30.263  1.00  0.00     0.002 C 
BRANCH  32  33
ATOM     33  C   UNL A   1      38.490  32.467  31.263  1.00  0.00     0.021 C 
BRANCH  33  34
ATOM     34  C   UNL A   1      37.590  31.264  31.517  1.00  0.00     0.116 C 
BRANCH  34  35
ATOM     35  N   UNL A   1      36.451  31.261  30.601  1.00  0.00    -0.352 N 
ATOM     36  C   UNL A   1      36.286  30.631  29.382  1.00  0.00     0.251 C 
ATOM     37  H   UNL A   1      35.679  31.792  30.900  1.00  0.00     0.163 HD
ATOM     38  O   UNL A   1      35.323  30.812  28.662  1.00  0.00    -0.269 OA
BRANCH  36  39
ATOM     39  C   UNL A   1      37.257  29.572  29.055  1.00  0.00     0.039 A 
ATOM     40  C   UNL A   1      37.580  28.688  30.089  1.00  0.00     0.014 A 
ATOM     41  C   UNL A   1      38.031  29.668  27.903  1.00  0.00     0.014 A 
ATOM     42  C   UNL A   1      38.811  28.056  30.065  1.00  0.00     0.010 A 
ATOM     43  C   UNL A   1      39.296  29.119  27.926  1.00  0.00     0.010 A 
ATOM     44  C   UNL A   1      39.700  28.367  29.035  1.00  0.00    -0.014 A 
BRANCH  44  45
ATOM     45  C   UNL A   1      41.081  27.918  29.055  1.00  0.00     0.031 A 
ATOM     46  C   UNL A   1      41.361  26.540  28.616  1.00  0.00     0.074 A 
ATOM     47  C   UNL A   1      42.053  28.722  29.530  1.00  0.00     0.049 A 
ATOM     48  N   UNL A   1      42.373  25.836  28.988  1.00  0.00    -0.248 NA
ATOM     49  C   UNL A   1      40.430  25.817  27.760  1.00  0.00     0.031 C 
ATOM     50  C   UNL A   1      43.489  28.467  29.544  1.00  0.00     0.029 A 
ATOM     51  N   UNL A   1      41.880  29.833  30.367  1.00  0.00    -0.354 N 
ATOM     52  C   UNL A   1      42.362  24.670  28.255  1.00  0.00     0.074 A 
ATOM     53  C   UNL A   1      41.095  24.679  27.562  1.00  0.00     0.031 C 
ATOM     54  C   UNL A   1      44.029  29.163  30.558  1.00  0.00     0.029 A 
ATOM     55  C   UNL A   1      42.940  29.784  31.296  1.00  0.00     0.049 A 
ATOM     56  H   UNL A   1      41.166  30.508  30.317  1.00  0.00     0.167 HD
ATOM     57  C   UNL A   1      43.484  23.896  28.225  1.00  0.00     0.037 A 
ATOM     58  C   UNL A   1      42.671  29.578  32.618  1.00  0.00     0.037 A 
ATOM     59  C   UNL A   1      44.461  24.358  29.215  1.00  0.00     0.049 A 
ATOM     60  C   UNL A   1      43.192  28.261  33.164  1.00  0.00     0.074 A 
ATOM     61  C   UNL A   1      45.591  25.158  29.175  1.00  0.00     0.029 A 
ATOM     62  N   UNL A   1      44.118  24.270  30.556  1.00  0.00    -0.354 N 
ATOM     63  N   UNL A   1      43.796  27.343  32.455  1.00  0.00    -0.248 NA
ATOM     64  C   UNL A   1      43.018  27.852  34.559  1.00  0.00     0.031 C 
ATOM     65  C   UNL A   1      45.883  25.590  30.505  1.00  0.00     0.029 A 
ATOM     66  C   UNL A   1      44.945  25.037  31.355  1.00  0.00     0.049 A 
ATOM     67  H   UNL A   1      43.374  23.723  30.898  1.00  0.00     0.167 HD
ATOM     68  C   UNL A   1      44.067  26.254  33.245  1.00  0.00     0.074 A 
ATOM     69  C   UNL A   1      43.562  26.623  34.556  1.00  0.00     0.031 C 
ATOM     70  C   UNL A   1      44.659  25.112  32.782  1.00  0.00     0.037 A 
BRANCH  57  71
ATOM     71  C   UNL A   1      43.773  22.934  27.087  1.00  0.00     0.058 A 
ATOM     72  C   UNL A   1      43.001  21.767  26.919  1.00  0.00     0.135 A 
ATOM     73  C   UNL A   1      44.865  23.039  26.199  1.00  0.00     0.135 A 
ATOM     74  F   UNL A   1      41.859  21.584  27.596  1.00  0.00    -0.206 F 
ATOM     75  C   UNL A   1      43.370  20.727  26.061  1.00  0.00     0.059 A 
ATOM     76  C   UNL A   1      45.299  21.986  25.387  1.00  0.00     0.059 A 
ATOM     77  F   UNL A   1      45.525  24.192  26.036  1.00  0.00    -0.206 F 
ATOM     78  C   UNL A   1      44.552  20.822  25.337  1.00  0.00     0.060 A 
BRANCH  78  79
ATOM     79  S   UNL A   1      45.085  19.425  24.330  1.00  0.00     0.124 S 
ATOM     80  O   UNL A   1      44.536  18.288  25.062  1.00  0.00    -0.237 OA
ATOM     81  O   UNL A   1      44.457  19.721  23.046  1.00  0.00    -0.237 OA
ATOM     82  O   UNL A   1      46.542  19.527  24.351  1.00  0.00    -0.744 OA
ENDBRANCH  78  79
ENDBRANCH  57  71
BRANCH  58  83
ATOM     83  C   UNL A   1      41.469  30.327  33.090  1.00  0.00     0.058 A 
ATOM     84  C   UNL A   1      40.298  29.592  33.372  1.00  0.00     0.135 A 
ATOM     85  C   UNL A   1      41.534  31.633  33.589  1.00  0.00     0.135 A 
ATOM     86  F   UNL A   1      40.164  28.340  32.904  1.00  0.00    -0.206 F 
ATOM     87  C   UNL A   1      39.299  30.078  34.212  1.00  0.00     0.059 A 
ATOM     88  C   UNL A   1      40.541  32.145  34.433  1.00  0.00     0.059 A 
ATOM     89  F   UNL A   1      42.608  32.396  33.340  1.00  0.00    -0.206 F 
ATOM     90  C   UNL A   1      39.457  31.337  34.784  1.00  0.00     0.060 A 
BRANCH  90  91
ATOM     91  S   UNL A   1      38.246  31.884  36.014  1.00  0.00     0.124 S 
ATOM     92  O   UNL A   1      38.981  32.915  36.739  1.00  0.00    -0.237 OA
ATOM     93  O   UNL A   1      37.152  32.370  35.175  1.00  0.00    -0.237 OA
ATOM     94  O   UNL A   1      37.968  30.669  36.770  1.00  0.00    -0.744 OA
ENDBRANCH  90  91
ENDBRANCH  58  83
BRANCH  70  95
ATOM     95  C   UNL A   1      45.008  23.945  33.670  1.00  0.00     0.058 A 
ATOM     96  C   UNL A   1      46.207  23.885  34.402  1.00  0.00     0.135 A 
ATOM     97  C   UNL A   1      44.197  22.789  33.717  1.00  0.00     0.135 A 
ATOM     98  F   UNL A   1      47.080  24.905  34.371  1.00  0.00    -0.206 F 
ATOM     99  C   UNL A   1      46.550  22.775  35.176  1.00  0.00     0.059 A 
ATOM    100  C   UNL A   1      44.546  21.652  34.438  1.00  0.00     0.059 A 
ATOM    101  F   UNL A   1      43.015  22.739  33.086  1.00  0.00    -0.206 F 
ATOM    102  C   UNL A   1      45.712  21.663  35.189  1.00  0.00     0.060 A 
BRANCH 102 103
ATOM    103  S   UNL A   1      46.152  20.220  36.176  1.00  0.00     0.124 S 
ATOM    104  O   UNL A   1      45.242  19.196  35.670  1.00  0.00    -0.237 OA
ATOM    105  O   UNL A   1      47.557  20.047  35.823  1.00  0.00    -0.237 OA
ATOM    106  O   UNL A   1      45.894  20.656  37.545  1.00  0.00    -0.744 OA
ENDBRANCH 102 103
ENDBRANCH  70  95
ENDBRANCH  44  45
ENDBRANCH  36  39
ENDBRANCH  34  35
ENDBRANCH  33  34
ENDBRANCH  32  33
ENDBRANCH   1  32
TORSDOF 19
ENDMDL
MODEL 2
REMARK VINA RESULT:     -11.5      2.295      3.376
REMARK SMILES Cc1ccc(-c2nc(NC(=O)[C@H]3[C@@H](C(=O)NCCCCCCNC(=O)c4ccc(-c5c6nc(c(-c7c(F)cc(S(=O)(=O)[O-])cc7F)c7ccc([nH]7)c(-c7c(F)cc(S(=O)(=O)[O-])cc7F)c7nc(c(-c8c(F)cc(S(=O)(=O)[O-])cc8F)c8ccc5[nH]8)C=C7)C=C6)cc4)[C@@H]4CC[C@H]3O4)sc2C)cc1
REMARK SMILES IDX 19 1 18 2 17 3 16 4 14 5 15 6 13 8 12 9 95 10 92 11 94 12
REMARK SMILES IDX 96 13 93 14 10 15 9 16 11 18 8 19 6 20 7 21 98 22 97 23
REMARK SMILES IDX 99 24 5 25 1 26 2 27 3 28 101 29 4 30 100 31 20 32 21 33
REMARK SMILES IDX 22 34 23 35 24 36 25 38 26 39 27 40 91 41 28 42 90 43 29 44
REMARK SMILES IDX 30 45 31 46 84 47 32 48 89 49 83 50 85 51 33 52 88 53 82 54
REMARK SMILES IDX 81 55 34 57 68 58 47 59 67 60 48 61 51 62 66 63 86 64 49 65
REMARK SMILES IDX 50 66 65 68 87 69 52 70 35 71 36 72 45 73 37 74 38 75 44 76
REMARK SMILES IDX 46 77 39 78 40 79 41 80 42 81 43 82 69 83 70 84 79 85 71 86
REMARK SMILES IDX 72 87 78 88 80 89 73 90 74 91 75 92 76 93 77 94 53 95 54 96
REMARK SMILES IDX 63 97 55 98 56 99 62 100 64 101 57 102 58 103 59 104 60 105
REMARK SMILES IDX 61 106
REMARK H PARENT 16 7 9 17 23 37 85 56 51 67
REMARK Flexibility Score: inf
ROOT
ATOM      1  C   UNL A   1      40.979  33.158  30.250  1.00  0.00     0.002 C 
ENDROOT
BRANCH   1   2
ATOM      2  C   UNL A   1      40.885  34.676  30.140  1.00  0.00     0.021 C 
BRANCH   2   3
ATOM      3  C   UNL A   1      41.093  35.335  28.782  1.00  0.00     0.116 C 
BRANCH   3   4
ATOM      4  N   UNL A   1      42.194  36.271  28.673  1.00  0.00    -0.356 N 
ATOM      5  C   UNL A   1      43.154  36.267  27.701  1.00  0.00     0.226 C 
ATOM      6  O   UNL A   1      43.449  37.340  27.170  1.00  0.00    -0.275 OA
ATOM      7  H   UNL A   1      42.256  36.973  29.359  1.00  0.00     0.163 HD
BRANCH   5   8
ATOM      8  C   UNL A   1      43.697  34.951  27.206  1.00  0.00     0.122 C 
ATOM      9  C   UNL A   1      44.677  34.051  27.971  1.00  0.00     0.123 C 
ATOM     10  C   UNL A   1      45.335  33.333  26.778  1.00  0.00     0.132 C 
ATOM     11  C   UNL A   1      44.344  34.992  25.791  1.00  0.00     0.132 C 
ATOM     12  C   UNL A   1      44.298  32.647  25.852  1.00  0.00     0.035 C 
ATOM     13  O   UNL A   1      45.695  34.498  26.005  1.00  0.00    -0.373 OA
ATOM     14  C   UNL A   1      43.819  33.815  24.976  1.00  0.00     0.035 C 
BRANCH   9  15
ATOM     15  C   UNL A   1      45.790  34.287  29.030  1.00  0.00     0.232 C 
ATOM     16  N   UNL A   1      45.897  34.986  30.179  1.00  0.00    -0.302 N 
ATOM     17  H   UNL A   1      46.762  34.814  30.616  1.00  0.00     0.172 HD
ATOM     18  O   UNL A   1      46.866  33.711  28.746  1.00  0.00    -0.274 OA
BRANCH  16  19
ATOM     19  C   UNL A   1      45.147  35.863  30.908  1.00  0.00     0.190 A 
ATOM     20  C   UNL A   1      44.195  37.777  31.571  1.00  0.00     0.086 A 
ATOM     21  N   UNL A   1      44.950  37.129  30.577  1.00  0.00    -0.220 NA
ATOM     22  C   UNL A   1      43.782  36.926  32.588  1.00  0.00     0.031 A 
ATOM     23  S   UNL A   1      44.286  35.339  32.239  1.00  0.00    -0.101 S 
ATOM     24  C   UNL A   1      42.991  37.121  33.831  1.00  0.00     0.059 C 
BRANCH  20  25
ATOM     25  C   UNL A   1      43.839  39.208  31.534  1.00  0.00     0.001 A 
ATOM     26  C   UNL A   1      43.183  43.487  31.098  1.00  0.00     0.044 C 
ATOM     27  C   UNL A   1      43.394  42.009  31.264  1.00  0.00    -0.051 A 
ATOM     28  C   UNL A   1      43.964  41.479  32.430  1.00  0.00     0.004 A 
ATOM     29  C   UNL A   1      42.998  41.127  30.260  1.00  0.00     0.004 A 
ATOM     30  C   UNL A   1      44.187  40.091  32.564  1.00  0.00     0.010 A 
ATOM     31  C   UNL A   1      43.199  39.749  30.406  1.00  0.00     0.010 A 
ENDBRANCH  20  25
ENDBRANCH  16  19
ENDBRANCH   9  15
ENDBRANCH   5   8
ENDBRANCH   3   4
ENDBRANCH   2   3
ENDBRANCH   1   2
BRANCH   1  32
ATOM     32  C   UNL A   1      39.705  32.316  30.175  1.00  0.00     0.002 C 
BRANCH  32  33
ATOM     33  C   UNL A   1      38.629  32.499  31.242  1.00  0.00     0.021 C 
BRANCH  33  34
ATOM     34  C   UNL A   1      37.733  31.291  31.486  1.00  0.00     0.116 C 
BRANCH  34  35
ATOM     35  N   UNL A   1      36.588  31.297  30.579  1.00  0.00    -0.352 N 
ATOM     36  C   UNL A   1      36.408  30.667  29.362  1.00  0.00     0.251 C 
ATOM     37  H   UNL A   1      35.823  31.837  30.882  1.00  0.00     0.163 HD
ATOM     38  O   UNL A   1      35.442  30.857  28.648  1.00  0.00    -0.269 OA
BRANCH  36  39
ATOM     39  C   UNL A   1      37.366  29.599  29.029  1.00  0.00     0.039 A 
ATOM     40  C   UNL A   1      37.694  28.718  30.064  1.00  0.00     0.014 A 
ATOM     41  C   UNL A   1      38.126  29.681  27.867  1.00  0.00     0.014 A 
ATOM     42  C   UNL A   1      38.920  28.076  30.028  1.00  0.00     0.010 A 
ATOM     43  C   UNL A   1      39.387  29.122  27.877  1.00  0.00     0.010 A 
ATOM     44  C   UNL A   1      39.798  28.374  28.985  1.00  0.00    -0.014 A 
BRANCH  44  45
ATOM     45  C   UNL A   1      41.176  27.913  28.991  1.00  0.00     0.031 A 
ATOM     46  C   UNL A   1      41.439  26.529  28.560  1.00  0.00     0.074 A 
ATOM     47  C   UNL A   1      42.161  28.713  29.446  1.00  0.00     0.049 A 
ATOM     48  N   UNL A   1      42.449  25.820  28.925  1.00  0.00    -0.248 NA
ATOM     49  C   UNL A   1      40.491  25.807  27.723  1.00  0.00     0.031 C 
ATOM     50  C   UNL A   1      43.594  28.446  29.443  1.00  0.00     0.029 A 
ATOM     51  N   UNL A   1      42.008  29.832  30.276  1.00  0.00    -0.354 N 
ATOM     52  C   UNL A   1      42.419  24.648  28.202  1.00  0.00     0.074 A 
ATOM     53  C   UNL A   1      41.144  24.662  27.526  1.00  0.00     0.031 C 
ATOM     54  C   UNL A   1      44.154  29.146  30.444  1.00  0.00     0.029 A 
ATOM     55  C   UNL A   1      43.080  29.782  31.192  1.00  0.00     0.049 A 
ATOM     56  H   UNL A   1      41.299  30.513  30.230  1.00  0.00     0.167 HD
ATOM     57  C   UNL A   1      43.535  23.864  28.164  1.00  0.00     0.037 A 
ATOM     58  C   UNL A   1      42.827  29.590  32.519  1.00  0.00     0.037 A 
ATOM     59  C   UNL A   1      44.528  24.327  29.137  1.00  0.00     0.049 A 
ATOM     60  C   UNL A   1      43.344  28.273  33.069  1.00  0.00     0.074 A 
ATOM     61  C   UNL A   1      45.665  25.117  29.075  1.00  0.00     0.029 A 
ATOM     62  N   UNL A   1      44.202  24.252  30.483  1.00  0.00    -0.354 N 
ATOM     63  N   UNL A   1      43.931  27.344  32.360  1.00  0.00    -0.248 NA
ATOM     64  C   UNL A   1      43.186  27.877  34.470  1.00  0.00     0.031 C 
ATOM     65  C   UNL A   1      45.978  25.558  30.397  1.00  0.00     0.029 A 
ATOM     66  C   UNL A   1      45.046  25.019  31.265  1.00  0.00     0.049 A 
ATOM     67  H   UNL A   1      43.458  23.714  30.839  1.00  0.00     0.167 HD
ATOM     68  C   UNL A   1      44.204  26.260  33.155  1.00  0.00     0.074 A 
ATOM     69  C   UNL A   1      43.719  26.643  34.470  1.00  0.00     0.031 C 
ATOM     70  C   UNL A   1      44.780  25.109  32.694  1.00  0.00     0.037 A 
BRANCH  57  71
ATOM     71  C   UNL A   1      43.801  22.890  27.030  1.00  0.00     0.058 A 
ATOM     72  C   UNL A   1      42.989  21.751  26.857  1.00  0.00     0.135 A 
ATOM     73  C   UNL A   1      44.904  22.954  26.153  1.00  0.00     0.135 A 
ATOM     74  F   UNL A   1      41.835  21.610  27.523  1.00  0.00    -0.206 F 
ATOM     75  C   UNL A   1      43.330  20.697  26.004  1.00  0.00     0.059 A 
ATOM     76  C   UNL A   1      45.309  21.886  25.348  1.00  0.00     0.059 A 
ATOM     77  F   UNL A   1      45.606  24.083  25.995  1.00  0.00    -0.206 F 
ATOM     78  C   UNL A   1      44.521  20.748  25.291  1.00  0.00     0.060 A 
BRANCH  78  79
ATOM     79  S   UNL A   1      45.014  19.332  24.292  1.00  0.00     0.124 S 
ATOM     80  O   UNL A   1      46.470  19.442  24.295  1.00  0.00    -0.237 OA
ATOM     81  O   UNL A   1      44.458  18.217  25.052  1.00  0.00    -0.237 OA
ATOM     82  O   UNL A   1      44.380  19.588  23.002  1.00  0.00    -0.744 OA
ENDBRANCH  78  79
ENDBRANCH  57  71
BRANCH  58  83
ATOM     83  C   UNL A   1      41.637  30.352  33.000  1.00  0.00     0.058 A 
ATOM     84  C   UNL A   1      40.455  29.633  33.275  1.00  0.00     0.135 A 
ATOM     85  C   UNL A   1      41.724  31.651  33.514  1.00  0.00     0.135 A 
ATOM     86  F   UNL A   1      40.300  28.389  32.793  1.00  0.00    -0.206 F 
ATOM     87  C   UNL A   1      39.464  30.126  34.121  1.00  0.00     0.059 A 
ATOM     88  C   UNL A   1      40.739  32.170  34.365  1.00  0.00     0.059 A 
ATOM     89  F   UNL A   1      42.810  32.400  33.272  1.00  0.00    -0.206 F 
ATOM     90  C   UNL A   1      39.643  31.376  34.707  1.00  0.00     0.060 A 
BRANCH  90  91
ATOM     91  S   UNL A   1      38.441  31.928  35.944  1.00  0.00     0.124 S 
ATOM     92  O   UNL A   1      38.984  33.221  36.351  1.00  0.00    -0.237 OA
ATOM     93  O   UNL A   1      37.204  31.986  35.168  1.00  0.00    -0.237 OA
ATOM     94  O   UNL A   1      38.502  30.881  36.956  1.00  0.00    -0.744 OA
ENDBRANCH  90  91
ENDBRANCH  58  83
BRANCH  70  95
ATOM     95  C   UNL A   1      45.131  23.947  33.587  1.00  0.00     0.058 A 
ATOM     96  C   UNL A   1      46.448  23.686  34.005  1.00  0.00     0.135 A 
ATOM     97  C   UNL A   1      44.165  22.983  33.954  1.00  0.00     0.135 A 
ATOM     98  F   UNL A   1      47.453  24.504  33.653  1.00  0.00    -0.206 F 
ATOM     99  C   UNL A   1      46.775  22.573  34.783  1.00  0.00     0.059 A 
ATOM    100  C   UNL A   1      44.478  21.841  34.682  1.00  0.00     0.059 A 
ATOM    101  F   UNL A   1      42.871  23.138  33.641  1.00  0.00    -0.206 F 
ATOM    102  C   UNL A   1      45.781  21.657  35.119  1.00  0.00     0.060 A 
BRANCH 102 103
ATOM    103  S   UNL A   1      46.195  20.212  36.114  1.00  0.00     0.124 S 
ATOM    104  O   UNL A   1      47.647  20.133  35.978  1.00  0.00    -0.237 OA
ATOM    105  O   UNL A   1      45.704  20.615  37.427  1.00  0.00    -0.237 OA
ATOM    106  O   UNL A   1      45.454  19.133  35.466  1.00  0.00    -0.744 OA
ENDBRANCH 102 103
ENDBRANCH  70  95
ENDBRANCH  44  45
ENDBRANCH  36  39
ENDBRANCH  34  35
ENDBRANCH  33  34
ENDBRANCH  32  33
ENDBRANCH   1  32
TORSDOF 19
ENDMDL
MODEL 3
REMARK VINA RESULT:     -11.3      5.633     11.258
REMARK SMILES Cc1ccc(-c2nc(NC(=O)[C@H]3[C@@H](C(=O)NCCCCCCNC(=O)c4ccc(-c5c6nc(c(-c7c(F)cc(S(=O)(=O)[O-])cc7F)c7ccc([nH]7)c(-c7c(F)cc(S(=O)(=O)[O-])cc7F)c7nc(c(-c8c(F)cc(S(=O)(=O)[O-])cc8F)c8ccc5[nH]8)C=C7)C=C6)cc4)[C@@H]4CC[C@H]3O4)sc2C)cc1
REMARK SMILES IDX 19 1 18 2 17 3 16 4 14 5 15 6 13 8 12 9 95 10 92 11 94 12
REMARK SMILES IDX 96 13 93 14 10 15 9 16 11 18 8 19 6 20 7 21 98 22 97 23
REMARK SMILES IDX 99 24 5 25 1 26 2 27 3 28 101 29 4 30 100 31 20 32 21 33
REMARK SMILES IDX 22 34 23 35 24 36 25 38 26 39 27 40 91 41 28 42 90 43 29 44
REMARK SMILES IDX 30 45 31 46 84 47 32 48 89 49 83 50 85 51 33 52 88 53 82 54
REMARK SMILES IDX 81 55 34 57 68 58 47 59 67 60 48 61 51 62 66 63 86 64 49 65
REMARK SMILES IDX 50 66 65 68 87 69 52 70 35 71 36 72 45 73 37 74 38 75 44 76
REMARK SMILES IDX 46 77 39 78 40 79 41 80 42 81 43 82 69 83 70 84 79 85 71 86
REMARK SMILES IDX 72 87 78 88 80 89 73 90 74 91 75 92 76 93 77 94 53 95 54 96
REMARK SMILES IDX 63 97 55 98 56 99 62 100 64 101 57 102 58 103 59 104 60 105
REMARK SMILES IDX 61 106
REMARK H PARENT 16 7 9 17 23 37 85 56 51 67
REMARK Flexibility Score: inf
ROOT
ATOM      1  C   UNL A   1      35.060  31.500  27.613  1.00  0.00     0.002 C 
ENDROOT
BRANCH   1   2
ATOM      2  C   UNL A   1      33.550  31.340  27.758  1.00  0.00     0.021 C 
BRANCH   2   3
ATOM      3  C   UNL A   1      32.781  30.576  26.689  1.00  0.00     0.116 C 
BRANCH   3   4
ATOM      4  N   UNL A   1      31.832  29.582  27.151  1.00  0.00    -0.356 N 
ATOM      5  C   UNL A   1      31.748  28.292  26.713  1.00  0.00     0.226 C 
ATOM      6  O   UNL A   1      31.631  27.398  27.555  1.00  0.00    -0.275 OA
ATOM      7  H   UNL A   1      31.192  29.863  27.843  1.00  0.00     0.163 HD
BRANCH   5   8
ATOM      8  C   UNL A   1      31.957  27.994  25.250  1.00  0.00     0.122 C 
ATOM      9  C   UNL A   1      30.990  27.205  24.358  1.00  0.00     0.123 C 
ATOM     10  C   UNL A   1      31.992  26.677  23.315  1.00  0.00     0.132 C 
ATOM     11  C   UNL A   1      33.322  27.333  24.898  1.00  0.00     0.132 C 
ATOM     12  C   UNL A   1      32.819  27.811  22.657  1.00  0.00     0.035 C 
ATOM     13  O   UNL A   1      32.954  26.099  24.223  1.00  0.00    -0.373 OA
ATOM     14  C   UNL A   1      33.923  28.056  23.698  1.00  0.00     0.035 C 
BRANCH   9  15
ATOM     15  C   UNL A   1      29.943  26.081  24.594  1.00  0.00     0.232 C 
ATOM     16  N   UNL A   1      29.981  24.797  25.006  1.00  0.00    -0.302 N 
ATOM     17  H   UNL A   1      29.072  24.433  25.105  1.00  0.00     0.172 HD
ATOM     18  O   UNL A   1      28.773  26.434  24.313  1.00  0.00    -0.274 OA
BRANCH  16  19
ATOM     19  C   UNL A   1      30.921  23.859  25.324  1.00  0.00     0.190 A 
ATOM     20  C   UNL A   1      32.184  22.017  25.201  1.00  0.00     0.086 A 
ATOM     21  N   UNL A   1      31.236  22.830  24.555  1.00  0.00    -0.220 NA
ATOM     22  C   UNL A   1      32.607  22.529  26.420  1.00  0.00     0.031 A 
ATOM     23  S   UNL A   1      31.865  24.036  26.690  1.00  0.00    -0.101 S 
ATOM     24  C   UNL A   1      33.563  22.058  27.455  1.00  0.00     0.059 C 
BRANCH  20  25
ATOM     25  C   UNL A   1      32.713  20.761  24.636  1.00  0.00     0.001 A 
ATOM     26  C   UNL A   1      33.840  16.835  23.135  1.00  0.00     0.044 C 
ATOM     27  C   UNL A   1      33.471  18.197  23.648  1.00  0.00    -0.051 A 
ATOM     28  C   UNL A   1      34.066  18.731  24.800  1.00  0.00     0.004 A 
ATOM     29  C   UNL A   1      32.538  18.976  22.964  1.00  0.00     0.004 A 
ATOM     30  C   UNL A   1      33.690  20.000  25.292  1.00  0.00     0.010 A 
ATOM     31  C   UNL A   1      32.184  20.243  23.441  1.00  0.00     0.010 A 
ENDBRANCH  20  25
ENDBRANCH  16  19
ENDBRANCH   9  15
ENDBRANCH   5   8
ENDBRANCH   3   4
ENDBRANCH   2   3
ENDBRANCH   1   2
BRANCH   1  32
ATOM     32  C   UNL A   1      35.995  30.622  28.446  1.00  0.00     0.002 C 
BRANCH  32  33
ATOM     33  C   UNL A   1      36.359  31.057  29.862  1.00  0.00     0.021 C 
BRANCH  33  34
ATOM     34  C   UNL A   1      37.657  30.480  30.414  1.00  0.00     0.116 C 
BRANCH  34  35
ATOM     35  N   UNL A   1      37.457  29.930  31.753  1.00  0.00    -0.352 N 
ATOM     36  C   UNL A   1      37.875  28.731  32.298  1.00  0.00     0.251 C 
ATOM     37  H   UNL A   1      36.942  30.504  32.363  1.00  0.00     0.163 HD
ATOM     38  O   UNL A   1      37.533  28.342  33.398  1.00  0.00    -0.269 OA
BRANCH  36  39
ATOM     39  C   UNL A   1      38.915  27.999  31.554  1.00  0.00     0.039 A 
ATOM     40  C   UNL A   1      40.238  28.262  31.921  1.00  0.00     0.014 A 
ATOM     41  C   UNL A   1      38.599  27.359  30.360  1.00  0.00     0.014 A 
ATOM     42  C   UNL A   1      41.239  28.080  30.982  1.00  0.00     0.010 A 
ATOM     43  C   UNL A   1      39.578  27.272  29.393  1.00  0.00     0.010 A 
ATOM     44  C   UNL A   1      40.879  27.691  29.691  1.00  0.00    -0.014 A 
BRANCH  44  45
ATOM     45  C   UNL A   1      41.836  27.689  28.598  1.00  0.00     0.031 A 
ATOM     46  C   UNL A   1      42.519  26.422  28.286  1.00  0.00     0.074 A 
ATOM     47  C   UNL A   1      42.131  28.832  27.947  1.00  0.00     0.049 A 
ATOM     48  N   UNL A   1      43.671  26.322  27.721  1.00  0.00    -0.248 NA
ATOM     49  C   UNL A   1      41.954  25.142  28.689  1.00  0.00     0.031 C 
ATOM     50  C   UNL A   1      42.993  28.995  26.783  1.00  0.00     0.029 A 
ATOM     51  N   UNL A   1      41.912  30.136  28.414  1.00  0.00    -0.354 N 
ATOM     52  C   UNL A   1      43.899  24.987  27.470  1.00  0.00     0.074 A 
ATOM     53  C   UNL A   1      42.835  24.294  28.157  1.00  0.00     0.031 C 
ATOM     54  C   UNL A   1      43.484  30.245  26.795  1.00  0.00     0.029 A 
ATOM     55  C   UNL A   1      43.049  30.878  28.031  1.00  0.00     0.049 A 
ATOM     56  H   UNL A   1      41.127  30.466  28.907  1.00  0.00     0.167 HD
ATOM     57  C   UNL A   1      44.892  24.635  26.604  1.00  0.00     0.037 A 
ATOM     58  C   UNL A   1      43.880  31.384  28.988  1.00  0.00     0.037 A 
ATOM     59  C   UNL A   1      45.721  25.796  26.265  1.00  0.00     0.049 A 
ATOM     60  C   UNL A   1      45.269  30.773  28.996  1.00  0.00     0.074 A 
ATOM     61  C   UNL A   1      45.769  26.688  25.207  1.00  0.00     0.029 A 
ATOM     62  N   UNL A   1      46.457  26.387  27.281  1.00  0.00    -0.354 N 
ATOM     63  N   UNL A   1      45.664  29.801  28.216  1.00  0.00    -0.248 NA
ATOM     64  C   UNL A   1      46.315  31.183  29.936  1.00  0.00     0.031 C 
ATOM     65  C   UNL A   1      46.496  27.844  25.626  1.00  0.00     0.029 A 
ATOM     66  C   UNL A   1      46.909  27.646  26.930  1.00  0.00     0.049 A 
ATOM     67  H   UNL A   1      46.638  25.959  28.150  1.00  0.00     0.167 HD
ATOM     68  C   UNL A   1      46.950  29.445  28.538  1.00  0.00     0.074 A 
ATOM     69  C   UNL A   1      47.314  30.341  29.621  1.00  0.00     0.031 C 
ATOM     70  C   UNL A   1      47.629  28.429  27.925  1.00  0.00     0.037 A 
BRANCH  57  71
ATOM     71  C   UNL A   1      44.887  23.311  25.863  1.00  0.00     0.058 A 
ATOM     72  C   UNL A   1      43.681  22.615  25.644  1.00  0.00     0.135 A 
ATOM     73  C   UNL A   1      46.041  22.615  25.445  1.00  0.00     0.135 A 
ATOM     74  F   UNL A   1      42.493  23.193  25.867  1.00  0.00    -0.206 F 
ATOM     75  C   UNL A   1      43.637  21.289  25.201  1.00  0.00     0.059 A 
ATOM     76  C   UNL A   1      46.034  21.268  25.071  1.00  0.00     0.059 A 
ATOM     77  F   UNL A   1      47.223  23.232  25.324  1.00  0.00    -0.206 F 
ATOM     78  C   UNL A   1      44.823  20.604  24.968  1.00  0.00     0.060 A 
BRANCH  78  79
ATOM     79  S   UNL A   1      44.761  18.860  24.519  1.00  0.00     0.124 S 
ATOM     80  O   UNL A   1      44.837  18.912  23.062  1.00  0.00    -0.237 OA
ATOM     81  O   UNL A   1      45.938  18.331  25.199  1.00  0.00    -0.237 OA
ATOM     82  O   UNL A   1      43.476  18.416  25.053  1.00  0.00    -0.744 OA
ENDBRANCH  78  79
ENDBRANCH  57  71
BRANCH  58  83
ATOM     83  C   UNL A   1      43.143  31.941  30.161  1.00  0.00     0.058 A 
ATOM     84  C   UNL A   1      42.399  33.125  29.976  1.00  0.00     0.135 A 
ATOM     85  C   UNL A   1      42.870  31.194  31.312  1.00  0.00     0.135 A 
ATOM     86  F   UNL A   1      42.628  33.899  28.901  1.00  0.00    -0.206 F 
ATOM     87  C   UNL A   1      41.350  33.485  30.819  1.00  0.00     0.059 A 
ATOM     88  C   UNL A   1      41.822  31.536  32.176  1.00  0.00     0.059 A 
ATOM     89  F   UNL A   1      43.555  30.069  31.563  1.00  0.00    -0.206 F 
ATOM     90  C   UNL A   1      41.032  32.651  31.888  1.00  0.00     0.060 A 
BRANCH  90  91
ATOM     91  S   UNL A   1      39.557  33.028  32.867  1.00  0.00     0.124 S 
ATOM     92  O   UNL A   1      39.240  31.735  33.466  1.00  0.00    -0.237 OA
ATOM     93  O   UNL A   1      40.054  34.042  33.795  1.00  0.00    -0.237 OA
ATOM     94  O   UNL A   1      38.607  33.501  31.868  1.00  0.00    -0.744 OA
ENDBRANCH  90  91
ENDBRANCH  58  83
BRANCH  70  95
ATOM     95  C   UNL A   1      49.062  28.085  28.243  1.00  0.00     0.058 A 
ATOM     96  C   UNL A   1      50.098  28.226  27.304  1.00  0.00     0.135 A 
ATOM     97  C   UNL A   1      49.418  27.483  29.471  1.00  0.00     0.135 A 
ATOM     98  F   UNL A   1      49.853  28.725  26.082  1.00  0.00    -0.206 F 
ATOM     99  C   UNL A   1      51.413  27.849  27.586  1.00  0.00     0.059 A 
ATOM    100  C   UNL A   1      50.710  27.052  29.752  1.00  0.00     0.059 A 
ATOM    101  F   UNL A   1      48.524  27.324  30.456  1.00  0.00    -0.206 F 
ATOM    102  C   UNL A   1      51.710  27.265  28.815  1.00  0.00     0.060 A 
BRANCH 102 103
ATOM    103  S   UNL A   1      53.402  26.764  29.184  1.00  0.00     0.124 S 
ATOM    104  O   UNL A   1      54.067  28.040  29.432  1.00  0.00    -0.237 OA
ATOM    105  O   UNL A   1      53.204  25.916  30.355  1.00  0.00    -0.237 OA
ATOM    106  O   UNL A   1      53.823  26.074  27.968  1.00  0.00    -0.744 OA
ENDBRANCH 102 103
ENDBRANCH  70  95
ENDBRANCH  44  45
ENDBRANCH  36  39
ENDBRANCH  34  35
ENDBRANCH  33  34
ENDBRANCH  32  33
ENDBRANCH   1  32
TORSDOF 19
ENDMDL
