MODEL 1
REMARK VINA RESULT:      -7.9      0.000      0.000
REMARK SMILES NS(=O)(=O)c1ccc(C#Cc2cc(Cl)cc3c2O[C@H](C(F)(F)F)C(C(=O)NCCCCCCNC(=O)c2ccc(-c4c5nc(c(-c6c(F)cc(S(=O)(=O)[O-])cc6F)c6ccc([nH]6)c(-c6c(F)cc(S(=O)(=O)[O-])cc6F)c6nc(c(-c7c(F)cc(S(=O)(=O)[O-])cc7F)c7ccc4[nH]7)C=C6)C=C5)cc2)=C3)cc1
REMARK SMILES IDX 30 1 29 2 28 3 27 4 25 5 26 6 24 8 11 9 12 10 17 11 13 12
REMARK SMILES IDX 16 13 18 14 14 15 15 16 103 17 19 18 10 19 9 20 8 21 5 22
REMARK SMILES IDX 6 23 105 24 7 25 104 26 2 27 3 28 4 29 1 30 20 33 21 34
REMARK SMILES IDX 22 35 23 36 31 37 32 38 33 39 34 40 35 41 36 43 37 44 38 45
REMARK SMILES IDX 102 46 39 47 101 48 40 49 41 50 42 51 95 52 43 53 100 54
REMARK SMILES IDX 94 55 96 56 44 57 99 58 93 59 92 60 45 62 79 63 58 64 78 65
REMARK SMILES IDX 59 66 62 67 77 68 97 69 60 70 61 71 76 73 98 74 63 75 46 76
REMARK SMILES IDX 47 77 56 78 48 79 49 80 55 81 57 82 50 83 51 84 52 85 53 86
REMARK SMILES IDX 54 87 80 88 81 89 90 90 82 91 83 92 89 93 91 94 84 95 85 96
REMARK SMILES IDX 86 97 87 98 88 99 64 100 65 101 74 102 66 103 67 104 73 105
REMARK SMILES IDX 75 106 68 107 69 108 70 109 71 110 72 111
REMARK H PARENT 27 7 1 31 1 32 34 42 96 61 62 72
REMARK Flexibility Score: inf
ROOT
ATOM      1  C   UNL A   1      50.631  23.362  37.348  1.00  0.00     0.002 C 
ENDROOT
BRANCH   1   2
ATOM      2  C   UNL A   1      50.189  23.508  38.805  1.00  0.00     0.021 C 
BRANCH   2   3
ATOM      3  C   UNL A   1      48.733  23.115  39.024  1.00  0.00     0.116 C 
BRANCH   3   4
ATOM      4  N   UNL A   1      48.465  21.761  38.567  1.00  0.00    -0.352 N 
ATOM      5  C   UNL A   1      47.703  21.170  37.616  1.00  0.00     0.251 C 
ATOM      6  O   UNL A   1      47.794  19.941  37.545  1.00  0.00    -0.270 OA
ATOM      7  H   UNL A   1      48.974  21.097  39.086  1.00  0.00     0.163 HD
BRANCH   5   8
ATOM      8  C   UNL A   1      46.789  21.897  36.686  1.00  0.00     0.067 C 
ATOM      9  C   UNL A   1      44.360  24.132  34.083  1.00  0.00     0.069 A 
ATOM     10  C   UNL A   1      43.600  25.189  34.577  1.00  0.00     0.041 A 
ATOM     11  C   UNL A   1      45.191  23.414  34.952  1.00  0.00     0.143 A 
ATOM     12  C   UNL A   1      43.679  25.517  35.932  1.00  0.00     0.043 A 
ATOM     13  C   UNL A   1      45.274  23.741  36.309  1.00  0.00     0.020 A 
ATOM     14  O   UNL A   1      45.951  22.428  34.399  1.00  0.00    -0.474 OA
ATOM     15  Cl  UNL A   1      42.751  26.833  36.541  1.00  0.00    -0.084 Cl
ATOM     16  C   UNL A   1      44.509  24.800  36.800  1.00  0.00     0.032 A 
ATOM     17  C   UNL A   1      46.187  22.998  37.173  1.00  0.00     0.025 C 
ATOM     18  C   UNL A   1      46.504  21.435  35.288  1.00  0.00     0.314 C 
BRANCH   9  19
ATOM     19  C   UNL A   1      44.302  23.784  32.692  1.00  0.00    -0.058 C 
ATOM     20  C   UNL A   1      44.218  23.550  31.515  1.00  0.00    -0.062 C 
BRANCH  20  21
ATOM     21  C   UNL A   1      44.048  23.258  30.125  1.00  0.00     0.025 A 
ATOM     22  C   UNL A   1      43.597  22.874  27.399  1.00  0.00     0.082 A 
ATOM     23  C   UNL A   1      42.608  22.521  28.319  1.00  0.00     0.023 A 
ATOM     24  C   UNL A   1      44.831  23.368  27.835  1.00  0.00     0.023 A 
ATOM     25  C   UNL A   1      42.838  22.714  29.684  1.00  0.00     0.018 A 
ATOM     26  C   UNL A   1      45.054  23.563  29.201  1.00  0.00     0.018 A 
BRANCH  22  27
ATOM     27  S   UNL A   1      43.315  22.735  25.659  1.00  0.00     0.238 S 
ATOM     28  O   UNL A   1      42.564  21.531  25.407  1.00  0.00    -0.207 OA
ATOM     29  O   UNL A   1      44.550  23.060  24.983  1.00  0.00    -0.207 OA
BRANCH  27  30
ATOM     30  N   UNL A   1      42.258  23.997  25.294  1.00  0.00    -0.225 NA
ATOM     31  H   UNL A   1      42.755  24.884  25.356  1.00  0.00     0.137 HD
ATOM     32  H   UNL A   1      41.483  23.994  25.957  1.00  0.00     0.137 HD
ENDBRANCH  27  30
ENDBRANCH  22  27
ENDBRANCH  20  21
ENDBRANCH   9  19
BRANCH  18  33
ATOM     33  C   UNL A   1      45.623  20.173  35.248  1.00  0.00     0.429 C 
ATOM     34  F   UNL A   1      44.514  20.390  34.503  1.00  0.00    -0.167 F 
ATOM     35  F   UNL A   1      46.256  19.112  34.696  1.00  0.00    -0.167 F 
ATOM     36  F   UNL A   1      45.223  19.789  36.482  1.00  0.00    -0.167 F 
ENDBRANCH  18  33
ENDBRANCH   5   8
ENDBRANCH   3   4
ENDBRANCH   2   3
ENDBRANCH   1   2
BRANCH   1  37
ATOM     37  C   UNL A   1      51.987  24.006  37.022  1.00  0.00     0.002 C 
BRANCH  37  38
ATOM     38  C   UNL A   1      52.960  23.105  36.261  1.00  0.00     0.021 C 
BRANCH  38  39
ATOM     39  C   UNL A   1      52.337  21.814  35.752  1.00  0.00     0.116 C 
BRANCH  39  40
ATOM     40  N   UNL A   1      52.783  21.485  34.404  1.00  0.00    -0.352 N 
ATOM     41  C   UNL A   1      52.198  21.790  33.198  1.00  0.00     0.251 C 
ATOM     42  H   UNL A   1      53.622  20.974  34.349  1.00  0.00     0.163 HD
ATOM     43  O   UNL A   1      52.599  21.264  32.165  1.00  0.00    -0.269 OA
BRANCH  41  44
ATOM     44  C   UNL A   1      51.061  22.732  33.173  1.00  0.00     0.039 A 
ATOM     45  C   UNL A   1      51.214  23.991  32.591  1.00  0.00     0.014 A 
ATOM     46  C   UNL A   1      49.864  22.384  33.800  1.00  0.00     0.014 A 
ATOM     47  C   UNL A   1      50.259  24.969  32.826  1.00  0.00     0.010 A 
ATOM     48  C   UNL A   1      48.853  23.340  33.932  1.00  0.00     0.010 A 
ATOM     49  C   UNL A   1      49.070  24.661  33.509  1.00  0.00    -0.014 A 
BRANCH  49  50
ATOM     50  C   UNL A   1      48.100  25.752  33.798  1.00  0.00     0.031 A 
ATOM     51  C   UNL A   1      47.153  26.243  32.731  1.00  0.00     0.074 A 
ATOM     52  C   UNL A   1      48.015  26.244  35.051  1.00  0.00     0.049 A 
ATOM     53  N   UNL A   1      46.207  27.144  32.822  1.00  0.00    -0.248 NA
ATOM     54  C   UNL A   1      47.282  25.655  31.388  1.00  0.00     0.031 C 
ATOM     55  C   UNL A   1      48.869  25.840  36.172  1.00  0.00     0.029 A 
ATOM     56  N   UNL A   1      47.156  27.159  35.605  1.00  0.00    -0.354 N 
ATOM     57  C   UNL A   1      45.640  27.237  31.555  1.00  0.00     0.074 A 
ATOM     58  C   UNL A   1      46.380  26.339  30.697  1.00  0.00     0.031 C 
ATOM     59  C   UNL A   1      48.450  26.452  37.288  1.00  0.00     0.029 A 
ATOM     60  C   UNL A   1      47.348  27.349  36.954  1.00  0.00     0.049 A 
ATOM     61  H   UNL A   1      46.467  27.634  35.087  1.00  0.00     0.167 HD
ATOM     62  C   UNL A   1      44.584  27.981  31.149  1.00  0.00     0.037 A 
ATOM     63  C   UNL A   1      46.722  28.163  37.825  1.00  0.00     0.037 A 
ATOM     64  C   UNL A   1      43.837  28.857  32.015  1.00  0.00     0.049 A 
ATOM     65  C   UNL A   1      45.599  29.032  37.333  1.00  0.00     0.074 A 
ATOM     66  C   UNL A   1      42.736  29.635  31.703  1.00  0.00     0.029 A 
ATOM     67  N   UNL A   1      44.110  29.073  33.357  1.00  0.00    -0.354 N 
ATOM     68  N   UNL A   1      45.059  29.080  36.138  1.00  0.00    -0.248 NA
ATOM     69  C   UNL A   1      45.006  29.966  38.299  1.00  0.00     0.031 C 
ATOM     70  C   UNL A   1      42.383  30.368  32.838  1.00  0.00     0.029 A 
ATOM     71  C   UNL A   1      43.225  30.002  33.876  1.00  0.00     0.049 A 
ATOM     72  H   UNL A   1      44.828  28.631  33.867  1.00  0.00     0.167 HD
ATOM     73  C   UNL A   1      44.055  30.039  36.214  1.00  0.00     0.074 A 
ATOM     74  C   UNL A   1      44.046  30.527  37.576  1.00  0.00     0.031 C 
ATOM     75  C   UNL A   1      43.223  30.480  35.238  1.00  0.00     0.037 A 
BRANCH  62  76
ATOM     76  C   UNL A   1      44.163  27.889  29.707  1.00  0.00     0.058 A 
ATOM     77  C   UNL A   1      43.190  26.971  29.280  1.00  0.00     0.135 A 
ATOM     78  C   UNL A   1      44.686  28.777  28.751  1.00  0.00     0.135 A 
ATOM     79  F   UNL A   1      42.666  26.088  30.144  1.00  0.00    -0.206 F 
ATOM     80  C   UNL A   1      42.765  26.923  27.955  1.00  0.00     0.059 A 
ATOM     81  C   UNL A   1      44.253  28.768  27.427  1.00  0.00     0.059 A 
ATOM     82  F   UNL A   1      45.617  29.677  29.103  1.00  0.00    -0.206 F 
ATOM     83  C   UNL A   1      43.299  27.830  27.037  1.00  0.00     0.060 A 
BRANCH  83  84
ATOM     84  S   UNL A   1      42.723  27.758  25.328  1.00  0.00     0.124 S 
ATOM     85  O   UNL A   1      43.944  27.373  24.625  1.00  0.00    -0.237 OA
ATOM     86  O   UNL A   1      41.684  26.736  25.396  1.00  0.00    -0.237 OA
ATOM     87  O   UNL A   1      42.252  29.114  25.067  1.00  0.00    -0.744 OA
ENDBRANCH  83  84
ENDBRANCH  62  76
BRANCH  63  88
ATOM     88  C   UNL A   1      47.153  28.192  39.250  1.00  0.00     0.058 A 
ATOM     89  C   UNL A   1      48.218  29.003  39.667  1.00  0.00     0.135 A 
ATOM     90  C   UNL A   1      46.488  27.434  40.229  1.00  0.00     0.135 A 
ATOM     91  F   UNL A   1      48.890  29.741  38.771  1.00  0.00    -0.206 F 
ATOM     92  C   UNL A   1      48.614  29.057  40.999  1.00  0.00     0.059 A 
ATOM     93  C   UNL A   1      46.844  27.497  41.571  1.00  0.00     0.059 A 
ATOM     94  F   UNL A   1      45.453  26.651  39.886  1.00  0.00    -0.206 F 
ATOM     95  C   UNL A   1      47.914  28.306  41.946  1.00  0.00     0.060 A 
BRANCH  95  96
ATOM     96  S   UNL A   1      48.406  28.427  43.679  1.00  0.00     0.124 S 
ATOM     97  O   UNL A   1      49.627  27.631  43.695  1.00  0.00    -0.237 OA
ATOM     98  O   UNL A   1      48.578  29.867  43.843  1.00  0.00    -0.237 OA
ATOM     99  O   UNL A   1      47.269  27.852  44.393  1.00  0.00    -0.744 OA
ENDBRANCH  95  96
ENDBRANCH  63  88
BRANCH  75 100
ATOM    100  C   UNL A   1      42.229  31.552  35.591  1.00  0.00     0.058 A 
ATOM    101  C   UNL A   1      42.552  32.912  35.473  1.00  0.00     0.135 A 
ATOM    102  C   UNL A   1      40.911  31.218  35.945  1.00  0.00     0.135 A 
ATOM    103  F   UNL A   1      43.799  33.285  35.146  1.00  0.00    -0.206 F 
ATOM    104  C   UNL A   1      41.603  33.906  35.693  1.00  0.00     0.059 A 
ATOM    105  C   UNL A   1      39.938  32.194  36.139  1.00  0.00     0.059 A 
ATOM    106  F   UNL A   1      40.547  29.932  36.064  1.00  0.00    -0.206 F 
ATOM    107  C   UNL A   1      40.295  33.535  36.011  1.00  0.00     0.060 A 
BRANCH 107 108
ATOM    108  S   UNL A   1      39.061  34.837  36.218  1.00  0.00     0.124 S 
ATOM    109  O   UNL A   1      37.842  34.061  36.419  1.00  0.00    -0.237 OA
ATOM    110  O   UNL A   1      39.560  35.550  37.389  1.00  0.00    -0.237 OA
ATOM    111  O   UNL A   1      39.131  35.577  34.962  1.00  0.00    -0.744 OA
ENDBRANCH 107 108
ENDBRANCH  75 100
ENDBRANCH  49  50
ENDBRANCH  41  44
ENDBRANCH  39  40
ENDBRANCH  38  39
ENDBRANCH  37  38
ENDBRANCH   1  37
TORSDOF 21
ENDMDL
MODEL 2
REMARK VINA RESULT:      -7.5      7.711     14.527
REMARK SMILES NS(=O)(=O)c1ccc(C#Cc2cc(Cl)cc3c2O[C@H](C(F)(F)F)C(C(=O)NCCCCCCNC(=O)c2ccc(-c4c5nc(c(-c6c(F)cc(S(=O)(=O)[O-])cc6F)c6ccc([nH]6)c(-c6c(F)cc(S(=O)(=O)[O-])cc6F)c6nc(c(-c7c(F)cc(S(=O)(=O)[O-])cc7F)c7ccc4[nH]7)C=C6)C=C5)cc2)=C3)cc1
REMARK SMILES IDX 30 1 29 2 28 3 27 4 25 5 26 6 24 8 11 9 12 10 17 11 13 12
REMARK SMILES IDX 16 13 18 14 14 15 15 16 103 17 19 18 10 19 9 20 8 21 5 22
REMARK SMILES IDX 6 23 105 24 7 25 104 26 2 27 3 28 4 29 1 30 20 33 21 34
REMARK SMILES IDX 22 35 23 36 31 37 32 38 33 39 34 40 35 41 36 43 37 44 38 45
REMARK SMILES IDX 102 46 39 47 101 48 40 49 41 50 42 51 95 52 43 53 100 54
REMARK SMILES IDX 94 55 96 56 44 57 99 58 93 59 92 60 45 62 79 63 58 64 78 65
REMARK SMILES IDX 59 66 62 67 77 68 97 69 60 70 61 71 76 73 98 74 63 75 46 76
REMARK SMILES IDX 47 77 56 78 48 79 49 80 55 81 57 82 50 83 51 84 52 85 53 86
REMARK SMILES IDX 54 87 80 88 81 89 90 90 82 91 83 92 89 93 91 94 84 95 85 96
REMARK SMILES IDX 86 97 87 98 88 99 64 100 65 101 74 102 66 103 67 104 73 105
REMARK SMILES IDX 75 106 68 107 69 108 70 109 71 110 72 111
REMARK H PARENT 27 7 1 31 1 32 34 42 96 61 62 72
REMARK Flexibility Score: inf
ROOT
ATOM      1  C   UNL A   1      43.071  43.544  31.382  1.00  0.00     0.002 C 
ENDROOT
BRANCH   1   2
ATOM      2  C   UNL A   1      44.370  43.184  30.661  1.00  0.00     0.021 C 
BRANCH   2   3
ATOM      3  C   UNL A   1      44.301  41.837  29.952  1.00  0.00     0.116 C 
BRANCH   3   4
ATOM      4  N   UNL A   1      44.561  41.965  28.527  1.00  0.00    -0.352 N 
ATOM      5  C   UNL A   1      44.485  41.172  27.432  1.00  0.00     0.251 C 
ATOM      6  O   UNL A   1      44.785  41.708  26.361  1.00  0.00    -0.270 OA
ATOM      7  H   UNL A   1      44.875  42.869  28.297  1.00  0.00     0.163 HD
BRANCH   5   8
ATOM      8  C   UNL A   1      44.076  39.736  27.450  1.00  0.00     0.067 C 
ATOM      9  C   UNL A   1      43.096  35.654  27.655  1.00  0.00     0.069 A 
ATOM     10  C   UNL A   1      43.951  34.705  27.100  1.00  0.00     0.041 A 
ATOM     11  C   UNL A   1      43.446  37.009  27.611  1.00  0.00     0.143 A 
ATOM     12  C   UNL A   1      45.145  35.120  26.508  1.00  0.00     0.043 A 
ATOM     13  C   UNL A   1      44.642  37.427  27.020  1.00  0.00     0.020 A 
ATOM     14  O   UNL A   1      42.597  37.883  28.220  1.00  0.00    -0.474 OA
ATOM     15  Cl  UNL A   1      46.209  33.946  25.834  1.00  0.00    -0.084 Cl
ATOM     16  C   UNL A   1      45.495  36.472  26.463  1.00  0.00     0.032 A 
ATOM     17  C   UNL A   1      44.994  38.844  27.034  1.00  0.00     0.025 C 
ATOM     18  C   UNL A   1      42.710  39.277  27.866  1.00  0.00     0.314 C 
BRANCH   9  19
ATOM     19  C   UNL A   1      41.868  35.249  28.279  1.00  0.00    -0.058 C 
ATOM     20  C   UNL A   1      40.832  34.974  28.824  1.00  0.00    -0.062 C 
BRANCH  20  21
ATOM     21  C   UNL A   1      39.633  34.655  29.536  1.00  0.00     0.025 A 
ATOM     22  C   UNL A   1      37.250  34.248  30.928  1.00  0.00     0.082 A 
ATOM     23  C   UNL A   1      38.394  34.650  31.620  1.00  0.00     0.023 A 
ATOM     24  C   UNL A   1      37.301  33.997  29.553  1.00  0.00     0.023 A 
ATOM     25  C   UNL A   1      39.586  34.852  30.919  1.00  0.00     0.018 A 
ATOM     26  C   UNL A   1      38.495  34.205  28.856  1.00  0.00     0.018 A 
BRANCH  22  27
ATOM     27  S   UNL A   1      35.698  34.071  31.758  1.00  0.00     0.238 S 
ATOM     28  O   UNL A   1      35.823  33.041  32.757  1.00  0.00    -0.207 OA
ATOM     29  O   UNL A   1      34.657  34.088  30.756  1.00  0.00    -0.207 OA
BRANCH  27  30
ATOM     30  N   UNL A   1      35.510  35.504  32.625  1.00  0.00    -0.225 NA
ATOM     31  H   UNL A   1      35.843  36.287  32.063  1.00  0.00     0.137 HD
ATOM     32  H   UNL A   1      36.048  35.452  33.489  1.00  0.00     0.137 HD
ENDBRANCH  27  30
ENDBRANCH  22  27
ENDBRANCH  20  21
ENDBRANCH   9  19
BRANCH  18  33
ATOM     33  C   UNL A   1      41.625  39.626  26.831  1.00  0.00     0.429 C 
ATOM     34  F   UNL A   1      40.944  38.516  26.462  1.00  0.00    -0.167 F 
ATOM     35  F   UNL A   1      40.708  40.499  27.311  1.00  0.00    -0.167 F 
ATOM     36  F   UNL A   1      42.145  40.183  25.712  1.00  0.00    -0.167 F 
ENDBRANCH  18  33
ENDBRANCH   5   8
ENDBRANCH   3   4
ENDBRANCH   2   3
ENDBRANCH   1   2
BRANCH   1  37
ATOM     37  C   UNL A   1      42.974  43.028  32.825  1.00  0.00     0.002 C 
BRANCH  37  38
ATOM     38  C   UNL A   1      42.528  41.571  32.959  1.00  0.00     0.021 C 
BRANCH  38  39
ATOM     39  C   UNL A   1      43.379  40.751  33.916  1.00  0.00     0.116 C 
BRANCH  39  40
ATOM     40  N   UNL A   1      44.794  41.087  33.815  1.00  0.00    -0.352 N 
ATOM     41  C   UNL A   1      45.843  40.306  33.390  1.00  0.00     0.251 C 
ATOM     42  H   UNL A   1      45.031  42.001  34.089  1.00  0.00     0.163 HD
ATOM     43  O   UNL A   1      46.999  40.679  33.558  1.00  0.00    -0.269 OA
BRANCH  41  44
ATOM     44  C   UNL A   1      45.554  39.002  32.761  1.00  0.00     0.039 A 
ATOM     45  C   UNL A   1      45.860  37.821  33.440  1.00  0.00     0.014 A 
ATOM     46  C   UNL A   1      45.047  38.959  31.462  1.00  0.00     0.014 A 
ATOM     47  C   UNL A   1      45.865  36.620  32.746  1.00  0.00     0.010 A 
ATOM     48  C   UNL A   1      44.942  37.731  30.805  1.00  0.00     0.010 A 
ATOM     49  C   UNL A   1      45.417  36.558  31.415  1.00  0.00    -0.014 A 
BRANCH  49  50
ATOM     50  C   UNL A   1      45.500  35.265  30.685  1.00  0.00     0.031 A 
ATOM     51  C   UNL A   1      46.723  34.915  29.874  1.00  0.00     0.074 A 
ATOM     52  C   UNL A   1      44.504  34.366  30.822  1.00  0.00     0.049 A 
ATOM     53  N   UNL A   1      46.989  33.812  29.220  1.00  0.00    -0.248 NA
ATOM     54  C   UNL A   1      47.784  35.930  29.777  1.00  0.00     0.031 C 
ATOM     55  C   UNL A   1      43.275  34.584  31.590  1.00  0.00     0.029 A 
ATOM     56  N   UNL A   1      44.376  33.082  30.354  1.00  0.00    -0.354 N 
ATOM     57  C   UNL A   1      48.234  34.004  28.630  1.00  0.00     0.074 A 
ATOM     58  C   UNL A   1      48.651  35.349  28.959  1.00  0.00     0.031 C 
ATOM     59  C   UNL A   1      42.553  33.455  31.596  1.00  0.00     0.029 A 
ATOM     60  C   UNL A   1      43.225  32.456  30.771  1.00  0.00     0.049 A 
ATOM     61  H   UNL A   1      45.046  32.650  29.775  1.00  0.00     0.167 HD
ATOM     62  C   UNL A   1      48.974  33.133  27.904  1.00  0.00     0.037 A 
ATOM     63  C   UNL A   1      42.751  31.222  30.510  1.00  0.00     0.037 A 
ATOM     64  C   UNL A   1      48.562  31.787  27.599  1.00  0.00     0.049 A 
ATOM     65  C   UNL A   1      43.559  30.300  29.642  1.00  0.00     0.074 A 
ATOM     66  C   UNL A   1      49.253  30.820  26.890  1.00  0.00     0.029 A 
ATOM     67  N   UNL A   1      47.357  31.217  27.981  1.00  0.00    -0.354 N 
ATOM     68  N   UNL A   1      44.748  30.491  29.121  1.00  0.00    -0.248 NA
ATOM     69  C   UNL A   1      42.961  28.998  29.314  1.00  0.00     0.031 C 
ATOM     70  C   UNL A   1      48.439  29.688  26.789  1.00  0.00     0.029 A 
ATOM     71  C   UNL A   1      47.267  29.926  27.488  1.00  0.00     0.049 A 
ATOM     72  H   UNL A   1      46.666  31.664  28.523  1.00  0.00     0.167 HD
ATOM     73  C   UNL A   1      45.044  29.330  28.416  1.00  0.00     0.074 A 
ATOM     74  C   UNL A   1      43.923  28.433  28.596  1.00  0.00     0.031 C 
ATOM     75  C   UNL A   1      46.144  29.040  27.677  1.00  0.00     0.037 A 
BRANCH  62  76
ATOM     76  C   UNL A   1      50.308  33.597  27.383  1.00  0.00     0.058 A 
ATOM     77  C   UNL A   1      50.439  34.208  26.126  1.00  0.00     0.135 A 
ATOM     78  C   UNL A   1      51.461  33.494  28.181  1.00  0.00     0.135 A 
ATOM     79  F   UNL A   1      49.375  34.320  25.314  1.00  0.00    -0.206 F 
ATOM     80  C   UNL A   1      51.665  34.682  25.670  1.00  0.00     0.059 A 
ATOM     81  C   UNL A   1      52.692  33.990  27.758  1.00  0.00     0.059 A 
ATOM     82  F   UNL A   1      51.396  32.921  29.393  1.00  0.00    -0.206 F 
ATOM     83  C   UNL A   1      52.785  34.573  26.496  1.00  0.00     0.060 A 
BRANCH  83  84
ATOM     84  S   UNL A   1      54.362  35.207  25.888  1.00  0.00     0.124 S 
ATOM     85  O   UNL A   1      54.053  35.460  24.483  1.00  0.00    -0.237 OA
ATOM     86  O   UNL A   1      54.558  36.392  26.716  1.00  0.00    -0.237 OA
ATOM     87  O   UNL A   1      55.291  34.109  26.135  1.00  0.00    -0.744 OA
ENDBRANCH  83  84
ENDBRANCH  62  76
BRANCH  63  88
ATOM     88  C   UNL A   1      41.441  30.798  31.077  1.00  0.00     0.058 A 
ATOM     89  C   UNL A   1      41.348  30.297  32.384  1.00  0.00     0.135 A 
ATOM     90  C   UNL A   1      40.253  30.915  30.337  1.00  0.00     0.135 A 
ATOM     91  F   UNL A   1      42.454  30.158  33.129  1.00  0.00    -0.206 F 
ATOM     92  C   UNL A   1      40.127  29.919  32.933  1.00  0.00     0.059 A 
ATOM     93  C   UNL A   1      39.017  30.576  30.876  1.00  0.00     0.059 A 
ATOM     94  F   UNL A   1      40.284  31.402  29.086  1.00  0.00    -0.206 F 
ATOM     95  C   UNL A   1      38.965  30.072  32.174  1.00  0.00     0.060 A 
BRANCH  95  96
ATOM     96  S   UNL A   1      37.382  29.628  32.920  1.00  0.00     0.124 S 
ATOM     97  O   UNL A   1      37.395  30.429  34.138  1.00  0.00    -0.237 OA
ATOM     98  O   UNL A   1      36.436  30.043  31.890  1.00  0.00    -0.237 OA
ATOM     99  O   UNL A   1      37.495  28.185  33.115  1.00  0.00    -0.744 OA
ENDBRANCH  95  96
ENDBRANCH  63  88
BRANCH  75 100
ATOM    100  C   UNL A   1      46.200  27.701  26.995  1.00  0.00     0.058 A 
ATOM    101  C   UNL A   1      46.555  26.540  27.698  1.00  0.00     0.135 A 
ATOM    102  C   UNL A   1      45.791  27.559  25.658  1.00  0.00     0.135 A 
ATOM    103  F   UNL A   1      46.962  26.620  28.975  1.00  0.00    -0.206 F 
ATOM    104  C   UNL A   1      46.503  25.284  27.101  1.00  0.00     0.059 A 
ATOM    105  C   UNL A   1      45.701  26.310  25.051  1.00  0.00     0.059 A 
ATOM    106  F   UNL A   1      45.432  28.636  24.942  1.00  0.00    -0.206 F 
ATOM    107  C   UNL A   1      46.060  25.179  25.781  1.00  0.00     0.060 A 
BRANCH 107 108
ATOM    108  S   UNL A   1      45.927  23.534  25.050  1.00  0.00     0.124 S 
ATOM    109  O   UNL A   1      46.402  22.687  26.140  1.00  0.00    -0.237 OA
ATOM    110  O   UNL A   1      44.501  23.444  24.752  1.00  0.00    -0.237 OA
ATOM    111  O   UNL A   1      46.804  23.604  23.885  1.00  0.00    -0.744 OA
ENDBRANCH 107 108
ENDBRANCH  75 100
ENDBRANCH  49  50
ENDBRANCH  41  44
ENDBRANCH  39  40
ENDBRANCH  38  39
ENDBRANCH  37  38
ENDBRANCH   1  37
TORSDOF 21
ENDMDL
MODEL 3
REMARK VINA RESULT:      -7.4      5.088      8.474
REMARK SMILES NS(=O)(=O)c1ccc(C#Cc2cc(Cl)cc3c2O[C@H](C(F)(F)F)C(C(=O)NCCCCCCNC(=O)c2ccc(-c4c5nc(c(-c6c(F)cc(S(=O)(=O)[O-])cc6F)c6ccc([nH]6)c(-c6c(F)cc(S(=O)(=O)[O-])cc6F)c6nc(c(-c7c(F)cc(S(=O)(=O)[O-])cc7F)c7ccc4[nH]7)C=C6)C=C5)cc2)=C3)cc1
REMARK SMILES IDX 30 1 29 2 28 3 27 4 25 5 26 6 24 8 11 9 12 10 17 11 13 12
REMARK SMILES IDX 16 13 18 14 14 15 15 16 103 17 19 18 10 19 9 20 8 21 5 22
REMARK SMILES IDX 6 23 105 24 7 25 104 26 2 27 3 28 4 29 1 30 20 33 21 34
REMARK SMILES IDX 22 35 23 36 31 37 32 38 33 39 34 40 35 41 36 43 37 44 38 45
REMARK SMILES IDX 102 46 39 47 101 48 40 49 41 50 42 51 95 52 43 53 100 54
REMARK SMILES IDX 94 55 96 56 44 57 99 58 93 59 92 60 45 62 79 63 58 64 78 65
REMARK SMILES IDX 59 66 62 67 77 68 97 69 60 70 61 71 76 73 98 74 63 75 46 76
REMARK SMILES IDX 47 77 56 78 48 79 49 80 55 81 57 82 50 83 51 84 52 85 53 86
REMARK SMILES IDX 54 87 80 88 81 89 90 90 82 91 83 92 89 93 91 94 84 95 85 96
REMARK SMILES IDX 86 97 87 98 88 99 64 100 65 101 74 102 66 103 67 104 73 105
REMARK SMILES IDX 75 106 68 107 69 108 70 109 71 110 72 111
REMARK H PARENT 27 7 1 31 1 32 34 42 96 61 62 72
REMARK Flexibility Score: inf
ROOT
ATOM      1  C   UNL A   1      47.892  25.694  27.795  1.00  0.00     0.002 C 
ENDROOT
BRANCH   1   2
ATOM      2  C   UNL A   1      46.435  25.271  27.607  1.00  0.00     0.021 C 
BRANCH   2   3
ATOM      3  C   UNL A   1      45.517  26.439  27.269  1.00  0.00     0.116 C 
BRANCH   3   4
ATOM      4  N   UNL A   1      44.658  26.790  28.389  1.00  0.00    -0.352 N 
ATOM      5  C   UNL A   1      43.470  26.378  28.891  1.00  0.00     0.251 C 
ATOM      6  O   UNL A   1      43.096  26.951  29.919  1.00  0.00    -0.270 OA
ATOM      7  H   UNL A   1      45.042  27.521  28.924  1.00  0.00     0.163 HD
BRANCH   5   8
ATOM      8  C   UNL A   1      42.618  25.309  28.291  1.00  0.00     0.067 C 
ATOM      9  C   UNL A   1      40.165  22.229  26.819  1.00  0.00     0.069 A 
ATOM     10  C   UNL A   1      40.577  20.903  26.923  1.00  0.00     0.041 A 
ATOM     11  C   UNL A   1      40.973  23.246  27.342  1.00  0.00     0.143 A 
ATOM     12  C   UNL A   1      41.790  20.608  27.548  1.00  0.00     0.043 A 
ATOM     13  C   UNL A   1      42.188  22.954  27.969  1.00  0.00     0.020 A 
ATOM     14  O   UNL A   1      40.491  24.517  27.259  1.00  0.00    -0.474 OA
ATOM     15  Cl  UNL A   1      42.293  18.968  27.689  1.00  0.00    -0.084 Cl
ATOM     16  C   UNL A   1      42.598  21.623  28.069  1.00  0.00     0.032 A 
ATOM     17  C   UNL A   1      42.981  24.038  28.541  1.00  0.00     0.025 C 
ATOM     18  C   UNL A   1      41.432  25.599  27.419  1.00  0.00     0.314 C 
BRANCH   9  19
ATOM     19  C   UNL A   1      38.916  22.555  26.191  1.00  0.00    -0.058 C 
ATOM     20  C   UNL A   1      37.904  22.869  25.622  1.00  0.00    -0.062 C 
BRANCH  20  21
ATOM     21  C   UNL A   1      36.706  23.308  24.976  1.00  0.00     0.025 A 
ATOM     22  C   UNL A   1      34.474  24.353  23.669  1.00  0.00     0.082 A 
ATOM     23  C   UNL A   1      34.744  24.733  24.985  1.00  0.00     0.023 A 
ATOM     24  C   UNL A   1      35.282  23.415  23.019  1.00  0.00     0.023 A 
ATOM     25  C   UNL A   1      35.862  24.207  25.637  1.00  0.00     0.018 A 
ATOM     26  C   UNL A   1      36.402  22.895  23.674  1.00  0.00     0.018 A 
BRANCH  22  27
ATOM     27  S   UNL A   1      33.125  25.065  22.773  1.00  0.00     0.238 S 
ATOM     28  O   UNL A   1      33.511  25.205  21.392  1.00  0.00    -0.207 OA
ATOM     29  O   UNL A   1      32.592  26.150  23.565  1.00  0.00    -0.207 OA
BRANCH  27  30
ATOM     30  N   UNL A   1      31.931  23.876  22.779  1.00  0.00    -0.225 NA
ATOM     31  H   UNL A   1      31.735  23.587  21.821  1.00  0.00     0.137 HD
ATOM     32  H   UNL A   1      31.082  24.248  23.203  1.00  0.00     0.137 HD
ENDBRANCH  27  30
ENDBRANCH  22  27
ENDBRANCH  20  21
ENDBRANCH   9  19
BRANCH  18  33
ATOM     33  C   UNL A   1      41.833  26.130  26.030  1.00  0.00     0.429 C 
ATOM     34  F   UNL A   1      42.214  27.427  26.109  1.00  0.00    -0.167 F 
ATOM     35  F   UNL A   1      42.876  25.454  25.494  1.00  0.00    -0.167 F 
ATOM     36  F   UNL A   1      40.818  26.051  25.139  1.00  0.00    -0.167 F 
ENDBRANCH  18  33
ENDBRANCH   5   8
ENDBRANCH   3   4
ENDBRANCH   2   3
ENDBRANCH   1   2
BRANCH   1  37
ATOM     37  C   UNL A   1      48.777  25.518  26.552  1.00  0.00     0.002 C 
BRANCH  37  38
ATOM     38  C   UNL A   1      50.264  25.312  26.844  1.00  0.00     0.021 C 
BRANCH  38  39
ATOM     39  C   UNL A   1      50.964  26.551  27.384  1.00  0.00     0.116 C 
BRANCH  39  40
ATOM     40  N   UNL A   1      51.368  27.459  26.318  1.00  0.00    -0.352 N 
ATOM     41  C   UNL A   1      50.798  28.647  25.928  1.00  0.00     0.251 C 
ATOM     42  H   UNL A   1      52.162  27.182  25.806  1.00  0.00     0.163 HD
ATOM     43  O   UNL A   1      51.144  29.185  24.882  1.00  0.00    -0.269 OA
BRANCH  41  44
ATOM     44  C   UNL A   1      49.741  29.243  26.770  1.00  0.00     0.039 A 
ATOM     45  C   UNL A   1      50.085  29.932  27.933  1.00  0.00     0.014 A 
ATOM     46  C   UNL A   1      48.400  29.046  26.435  1.00  0.00     0.014 A 
ATOM     47  C   UNL A   1      49.101  30.230  28.864  1.00  0.00     0.010 A 
ATOM     48  C   UNL A   1      47.403  29.456  27.325  1.00  0.00     0.010 A 
ATOM     49  C   UNL A   1      47.747  29.986  28.579  1.00  0.00    -0.014 A 
BRANCH  49  50
ATOM     50  C   UNL A   1      46.727  30.259  29.628  1.00  0.00     0.031 A 
ATOM     51  C   UNL A   1      45.931  31.541  29.613  1.00  0.00     0.074 A 
ATOM     52  C   UNL A   1      46.459  29.310  30.548  1.00  0.00     0.049 A 
ATOM     53  N   UNL A   1      44.967  31.919  30.414  1.00  0.00    -0.248 NA
ATOM     54  C   UNL A   1      46.259  32.529  28.573  1.00  0.00     0.031 C 
ATOM     55  C   UNL A   1      47.153  28.024  30.656  1.00  0.00     0.029 A 
ATOM     56  N   UNL A   1      45.514  29.259  31.542  1.00  0.00    -0.354 N 
ATOM     57  C   UNL A   1      44.582  33.184  29.983  1.00  0.00     0.074 A 
ATOM     58  C   UNL A   1      45.451  33.535  28.881  1.00  0.00     0.031 C 
ATOM     59  C   UNL A   1      46.570  27.288  31.613  1.00  0.00     0.029 A 
ATOM     60  C   UNL A   1      45.512  28.073  32.239  1.00  0.00     0.049 A 
ATOM     61  H   UNL A   1      44.897  30.001  31.738  1.00  0.00     0.167 HD
ATOM     62  C   UNL A   1      43.582  33.971  30.444  1.00  0.00     0.037 A 
ATOM     63  C   UNL A   1      44.755  27.665  33.276  1.00  0.00     0.037 A 
ATOM     64  C   UNL A   1      42.704  33.606  31.527  1.00  0.00     0.049 A 
ATOM     65  C   UNL A   1      43.697  28.586  33.814  1.00  0.00     0.074 A 
ATOM     66  C   UNL A   1      41.645  34.326  32.051  1.00  0.00     0.029 A 
ATOM     67  N   UNL A   1      42.783  32.426  32.251  1.00  0.00    -0.354 N 
ATOM     68  N   UNL A   1      43.330  29.766  33.371  1.00  0.00    -0.248 NA
ATOM     69  C   UNL A   1      42.958  28.132  35.000  1.00  0.00     0.031 C 
ATOM     70  C   UNL A   1      41.124  33.610  33.132  1.00  0.00     0.029 A 
ATOM     71  C   UNL A   1      41.817  32.416  33.243  1.00  0.00     0.049 A 
ATOM     72  H   UNL A   1      43.429  31.702  32.084  1.00  0.00     0.167 HD
ATOM     73  C   UNL A   1      42.309  30.187  34.215  1.00  0.00     0.074 A 
ATOM     74  C   UNL A   1      42.100  29.128  35.179  1.00  0.00     0.031 C 
ATOM     75  C   UNL A   1      41.616  31.352  34.198  1.00  0.00     0.037 A 
BRANCH  62  76
ATOM     76  C   UNL A   1      43.369  35.309  29.786  1.00  0.00     0.058 A 
ATOM     77  C   UNL A   1      44.015  36.468  30.244  1.00  0.00     0.135 A 
ATOM     78  C   UNL A   1      42.566  35.420  28.638  1.00  0.00     0.135 A 
ATOM     79  F   UNL A   1      44.782  36.425  31.345  1.00  0.00    -0.206 F 
ATOM     80  C   UNL A   1      43.856  37.693  29.602  1.00  0.00     0.059 A 
ATOM     81  C   UNL A   1      42.419  36.629  27.960  1.00  0.00     0.059 A 
ATOM     82  F   UNL A   1      41.926  34.345  28.153  1.00  0.00    -0.206 F 
ATOM     83  C   UNL A   1      43.060  37.761  28.457  1.00  0.00     0.060 A 
BRANCH  83  84
ATOM     84  S   UNL A   1      42.881  39.358  27.634  1.00  0.00     0.124 S 
ATOM     85  O   UNL A   1      43.987  39.320  26.680  1.00  0.00    -0.237 OA
ATOM     86  O   UNL A   1      41.545  39.259  27.057  1.00  0.00    -0.237 OA
ATOM     87  O   UNL A   1      43.026  40.322  28.720  1.00  0.00    -0.744 OA
ENDBRANCH  83  84
ENDBRANCH  62  76
BRANCH  63  88
ATOM     88  C   UNL A   1      44.980  26.318  33.869  1.00  0.00     0.058 A 
ATOM     89  C   UNL A   1      44.407  25.172  33.300  1.00  0.00     0.135 A 
ATOM     90  C   UNL A   1      45.798  26.147  34.999  1.00  0.00     0.135 A 
ATOM     91  F   UNL A   1      43.613  25.282  32.225  1.00  0.00    -0.206 F 
ATOM     92  C   UNL A   1      44.629  23.906  33.832  1.00  0.00     0.059 A 
ATOM     93  C   UNL A   1      46.062  24.888  35.528  1.00  0.00     0.059 A 
ATOM     94  F   UNL A   1      46.382  27.209  35.575  1.00  0.00    -0.206 F 
ATOM     95  C   UNL A   1      45.467  23.773  34.942  1.00  0.00     0.060 A 
BRANCH  95  96
ATOM     96  S   UNL A   1      45.788  22.119  35.587  1.00  0.00     0.124 S 
ATOM     97  O   UNL A   1      47.206  21.956  35.290  1.00  0.00    -0.237 OA
ATOM     98  O   UNL A   1      45.442  22.272  36.996  1.00  0.00    -0.237 OA
ATOM     99  O   UNL A   1      44.882  21.274  34.814  1.00  0.00    -0.744 OA
ENDBRANCH  95  96
ENDBRANCH  63  88
BRANCH  75 100
ATOM    100  C   UNL A   1      40.563  31.561  35.252  1.00  0.00     0.058 A 
ATOM    101  C   UNL A   1      40.822  32.330  36.396  1.00  0.00     0.135 A 
ATOM    102  C   UNL A   1      39.255  31.083  35.063  1.00  0.00     0.135 A 
ATOM    103  F   UNL A   1      42.056  32.803  36.629  1.00  0.00    -0.206 F 
ATOM    104  C   UNL A   1      39.821  32.618  37.319  1.00  0.00     0.059 A 
ATOM    105  C   UNL A   1      38.232  31.386  35.957  1.00  0.00     0.059 A 
ATOM    106  F   UNL A   1      38.952  30.351  33.981  1.00  0.00    -0.206 F 
ATOM    107  C   UNL A   1      38.526  32.153  37.082  1.00  0.00     0.060 A 
BRANCH 107 108
ATOM    108  S   UNL A   1      37.227  32.602  38.253  1.00  0.00     0.124 S 
ATOM    109  O   UNL A   1      36.824  31.295  38.763  1.00  0.00    -0.237 OA
ATOM    110  O   UNL A   1      37.943  33.456  39.194  1.00  0.00    -0.237 OA
ATOM    111  O   UNL A   1      36.238  33.281  37.422  1.00  0.00    -0.744 OA
ENDBRANCH 107 108
ENDBRANCH  75 100
ENDBRANCH  49  50
ENDBRANCH  41  44
ENDBRANCH  39  40
ENDBRANCH  38  39
ENDBRANCH  37  38
ENDBRANCH   1  37
TORSDOF 21
ENDMDL
