MODEL 1
REMARK VINA RESULT:     -12.3      0.000      0.000
REMARK SMILES CCc1cc(C(=O)c2[nH]c3cc(Cl)ccc3c2CC(=O)NCCCCCCNC(=O)c2ccc(-c3c4nc(c(-c5c(F)cc(S(=O)(=O)[O-])cc5F)c5ccc([nH]5)c(-c5c(F)cc(S(=O)(=O)[O-])cc5F)c5nc(c(-c6c(F)cc(S(=O)(=O)[O-])cc6F)c6ccc3[nH]6)C=C5)C=C4)cc2)ncc1Cl
REMARK SMILES IDX 24 1 23 2 22 3 21 4 19 5 20 6 18 8 17 9 8 10 9 11 10 12
REMARK SMILES IDX 16 14 11 15 15 16 12 17 14 18 13 19 6 20 7 21 5 22 3 23 4 24
REMARK SMILES IDX 99 25 98 26 100 27 97 28 2 29 1 30 25 31 26 32 27 33 28 34
REMARK SMILES IDX 29 35 30 37 31 38 32 39 96 40 33 41 95 42 34 43 35 44 36 45
REMARK SMILES IDX 89 46 37 47 94 48 88 49 90 50 38 51 93 52 87 53 86 54 39 56
REMARK SMILES IDX 73 57 52 58 72 59 53 60 56 61 71 62 91 63 54 64 55 65 70 67
REMARK SMILES IDX 92 68 57 69 40 70 41 71 50 72 42 73 43 74 49 75 51 76 44 77
REMARK SMILES IDX 45 78 46 79 47 80 48 81 74 82 75 83 84 84 76 85 77 86 83 87
REMARK SMILES IDX 85 88 78 89 79 90 80 91 81 92 82 93 58 94 59 95 68 96 60 97
REMARK SMILES IDX 61 98 67 99 69 100 62 101 63 102 64 103 65 104 66 105
REMARK H PARENT 21 7 9 13 28 36 90 55 56 66
REMARK Flexibility Score: inf
ROOT
ATOM      1  C   UNL A   1      32.422  30.000  26.713  1.00  0.00     0.002 C 
ENDROOT
BRANCH   1   2
ATOM      2  C   UNL A   1      32.053  28.612  27.250  1.00  0.00     0.021 C 
BRANCH   2   3
ATOM      3  C   UNL A   1      31.856  27.536  26.183  1.00  0.00     0.116 C 
BRANCH   3   4
ATOM      4  N   UNL A   1      31.320  26.302  26.722  1.00  0.00    -0.356 N 
ATOM      5  C   UNL A   1      31.774  25.023  26.573  1.00  0.00     0.224 C 
ATOM      6  O   UNL A   1      31.232  24.128  27.227  1.00  0.00    -0.275 OA
ATOM      7  H   UNL A   1      30.512  26.400  27.277  1.00  0.00     0.163 HD
BRANCH   5   8
ATOM      8  C   UNL A   1      32.990  24.724  25.712  1.00  0.00     0.138 C 
BRANCH   8   9
ATOM      9  C   UNL A   1      32.698  24.016  24.420  1.00  0.00    -0.002 A 
ATOM     10  C   UNL A   1      32.404  24.586  23.184  1.00  0.00     0.093 A 
ATOM     11  N   UNL A   1      32.294  23.561  22.273  1.00  0.00    -0.351 N 
ATOM     12  C   UNL A   1      32.343  22.343  22.904  1.00  0.00     0.048 A 
ATOM     13  H   UNL A   1      32.192  23.684  21.302  1.00  0.00     0.167 HD
ATOM     14  C   UNL A   1      32.597  22.592  24.252  1.00  0.00     0.004 A 
ATOM     15  C   UNL A   1      32.197  21.054  22.380  1.00  0.00     0.047 A 
ATOM     16  C   UNL A   1      32.710  21.487  25.125  1.00  0.00     0.012 A 
ATOM     17  C   UNL A   1      32.305  19.983  23.271  1.00  0.00     0.043 A 
ATOM     18  C   UNL A   1      32.560  20.189  24.623  1.00  0.00     0.021 A 
ATOM     19  Cl  UNL A   1      32.111  18.378  22.680  1.00  0.00    -0.084 Cl
BRANCH  10  20
ATOM     20  C   UNL A   1      32.291  25.984  22.810  1.00  0.00     0.227 C 
ATOM     21  O   UNL A   1      33.245  26.598  22.345  1.00  0.00    -0.285 OA
BRANCH  20  22
ATOM     22  C   UNL A   1      30.941  26.653  22.956  1.00  0.00     0.113 A 
ATOM     23  C   UNL A   1      29.444  28.551  22.725  1.00  0.00    -0.026 A 
ATOM     24  C   UNL A   1      30.704  27.958  22.515  1.00  0.00     0.037 A 
ATOM     25  C   UNL A   1      28.447  27.781  23.330  1.00  0.00     0.062 A 
ATOM     26  C   UNL A   1      28.763  26.486  23.724  1.00  0.00     0.132 A 
ATOM     27  Cl  UNL A   1      26.852  28.367  23.605  1.00  0.00    -0.082 Cl
ATOM     28  N   UNL A   1      29.979  25.915  23.564  1.00  0.00    -0.251 NA
BRANCH  23  29
ATOM     29  C   UNL A   1      29.228  29.977  22.277  1.00  0.00     0.034 C 
ATOM     30  C   UNL A   1      29.004  30.923  23.446  1.00  0.00     0.009 C 
ENDBRANCH  23  29
ENDBRANCH  20  22
ENDBRANCH  10  20
ENDBRANCH   8   9
ENDBRANCH   5   8
ENDBRANCH   3   4
ENDBRANCH   2   3
ENDBRANCH   1   2
BRANCH   1  31
ATOM     31  C   UNL A   1      31.255  30.964  26.482  1.00  0.00     0.002 C 
BRANCH  31  32
ATOM     32  C   UNL A   1      31.604  32.457  26.467  1.00  0.00     0.021 C 
BRANCH  32  33
ATOM     33  C   UNL A   1      32.603  32.919  27.529  1.00  0.00     0.116 C 
BRANCH  33  34
ATOM     34  N   UNL A   1      32.427  34.314  27.892  1.00  0.00    -0.352 N 
ATOM     35  C   UNL A   1      33.106  35.063  28.822  1.00  0.00     0.251 C 
ATOM     36  H   UNL A   1      31.720  34.791  27.401  1.00  0.00     0.163 HD
ATOM     37  O   UNL A   1      32.718  36.199  29.084  1.00  0.00    -0.269 OA
BRANCH  35  38
ATOM     38  C   UNL A   1      34.284  34.507  29.529  1.00  0.00     0.039 A 
ATOM     39  C   UNL A   1      34.087  33.895  30.772  1.00  0.00     0.014 A 
ATOM     40  C   UNL A   1      35.577  34.632  29.009  1.00  0.00     0.014 A 
ATOM     41  C   UNL A   1      35.175  33.363  31.471  1.00  0.00     0.010 A 
ATOM     42  C   UNL A   1      36.661  34.082  29.698  1.00  0.00     0.010 A 
ATOM     43  C   UNL A   1      36.467  33.440  30.931  1.00  0.00    -0.014 A 
BRANCH  43  44
ATOM     44  C   UNL A   1      37.625  32.849  31.643  1.00  0.00     0.031 A 
ATOM     45  C   UNL A   1      38.378  31.696  31.047  1.00  0.00     0.074 A 
ATOM     46  C   UNL A   1      37.968  33.317  32.857  1.00  0.00     0.049 A 
ATOM     47  N   UNL A   1      39.345  30.986  31.570  1.00  0.00    -0.248 NA
ATOM     48  C   UNL A   1      37.983  31.281  29.694  1.00  0.00     0.031 C 
ATOM     49  C   UNL A   1      37.304  34.417  33.557  1.00  0.00     0.029 A 
ATOM     50  N   UNL A   1      38.953  32.914  33.721  1.00  0.00    -0.354 N 
ATOM     51  C   UNL A   1      39.650  30.014  30.628  1.00  0.00     0.074 A 
ATOM     52  C   UNL A   1      38.776  30.236  29.494  1.00  0.00     0.031 C 
ATOM     53  C   UNL A   1      37.901  34.601  34.747  1.00  0.00     0.029 A 
ATOM     54  C   UNL A   1      38.977  33.623  34.897  1.00  0.00     0.049 A 
ATOM     55  H   UNL A   1      39.584  32.186  33.519  1.00  0.00     0.167 HD
ATOM     56  C   UNL A   1      40.567  29.019  30.704  1.00  0.00     0.037 A 
ATOM     57  C   UNL A   1      39.768  33.495  35.978  1.00  0.00     0.037 A 
ATOM     58  C   UNL A   1      41.463  28.809  31.809  1.00  0.00     0.049 A 
ATOM     59  C   UNL A   1      40.829  32.437  36.008  1.00  0.00     0.074 A 
ATOM     60  C   UNL A   1      42.435  27.835  31.961  1.00  0.00     0.029 A 
ATOM     61  N   UNL A   1      41.503  29.594  32.950  1.00  0.00    -0.354 N 
ATOM     62  N   UNL A   1      41.104  31.524  35.108  1.00  0.00    -0.248 NA
ATOM     63  C   UNL A   1      41.689  32.391  37.199  1.00  0.00     0.031 C 
ATOM     64  C   UNL A   1      43.066  28.034  33.197  1.00  0.00     0.029 A 
ATOM     65  C   UNL A   1      42.486  29.133  33.810  1.00  0.00     0.049 A 
ATOM     66  H   UNL A   1      40.917  30.367  33.124  1.00  0.00     0.167 HD
ATOM     67  C   UNL A   1      42.165  30.791  35.626  1.00  0.00     0.074 A 
ATOM     68  C   UNL A   1      42.491  31.374  36.911  1.00  0.00     0.031 C 
ATOM     69  C   UNL A   1      42.804  29.727  35.082  1.00  0.00     0.037 A 
BRANCH  56  70
ATOM     70  C   UNL A   1      40.616  28.071  29.546  1.00  0.00     0.058 A 
ATOM     71  C   UNL A   1      39.761  26.962  29.474  1.00  0.00     0.135 A 
ATOM     72  C   UNL A   1      41.555  28.253  28.519  1.00  0.00     0.135 A 
ATOM     73  F   UNL A   1      38.860  26.739  30.443  1.00  0.00    -0.206 F 
ATOM     74  C   UNL A   1      39.854  26.044  28.433  1.00  0.00     0.059 A 
ATOM     75  C   UNL A   1      41.660  27.352  27.467  1.00  0.00     0.059 A 
ATOM     76  F   UNL A   1      42.401  29.295  28.554  1.00  0.00    -0.206 F 
ATOM     77  C   UNL A   1      40.819  26.238  27.443  1.00  0.00     0.060 A 
BRANCH  77  78
ATOM     78  S   UNL A   1      40.994  25.032  26.111  1.00  0.00     0.124 S 
ATOM     79  O   UNL A   1      41.935  24.086  26.702  1.00  0.00    -0.237 OA
ATOM     80  O   UNL A   1      39.633  24.537  25.931  1.00  0.00    -0.237 OA
ATOM     81  O   UNL A   1      41.514  25.837  25.010  1.00  0.00    -0.744 OA
ENDBRANCH  77  78
ENDBRANCH  56  70
BRANCH  57  82
ATOM     82  C   UNL A   1      39.572  34.410  37.125  1.00  0.00     0.058 A 
ATOM     83  C   UNL A   1      38.894  33.984  38.274  1.00  0.00     0.135 A 
ATOM     84  C   UNL A   1      40.118  35.701  37.116  1.00  0.00     0.135 A 
ATOM     85  F   UNL A   1      38.358  32.755  38.319  1.00  0.00    -0.206 F 
ATOM     86  C   UNL A   1      38.770  34.805  39.389  1.00  0.00     0.059 A 
ATOM     87  C   UNL A   1      40.013  36.539  38.220  1.00  0.00     0.059 A 
ATOM     88  F   UNL A   1      40.784  36.142  36.038  1.00  0.00    -0.206 F 
ATOM     89  C   UNL A   1      39.338  36.081  39.354  1.00  0.00     0.060 A 
BRANCH  89  90
ATOM     90  S   UNL A   1      39.278  37.122  40.829  1.00  0.00     0.124 S 
ATOM     91  O   UNL A   1      38.536  36.274  41.754  1.00  0.00    -0.237 OA
ATOM     92  O   UNL A   1      40.689  37.323  41.141  1.00  0.00    -0.237 OA
ATOM     93  O   UNL A   1      38.577  38.312  40.354  1.00  0.00    -0.744 OA
ENDBRANCH  89  90
ENDBRANCH  57  82
BRANCH  69  94
ATOM     94  C   UNL A   1      43.922  29.128  35.881  1.00  0.00     0.058 A 
ATOM     95  C   UNL A   1      45.222  29.649  35.806  1.00  0.00     0.135 A 
ATOM     96  C   UNL A   1      43.688  28.047  36.743  1.00  0.00     0.135 A 
ATOM     97  F   UNL A   1      45.489  30.681  34.990  1.00  0.00    -0.206 F 
ATOM     98  C   UNL A   1      46.262  29.109  36.555  1.00  0.00     0.059 A 
ATOM     99  C   UNL A   1      44.714  27.493  37.503  1.00  0.00     0.059 A 
ATOM    100  F   UNL A   1      42.460  27.515  36.843  1.00  0.00    -0.206 F 
ATOM    101  C   UNL A   1      46.000  28.026  37.395  1.00  0.00     0.060 A 
BRANCH 101 102
ATOM    102  S   UNL A   1      47.337  27.329  38.390  1.00  0.00     0.124 S 
ATOM    103  O   UNL A   1      46.988  27.804  39.723  1.00  0.00    -0.237 OA
ATOM    104  O   UNL A   1      47.193  25.892  38.171  1.00  0.00    -0.237 OA
ATOM    105  O   UNL A   1      48.531  27.926  37.798  1.00  0.00    -0.744 OA
ENDBRANCH 101 102
ENDBRANCH  69  94
ENDBRANCH  43  44
ENDBRANCH  35  38
ENDBRANCH  33  34
ENDBRANCH  32  33
ENDBRANCH  31  32
ENDBRANCH   1  31
TORSDOF 20
ENDMDL
MODEL 2
REMARK VINA RESULT:     -12.3      0.560      7.951
REMARK SMILES CCc1cc(C(=O)c2[nH]c3cc(Cl)ccc3c2CC(=O)NCCCCCCNC(=O)c2ccc(-c3c4nc(c(-c5c(F)cc(S(=O)(=O)[O-])cc5F)c5ccc([nH]5)c(-c5c(F)cc(S(=O)(=O)[O-])cc5F)c5nc(c(-c6c(F)cc(S(=O)(=O)[O-])cc6F)c6ccc3[nH]6)C=C5)C=C4)cc2)ncc1Cl
REMARK SMILES IDX 24 1 23 2 22 3 21 4 19 5 20 6 18 8 17 9 8 10 9 11 10 12
REMARK SMILES IDX 16 14 11 15 15 16 12 17 14 18 13 19 6 20 7 21 5 22 3 23 4 24
REMARK SMILES IDX 99 25 98 26 100 27 97 28 2 29 1 30 25 31 26 32 27 33 28 34
REMARK SMILES IDX 29 35 30 37 31 38 32 39 96 40 33 41 95 42 34 43 35 44 36 45
REMARK SMILES IDX 89 46 37 47 94 48 88 49 90 50 38 51 93 52 87 53 86 54 39 56
REMARK SMILES IDX 73 57 52 58 72 59 53 60 56 61 71 62 91 63 54 64 55 65 70 67
REMARK SMILES IDX 92 68 57 69 40 70 41 71 50 72 42 73 43 74 49 75 51 76 44 77
REMARK SMILES IDX 45 78 46 79 47 80 48 81 74 82 75 83 84 84 76 85 77 86 83 87
REMARK SMILES IDX 85 88 78 89 79 90 80 91 81 92 82 93 58 94 59 95 68 96 60 97
REMARK SMILES IDX 61 98 67 99 69 100 62 101 63 102 64 103 65 104 66 105
REMARK H PARENT 21 7 9 13 28 36 90 55 56 66
REMARK Flexibility Score: inf
ROOT
ATOM      1  C   UNL A   1      32.250  30.191  26.666  1.00  0.00     0.002 C 
ENDROOT
BRANCH   1   2
ATOM      2  C   UNL A   1      31.786  28.839  27.219  1.00  0.00     0.021 C 
BRANCH   2   3
ATOM      3  C   UNL A   1      31.966  27.654  26.269  1.00  0.00     0.116 C 
BRANCH   3   4
ATOM      4  N   UNL A   1      31.350  26.440  26.764  1.00  0.00    -0.356 N 
ATOM      5  C   UNL A   1      31.729  25.140  26.585  1.00  0.00     0.224 C 
ATOM      6  O   UNL A   1      31.124  24.261  27.203  1.00  0.00    -0.275 OA
ATOM      7  H   UNL A   1      30.540  26.570  27.309  1.00  0.00     0.163 HD
BRANCH   5   8
ATOM      8  C   UNL A   1      32.941  24.795  25.734  1.00  0.00     0.138 C 
BRANCH   8   9
ATOM      9  C   UNL A   1      32.631  24.107  24.434  1.00  0.00    -0.002 A 
ATOM     10  C   UNL A   1      32.278  24.696  23.223  1.00  0.00     0.093 A 
ATOM     11  N   UNL A   1      32.174  23.689  22.291  1.00  0.00    -0.351 N 
ATOM     12  C   UNL A   1      32.285  22.459  22.890  1.00  0.00     0.048 A 
ATOM     13  H   UNL A   1      32.037  23.830  21.326  1.00  0.00     0.167 HD
ATOM     14  C   UNL A   1      32.574  22.685  24.235  1.00  0.00     0.004 A 
ATOM     15  C   UNL A   1      32.166  21.178  22.339  1.00  0.00     0.047 A 
ATOM     16  C   UNL A   1      32.752  21.565  25.076  1.00  0.00     0.012 A 
ATOM     17  C   UNL A   1      32.339  20.091  23.200  1.00  0.00     0.043 A 
ATOM     18  C   UNL A   1      32.630  20.274  24.548  1.00  0.00     0.021 A 
ATOM     19  Cl  UNL A   1      32.181  18.494  22.576  1.00  0.00    -0.084 Cl
BRANCH  10  20
ATOM     20  C   UNL A   1      32.106  26.097  22.886  1.00  0.00     0.227 C 
ATOM     21  O   UNL A   1      33.034  26.765  22.446  1.00  0.00    -0.285 OA
BRANCH  20  22
ATOM     22  C   UNL A   1      30.727  26.702  23.041  1.00  0.00     0.113 A 
ATOM     23  C   UNL A   1      29.131  28.515  22.787  1.00  0.00    -0.026 A 
ATOM     24  C   UNL A   1      30.415  27.979  22.568  1.00  0.00     0.037 A 
ATOM     25  C   UNL A   1      28.187  27.713  23.434  1.00  0.00     0.062 A 
ATOM     26  C   UNL A   1      28.575  26.448  23.858  1.00  0.00     0.132 A 
ATOM     27  Cl  UNL A   1      26.569  28.227  23.725  1.00  0.00    -0.082 Cl
ATOM     28  N   UNL A   1      29.815  25.934  23.690  1.00  0.00    -0.251 NA
BRANCH  23  29
ATOM     29  C   UNL A   1      28.835  29.914  22.303  1.00  0.00     0.034 C 
ATOM     30  C   UNL A   1      29.184  30.970  23.340  1.00  0.00     0.009 C 
ENDBRANCH  23  29
ENDBRANCH  20  22
ENDBRANCH  10  20
ENDBRANCH   8   9
ENDBRANCH   5   8
ENDBRANCH   3   4
ENDBRANCH   2   3
ENDBRANCH   1   2
BRANCH   1  31
ATOM     31  C   UNL A   1      31.153  31.235  26.435  1.00  0.00     0.002 C 
BRANCH  31  32
ATOM     32  C   UNL A   1      31.594  32.702  26.485  1.00  0.00     0.021 C 
BRANCH  32  33
ATOM     33  C   UNL A   1      32.691  33.035  27.498  1.00  0.00     0.116 C 
BRANCH  33  34
ATOM     34  N   UNL A   1      32.790  34.459  27.766  1.00  0.00    -0.352 N 
ATOM     35  C   UNL A   1      33.600  35.122  28.655  1.00  0.00     0.251 C 
ATOM     36  H   UNL A   1      32.190  35.030  27.235  1.00  0.00     0.163 HD
ATOM     37  O   UNL A   1      33.441  36.327  28.837  1.00  0.00    -0.269 OA
BRANCH  35  38
ATOM     38  C   UNL A   1      34.646  34.396  29.415  1.00  0.00     0.039 A 
ATOM     39  C   UNL A   1      35.976  34.515  28.994  1.00  0.00     0.014 A 
ATOM     40  C   UNL A   1      34.326  33.565  30.493  1.00  0.00     0.014 A 
ATOM     41  C   UNL A   1      36.990  33.843  29.683  1.00  0.00     0.010 A 
ATOM     42  C   UNL A   1      35.342  32.910  31.193  1.00  0.00     0.010 A 
ATOM     43  C   UNL A   1      36.681  33.047  30.797  1.00  0.00    -0.014 A 
BRANCH  43  44
ATOM     44  C   UNL A   1      37.749  32.357  31.558  1.00  0.00     0.031 A 
ATOM     45  C   UNL A   1      38.167  32.860  32.908  1.00  0.00     0.074 A 
ATOM     46  C   UNL A   1      38.383  31.306  31.009  1.00  0.00     0.049 A 
ATOM     47  N   UNL A   1      39.148  32.451  33.672  1.00  0.00    -0.248 NA
ATOM     48  C   UNL A   1      37.388  33.974  33.467  1.00  0.00     0.031 C 
ATOM     49  C   UNL A   1      38.089  30.733  29.695  1.00  0.00     0.029 A 
ATOM     50  N   UNL A   1      39.417  30.541  31.485  1.00  0.00    -0.354 N 
ATOM     51  C   UNL A   1      39.132  33.281  34.783  1.00  0.00     0.074 A 
ATOM     52  C   UNL A   1      38.033  34.206  34.603  1.00  0.00     0.031 C 
ATOM     53  C   UNL A   1      38.926  29.707  29.469  1.00  0.00     0.029 A 
ATOM     54  C   UNL A   1      39.822  29.560  30.614  1.00  0.00     0.049 A 
ATOM     55  H   UNL A   1      39.830  30.682  32.367  1.00  0.00     0.167 HD
ATOM     56  C   UNL A   1      39.965  33.281  35.853  1.00  0.00     0.037 A 
ATOM     57  C   UNL A   1      40.811  28.653  30.718  1.00  0.00     0.037 A 
ATOM     58  C   UNL A   1      41.038  32.346  36.060  1.00  0.00     0.049 A 
ATOM     59  C   UNL A   1      41.669  28.619  31.947  1.00  0.00     0.074 A 
ATOM     60  C   UNL A   1      41.921  32.263  37.123  1.00  0.00     0.029 A 
ATOM     61  N   UNL A   1      41.370  31.323  35.186  1.00  0.00    -0.354 N 
ATOM     62  N   UNL A   1      41.642  29.414  32.989  1.00  0.00    -0.248 NA
ATOM     63  C   UNL A   1      42.694  27.568  32.014  1.00  0.00     0.031 C 
ATOM     64  C   UNL A   1      42.786  31.185  36.892  1.00  0.00     0.029 A 
ATOM     65  C   UNL A   1      42.439  30.598  35.687  1.00  0.00     0.049 A 
ATOM     66  H   UNL A   1      40.913  31.139  34.333  1.00  0.00     0.167 HD
ATOM     67  C   UNL A   1      42.647  28.962  33.835  1.00  0.00     0.074 A 
ATOM     68  C   UNL A   1      43.256  27.817  33.189  1.00  0.00     0.031 C 
ATOM     69  C   UNL A   1      43.030  29.458  35.037  1.00  0.00     0.037 A 
BRANCH  56  70
ATOM     70  C   UNL A   1      39.740  34.356  36.870  1.00  0.00     0.058 A 
ATOM     71  C   UNL A   1      40.391  35.595  36.779  1.00  0.00     0.135 A 
ATOM     72  C   UNL A   1      38.895  34.130  37.967  1.00  0.00     0.135 A 
ATOM     73  F   UNL A   1      41.222  35.848  35.756  1.00  0.00    -0.206 F 
ATOM     74  C   UNL A   1      40.235  36.568  37.761  1.00  0.00     0.059 A 
ATOM     75  C   UNL A   1      38.720  35.090  38.956  1.00  0.00     0.059 A 
ATOM     76  F   UNL A   1      38.260  32.954  38.100  1.00  0.00    -0.206 F 
ATOM     77  C   UNL A   1      39.410  36.299  38.855  1.00  0.00     0.060 A 
BRANCH  77  78
ATOM     78  S   UNL A   1      39.234  37.525  40.168  1.00  0.00     0.124 S 
ATOM     79  O   UNL A   1      38.192  38.386  39.620  1.00  0.00    -0.237 OA
ATOM     80  O   UNL A   1      38.845  36.722  41.323  1.00  0.00    -0.237 OA
ATOM     81  O   UNL A   1      40.567  38.115  40.242  1.00  0.00    -0.744 OA
ENDBRANCH  77  78
ENDBRANCH  56  70
BRANCH  57  82
ATOM     82  C   UNL A   1      41.030  27.697  29.610  1.00  0.00     0.058 A 
ATOM     83  C   UNL A   1      42.151  27.811  28.777  1.00  0.00     0.135 A 
ATOM     84  C   UNL A   1      40.160  26.617  29.409  1.00  0.00     0.135 A 
ATOM     85  F   UNL A   1      43.006  28.832  28.939  1.00  0.00    -0.206 F 
ATOM     86  C   UNL A   1      42.411  26.876  27.782  1.00  0.00     0.059 A 
ATOM     87  C   UNL A   1      40.402  25.666  28.425  1.00  0.00     0.059 A 
ATOM     88  F   UNL A   1      39.081  26.468  30.193  1.00  0.00    -0.206 F 
ATOM     89  C   UNL A   1      41.532  25.803  27.616  1.00  0.00     0.060 A 
BRANCH  89  90
ATOM     90  S   UNL A   1      41.911  24.524  26.399  1.00  0.00     0.124 S 
ATOM     91  O   UNL A   1      40.658  23.779  26.359  1.00  0.00    -0.237 OA
ATOM     92  O   UNL A   1      42.230  25.298  25.204  1.00  0.00    -0.237 OA
ATOM     93  O   UNL A   1      43.045  23.830  27.004  1.00  0.00    -0.744 OA
ENDBRANCH  89  90
ENDBRANCH  57  82
BRANCH  69  94
ATOM     94  C   UNL A   1      44.162  28.760  35.727  1.00  0.00     0.058 A 
ATOM     95  C   UNL A   1      43.925  27.680  36.590  1.00  0.00     0.135 A 
ATOM     96  C   UNL A   1      45.490  29.156  35.508  1.00  0.00     0.135 A 
ATOM     97  F   UNL A   1      42.669  27.272  36.831  1.00  0.00    -0.206 F 
ATOM     98  C   UNL A   1      44.971  27.017  37.224  1.00  0.00     0.059 A 
ATOM     99  C   UNL A   1      46.551  28.505  36.130  1.00  0.00     0.059 A 
ATOM    100  F   UNL A   1      45.762  30.187  34.693  1.00  0.00    -0.206 F 
ATOM    101  C   UNL A   1      46.280  27.442  36.993  1.00  0.00     0.060 A 
BRANCH 101 102
ATOM    102  S   UNL A   1      47.649  26.576  37.794  1.00  0.00     0.124 S 
ATOM    103  O   UNL A   1      47.005  25.336  38.213  1.00  0.00    -0.237 OA
ATOM    104  O   UNL A   1      48.629  26.447  36.718  1.00  0.00    -0.237 OA
ATOM    105  O   UNL A   1      48.030  27.486  38.869  1.00  0.00    -0.744 OA
ENDBRANCH 101 102
ENDBRANCH  69  94
ENDBRANCH  43  44
ENDBRANCH  35  38
ENDBRANCH  33  34
ENDBRANCH  32  33
ENDBRANCH  31  32
ENDBRANCH   1  31
TORSDOF 20
ENDMDL
MODEL 3
REMARK VINA RESULT:     -12.3      4.422      9.853
REMARK SMILES CCc1cc(C(=O)c2[nH]c3cc(Cl)ccc3c2CC(=O)NCCCCCCNC(=O)c2ccc(-c3c4nc(c(-c5c(F)cc(S(=O)(=O)[O-])cc5F)c5ccc([nH]5)c(-c5c(F)cc(S(=O)(=O)[O-])cc5F)c5nc(c(-c6c(F)cc(S(=O)(=O)[O-])cc6F)c6ccc3[nH]6)C=C5)C=C4)cc2)ncc1Cl
REMARK SMILES IDX 24 1 23 2 22 3 21 4 19 5 20 6 18 8 17 9 8 10 9 11 10 12
REMARK SMILES IDX 16 14 11 15 15 16 12 17 14 18 13 19 6 20 7 21 5 22 3 23 4 24
REMARK SMILES IDX 99 25 98 26 100 27 97 28 2 29 1 30 25 31 26 32 27 33 28 34
REMARK SMILES IDX 29 35 30 37 31 38 32 39 96 40 33 41 95 42 34 43 35 44 36 45
REMARK SMILES IDX 89 46 37 47 94 48 88 49 90 50 38 51 93 52 87 53 86 54 39 56
REMARK SMILES IDX 73 57 52 58 72 59 53 60 56 61 71 62 91 63 54 64 55 65 70 67
REMARK SMILES IDX 92 68 57 69 40 70 41 71 50 72 42 73 43 74 49 75 51 76 44 77
REMARK SMILES IDX 45 78 46 79 47 80 48 81 74 82 75 83 84 84 76 85 77 86 83 87
REMARK SMILES IDX 85 88 78 89 79 90 80 91 81 92 82 93 58 94 59 95 68 96 60 97
REMARK SMILES IDX 61 98 67 99 69 100 62 101 63 102 64 103 65 104 66 105
REMARK H PARENT 21 7 9 13 28 36 90 55 56 66
REMARK Flexibility Score: inf
ROOT
ATOM      1  C   UNL A   1      31.243  27.193  26.795  1.00  0.00     0.002 C 
ENDROOT
BRANCH   1   2
ATOM      2  C   UNL A   1      31.867  25.819  26.521  1.00  0.00     0.021 C 
BRANCH   2   3
ATOM      3  C   UNL A   1      30.871  24.662  26.430  1.00  0.00     0.116 C 
BRANCH   3   4
ATOM      4  N   UNL A   1      31.482  23.433  25.964  1.00  0.00    -0.356 N 
ATOM      5  C   UNL A   1      31.406  22.839  24.737  1.00  0.00     0.224 C 
ATOM      6  O   UNL A   1      32.111  21.850  24.519  1.00  0.00    -0.275 OA
ATOM      7  H   UNL A   1      32.031  22.957  26.628  1.00  0.00     0.163 HD
BRANCH   5   8
ATOM      8  C   UNL A   1      30.560  23.447  23.630  1.00  0.00     0.138 C 
BRANCH   8   9
ATOM      9  C   UNL A   1      31.080  24.741  23.070  1.00  0.00    -0.002 A 
ATOM     10  C   UNL A   1      32.312  24.973  22.465  1.00  0.00     0.093 A 
ATOM     11  N   UNL A   1      32.318  26.278  22.031  1.00  0.00    -0.351 N 
ATOM     12  C   UNL A   1      31.203  26.944  22.476  1.00  0.00     0.048 A 
ATOM     13  H   UNL A   1      33.025  26.682  21.477  1.00  0.00     0.167 HD
ATOM     14  C   UNL A   1      30.404  26.008  23.131  1.00  0.00     0.004 A 
ATOM     15  C   UNL A   1      30.844  28.289  22.335  1.00  0.00     0.047 A 
ATOM     16  C   UNL A   1      29.176  26.444  23.676  1.00  0.00     0.012 A 
ATOM     17  C   UNL A   1      29.628  28.690  22.894  1.00  0.00     0.043 A 
ATOM     18  C   UNL A   1      28.800  27.787  23.553  1.00  0.00     0.021 A 
ATOM     19  Cl  UNL A   1      29.150  30.339  22.766  1.00  0.00    -0.084 Cl
BRANCH  10  20
ATOM     20  C   UNL A   1      33.413  24.060  22.220  1.00  0.00     0.227 C 
ATOM     21  O   UNL A   1      33.497  23.429  21.173  1.00  0.00    -0.285 OA
BRANCH  20  22
ATOM     22  C   UNL A   1      34.493  23.949  23.276  1.00  0.00     0.113 A 
ATOM     23  C   UNL A   1      36.377  22.824  24.316  1.00  0.00    -0.026 A 
ATOM     24  C   UNL A   1      35.428  22.910  23.280  1.00  0.00     0.037 A 
ATOM     25  C   UNL A   1      36.379  23.827  25.290  1.00  0.00     0.062 A 
ATOM     26  C   UNL A   1      35.425  24.833  25.203  1.00  0.00     0.132 A 
ATOM     27  Cl  UNL A   1      37.512  23.868  26.585  1.00  0.00    -0.082 Cl
ATOM     28  N   UNL A   1      34.482  24.908  24.235  1.00  0.00    -0.251 NA
BRANCH  23  29
ATOM     29  C   UNL A   1      37.348  21.668  24.319  1.00  0.00     0.034 C 
ATOM     30  C   UNL A   1      36.748  20.410  24.928  1.00  0.00     0.009 C 
ENDBRANCH  23  29
ENDBRANCH  20  22
ENDBRANCH  10  20
ENDBRANCH   8   9
ENDBRANCH   5   8
ENDBRANCH   3   4
ENDBRANCH   2   3
ENDBRANCH   1   2
BRANCH   1  31
ATOM     31  C   UNL A   1      31.742  28.345  25.919  1.00  0.00     0.002 C 
BRANCH  31  32
ATOM     32  C   UNL A   1      33.128  28.164  25.289  1.00  0.00     0.021 C 
BRANCH  32  33
ATOM     33  C   UNL A   1      34.303  28.736  26.085  1.00  0.00     0.116 C 
BRANCH  33  34
ATOM     34  N   UNL A   1      33.957  29.956  26.792  1.00  0.00    -0.352 N 
ATOM     35  C   UNL A   1      34.646  30.611  27.783  1.00  0.00     0.251 C 
ATOM     36  H   UNL A   1      33.108  30.373  26.523  1.00  0.00     0.163 HD
ATOM     37  O   UNL A   1      34.122  31.563  28.358  1.00  0.00    -0.269 OA
BRANCH  35  38
ATOM     38  C   UNL A   1      36.003  30.169  28.183  1.00  0.00     0.039 A 
ATOM     39  C   UNL A   1      37.045  30.296  27.256  1.00  0.00     0.014 A 
ATOM     40  C   UNL A   1      36.247  29.586  29.431  1.00  0.00     0.014 A 
ATOM     41  C   UNL A   1      38.338  29.887  27.596  1.00  0.00     0.010 A 
ATOM     42  C   UNL A   1      37.542  29.196  29.777  1.00  0.00     0.010 A 
ATOM     43  C   UNL A   1      38.598  29.348  28.865  1.00  0.00    -0.014 A 
BRANCH  43  44
ATOM     44  C   UNL A   1      39.970  28.942  29.252  1.00  0.00     0.031 A 
ATOM     45  C   UNL A   1      40.864  29.892  29.992  1.00  0.00     0.074 A 
ATOM     46  C   UNL A   1      40.433  27.733  28.888  1.00  0.00     0.049 A 
ATOM     47  N   UNL A   1      42.123  29.752  30.320  1.00  0.00    -0.248 NA
ATOM     48  C   UNL A   1      40.268  31.171  30.407  1.00  0.00     0.031 C 
ATOM     49  C   UNL A   1      39.674  26.725  28.147  1.00  0.00     0.029 A 
ATOM     50  N   UNL A   1      41.660  27.153  29.083  1.00  0.00    -0.354 N 
ATOM     51  C   UNL A   1      42.484  30.938  30.945  1.00  0.00     0.074 A 
ATOM     52  C   UNL A   1      41.306  31.780  30.964  1.00  0.00     0.031 C 
ATOM     53  C   UNL A   1      40.455  25.650  27.948  1.00  0.00     0.029 A 
ATOM     54  C   UNL A   1      41.770  25.900  28.534  1.00  0.00     0.049 A 
ATOM     55  H   UNL A   1      42.393  27.593  29.570  1.00  0.00     0.167 HD
ATOM     56  C   UNL A   1      43.690  31.297  31.446  1.00  0.00     0.037 A 
ATOM     57  C   UNL A   1      42.814  25.051  28.495  1.00  0.00     0.037 A 
ATOM     58  C   UNL A   1      44.858  30.458  31.463  1.00  0.00     0.049 A 
ATOM     59  C   UNL A   1      44.117  25.438  29.127  1.00  0.00     0.074 A 
ATOM     60  C   UNL A   1      46.118  30.737  31.966  1.00  0.00     0.029 A 
ATOM     61  N   UNL A   1      44.907  29.168  30.959  1.00  0.00    -0.354 N 
ATOM     62  N   UNL A   1      44.442  26.565  29.712  1.00  0.00    -0.248 NA
ATOM     63  C   UNL A   1      45.195  24.440  29.093  1.00  0.00     0.031 C 
ATOM     64  C   UNL A   1      46.928  29.611  31.768  1.00  0.00     0.029 A 
ATOM     65  C   UNL A   1      46.171  28.632  31.145  1.00  0.00     0.049 A 
ATOM     66  H   UNL A   1      44.153  28.700  30.532  1.00  0.00     0.167 HD
ATOM     67  C   UNL A   1      45.764  26.415  30.113  1.00  0.00     0.074 A 
ATOM     68  C   UNL A   1      46.175  25.084  29.714  1.00  0.00     0.031 C 
ATOM     69  C   UNL A   1      46.564  27.305  30.749  1.00  0.00     0.037 A 
BRANCH  56  70
ATOM     70  C   UNL A   1      43.793  32.685  32.000  1.00  0.00     0.058 A 
ATOM     71  C   UNL A   1      44.163  33.769  31.192  1.00  0.00     0.135 A 
ATOM     72  C   UNL A   1      43.556  32.924  33.363  1.00  0.00     0.135 A 
ATOM     73  F   UNL A   1      44.417  33.583  29.887  1.00  0.00    -0.206 F 
ATOM     74  C   UNL A   1      44.324  35.045  31.722  1.00  0.00     0.059 A 
ATOM     75  C   UNL A   1      43.705  34.192  33.912  1.00  0.00     0.059 A 
ATOM     76  F   UNL A   1      43.210  31.913  34.176  1.00  0.00    -0.206 F 
ATOM     77  C   UNL A   1      44.110  35.242  33.087  1.00  0.00     0.060 A 
BRANCH  77  78
ATOM     78  S   UNL A   1      44.365  36.878  33.807  1.00  0.00     0.124 S 
ATOM     79  O   UNL A   1      43.240  37.618  33.247  1.00  0.00    -0.237 OA
ATOM     80  O   UNL A   1      44.299  36.622  35.243  1.00  0.00    -0.237 OA
ATOM     81  O   UNL A   1      45.683  37.253  33.302  1.00  0.00    -0.744 OA
ENDBRANCH  77  78
ENDBRANCH  56  70
BRANCH  57  82
ATOM     82  C   UNL A   1      42.652  23.741  27.826  1.00  0.00     0.058 A 
ATOM     83  C   UNL A   1      42.824  23.617  26.442  1.00  0.00     0.135 A 
ATOM     84  C   UNL A   1      42.388  22.582  28.569  1.00  0.00     0.135 A 
ATOM     85  F   UNL A   1      43.078  24.705  25.698  1.00  0.00    -0.206 F 
ATOM     86  C   UNL A   1      42.752  22.380  25.810  1.00  0.00     0.059 A 
ATOM     87  C   UNL A   1      42.317  21.334  27.962  1.00  0.00     0.059 A 
ATOM     88  F   UNL A   1      42.227  22.658  29.899  1.00  0.00    -0.206 F 
ATOM     89  C   UNL A   1      42.502  21.243  26.581  1.00  0.00     0.060 A 
BRANCH  89  90
ATOM     90  S   UNL A   1      42.509  19.617  25.794  1.00  0.00     0.124 S 
ATOM     91  O   UNL A   1      42.927  18.760  26.896  1.00  0.00    -0.237 OA
ATOM     92  O   UNL A   1      41.125  19.463  25.357  1.00  0.00    -0.237 OA
ATOM     93  O   UNL A   1      43.479  19.787  24.716  1.00  0.00    -0.744 OA
ENDBRANCH  89  90
ENDBRANCH  57  82
BRANCH  69  94
ATOM     94  C   UNL A   1      47.963  26.863  31.052  1.00  0.00     0.058 A 
ATOM     95  C   UNL A   1      48.247  26.099  32.193  1.00  0.00     0.135 A 
ATOM     96  C   UNL A   1      49.020  27.183  30.187  1.00  0.00     0.135 A 
ATOM     97  F   UNL A   1      47.265  25.775  33.050  1.00  0.00    -0.206 F 
ATOM     98  C   UNL A   1      49.541  25.672  32.475  1.00  0.00     0.059 A 
ATOM     99  C   UNL A   1      50.320  26.764  30.448  1.00  0.00     0.059 A 
ATOM    100  F   UNL A   1      48.793  27.915  29.085  1.00  0.00    -0.206 F 
ATOM    101  C   UNL A   1      50.572  26.016  31.599  1.00  0.00     0.060 A 
BRANCH 101 102
ATOM    102  S   UNL A   1      52.253  25.449  31.942  1.00  0.00     0.124 S 
ATOM    103  O   UNL A   1      52.922  25.737  30.679  1.00  0.00    -0.237 OA
ATOM    104  O   UNL A   1      52.654  26.279  33.075  1.00  0.00    -0.237 OA
ATOM    105  O   UNL A   1      52.066  24.035  32.250  1.00  0.00    -0.744 OA
ENDBRANCH 101 102
ENDBRANCH  69  94
ENDBRANCH  43  44
ENDBRANCH  35  38
ENDBRANCH  33  34
ENDBRANCH  32  33
ENDBRANCH  31  32
ENDBRANCH   1  31
TORSDOF 20
ENDMDL
