MODEL 1
REMARK VINA RESULT:     -12.4      0.000      0.000
REMARK SMILES O=C(NCCCCCCNC(=O)c1nn(Cc2ccc(F)cc2)c2c1CN(C(=O)[C@H]1CC1(F)F)CC2)c1ccc(-c2c3nc(c(-c4c(F)cc(S(=O)(=O)[O-])cc4F)c4ccc([nH]4)c(-c4c(F)cc(S(=O)(=O)[O-])cc4F)c4nc(c(-c5c(F)cc(S(=O)(=O)[O-])cc5F)c5ccc2[nH]5)C=C4)C=C3)cc1
REMARK SMILES IDX 6 1 5 2 4 3 3 4 1 5 2 6 37 8 38 9 102 10 39 11 101 12 40 13
REMARK SMILES IDX 41 14 42 15 95 16 43 17 100 18 94 19 96 20 44 21 99 22 93 23
REMARK SMILES IDX 92 24 45 26 79 27 58 28 78 29 59 30 62 31 77 32 97 33 60 34
REMARK SMILES IDX 61 35 76 37 98 38 63 39 46 40 47 41 56 42 48 43 49 44 55 45
REMARK SMILES IDX 57 46 50 47 51 48 52 49 53 50 54 51 80 52 81 53 90 54 82 55
REMARK SMILES IDX 83 56 89 57 91 58 84 59 85 60 86 61 87 62 88 63 64 64 65 65
REMARK SMILES IDX 74 66 66 67 67 68 73 69 75 70 68 71 69 72 70 73 71 74 72 75
REMARK SMILES IDX 7 76 8 77 9 78 10 79 11 80 12 82 13 83 14 84 25 85 15 86
REMARK SMILES IDX 24 87 26 88 36 89 27 90 35 91 16 92 17 93 18 94 23 95 19 96
REMARK SMILES IDX 22 97 20 98 21 99 28 100 29 101 30 102 31 103 32 104 33 105
REMARK SMILES IDX 34 106
REMARK H PARENT 3 7 96 25 62 36 10 81
REMARK Flexibility Score: inf
ROOT
ATOM      1  C   UNL A   1      40.100  22.814  27.287  1.00  0.00     0.002 C 
ENDROOT
BRANCH   1   2
ATOM      2  C   UNL A   1      40.422  21.481  26.600  1.00  0.00     0.021 C 
BRANCH   2   3
ATOM      3  C   UNL A   1      41.914  21.168  26.496  1.00  0.00     0.116 C 
BRANCH   3   4
ATOM      4  N   UNL A   1      42.545  21.647  25.285  1.00  0.00    -0.352 N 
ATOM      5  O   UNL A   1      43.823  22.772  23.868  1.00  0.00    -0.269 OA
ATOM      6  C   UNL A   1      43.287  22.754  24.979  1.00  0.00     0.251 C 
ATOM      7  H   UNL A   1      42.410  21.047  24.516  1.00  0.00     0.163 HD
BRANCH   6   8
ATOM      8  C   UNL A   1      43.383  23.953  25.848  1.00  0.00     0.039 A 
ATOM      9  C   UNL A   1      44.122  24.044  27.031  1.00  0.00     0.014 A 
ATOM     10  C   UNL A   1      42.601  25.048  25.449  1.00  0.00     0.014 A 
ATOM     11  C   UNL A   1      43.959  25.128  27.881  1.00  0.00     0.010 A 
ATOM     12  C   UNL A   1      42.463  26.150  26.273  1.00  0.00     0.010 A 
ATOM     13  C   UNL A   1      43.090  26.152  27.519  1.00  0.00    -0.014 A 
BRANCH  13  14
ATOM     14  C   UNL A   1      42.935  27.294  28.412  1.00  0.00     0.031 A 
ATOM     15  C   UNL A   1      43.990  28.350  28.272  1.00  0.00     0.074 A 
ATOM     16  C   UNL A   1      41.794  27.431  29.121  1.00  0.00     0.049 A 
ATOM     17  N   UNL A   1      44.687  28.947  29.187  1.00  0.00    -0.248 NA
ATOM     18  C   UNL A   1      44.399  28.711  26.897  1.00  0.00     0.031 C 
ATOM     19  C   UNL A   1      40.609  26.563  29.099  1.00  0.00     0.029 A 
ATOM     20  N   UNL A   1      41.387  28.458  29.912  1.00  0.00    -0.354 N 
ATOM     21  C   UNL A   1      45.464  29.899  28.521  1.00  0.00     0.074 A 
ATOM     22  C   UNL A   1      45.358  29.610  27.116  1.00  0.00     0.031 C 
ATOM     23  C   UNL A   1      39.553  27.230  29.616  1.00  0.00     0.029 A 
ATOM     24  C   UNL A   1      40.011  28.509  30.120  1.00  0.00     0.049 A 
ATOM     25  H   UNL A   1      42.011  29.110  30.304  1.00  0.00     0.167 HD
ATOM     26  C   UNL A   1      45.982  30.994  29.144  1.00  0.00     0.037 A 
ATOM     27  C   UNL A   1      39.312  29.585  30.565  1.00  0.00     0.037 A 
ATOM     28  C   UNL A   1      46.072  30.805  30.564  1.00  0.00     0.049 A 
ATOM     29  C   UNL A   1      40.298  30.490  31.220  1.00  0.00     0.074 A 
ATOM     30  C   UNL A   1      46.779  29.943  31.379  1.00  0.00     0.029 A 
ATOM     31  N   UNL A   1      45.083  31.333  31.356  1.00  0.00    -0.354 N 
ATOM     32  N   UNL A   1      40.973  30.169  32.293  1.00  0.00    -0.248 NA
ATOM     33  C   UNL A   1      40.885  31.539  30.399  1.00  0.00     0.031 C 
ATOM     34  C   UNL A   1      45.878  29.615  32.433  1.00  0.00     0.029 A 
ATOM     35  C   UNL A   1      44.706  30.344  32.230  1.00  0.00     0.049 A 
ATOM     36  H   UNL A   1      44.715  32.245  31.306  1.00  0.00     0.167 HD
ATOM     37  C   UNL A   1      42.246  30.681  32.082  1.00  0.00     0.074 A 
ATOM     38  C   UNL A   1      42.117  31.551  30.913  1.00  0.00     0.031 C 
ATOM     39  C   UNL A   1      43.348  30.144  32.686  1.00  0.00     0.037 A 
BRANCH  26  40
ATOM     40  C   UNL A   1      46.102  32.351  28.491  1.00  0.00     0.058 A 
ATOM     41  C   UNL A   1      44.984  33.139  28.137  1.00  0.00     0.135 A 
ATOM     42  C   UNL A   1      47.346  33.018  28.471  1.00  0.00     0.135 A 
ATOM     43  F   UNL A   1      43.732  32.666  28.198  1.00  0.00    -0.206 F 
ATOM     44  C   UNL A   1      45.081  34.482  27.799  1.00  0.00     0.059 A 
ATOM     45  C   UNL A   1      47.459  34.382  28.183  1.00  0.00     0.059 A 
ATOM     46  F   UNL A   1      48.473  32.370  28.802  1.00  0.00    -0.206 F 
ATOM     47  C   UNL A   1      46.318  35.106  27.858  1.00  0.00     0.060 A 
BRANCH  47  48
ATOM     48  S   UNL A   1      46.366  36.890  27.612  1.00  0.00     0.124 S 
ATOM     49  O   UNL A   1      46.342  36.986  26.157  1.00  0.00    -0.237 OA
ATOM     50  O   UNL A   1      45.153  37.321  28.299  1.00  0.00    -0.237 OA
ATOM     51  O   UNL A   1      47.618  37.284  28.249  1.00  0.00    -0.744 OA
ENDBRANCH  47  48
ENDBRANCH  26  40
BRANCH  27  52
ATOM     52  C   UNL A   1      38.007  30.071  30.024  1.00  0.00     0.058 A 
ATOM     53  C   UNL A   1      37.834  30.343  28.649  1.00  0.00     0.135 A 
ATOM     54  C   UNL A   1      36.987  30.540  30.874  1.00  0.00     0.135 A 
ATOM     55  F   UNL A   1      38.769  30.003  27.751  1.00  0.00    -0.206 F 
ATOM     56  C   UNL A   1      36.743  31.052  28.152  1.00  0.00     0.059 A 
ATOM     57  C   UNL A   1      35.883  31.263  30.398  1.00  0.00     0.059 A 
ATOM     58  F   UNL A   1      37.081  30.353  32.200  1.00  0.00    -0.206 F 
ATOM     59  C   UNL A   1      35.783  31.534  29.035  1.00  0.00     0.060 A 
BRANCH  59  60
ATOM     60  S   UNL A   1      34.471  32.580  28.361  1.00  0.00     0.124 S 
ATOM     61  O   UNL A   1      33.648  31.607  27.648  1.00  0.00    -0.237 OA
ATOM     62  O   UNL A   1      33.878  33.139  29.572  1.00  0.00    -0.237 OA
ATOM     63  O   UNL A   1      35.189  33.531  27.521  1.00  0.00    -0.744 OA
ENDBRANCH  59  60
ENDBRANCH  27  52
BRANCH  39  64
ATOM     64  C   UNL A   1      43.152  29.078  33.739  1.00  0.00     0.058 A 
ATOM     65  C   UNL A   1      43.050  27.743  33.326  1.00  0.00     0.135 A 
ATOM     66  C   UNL A   1      42.841  29.356  35.083  1.00  0.00     0.135 A 
ATOM     67  F   UNL A   1      43.275  27.418  32.042  1.00  0.00    -0.206 F 
ATOM     68  C   UNL A   1      42.641  26.734  34.193  1.00  0.00     0.059 A 
ATOM     69  C   UNL A   1      42.458  28.355  35.981  1.00  0.00     0.059 A 
ATOM     70  F   UNL A   1      42.816  30.615  35.536  1.00  0.00    -0.206 F 
ATOM     71  C   UNL A   1      42.340  27.048  35.519  1.00  0.00     0.060 A 
BRANCH  71  72
ATOM     72  S   UNL A   1      41.745  25.728  36.596  1.00  0.00     0.124 S 
ATOM     73  O   UNL A   1      40.567  25.255  35.874  1.00  0.00    -0.237 OA
ATOM     74  O   UNL A   1      42.878  24.809  36.618  1.00  0.00    -0.237 OA
ATOM     75  O   UNL A   1      41.466  26.404  37.860  1.00  0.00    -0.744 OA
ENDBRANCH  71  72
ENDBRANCH  39  64
ENDBRANCH  13  14
ENDBRANCH   6   8
ENDBRANCH   3   4
ENDBRANCH   2   3
ENDBRANCH   1   2
BRANCH   1  76
ATOM     76  C   UNL A   1      39.451  23.875  26.392  1.00  0.00     0.002 C 
BRANCH  76  77
ATOM     77  C   UNL A   1      38.041  24.312  26.812  1.00  0.00     0.021 C 
BRANCH  77  78
ATOM     78  C   UNL A   1      36.908  23.579  26.093  1.00  0.00     0.116 C 
BRANCH  78  79
ATOM     79  N   UNL A   1      37.101  23.613  24.652  1.00  0.00    -0.351 N 
ATOM     80  C   UNL A   1      36.226  23.259  23.649  1.00  0.00     0.272 C 
ATOM     81  H   UNL A   1      37.981  23.935  24.351  1.00  0.00     0.163 HD
ATOM     82  O   UNL A   1      36.677  23.077  22.518  1.00  0.00    -0.267 OA
BRANCH  80  83
ATOM     83  C   UNL A   1      34.798  23.063  23.949  1.00  0.00     0.155 A 
ATOM     84  N   UNL A   1      34.306  21.920  24.466  1.00  0.00    -0.167 NA
ATOM     85  C   UNL A   1      33.762  24.026  23.813  1.00  0.00     0.026 A 
ATOM     86  N   UNL A   1      32.974  22.109  24.556  1.00  0.00    -0.264 N 
ATOM     87  C   UNL A   1      32.602  23.351  24.138  1.00  0.00     0.046 A 
ATOM     88  C   UNL A   1      33.810  25.450  23.363  1.00  0.00     0.159 C 
ATOM     89  C   UNL A   1      31.241  23.933  24.059  1.00  0.00     0.078 C 
ATOM     90  N   UNL A   1      32.457  26.040  23.504  1.00  0.00    -0.337 N 
ATOM     91  C   UNL A   1      31.315  25.174  23.142  1.00  0.00     0.126 C 
BRANCH  86  92
ATOM     92  C   UNL A   1      32.142  21.080  25.169  1.00  0.00     0.180 C 
BRANCH  92  93
ATOM     93  C   UNL A   1      32.492  19.690  24.690  1.00  0.00    -0.026 A 
ATOM     94  C   UNL A   1      32.427  19.380  23.320  1.00  0.00     0.008 A 
ATOM     95  C   UNL A   1      32.906  18.698  25.594  1.00  0.00     0.008 A 
ATOM     96  C   UNL A   1      32.775  18.110  22.861  1.00  0.00     0.039 A 
ATOM     97  C   UNL A   1      33.257  17.428  25.130  1.00  0.00     0.039 A 
ATOM     98  C   UNL A   1      33.190  17.146  23.771  1.00  0.00     0.123 A 
ATOM     99  F   UNL A   1      33.530  15.926  23.335  1.00  0.00    -0.207 F 
ENDBRANCH  92  93
ENDBRANCH  86  92
BRANCH  90 100
ATOM    100  C   UNL A   1      32.351  27.356  23.936  1.00  0.00     0.232 C 
ATOM    101  O   UNL A   1      32.764  28.315  23.306  1.00  0.00    -0.274 OA
BRANCH 100 102
ATOM    102  C   UNL A   1      31.643  27.581  25.215  1.00  0.00     0.154 C 
ATOM    103  C   UNL A   1      31.985  26.750  26.442  1.00  0.00     0.097 C 
ATOM    104  C   UNL A   1      32.341  28.187  26.372  1.00  0.00     0.260 C 
ATOM    105  F   UNL A   1      33.669  28.539  26.370  1.00  0.00    -0.206 F 
ATOM    106  F   UNL A   1      31.686  29.073  27.200  1.00  0.00    -0.206 F 
ENDBRANCH 100 102
ENDBRANCH  90 100
ENDBRANCH  80  83
ENDBRANCH  78  79
ENDBRANCH  77  78
ENDBRANCH  76  77
ENDBRANCH   1  76
TORSDOF 20
ENDMDL
MODEL 2
REMARK VINA RESULT:     -12.4      3.076      8.672
REMARK SMILES O=C(NCCCCCCNC(=O)c1nn(Cc2ccc(F)cc2)c2c1CN(C(=O)[C@H]1CC1(F)F)CC2)c1ccc(-c2c3nc(c(-c4c(F)cc(S(=O)(=O)[O-])cc4F)c4ccc([nH]4)c(-c4c(F)cc(S(=O)(=O)[O-])cc4F)c4nc(c(-c5c(F)cc(S(=O)(=O)[O-])cc5F)c5ccc2[nH]5)C=C4)C=C3)cc1
REMARK SMILES IDX 6 1 5 2 4 3 3 4 1 5 2 6 37 8 38 9 102 10 39 11 101 12 40 13
REMARK SMILES IDX 41 14 42 15 95 16 43 17 100 18 94 19 96 20 44 21 99 22 93 23
REMARK SMILES IDX 92 24 45 26 79 27 58 28 78 29 59 30 62 31 77 32 97 33 60 34
REMARK SMILES IDX 61 35 76 37 98 38 63 39 46 40 47 41 56 42 48 43 49 44 55 45
REMARK SMILES IDX 57 46 50 47 51 48 52 49 53 50 54 51 80 52 81 53 90 54 82 55
REMARK SMILES IDX 83 56 89 57 91 58 84 59 85 60 86 61 87 62 88 63 64 64 65 65
REMARK SMILES IDX 74 66 66 67 67 68 73 69 75 70 68 71 69 72 70 73 71 74 72 75
REMARK SMILES IDX 7 76 8 77 9 78 10 79 11 80 12 82 13 83 14 84 25 85 15 86
REMARK SMILES IDX 24 87 26 88 36 89 27 90 35 91 16 92 17 93 18 94 23 95 19 96
REMARK SMILES IDX 22 97 20 98 21 99 28 100 29 101 30 102 31 103 32 104 33 105
REMARK SMILES IDX 34 106
REMARK H PARENT 3 7 96 25 62 36 10 81
REMARK Flexibility Score: inf
ROOT
ATOM      1  C   UNL A   1      34.845  31.610  27.832  1.00  0.00     0.002 C 
ENDROOT
BRANCH   1   2
ATOM      2  C   UNL A   1      35.542  32.968  27.984  1.00  0.00     0.021 C 
BRANCH   2   3
ATOM      3  C   UNL A   1      34.798  33.963  28.874  1.00  0.00     0.116 C 
BRANCH   3   4
ATOM      4  N   UNL A   1      34.237  33.389  30.078  1.00  0.00    -0.352 N 
ATOM      5  O   UNL A   1      34.014  32.538  32.110  1.00  0.00    -0.269 OA
ATOM      6  C   UNL A   1      34.775  32.759  31.165  1.00  0.00     0.251 C 
ATOM      7  H   UNL A   1      33.257  33.470  30.123  1.00  0.00     0.163 HD
BRANCH   6   8
ATOM      8  C   UNL A   1      36.164  32.239  31.217  1.00  0.00     0.039 A 
ATOM      9  C   UNL A   1      37.326  33.007  31.106  1.00  0.00     0.014 A 
ATOM     10  C   UNL A   1      36.278  30.844  31.325  1.00  0.00     0.014 A 
ATOM     11  C   UNL A   1      38.561  32.395  30.938  1.00  0.00     0.010 A 
ATOM     12  C   UNL A   1      37.510  30.228  31.196  1.00  0.00     0.010 A 
ATOM     13  C   UNL A   1      38.637  31.006  30.933  1.00  0.00    -0.014 A 
BRANCH  13  14
ATOM     14  C   UNL A   1      39.939  30.373  30.769  1.00  0.00     0.031 A 
ATOM     15  C   UNL A   1      40.723  30.209  32.037  1.00  0.00     0.074 A 
ATOM     16  C   UNL A   1      40.257  29.804  29.586  1.00  0.00     0.049 A 
ATOM     17  N   UNL A   1      41.962  30.497  32.284  1.00  0.00    -0.248 NA
ATOM     18  C   UNL A   1      39.979  29.756  33.232  1.00  0.00     0.031 C 
ATOM     19  C   UNL A   1      39.419  29.701  28.383  1.00  0.00     0.029 A 
ATOM     20  N   UNL A   1      41.345  29.067  29.246  1.00  0.00    -0.354 N 
ATOM     21  C   UNL A   1      42.204  30.069  33.593  1.00  0.00     0.074 A 
ATOM     22  C   UNL A   1      40.924  29.762  34.171  1.00  0.00     0.031 C 
ATOM     23  C   UNL A   1      39.914  28.739  27.572  1.00  0.00     0.029 A 
ATOM     24  C   UNL A   1      41.162  28.256  28.130  1.00  0.00     0.049 A 
ATOM     25  H   UNL A   1      42.192  29.103  29.747  1.00  0.00     0.167 HD
ATOM     26  C   UNL A   1      43.455  29.795  34.059  1.00  0.00     0.037 A 
ATOM     27  C   UNL A   1      41.932  27.193  27.781  1.00  0.00     0.037 A 
ATOM     28  C   UNL A   1      44.468  30.442  33.276  1.00  0.00     0.049 A 
ATOM     29  C   UNL A   1      43.225  27.352  28.504  1.00  0.00     0.074 A 
ATOM     30  C   UNL A   1      44.796  31.760  33.024  1.00  0.00     0.029 A 
ATOM     31  N   UNL A   1      45.114  29.710  32.311  1.00  0.00    -0.354 N 
ATOM     32  N   UNL A   1      44.054  28.342  28.295  1.00  0.00    -0.248 NA
ATOM     33  C   UNL A   1      43.352  26.688  29.793  1.00  0.00     0.031 C 
ATOM     34  C   UNL A   1      45.178  31.785  31.651  1.00  0.00     0.029 A 
ATOM     35  C   UNL A   1      45.121  30.476  31.172  1.00  0.00     0.049 A 
ATOM     36  H   UNL A   1      45.499  28.810  32.416  1.00  0.00     0.167 HD
ATOM     37  C   UNL A   1      44.531  28.682  29.554  1.00  0.00     0.074 A 
ATOM     38  C   UNL A   1      44.091  27.598  30.433  1.00  0.00     0.031 C 
ATOM     39  C   UNL A   1      44.990  29.937  29.836  1.00  0.00     0.037 A 
BRANCH  26  40
ATOM     40  C   UNL A   1      43.761  28.676  35.028  1.00  0.00     0.058 A 
ATOM     41  C   UNL A   1      43.636  27.309  34.693  1.00  0.00     0.135 A 
ATOM     42  C   UNL A   1      44.463  28.948  36.221  1.00  0.00     0.135 A 
ATOM     43  F   UNL A   1      43.075  26.905  33.546  1.00  0.00    -0.206 F 
ATOM     44  C   UNL A   1      44.171  26.289  35.468  1.00  0.00     0.059 A 
ATOM     45  C   UNL A   1      45.053  27.939  36.989  1.00  0.00     0.059 A 
ATOM     46  F   UNL A   1      44.652  30.212  36.629  1.00  0.00    -0.206 F 
ATOM     47  C   UNL A   1      44.909  26.613  36.596  1.00  0.00     0.060 A 
BRANCH  47  48
ATOM     48  S   UNL A   1      45.755  25.274  37.454  1.00  0.00     0.124 S 
ATOM     49  O   UNL A   1      45.192  25.383  38.795  1.00  0.00    -0.237 OA
ATOM     50  O   UNL A   1      45.337  24.109  36.680  1.00  0.00    -0.237 OA
ATOM     51  O   UNL A   1      47.164  25.632  37.332  1.00  0.00    -0.744 OA
ENDBRANCH  47  48
ENDBRANCH  26  40
BRANCH  27  52
ATOM     52  C   UNL A   1      41.437  25.870  27.295  1.00  0.00     0.058 A 
ATOM     53  C   UNL A   1      40.433  25.158  27.986  1.00  0.00     0.135 A 
ATOM     54  C   UNL A   1      42.125  25.149  26.299  1.00  0.00     0.135 A 
ATOM     55  F   UNL A   1      39.756  25.719  28.997  1.00  0.00    -0.206 F 
ATOM     56  C   UNL A   1      40.147  23.819  27.731  1.00  0.00     0.059 A 
ATOM     57  C   UNL A   1      41.860  23.798  26.031  1.00  0.00     0.059 A 
ATOM     58  F   UNL A   1      43.116  25.736  25.610  1.00  0.00    -0.206 F 
ATOM     59  C   UNL A   1      40.882  23.135  26.770  1.00  0.00     0.060 A 
BRANCH  59  60
ATOM     60  S   UNL A   1      40.581  21.362  26.585  1.00  0.00     0.124 S 
ATOM     61  O   UNL A   1      40.674  20.897  27.966  1.00  0.00    -0.237 OA
ATOM     62  O   UNL A   1      39.243  21.341  26.001  1.00  0.00    -0.237 OA
ATOM     63  O   UNL A   1      41.655  20.923  25.701  1.00  0.00    -0.744 OA
ENDBRANCH  59  60
ENDBRANCH  27  52
BRANCH  39  64
ATOM     64  C   UNL A   1      45.139  30.927  28.704  1.00  0.00     0.058 A 
ATOM     65  C   UNL A   1      46.418  31.149  28.176  1.00  0.00     0.135 A 
ATOM     66  C   UNL A   1      44.119  31.806  28.295  1.00  0.00     0.135 A 
ATOM     67  F   UNL A   1      47.450  30.384  28.570  1.00  0.00    -0.206 F 
ATOM     68  C   UNL A   1      46.681  32.200  27.301  1.00  0.00     0.059 A 
ATOM     69  C   UNL A   1      44.352  32.850  27.395  1.00  0.00     0.059 A 
ATOM     70  F   UNL A   1      42.892  31.728  28.826  1.00  0.00    -0.206 F 
ATOM     71  C   UNL A   1      45.644  33.051  26.920  1.00  0.00     0.060 A 
BRANCH  71  72
ATOM     72  S   UNL A   1      46.034  34.446  25.843  1.00  0.00     0.124 S 
ATOM     73  O   UNL A   1      45.086  34.257  24.748  1.00  0.00    -0.237 OA
ATOM     74  O   UNL A   1      45.772  35.591  26.709  1.00  0.00    -0.237 OA
ATOM     75  O   UNL A   1      47.435  34.237  25.491  1.00  0.00    -0.744 OA
ENDBRANCH  71  72
ENDBRANCH  39  64
ENDBRANCH  13  14
ENDBRANCH   6   8
ENDBRANCH   3   4
ENDBRANCH   2   3
ENDBRANCH   1   2
BRANCH   1  76
ATOM     76  C   UNL A   1      35.755  30.385  27.975  1.00  0.00     0.002 C 
BRANCH  76  77
ATOM     77  C   UNL A   1      35.307  29.142  27.195  1.00  0.00     0.021 C 
BRANCH  77  78
ATOM     78  C   UNL A   1      33.892  29.228  26.622  1.00  0.00     0.116 C 
BRANCH  78  79
ATOM     79  N   UNL A   1      32.908  28.795  27.602  1.00  0.00    -0.351 N 
ATOM     80  C   UNL A   1      31.827  27.958  27.439  1.00  0.00     0.272 C 
ATOM     81  H   UNL A   1      33.033  29.151  28.512  1.00  0.00     0.163 HD
ATOM     82  O   UNL A   1      30.954  27.955  28.308  1.00  0.00    -0.267 OA
BRANCH  80  83
ATOM     83  C   UNL A   1      31.713  27.127  26.229  1.00  0.00     0.155 A 
ATOM     84  N   UNL A   1      31.868  25.788  26.240  1.00  0.00    -0.167 NA
ATOM     85  C   UNL A   1      31.369  27.571  24.924  1.00  0.00     0.026 A 
ATOM     86  N   UNL A   1      31.735  25.400  24.955  1.00  0.00    -0.264 N 
ATOM     87  C   UNL A   1      31.470  26.448  24.127  1.00  0.00     0.046 A 
ATOM     88  C   UNL A   1      31.026  28.934  24.418  1.00  0.00     0.159 C 
ATOM     89  C   UNL A   1      31.282  26.442  22.656  1.00  0.00     0.078 C 
ATOM     90  N   UNL A   1      30.644  28.831  22.989  1.00  0.00    -0.337 N 
ATOM     91  C   UNL A   1      31.432  27.896  22.159  1.00  0.00     0.126 C 
BRANCH  86  92
ATOM     92  C   UNL A   1      31.760  23.979  24.629  1.00  0.00     0.180 C 
BRANCH  92  93
ATOM     93  C   UNL A   1      33.162  23.453  24.430  1.00  0.00    -0.026 A 
ATOM     94  C   UNL A   1      33.893  23.812  23.282  1.00  0.00     0.008 A 
ATOM     95  C   UNL A   1      33.766  22.624  25.389  1.00  0.00     0.008 A 
ATOM     96  C   UNL A   1      35.199  23.358  23.100  1.00  0.00     0.039 A 
ATOM     97  C   UNL A   1      35.076  22.174  25.204  1.00  0.00     0.039 A 
ATOM     98  C   UNL A   1      35.779  22.546  24.064  1.00  0.00     0.123 A 
ATOM     99  F   UNL A   1      37.035  22.110  23.897  1.00  0.00    -0.207 F 
ENDBRANCH  92  93
ENDBRANCH  86  92
BRANCH  90 100
ATOM    100  C   UNL A   1      29.603  29.624  22.524  1.00  0.00     0.232 C 
ATOM    101  O   UNL A   1      29.268  29.689  21.352  1.00  0.00    -0.274 OA
BRANCH 100 102
ATOM    102  C   UNL A   1      28.838  30.381  23.538  1.00  0.00     0.154 C 
ATOM    103  C   UNL A   1      29.195  31.826  23.852  1.00  0.00     0.097 C 
ATOM    104  C   UNL A   1      27.941  31.490  23.138  1.00  0.00     0.260 C 
ATOM    105  F   UNL A   1      27.782  31.922  21.844  1.00  0.00    -0.206 F 
ATOM    106  F   UNL A   1      26.739  31.686  23.784  1.00  0.00    -0.206 F 
ENDBRANCH 100 102
ENDBRANCH  90 100
ENDBRANCH  80  83
ENDBRANCH  78  79
ENDBRANCH  77  78
ENDBRANCH  76  77
ENDBRANCH   1  76
TORSDOF 20
ENDMDL
MODEL 3
REMARK VINA RESULT:     -12.3      3.061      9.311
REMARK SMILES O=C(NCCCCCCNC(=O)c1nn(Cc2ccc(F)cc2)c2c1CN(C(=O)[C@H]1CC1(F)F)CC2)c1ccc(-c2c3nc(c(-c4c(F)cc(S(=O)(=O)[O-])cc4F)c4ccc([nH]4)c(-c4c(F)cc(S(=O)(=O)[O-])cc4F)c4nc(c(-c5c(F)cc(S(=O)(=O)[O-])cc5F)c5ccc2[nH]5)C=C4)C=C3)cc1
REMARK SMILES IDX 6 1 5 2 4 3 3 4 1 5 2 6 37 8 38 9 102 10 39 11 101 12 40 13
REMARK SMILES IDX 41 14 42 15 95 16 43 17 100 18 94 19 96 20 44 21 99 22 93 23
REMARK SMILES IDX 92 24 45 26 79 27 58 28 78 29 59 30 62 31 77 32 97 33 60 34
REMARK SMILES IDX 61 35 76 37 98 38 63 39 46 40 47 41 56 42 48 43 49 44 55 45
REMARK SMILES IDX 57 46 50 47 51 48 52 49 53 50 54 51 80 52 81 53 90 54 82 55
REMARK SMILES IDX 83 56 89 57 91 58 84 59 85 60 86 61 87 62 88 63 64 64 65 65
REMARK SMILES IDX 74 66 66 67 67 68 73 69 75 70 68 71 69 72 70 73 71 74 72 75
REMARK SMILES IDX 7 76 8 77 9 78 10 79 11 80 12 82 13 83 14 84 25 85 15 86
REMARK SMILES IDX 24 87 26 88 36 89 27 90 35 91 16 92 17 93 18 94 23 95 19 96
REMARK SMILES IDX 22 97 20 98 21 99 28 100 29 101 30 102 31 103 32 104 33 105
REMARK SMILES IDX 34 106
REMARK H PARENT 3 7 96 25 62 36 10 81
REMARK Flexibility Score: inf
ROOT
ATOM      1  C   UNL A   1      35.214  31.976  27.626  1.00  0.00     0.002 C 
ENDROOT
BRANCH   1   2
ATOM      2  C   UNL A   1      35.686  32.970  28.695  1.00  0.00     0.021 C 
BRANCH   2   3
ATOM      3  C   UNL A   1      34.576  33.843  29.280  1.00  0.00     0.116 C 
BRANCH   3   4
ATOM      4  N   UNL A   1      34.051  33.379  30.546  1.00  0.00    -0.352 N 
ATOM      5  O   UNL A   1      33.891  32.698  32.647  1.00  0.00    -0.269 OA
ATOM      6  C   UNL A   1      34.619  32.827  31.660  1.00  0.00     0.251 C 
ATOM      7  H   UNL A   1      33.076  33.483  30.621  1.00  0.00     0.163 HD
BRANCH   6   8
ATOM      8  C   UNL A   1      35.999  32.283  31.703  1.00  0.00     0.039 A 
ATOM      9  C   UNL A   1      37.169  33.039  31.829  1.00  0.00     0.014 A 
ATOM     10  C   UNL A   1      36.102  30.893  31.538  1.00  0.00     0.014 A 
ATOM     11  C   UNL A   1      38.410  32.453  31.628  1.00  0.00     0.010 A 
ATOM     12  C   UNL A   1      37.338  30.295  31.375  1.00  0.00     0.010 A 
ATOM     13  C   UNL A   1      38.483  31.091  31.352  1.00  0.00    -0.014 A 
BRANCH  13  14
ATOM     14  C   UNL A   1      39.793  30.482  31.154  1.00  0.00     0.031 A 
ATOM     15  C   UNL A   1      40.576  30.256  32.413  1.00  0.00     0.074 A 
ATOM     16  C   UNL A   1      40.117  29.982  29.943  1.00  0.00     0.049 A 
ATOM     17  N   UNL A   1      41.812  30.543  32.678  1.00  0.00    -0.248 NA
ATOM     18  C   UNL A   1      39.836  29.730  33.580  1.00  0.00     0.031 C 
ATOM     19  C   UNL A   1      39.282  29.937  28.735  1.00  0.00     0.029 A 
ATOM     20  N   UNL A   1      41.214  29.276  29.564  1.00  0.00    -0.354 N 
ATOM     21  C   UNL A   1      42.057  30.046  33.961  1.00  0.00     0.074 A 
ATOM     22  C   UNL A   1      40.780  29.695  34.519  1.00  0.00     0.031 C 
ATOM     23  C   UNL A   1      39.788  29.027  27.872  1.00  0.00     0.029 A 
ATOM     24  C   UNL A   1      41.041  28.527  28.405  1.00  0.00     0.049 A 
ATOM     25  H   UNL A   1      42.060  29.293  30.068  1.00  0.00     0.167 HD
ATOM     26  C   UNL A   1      43.310  29.759  34.413  1.00  0.00     0.037 A 
ATOM     27  C   UNL A   1      41.822  27.492  27.999  1.00  0.00     0.037 A 
ATOM     28  C   UNL A   1      44.318  30.460  33.669  1.00  0.00     0.049 A 
ATOM     29  C   UNL A   1      43.113  27.625  28.732  1.00  0.00     0.074 A 
ATOM     30  C   UNL A   1      44.632  31.793  33.491  1.00  0.00     0.029 A 
ATOM     31  N   UNL A   1      44.973  29.789  32.667  1.00  0.00    -0.354 N 
ATOM     32  N   UNL A   1      43.932  28.633  28.580  1.00  0.00    -0.248 NA
ATOM     33  C   UNL A   1      43.245  26.892  29.983  1.00  0.00     0.031 C 
ATOM     34  C   UNL A   1      45.015  31.898  32.123  1.00  0.00     0.029 A 
ATOM     35  C   UNL A   1      44.972  30.617  31.571  1.00  0.00     0.049 A 
ATOM     36  H   UNL A   1      45.367  28.888  32.722  1.00  0.00     0.167 HD
ATOM     37  C   UNL A   1      44.403  28.908  29.856  1.00  0.00     0.074 A 
ATOM     38  C   UNL A   1      43.974  27.773  30.673  1.00  0.00     0.031 C 
ATOM     39  C   UNL A   1      44.848  30.151  30.207  1.00  0.00     0.037 A 
BRANCH  26  40
ATOM     40  C   UNL A   1      43.627  28.593  35.320  1.00  0.00     0.058 A 
ATOM     41  C   UNL A   1      43.527  27.245  34.907  1.00  0.00     0.135 A 
ATOM     42  C   UNL A   1      44.316  28.806  36.533  1.00  0.00     0.135 A 
ATOM     43  F   UNL A   1      42.981  26.898  33.734  1.00  0.00    -0.206 F 
ATOM     44  C   UNL A   1      44.073  26.191  35.626  1.00  0.00     0.059 A 
ATOM     45  C   UNL A   1      44.916  27.765  37.246  1.00  0.00     0.059 A 
ATOM     46  F   UNL A   1      44.481  30.048  37.014  1.00  0.00    -0.206 F 
ATOM     47  C   UNL A   1      44.797  26.461  36.777  1.00  0.00     0.060 A 
BRANCH  47  48
ATOM     48  S   UNL A   1      45.658  25.089  37.565  1.00  0.00     0.124 S 
ATOM     49  O   UNL A   1      46.894  25.730  38.002  1.00  0.00    -0.237 OA
ATOM     50  O   UNL A   1      44.725  24.717  38.624  1.00  0.00    -0.237 OA
ATOM     51  O   UNL A   1      45.800  24.117  36.487  1.00  0.00    -0.744 OA
ENDBRANCH  47  48
ENDBRANCH  26  40
BRANCH  27  52
ATOM     52  C   UNL A   1      41.342  26.193  27.439  1.00  0.00     0.058 A 
ATOM     53  C   UNL A   1      40.346  25.434  28.089  1.00  0.00     0.135 A 
ATOM     54  C   UNL A   1      42.039  25.536  26.407  1.00  0.00     0.135 A 
ATOM     55  F   UNL A   1      39.662  25.930  29.129  1.00  0.00    -0.206 F 
ATOM     56  C   UNL A   1      40.074  24.107  27.760  1.00  0.00     0.059 A 
ATOM     57  C   UNL A   1      41.788  24.199  26.063  1.00  0.00     0.059 A 
ATOM     58  F   UNL A   1      43.023  26.171  25.752  1.00  0.00    -0.206 F 
ATOM     59  C   UNL A   1      40.817  23.486  26.763  1.00  0.00     0.060 A 
BRANCH  59  60
ATOM     60  S   UNL A   1      40.535  21.722  26.480  1.00  0.00     0.124 S 
ATOM     61  O   UNL A   1      41.701  21.358  25.680  1.00  0.00    -0.237 OA
ATOM     62  O   UNL A   1      40.516  21.196  27.842  1.00  0.00    -0.237 OA
ATOM     63  O   UNL A   1      39.256  21.688  25.779  1.00  0.00    -0.744 OA
ENDBRANCH  59  60
ENDBRANCH  27  52
BRANCH  39  64
ATOM     64  C   UNL A   1      44.988  31.203  29.132  1.00  0.00     0.058 A 
ATOM     65  C   UNL A   1      43.887  32.024  28.854  1.00  0.00     0.135 A 
ATOM     66  C   UNL A   1      46.074  31.267  28.238  1.00  0.00     0.135 A 
ATOM     67  F   UNL A   1      42.794  31.969  29.633  1.00  0.00    -0.206 F 
ATOM     68  C   UNL A   1      43.851  32.853  27.736  1.00  0.00     0.059 A 
ATOM     69  C   UNL A   1      46.073  32.114  27.126  1.00  0.00     0.059 A 
ATOM     70  F   UNL A   1      47.122  30.446  28.373  1.00  0.00    -0.206 F 
ATOM     71  C   UNL A   1      44.946  32.888  26.872  1.00  0.00     0.060 A 
BRANCH  71  72
ATOM     72  S   UNL A   1      44.836  33.918  25.394  1.00  0.00     0.124 S 
ATOM     73  O   UNL A   1      43.968  35.003  25.844  1.00  0.00    -0.237 OA
ATOM     74  O   UNL A   1      46.231  34.285  25.166  1.00  0.00    -0.237 OA
ATOM     75  O   UNL A   1      44.253  33.033  24.391  1.00  0.00    -0.744 OA
ENDBRANCH  71  72
ENDBRANCH  39  64
ENDBRANCH  13  14
ENDBRANCH   6   8
ENDBRANCH   3   4
ENDBRANCH   2   3
ENDBRANCH   1   2
BRANCH   1  76
ATOM     76  C   UNL A   1      34.844  30.581  28.144  1.00  0.00     0.002 C 
BRANCH  76  77
ATOM     77  C   UNL A   1      35.346  29.411  27.287  1.00  0.00     0.021 C 
BRANCH  77  78
ATOM     78  C   UNL A   1      34.241  28.598  26.612  1.00  0.00     0.116 C 
BRANCH  78  79
ATOM     79  N   UNL A   1      33.134  28.368  27.526  1.00  0.00    -0.351 N 
ATOM     80  C   UNL A   1      31.871  27.888  27.261  1.00  0.00     0.272 C 
ATOM     81  H   UNL A   1      33.313  28.587  28.470  1.00  0.00     0.163 HD
ATOM     82  O   UNL A   1      30.994  28.048  28.111  1.00  0.00    -0.267 OA
BRANCH  80  83
ATOM     83  C   UNL A   1      31.584  27.241  25.970  1.00  0.00     0.155 A 
ATOM     84  N   UNL A   1      31.210  27.927  24.871  1.00  0.00    -0.167 NA
ATOM     85  C   UNL A   1      31.712  25.859  25.665  1.00  0.00     0.026 A 
ATOM     86  N   UNL A   1      31.000  26.996  23.919  1.00  0.00    -0.264 N 
ATOM     87  C   UNL A   1      31.256  25.736  24.368  1.00  0.00     0.046 A 
ATOM     88  C   UNL A   1      32.166  24.714  26.511  1.00  0.00     0.159 C 
ATOM     89  C   UNL A   1      31.124  24.449  23.642  1.00  0.00     0.078 C 
ATOM     90  N   UNL A   1      32.212  23.492  25.673  1.00  0.00    -0.337 N 
ATOM     91  C   UNL A   1      31.119  23.318  24.693  1.00  0.00     0.126 C 
BRANCH  86  92
ATOM     92  C   UNL A   1      30.666  27.418  22.564  1.00  0.00     0.180 C 
BRANCH  92  93
ATOM     93  C   UNL A   1      29.712  28.589  22.539  1.00  0.00    -0.026 A 
ATOM     94  C   UNL A   1      30.110  29.810  21.966  1.00  0.00     0.008 A 
ATOM     95  C   UNL A   1      28.413  28.474  23.061  1.00  0.00     0.008 A 
ATOM     96  C   UNL A   1      29.230  30.890  21.909  1.00  0.00     0.039 A 
ATOM     97  C   UNL A   1      27.533  29.557  22.999  1.00  0.00     0.039 A 
ATOM     98  C   UNL A   1      27.948  30.753  22.424  1.00  0.00     0.123 A 
ATOM     99  F   UNL A   1      27.096  31.785  22.368  1.00  0.00    -0.207 F 
ENDBRANCH  92  93
ENDBRANCH  86  92
BRANCH  90 100
ATOM    100  C   UNL A   1      33.249  22.590  25.875  1.00  0.00     0.232 C 
ATOM    101  O   UNL A   1      33.427  21.979  26.916  1.00  0.00    -0.274 OA
BRANCH 100 102
ATOM    102  C   UNL A   1      34.143  22.335  24.725  1.00  0.00     0.154 C 
ATOM    103  C   UNL A   1      34.972  23.463  24.128  1.00  0.00     0.097 C 
ATOM    104  C   UNL A   1      35.615  22.364  24.888  1.00  0.00     0.260 C 
ATOM    105  F   UNL A   1      36.252  22.663  26.068  1.00  0.00    -0.206 F 
ATOM    106  F   UNL A   1      36.414  21.469  24.209  1.00  0.00    -0.206 F 
ENDBRANCH 100 102
ENDBRANCH  90 100
ENDBRANCH  80  83
ENDBRANCH  78  79
ENDBRANCH  77  78
ENDBRANCH  76  77
ENDBRANCH   1  76
TORSDOF 20
ENDMDL
