MODEL 1
REMARK VINA RESULT:     -11.7      0.000      0.000
REMARK SMILES Cc1cc(F)cc(N[C@](C)(C(=O)NCCCCCCNC(=O)c2ccc(-c3c4nc(c(-c5c(F)cc(S(=O)(=O)[O-])cc5F)c5ccc([nH]5)c(-c5c(F)cc(S(=O)(=O)[O-])cc5F)c5nc(c(-c6c(F)cc(S(=O)(=O)[O-])cc6F)c6ccc3[nH]6)C=C5)C=C4)cc2)c2cccc(F)c2)c1
REMARK SMILES IDX 17 1 16 2 15 3 14 4 13 5 11 6 12 7 9 9 10 10 8 11 7 13 1 14
REMARK SMILES IDX 2 15 3 16 96 17 4 18 5 19 6 20 89 21 90 22 95 23 91 24 93 25
REMARK SMILES IDX 92 26 94 27 18 28 19 29 20 30 21 31 22 33 23 34 24 35 88 36
REMARK SMILES IDX 25 37 87 38 26 39 27 40 28 41 81 42 29 43 86 44 80 45 82 46
REMARK SMILES IDX 30 47 85 48 79 49 78 50 31 52 65 53 44 54 64 55 45 56 48 57
REMARK SMILES IDX 63 58 83 59 46 60 47 61 62 63 84 64 49 65 32 66 33 67 42 68
REMARK SMILES IDX 34 69 35 70 41 71 43 72 36 73 37 74 38 75 39 76 40 77 66 78
REMARK SMILES IDX 67 79 76 80 68 81 69 82 75 83 77 84 70 85 71 86 72 87 73 88
REMARK SMILES IDX 74 89 50 90 51 91 60 92 52 93 53 94 59 95 61 96 54 97 55 98
REMARK SMILES IDX 56 99 57 100 58 101
REMARK H PARENT 13 8 8 12 20 32 82 51 48 62
REMARK Flexibility Score: inf
ROOT
ATOM      1  C   UNL A   1      32.852  27.058  25.087  1.00  0.00     0.002 C 
ENDROOT
BRANCH   1   2
ATOM      2  C   UNL A   1      31.361  26.936  24.750  1.00  0.00     0.002 C 
BRANCH   2   3
ATOM      3  C   UNL A   1      30.585  25.933  25.611  1.00  0.00     0.021 C 
BRANCH   3   4
ATOM      4  C   UNL A   1      31.471  25.141  26.577  1.00  0.00     0.116 C 
BRANCH   4   5
ATOM      5  N   UNL A   1      30.955  23.801  26.739  1.00  0.00    -0.354 N 
ATOM      6  C   UNL A   1      31.197  22.664  26.030  1.00  0.00     0.250 C 
ATOM      7  O   UNL A   1      30.271  21.836  26.058  1.00  0.00    -0.272 OA
ATOM      8  H   UNL A   1      30.324  23.693  27.486  1.00  0.00     0.163 HD
BRANCH   6   9
ATOM      9  C   UNL A   1      32.536  22.369  25.215  1.00  0.00     0.139 C 
ATOM     10  C   UNL A   1      32.898  23.325  24.050  1.00  0.00     0.051 C 
BRANCH   9  11
ATOM     11  N   UNL A   1      33.664  22.520  26.200  1.00  0.00    -0.368 N 
ATOM     12  H   UNL A   1      33.407  22.694  27.135  1.00  0.00     0.161 HD
BRANCH  11  13
ATOM     13  C   UNL A   1      35.032  22.440  25.938  1.00  0.00     0.038 A 
ATOM     14  C   UNL A   1      37.429  19.668  24.796  1.00  0.00     0.044 C 
ATOM     15  C   UNL A   1      36.905  21.009  25.208  1.00  0.00    -0.046 A 
ATOM     16  C   UNL A   1      37.773  22.096  25.298  1.00  0.00     0.042 A 
ATOM     17  C   UNL A   1      35.544  21.198  25.509  1.00  0.00     0.029 A 
ATOM     18  C   UNL A   1      37.279  23.329  25.696  1.00  0.00     0.125 A 
ATOM     19  F   UNL A   1      38.115  24.372  25.789  1.00  0.00    -0.207 F 
ATOM     20  C   UNL A   1      35.933  23.504  26.012  1.00  0.00     0.065 A 
ENDBRANCH  11  13
ENDBRANCH   9  11
BRANCH   9  21
ATOM     21  C   UNL A   1      32.451  20.897  24.688  1.00  0.00    -0.011 A 
ATOM     22  C   UNL A   1      32.316  20.561  23.325  1.00  0.00     0.007 A 
ATOM     23  C   UNL A   1      32.609  19.808  25.574  1.00  0.00     0.046 A 
ATOM     24  C   UNL A   1      32.330  19.227  22.884  1.00  0.00     0.003 A 
ATOM     25  C   UNL A   1      32.652  18.490  25.126  1.00  0.00     0.123 A 
ATOM     26  C   UNL A   1      32.511  18.187  23.786  1.00  0.00     0.039 A 
ATOM     27  F   UNL A   1      32.858  17.506  26.012  1.00  0.00    -0.207 F 
ENDBRANCH   9  21
ENDBRANCH   6   9
ENDBRANCH   4   5
ENDBRANCH   3   4
ENDBRANCH   2   3
ENDBRANCH   1   2
BRANCH   1  28
ATOM     28  C   UNL A   1      33.309  28.459  25.502  1.00  0.00     0.021 C 
BRANCH  28  29
ATOM     29  C   UNL A   1      33.728  28.574  26.964  1.00  0.00     0.116 C 
BRANCH  29  30
ATOM     30  N   UNL A   1      33.611  29.941  27.450  1.00  0.00    -0.352 N 
ATOM     31  C   UNL A   1      34.503  30.662  28.208  1.00  0.00     0.251 C 
ATOM     32  H   UNL A   1      32.782  30.411  27.203  1.00  0.00     0.163 HD
ATOM     33  O   UNL A   1      34.170  31.717  28.729  1.00  0.00    -0.269 OA
BRANCH  31  34
ATOM     34  C   UNL A   1      35.871  30.132  28.394  1.00  0.00     0.039 A 
ATOM     35  C   UNL A   1      36.766  30.152  27.322  1.00  0.00     0.014 A 
ATOM     36  C   UNL A   1      36.266  29.645  29.643  1.00  0.00     0.014 A 
ATOM     37  C   UNL A   1      38.087  29.743  27.524  1.00  0.00     0.010 A 
ATOM     38  C   UNL A   1      37.595  29.301  29.856  1.00  0.00     0.010 A 
ATOM     39  C   UNL A   1      38.518  29.349  28.800  1.00  0.00    -0.014 A 
BRANCH  39  40
ATOM     40  C   UNL A   1      39.929  28.977  29.074  1.00  0.00     0.031 A 
ATOM     41  C   UNL A   1      40.874  30.005  29.630  1.00  0.00     0.074 A 
ATOM     42  C   UNL A   1      40.380  27.756  28.726  1.00  0.00     0.049 A 
ATOM     43  N   UNL A   1      42.169  29.934  29.799  1.00  0.00    -0.248 NA
ATOM     44  C   UNL A   1      40.286  31.297  30.016  1.00  0.00     0.031 C 
ATOM     45  C   UNL A   1      39.566  26.682  28.155  1.00  0.00     0.029 A 
ATOM     46  N   UNL A   1      41.642  27.220  28.784  1.00  0.00    -0.354 N 
ATOM     47  C   UNL A   1      42.555  31.180  30.280  1.00  0.00     0.074 A 
ATOM     48  C   UNL A   1      41.363  31.998  30.336  1.00  0.00     0.031 C 
ATOM     49  C   UNL A   1      40.343  25.609  27.936  1.00  0.00     0.029 A 
ATOM     50  C   UNL A   1      41.718  25.934  28.305  1.00  0.00     0.049 A 
ATOM     51  H   UNL A   1      42.420  27.710  29.136  1.00  0.00     0.167 HD
ATOM     52  C   UNL A   1      43.788  31.597  30.653  1.00  0.00     0.037 A 
ATOM     53  C   UNL A   1      42.778  25.115  28.166  1.00  0.00     0.037 A 
ATOM     54  C   UNL A   1      44.963  30.767  30.618  1.00  0.00     0.049 A 
ATOM     55  C   UNL A   1      44.142  25.605  28.570  1.00  0.00     0.074 A 
ATOM     56  C   UNL A   1      46.247  31.072  31.031  1.00  0.00     0.029 A 
ATOM     57  N   UNL A   1      44.997  29.466  30.136  1.00  0.00    -0.354 N 
ATOM     58  N   UNL A   1      44.485  26.769  29.067  1.00  0.00    -0.248 NA
ATOM     59  C   UNL A   1      45.262  24.671  28.393  1.00  0.00     0.031 C 
ATOM     60  C   UNL A   1      47.067  29.970  30.761  1.00  0.00     0.029 A 
ATOM     61  C   UNL A   1      46.283  28.961  30.222  1.00  0.00     0.049 A 
ATOM     62  H   UNL A   1      44.220  28.973  29.783  1.00  0.00     0.167 HD
ATOM     63  C   UNL A   1      45.854  26.696  29.297  1.00  0.00     0.074 A 
ATOM     64  C   UNL A   1      46.276  25.374  28.880  1.00  0.00     0.031 C 
ATOM     65  C   UNL A   1      46.684  27.636  29.815  1.00  0.00     0.037 A 
BRANCH  52  66
ATOM     66  C   UNL A   1      43.921  33.024  31.115  1.00  0.00     0.058 A 
ATOM     67  C   UNL A   1      44.238  34.064  30.225  1.00  0.00     0.135 A 
ATOM     68  C   UNL A   1      43.745  33.353  32.468  1.00  0.00     0.135 A 
ATOM     69  F   UNL A   1      44.431  33.804  28.921  1.00  0.00    -0.206 F 
ATOM     70  C   UNL A   1      44.429  35.368  30.669  1.00  0.00     0.059 A 
ATOM     71  C   UNL A   1      43.900  34.657  32.929  1.00  0.00     0.059 A 
ATOM     72  F   UNL A   1      43.436  32.400  33.362  1.00  0.00    -0.206 F 
ATOM     73  C   UNL A   1      44.268  35.653  32.025  1.00  0.00     0.060 A 
BRANCH  73  74
ATOM     74  S   UNL A   1      44.561  37.340  32.596  1.00  0.00     0.124 S 
ATOM     75  O   UNL A   1      45.988  37.299  32.901  1.00  0.00    -0.237 OA
ATOM     76  O   UNL A   1      44.185  38.136  31.432  1.00  0.00    -0.237 OA
ATOM     77  O   UNL A   1      43.677  37.466  33.750  1.00  0.00    -0.744 OA
ENDBRANCH  73  74
ENDBRANCH  52  66
BRANCH  53  78
ATOM     78  C   UNL A   1      42.581  23.732  27.658  1.00  0.00     0.058 A 
ATOM     79  C   UNL A   1      42.571  23.477  26.279  1.00  0.00     0.135 A 
ATOM     80  C   UNL A   1      42.439  22.640  28.527  1.00  0.00     0.135 A 
ATOM     81  F   UNL A   1      42.696  24.492  25.409  1.00  0.00    -0.206 F 
ATOM     82  C   UNL A   1      42.424  22.189  25.776  1.00  0.00     0.059 A 
ATOM     83  C   UNL A   1      42.313  21.339  28.048  1.00  0.00     0.059 A 
ATOM     84  F   UNL A   1      42.459  22.828  29.856  1.00  0.00    -0.206 F 
ATOM     85  C   UNL A   1      42.301  21.125  26.669  1.00  0.00     0.060 A 
BRANCH  85  86
ATOM     86  S   UNL A   1      42.184  19.449  26.004  1.00  0.00     0.124 S 
ATOM     87  O   UNL A   1      40.751  19.328  25.766  1.00  0.00    -0.237 OA
ATOM     88  O   UNL A   1      43.026  19.532  24.816  1.00  0.00    -0.237 OA
ATOM     89  O   UNL A   1      42.717  18.623  27.084  1.00  0.00    -0.744 OA
ENDBRANCH  85  86
ENDBRANCH  53  78
BRANCH  65  90
ATOM     90  C   UNL A   1      48.125  27.257  30.008  1.00  0.00     0.058 A 
ATOM     91  C   UNL A   1      49.104  27.556  29.049  1.00  0.00     0.135 A 
ATOM     92  C   UNL A   1      48.540  26.647  31.203  1.00  0.00     0.135 A 
ATOM     93  F   UNL A   1      48.758  28.130  27.887  1.00  0.00    -0.206 F 
ATOM     94  C   UNL A   1      50.445  27.251  29.262  1.00  0.00     0.059 A 
ATOM     95  C   UNL A   1      49.878  26.356  31.448  1.00  0.00     0.059 A 
ATOM     96  F   UNL A   1      47.643  26.348  32.156  1.00  0.00    -0.206 F 
ATOM     97  C   UNL A   1      50.823  26.656  30.467  1.00  0.00     0.060 A 
BRANCH  97  98
ATOM     98  S   UNL A   1      52.572  26.314  30.756  1.00  0.00     0.124 S 
ATOM     99  O   UNL A   1      53.006  27.539  31.419  1.00  0.00    -0.237 OA
ATOM    100  O   UNL A   1      52.523  25.122  31.597  1.00  0.00    -0.237 OA
ATOM    101  O   UNL A   1      53.104  26.104  29.413  1.00  0.00    -0.744 OA
ENDBRANCH  97  98
ENDBRANCH  65  90
ENDBRANCH  39  40
ENDBRANCH  31  34
ENDBRANCH  29  30
ENDBRANCH  28  29
ENDBRANCH   1  28
TORSDOF 19
ENDMDL
MODEL 2
REMARK VINA RESULT:     -11.7      5.202     10.972
REMARK SMILES Cc1cc(F)cc(N[C@](C)(C(=O)NCCCCCCNC(=O)c2ccc(-c3c4nc(c(-c5c(F)cc(S(=O)(=O)[O-])cc5F)c5ccc([nH]5)c(-c5c(F)cc(S(=O)(=O)[O-])cc5F)c5nc(c(-c6c(F)cc(S(=O)(=O)[O-])cc6F)c6ccc3[nH]6)C=C5)C=C4)cc2)c2cccc(F)c2)c1
REMARK SMILES IDX 17 1 16 2 15 3 14 4 13 5 11 6 12 7 9 9 10 10 8 11 7 13 1 14
REMARK SMILES IDX 2 15 3 16 96 17 4 18 5 19 6 20 89 21 90 22 95 23 91 24 93 25
REMARK SMILES IDX 92 26 94 27 18 28 19 29 20 30 21 31 22 33 23 34 24 35 88 36
REMARK SMILES IDX 25 37 87 38 26 39 27 40 28 41 81 42 29 43 86 44 80 45 82 46
REMARK SMILES IDX 30 47 85 48 79 49 78 50 31 52 65 53 44 54 64 55 45 56 48 57
REMARK SMILES IDX 63 58 83 59 46 60 47 61 62 63 84 64 49 65 32 66 33 67 42 68
REMARK SMILES IDX 34 69 35 70 41 71 43 72 36 73 37 74 38 75 39 76 40 77 66 78
REMARK SMILES IDX 67 79 76 80 68 81 69 82 75 83 77 84 70 85 71 86 72 87 73 88
REMARK SMILES IDX 74 89 50 90 51 91 60 92 52 93 53 94 59 95 61 96 54 97 55 98
REMARK SMILES IDX 56 99 57 100 58 101
REMARK H PARENT 13 8 8 12 20 32 82 51 48 62
REMARK Flexibility Score: inf
ROOT
ATOM      1  C   UNL A   1      36.301  23.490  25.225  1.00  0.00     0.002 C 
ENDROOT
BRANCH   1   2
ATOM      2  C   UNL A   1      36.098  23.328  23.714  1.00  0.00     0.002 C 
BRANCH   2   3
ATOM      3  C   UNL A   1      34.636  23.345  23.254  1.00  0.00     0.021 C 
BRANCH   3   4
ATOM      4  C   UNL A   1      33.811  24.476  23.875  1.00  0.00     0.116 C 
BRANCH   4   5
ATOM      5  N   UNL A   1      32.482  24.490  23.309  1.00  0.00    -0.354 N 
ATOM      6  C   UNL A   1      31.590  25.507  23.161  1.00  0.00     0.250 C 
ATOM      7  O   UNL A   1      30.401  25.146  23.132  1.00  0.00    -0.272 OA
ATOM      8  H   UNL A   1      32.170  23.619  22.974  1.00  0.00     0.163 HD
BRANCH   6   9
ATOM      9  C   UNL A   1      31.981  27.048  23.035  1.00  0.00     0.139 C 
ATOM     10  C   UNL A   1      33.352  27.396  22.401  1.00  0.00     0.051 C 
BRANCH   9  11
ATOM     11  N   UNL A   1      30.964  27.661  22.111  1.00  0.00    -0.368 N 
ATOM     12  H   UNL A   1      31.105  27.514  21.147  1.00  0.00     0.161 HD
BRANCH  11  13
ATOM     13  C   UNL A   1      29.844  28.414  22.466  1.00  0.00     0.038 A 
ATOM     14  C   UNL A   1      28.897  32.130  22.307  1.00  0.00     0.044 C 
ATOM     15  C   UNL A   1      28.808  30.652  22.534  1.00  0.00    -0.046 A 
ATOM     16  C   UNL A   1      27.643  30.099  23.063  1.00  0.00     0.042 A 
ATOM     17  C   UNL A   1      29.885  29.802  22.224  1.00  0.00     0.029 A 
ATOM     18  C   UNL A   1      27.580  28.732  23.284  1.00  0.00     0.125 A 
ATOM     19  F   UNL A   1      26.462  28.202  23.798  1.00  0.00    -0.207 F 
ATOM     20  C   UNL A   1      28.658  27.898  22.993  1.00  0.00     0.065 A 
ENDBRANCH  11  13
ENDBRANCH   9  11
BRANCH   9  21
ATOM     21  C   UNL A   1      31.883  27.677  24.465  1.00  0.00    -0.011 A 
ATOM     22  C   UNL A   1      31.292  27.026  25.568  1.00  0.00     0.007 A 
ATOM     23  C   UNL A   1      32.490  28.922  24.744  1.00  0.00     0.046 A 
ATOM     24  C   UNL A   1      31.300  27.588  26.856  1.00  0.00     0.003 A 
ATOM     25  C   UNL A   1      32.521  29.460  26.029  1.00  0.00     0.123 A 
ATOM     26  C   UNL A   1      31.928  28.804  27.091  1.00  0.00     0.039 A 
ATOM     27  F   UNL A   1      33.158  30.620  26.237  1.00  0.00    -0.207 F 
ENDBRANCH   9  21
ENDBRANCH   6   9
ENDBRANCH   4   5
ENDBRANCH   3   4
ENDBRANCH   2   3
ENDBRANCH   1   2
BRANCH   1  28
ATOM     28  C   UNL A   1      37.650  22.996  25.753  1.00  0.00     0.021 C 
BRANCH  28  29
ATOM     29  C   UNL A   1      38.506  24.082  26.396  1.00  0.00     0.116 C 
BRANCH  29  30
ATOM     30  N   UNL A   1      39.924  23.869  26.142  1.00  0.00    -0.352 N 
ATOM     31  C   UNL A   1      40.989  24.657  26.509  1.00  0.00     0.251 C 
ATOM     32  H   UNL A   1      40.148  23.053  25.641  1.00  0.00     0.163 HD
ATOM     33  O   UNL A   1      42.098  24.467  26.031  1.00  0.00    -0.269 OA
BRANCH  31  34
ATOM     34  C   UNL A   1      40.767  25.747  27.482  1.00  0.00     0.039 A 
ATOM     35  C   UNL A   1      39.795  25.595  28.473  1.00  0.00     0.014 A 
ATOM     36  C   UNL A   1      41.548  26.904  27.423  1.00  0.00     0.014 A 
ATOM     37  C   UNL A   1      39.652  26.582  29.452  1.00  0.00     0.010 A 
ATOM     38  C   UNL A   1      41.449  27.852  28.434  1.00  0.00     0.010 A 
ATOM     39  C   UNL A   1      40.502  27.699  29.459  1.00  0.00    -0.014 A 
BRANCH  39  40
ATOM     40  C   UNL A   1      40.434  28.734  30.521  1.00  0.00     0.031 A 
ATOM     41  C   UNL A   1      41.329  28.625  31.724  1.00  0.00     0.074 A 
ATOM     42  C   UNL A   1      39.500  29.703  30.454  1.00  0.00     0.049 A 
ATOM     43  N   UNL A   1      41.325  29.329  32.826  1.00  0.00    -0.248 NA
ATOM     44  C   UNL A   1      42.343  27.559  31.693  1.00  0.00     0.031 C 
ATOM     45  C   UNL A   1      38.558  29.897  29.351  1.00  0.00     0.029 A 
ATOM     46  N   UNL A   1      39.177  30.696  31.344  1.00  0.00    -0.354 N 
ATOM     47  C   UNL A   1      42.311  28.773  33.632  1.00  0.00     0.074 A 
ATOM     48  C   UNL A   1      42.863  27.648  32.908  1.00  0.00     0.031 C 
ATOM     49  C   UNL A   1      37.779  30.958  29.619  1.00  0.00     0.029 A 
ATOM     50  C   UNL A   1      38.132  31.488  30.933  1.00  0.00     0.049 A 
ATOM     51  H   UNL A   1      39.651  30.829  32.197  1.00  0.00     0.167 HD
ATOM     52  C   UNL A   1      42.726  29.171  34.858  1.00  0.00     0.037 A 
ATOM     53  C   UNL A   1      37.520  32.516  31.551  1.00  0.00     0.037 A 
ATOM     54  C   UNL A   1      42.188  30.307  35.558  1.00  0.00     0.049 A 
ATOM     55  C   UNL A   1      37.985  32.932  32.919  1.00  0.00     0.074 A 
ATOM     56  C   UNL A   1      42.579  30.834  36.776  1.00  0.00     0.029 A 
ATOM     57  N   UNL A   1      41.136  31.091  35.103  1.00  0.00    -0.354 N 
ATOM     58  N   UNL A   1      38.949  32.426  33.650  1.00  0.00    -0.248 NA
ATOM     59  C   UNL A   1      37.279  34.057  33.547  1.00  0.00     0.031 C 
ATOM     60  C   UNL A   1      41.737  31.911  37.077  1.00  0.00     0.029 A 
ATOM     61  C   UNL A   1      40.851  32.084  36.025  1.00  0.00     0.049 A 
ATOM     62  H   UNL A   1      40.662  30.960  34.250  1.00  0.00     0.167 HD
ATOM     63  C   UNL A   1      38.990  33.194  34.809  1.00  0.00     0.074 A 
ATOM     64  C   UNL A   1      37.950  34.194  34.683  1.00  0.00     0.031 C 
ATOM     65  C   UNL A   1      39.820  33.083  35.876  1.00  0.00     0.037 A 
BRANCH  52  66
ATOM     66  C   UNL A   1      43.805  28.356  35.519  1.00  0.00     0.058 A 
ATOM     67  C   UNL A   1      45.167  28.596  35.278  1.00  0.00     0.135 A 
ATOM     68  C   UNL A   1      43.470  27.308  36.392  1.00  0.00     0.135 A 
ATOM     69  F   UNL A   1      45.544  29.577  34.440  1.00  0.00    -0.206 F 
ATOM     70  C   UNL A   1      46.158  27.794  35.835  1.00  0.00     0.059 A 
ATOM     71  C   UNL A   1      44.446  26.514  36.986  1.00  0.00     0.059 A 
ATOM     72  F   UNL A   1      42.185  27.037  36.663  1.00  0.00    -0.206 F 
ATOM     73  C   UNL A   1      45.787  26.748  36.681  1.00  0.00     0.060 A 
BRANCH  73  74
ATOM     74  S   UNL A   1      47.078  25.688  37.364  1.00  0.00     0.124 S 
ATOM     75  O   UNL A   1      47.306  24.762  36.258  1.00  0.00    -0.237 OA
ATOM     76  O   UNL A   1      48.156  26.635  37.629  1.00  0.00    -0.237 OA
ATOM     77  O   UNL A   1      46.451  25.109  38.547  1.00  0.00    -0.744 OA
ENDBRANCH  73  74
ENDBRANCH  52  66
BRANCH  53  78
ATOM     78  C   UNL A   1      36.428  33.249  30.859  1.00  0.00     0.058 A 
ATOM     79  C   UNL A   1      35.102  33.131  31.302  1.00  0.00     0.135 A 
ATOM     80  C   UNL A   1      36.682  34.103  29.776  1.00  0.00     0.135 A 
ATOM     81  F   UNL A   1      34.809  32.319  32.330  1.00  0.00    -0.206 F 
ATOM     82  C   UNL A   1      34.065  33.832  30.696  1.00  0.00     0.059 A 
ATOM     83  C   UNL A   1      35.664  34.832  29.167  1.00  0.00     0.059 A 
ATOM     84  F   UNL A   1      37.936  34.263  29.323  1.00  0.00    -0.206 F 
ATOM     85  C   UNL A   1      34.357  34.685  29.632  1.00  0.00     0.060 A 
BRANCH  85  86
ATOM     86  S   UNL A   1      33.012  35.644  28.900  1.00  0.00     0.124 S 
ATOM     87  O   UNL A   1      32.273  36.065  30.084  1.00  0.00    -0.237 OA
ATOM     88  O   UNL A   1      33.736  36.694  28.191  1.00  0.00    -0.237 OA
ATOM     89  O   UNL A   1      32.336  34.673  28.044  1.00  0.00    -0.744 OA
ENDBRANCH  85  86
ENDBRANCH  53  78
BRANCH  65  90
ATOM     90  C   UNL A   1      39.675  34.099  36.975  1.00  0.00     0.058 A 
ATOM     91  C   UNL A   1      39.000  33.806  38.169  1.00  0.00     0.135 A 
ATOM     92  C   UNL A   1      40.282  35.360  36.854  1.00  0.00     0.135 A 
ATOM     93  F   UNL A   1      38.396  32.619  38.330  1.00  0.00    -0.206 F 
ATOM     94  C   UNL A   1      38.920  34.734  39.202  1.00  0.00     0.059 A 
ATOM     95  C   UNL A   1      40.236  36.293  37.884  1.00  0.00     0.059 A 
ATOM     96  F   UNL A   1      40.947  35.685  35.734  1.00  0.00    -0.206 F 
ATOM     97  C   UNL A   1      39.546  35.974  39.052  1.00  0.00     0.060 A 
BRANCH  97  98
ATOM     98  S   UNL A   1      39.481  37.150  40.420  1.00  0.00     0.124 S 
ATOM     99  O   UNL A   1      40.890  37.253  40.786  1.00  0.00    -0.237 OA
ATOM    100  O   UNL A   1      38.902  38.332  39.789  1.00  0.00    -0.237 OA
ATOM    101  O   UNL A   1      38.624  36.487  41.399  1.00  0.00    -0.744 OA
ENDBRANCH  97  98
ENDBRANCH  65  90
ENDBRANCH  39  40
ENDBRANCH  31  34
ENDBRANCH  29  30
ENDBRANCH  28  29
ENDBRANCH   1  28
TORSDOF 19
ENDMDL
MODEL 3
REMARK VINA RESULT:     -11.5      2.321      3.063
REMARK SMILES Cc1cc(F)cc(N[C@](C)(C(=O)NCCCCCCNC(=O)c2ccc(-c3c4nc(c(-c5c(F)cc(S(=O)(=O)[O-])cc5F)c5ccc([nH]5)c(-c5c(F)cc(S(=O)(=O)[O-])cc5F)c5nc(c(-c6c(F)cc(S(=O)(=O)[O-])cc6F)c6ccc3[nH]6)C=C5)C=C4)cc2)c2cccc(F)c2)c1
REMARK SMILES IDX 17 1 16 2 15 3 14 4 13 5 11 6 12 7 9 9 10 10 8 11 7 13 1 14
REMARK SMILES IDX 2 15 3 16 96 17 4 18 5 19 6 20 89 21 90 22 95 23 91 24 93 25
REMARK SMILES IDX 92 26 94 27 18 28 19 29 20 30 21 31 22 33 23 34 24 35 88 36
REMARK SMILES IDX 25 37 87 38 26 39 27 40 28 41 81 42 29 43 86 44 80 45 82 46
REMARK SMILES IDX 30 47 85 48 79 49 78 50 31 52 65 53 44 54 64 55 45 56 48 57
REMARK SMILES IDX 63 58 83 59 46 60 47 61 62 63 84 64 49 65 32 66 33 67 42 68
REMARK SMILES IDX 34 69 35 70 41 71 43 72 36 73 37 74 38 75 39 76 40 77 66 78
REMARK SMILES IDX 67 79 76 80 68 81 69 82 75 83 77 84 70 85 71 86 72 87 73 88
REMARK SMILES IDX 74 89 50 90 51 91 60 92 52 93 53 94 59 95 61 96 54 97 55 98
REMARK SMILES IDX 56 99 57 100 58 101
REMARK H PARENT 13 8 8 12 20 32 82 51 48 62
REMARK Flexibility Score: inf
ROOT
ATOM      1  C   UNL A   1      33.758  27.911  26.517  1.00  0.00     0.002 C 
ENDROOT
BRANCH   1   2
ATOM      2  C   UNL A   1      32.382  27.500  27.054  1.00  0.00     0.002 C 
BRANCH   2   3
ATOM      3  C   UNL A   1      31.540  26.656  26.091  1.00  0.00     0.021 C 
BRANCH   3   4
ATOM      4  C   UNL A   1      32.273  25.422  25.558  1.00  0.00     0.116 C 
BRANCH   4   5
ATOM      5  N   UNL A   1      31.615  24.219  26.012  1.00  0.00    -0.354 N 
ATOM      6  C   UNL A   1      31.726  22.930  25.588  1.00  0.00     0.250 C 
ATOM      7  O   UNL A   1      30.715  22.235  25.786  1.00  0.00    -0.272 OA
ATOM      8  H   UNL A   1      30.980  24.354  26.751  1.00  0.00     0.163 HD
BRANCH   6   9
ATOM      9  C   UNL A   1      33.020  22.313  24.889  1.00  0.00     0.139 C 
ATOM     10  C   UNL A   1      33.598  23.053  23.656  1.00  0.00     0.051 C 
BRANCH   9  11
ATOM     11  N   UNL A   1      34.116  22.368  25.918  1.00  0.00    -0.368 N 
ATOM     12  H   UNL A   1      33.837  22.561  26.843  1.00  0.00     0.161 HD
BRANCH  11  13
ATOM     13  C   UNL A   1      35.482  22.176  25.711  1.00  0.00     0.038 A 
ATOM     14  C   UNL A   1      38.645  24.276  26.277  1.00  0.00     0.044 C 
ATOM     15  C   UNL A   1      37.748  23.131  25.920  1.00  0.00    -0.046 A 
ATOM     16  C   UNL A   1      38.294  21.950  25.421  1.00  0.00     0.042 A 
ATOM     17  C   UNL A   1      36.353  23.223  26.077  1.00  0.00     0.029 A 
ATOM     18  C   UNL A   1      37.451  20.903  25.078  1.00  0.00     0.125 A 
ATOM     19  F   UNL A   1      37.977  19.770  24.592  1.00  0.00    -0.207 F 
ATOM     20  C   UNL A   1      36.068  21.009  25.218  1.00  0.00     0.065 A 
ENDBRANCH  11  13
ENDBRANCH   9  11
BRANCH   9  21
ATOM     21  C   UNL A   1      32.688  20.830  24.510  1.00  0.00    -0.011 A 
ATOM     22  C   UNL A   1      32.371  20.408  23.201  1.00  0.00     0.007 A 
ATOM     23  C   UNL A   1      32.790  19.804  25.475  1.00  0.00     0.046 A 
ATOM     24  C   UNL A   1      32.164  19.055  22.887  1.00  0.00     0.003 A 
ATOM     25  C   UNL A   1      32.612  18.461  25.150  1.00  0.00     0.123 A 
ATOM     26  C   UNL A   1      32.296  18.075  23.861  1.00  0.00     0.039 A 
ATOM     27  F   UNL A   1      32.775  17.531  26.101  1.00  0.00    -0.207 F 
ENDBRANCH   9  21
ENDBRANCH   6   9
ENDBRANCH   4   5
ENDBRANCH   3   4
ENDBRANCH   2   3
ENDBRANCH   1   2
BRANCH   1  28
ATOM     28  C   UNL A   1      34.170  29.353  26.827  1.00  0.00     0.021 C 
BRANCH  28  29
ATOM     29  C   UNL A   1      35.459  29.477  27.632  1.00  0.00     0.116 C 
BRANCH  29  30
ATOM     30  N   UNL A   1      35.258  30.251  28.849  1.00  0.00    -0.352 N 
ATOM     31  C   UNL A   1      36.165  30.538  29.842  1.00  0.00     0.251 C 
ATOM     32  H   UNL A   1      34.354  30.616  28.977  1.00  0.00     0.163 HD
ATOM     33  O   UNL A   1      35.794  31.006  30.909  1.00  0.00    -0.269 OA
BRANCH  31  34
ATOM     34  C   UNL A   1      37.597  30.260  29.601  1.00  0.00     0.039 A 
ATOM     35  C   UNL A   1      38.429  29.964  30.682  1.00  0.00     0.014 A 
ATOM     36  C   UNL A   1      38.098  30.265  28.297  1.00  0.00     0.014 A 
ATOM     37  C   UNL A   1      39.760  29.605  30.446  1.00  0.00     0.010 A 
ATOM     38  C   UNL A   1      39.401  29.845  28.061  1.00  0.00     0.010 A 
ATOM     39  C   UNL A   1      40.243  29.509  29.132  1.00  0.00    -0.014 A 
BRANCH  39  40
ATOM     40  C   UNL A   1      41.626  29.060  28.834  1.00  0.00     0.031 A 
ATOM     41  C   UNL A   1      42.751  30.058  28.846  1.00  0.00     0.074 A 
ATOM     42  C   UNL A   1      41.850  27.788  28.451  1.00  0.00     0.049 A 
ATOM     43  N   UNL A   1      43.995  29.909  28.470  1.00  0.00    -0.248 NA
ATOM     44  C   UNL A   1      42.420  31.414  29.313  1.00  0.00     0.031 C 
ATOM     45  C   UNL A   1      40.838  26.734  28.376  1.00  0.00     0.029 A 
ATOM     46  N   UNL A   1      43.003  27.170  28.035  1.00  0.00    -0.354 N 
ATOM     47  C   UNL A   1      44.587  31.157  28.626  1.00  0.00     0.074 A 
ATOM     48  C   UNL A   1      43.555  32.059  29.089  1.00  0.00     0.031 C 
ATOM     49  C   UNL A   1      41.417  25.596  27.961  1.00  0.00     0.029 A 
ATOM     50  C   UNL A   1      42.830  25.850  27.695  1.00  0.00     0.049 A 
ATOM     51  H   UNL A   1      43.872  27.630  27.984  1.00  0.00     0.167 HD
ATOM     52  C   UNL A   1      45.876  31.514  28.412  1.00  0.00     0.037 A 
ATOM     53  C   UNL A   1      43.707  24.950  27.211  1.00  0.00     0.037 A 
ATOM     54  C   UNL A   1      46.900  30.602  27.977  1.00  0.00     0.049 A 
ATOM     55  C   UNL A   1      45.130  25.372  26.966  1.00  0.00     0.074 A 
ATOM     56  C   UNL A   1      48.249  30.847  27.790  1.00  0.00     0.029 A 
ATOM     57  N   UNL A   1      46.687  29.270  27.653  1.00  0.00    -0.354 N 
ATOM     58  N   UNL A   1      45.688  26.543  27.160  1.00  0.00    -0.248 NA
ATOM     59  C   UNL A   1      46.043  24.351  26.433  1.00  0.00     0.031 C 
ATOM     60  C   UNL A   1      48.844  29.672  27.314  1.00  0.00     0.029 A 
ATOM     61  C   UNL A   1      47.874  28.683  27.248  1.00  0.00     0.049 A 
ATOM     62  H   UNL A   1      45.818  28.808  27.703  1.00  0.00     0.167 HD
ATOM     63  C   UNL A   1      47.024  26.391  26.810  1.00  0.00     0.074 A 
ATOM     64  C   UNL A   1      47.190  25.015  26.386  1.00  0.00     0.031 C 
ATOM     65  C   UNL A   1      48.025  27.306  26.844  1.00  0.00     0.037 A 
BRANCH  52  66
ATOM     66  C   UNL A   1      46.236  32.958  28.636  1.00  0.00     0.058 A 
ATOM     67  C   UNL A   1      46.188  33.903  27.598  1.00  0.00     0.135 A 
ATOM     68  C   UNL A   1      46.651  33.399  29.903  1.00  0.00     0.135 A 
ATOM     69  F   UNL A   1      45.811  33.533  26.363  1.00  0.00    -0.206 F 
ATOM     70  C   UNL A   1      46.590  35.220  27.794  1.00  0.00     0.059 A 
ATOM     71  C   UNL A   1      47.027  34.720  30.129  1.00  0.00     0.059 A 
ATOM     72  F   UNL A   1      46.711  32.541  30.933  1.00  0.00    -0.206 F 
ATOM     73  C   UNL A   1      47.018  35.617  29.061  1.00  0.00     0.060 A 
BRANCH  73  74
ATOM     74  S   UNL A   1      47.577  37.317  29.292  1.00  0.00     0.124 S 
ATOM     75  O   UNL A   1      48.081  37.272  30.662  1.00  0.00    -0.237 OA
ATOM     76  O   UNL A   1      48.588  37.461  28.250  1.00  0.00    -0.237 OA
ATOM     77  O   UNL A   1      46.363  38.104  29.096  1.00  0.00    -0.744 OA
ENDBRANCH  73  74
ENDBRANCH  52  66
BRANCH  53  78
ATOM     78  C   UNL A   1      43.271  23.551  26.967  1.00  0.00     0.058 A 
ATOM     79  C   UNL A   1      43.027  23.100  25.662  1.00  0.00     0.135 A 
ATOM     80  C   UNL A   1      43.126  22.629  28.015  1.00  0.00     0.135 A 
ATOM     81  F   UNL A   1      43.146  23.947  24.628  1.00  0.00    -0.206 F 
ATOM     82  C   UNL A   1      42.652  21.787  25.402  1.00  0.00     0.059 A 
ATOM     83  C   UNL A   1      42.773  21.304  27.778  1.00  0.00     0.059 A 
ATOM     84  F   UNL A   1      43.363  23.006  29.282  1.00  0.00    -0.206 F 
ATOM     85  C   UNL A   1      42.534  20.893  26.466  1.00  0.00     0.060 A 
BRANCH  85  86
ATOM     86  S   UNL A   1      42.116  19.173  26.108  1.00  0.00     0.124 S 
ATOM     87  O   UNL A   1      42.947  18.906  24.940  1.00  0.00    -0.237 OA
ATOM     88  O   UNL A   1      42.511  18.499  27.341  1.00  0.00    -0.237 OA
ATOM     89  O   UNL A   1      40.677  19.221  25.863  1.00  0.00    -0.744 OA
ENDBRANCH  85  86
ENDBRANCH  53  78
BRANCH  65  90
ATOM     90  C   UNL A   1      49.402  26.843  26.459  1.00  0.00     0.058 A 
ATOM     91  C   UNL A   1      50.215  26.123  27.347  1.00  0.00     0.135 A 
ATOM     92  C   UNL A   1      49.883  27.065  25.159  1.00  0.00     0.135 A 
ATOM     93  F   UNL A   1      49.805  25.893  28.604  1.00  0.00    -0.206 F 
ATOM     94  C   UNL A   1      51.465  25.650  26.963  1.00  0.00     0.059 A 
ATOM     95  C   UNL A   1      51.119  26.579  24.745  1.00  0.00     0.059 A 
ATOM     96  F   UNL A   1      49.139  27.741  24.269  1.00  0.00    -0.206 F 
ATOM     97  C   UNL A   1      51.907  25.879  25.658  1.00  0.00     0.060 A 
BRANCH  97  98
ATOM     98  S   UNL A   1      53.508  25.214  25.154  1.00  0.00     0.124 S 
ATOM     99  O   UNL A   1      53.511  25.505  23.724  1.00  0.00    -0.237 OA
ATOM    100  O   UNL A   1      54.439  25.995  25.961  1.00  0.00    -0.237 OA
ATOM    101  O   UNL A   1      53.416  23.800  25.507  1.00  0.00    -0.744 OA
ENDBRANCH  97  98
ENDBRANCH  65  90
ENDBRANCH  39  40
ENDBRANCH  31  34
ENDBRANCH  29  30
ENDBRANCH  28  29
ENDBRANCH   1  28
TORSDOF 19
ENDMDL
