MODEL 1
REMARK VINA RESULT:     -13.0      0.000      0.000
REMARK SMILES O=C(NCCCCCCNC(=O)[C@H]1Cc2[nH]cnc2CN1C(=O)C[C@]12C[C@H]3C[C@H](C[C@H](C3)C1)C2)c1ccc(-c2c3nc(c(-c4c(F)cc(S(=O)(=O)[O-])cc4F)c4ccc([nH]4)c(-c4c(F)cc(S(=O)(=O)[O-])cc4F)c4nc(c(-c5c(F)cc(S(=O)(=O)[O-])cc5F)c5ccc2[nH]5)C=C4)C=C3)cc1
REMARK SMILES IDX 6 1 5 2 4 3 3 4 1 5 2 6 35 8 36 9 100 10 37 11 99 12 38 13
REMARK SMILES IDX 39 14 40 15 93 16 41 17 98 18 92 19 94 20 42 21 97 22 91 23
REMARK SMILES IDX 90 24 43 26 77 27 56 28 76 29 57 30 60 31 75 32 95 33 58 34
REMARK SMILES IDX 59 35 74 37 96 38 61 39 44 40 45 41 54 42 46 43 47 44 53 45
REMARK SMILES IDX 55 46 48 47 49 48 50 49 51 50 52 51 78 52 79 53 88 54 80 55
REMARK SMILES IDX 81 56 87 57 89 58 82 59 83 60 84 61 85 62 86 63 62 64 63 65
REMARK SMILES IDX 72 66 64 67 65 68 71 69 73 70 66 71 67 72 68 73 69 74 70 75
REMARK SMILES IDX 7 76 8 77 9 78 10 79 11 80 12 82 13 83 14 84 21 85 15 86
REMARK SMILES IDX 20 87 16 88 19 89 17 90 18 92 22 93 23 94 24 95 25 96 26 97
REMARK SMILES IDX 33 98 34 99 27 100 31 101 29 102 28 103 32 104 30 105
REMARK H PARENT 3 7 94 25 60 36 10 81 16 91
REMARK Flexibility Score: inf
ROOT
ATOM      1  C   UNL A   1      31.775  29.847  25.389  1.00  0.00     0.002 C 
ENDROOT
BRANCH   1   2
ATOM      2  C   UNL A   1      32.027  29.143  26.725  1.00  0.00     0.021 C 
BRANCH   2   3
ATOM      3  C   UNL A   1      33.325  29.534  27.432  1.00  0.00     0.116 C 
BRANCH   3   4
ATOM      4  N   UNL A   1      33.453  30.950  27.683  1.00  0.00    -0.352 N 
ATOM      5  O   UNL A   1      34.259  32.977  27.999  1.00  0.00    -0.269 OA
ATOM      6  C   UNL A   1      34.497  31.766  28.017  1.00  0.00     0.251 C 
ATOM      7  H   UNL A   1      32.601  31.435  27.593  1.00  0.00     0.163 HD
BRANCH   6   8
ATOM      8  C   UNL A   1      35.843  31.298  28.450  1.00  0.00     0.039 A 
ATOM      9  C   UNL A   1      36.817  32.073  29.084  1.00  0.00     0.014 A 
ATOM     10  C   UNL A   1      36.154  29.964  28.128  1.00  0.00     0.014 A 
ATOM     11  C   UNL A   1      38.094  31.569  29.300  1.00  0.00     0.010 A 
ATOM     12  C   UNL A   1      37.422  29.447  28.361  1.00  0.00     0.010 A 
ATOM     13  C   UNL A   1      38.402  30.268  28.908  1.00  0.00    -0.014 A 
BRANCH  13  14
ATOM     14  C   UNL A   1      39.743  29.769  29.193  1.00  0.00     0.031 A 
ATOM     15  C   UNL A   1      40.064  29.607  30.641  1.00  0.00     0.074 A 
ATOM     16  C   UNL A   1      40.579  29.336  28.229  1.00  0.00     0.049 A 
ATOM     17  N   UNL A   1      41.001  30.169  31.333  1.00  0.00    -0.248 NA
ATOM     18  C   UNL A   1      39.145  28.785  31.445  1.00  0.00     0.031 C 
ATOM     19  C   UNL A   1      40.286  29.147  26.805  1.00  0.00     0.029 A 
ATOM     20  N   UNL A   1      41.847  28.855  28.349  1.00  0.00    -0.354 N 
ATOM     21  C   UNL A   1      40.922  29.614  32.611  1.00  0.00     0.074 A 
ATOM     22  C   UNL A   1      39.674  28.899  32.662  1.00  0.00     0.031 C 
ATOM     23  C   UNL A   1      41.255  28.383  26.253  1.00  0.00     0.029 A 
ATOM     24  C   UNL A   1      42.291  28.140  27.244  1.00  0.00     0.049 A 
ATOM     25  H   UNL A   1      42.402  29.002  29.149  1.00  0.00     0.167 HD
ATOM     26  C   UNL A   1      41.986  29.601  33.463  1.00  0.00     0.037 A 
ATOM     27  C   UNL A   1      43.383  27.338  27.182  1.00  0.00     0.037 A 
ATOM     28  C   UNL A   1      42.977  30.574  33.085  1.00  0.00     0.049 A 
ATOM     29  C   UNL A   1      44.283  27.725  28.299  1.00  0.00     0.074 A 
ATOM     30  C   UNL A   1      42.985  31.948  32.930  1.00  0.00     0.029 A 
ATOM     31  N   UNL A   1      44.125  30.130  32.475  1.00  0.00    -0.354 N 
ATOM     32  N   UNL A   1      44.900  28.873  28.379  1.00  0.00    -0.248 NA
ATOM     33  C   UNL A   1      44.162  26.997  29.554  1.00  0.00     0.031 C 
ATOM     34  C   UNL A   1      43.854  32.190  31.825  1.00  0.00     0.029 A 
ATOM     35  C   UNL A   1      44.353  30.956  31.406  1.00  0.00     0.049 A 
ATOM     36  H   UNL A   1      44.678  29.365  32.754  1.00  0.00     0.167 HD
ATOM     37  C   UNL A   1      44.868  29.203  29.726  1.00  0.00     0.074 A 
ATOM     38  C   UNL A   1      44.487  27.969  30.410  1.00  0.00     0.031 C 
ATOM     39  C   UNL A   1      44.886  30.504  30.141  1.00  0.00     0.037 A 
BRANCH  26  40
ATOM     40  C   UNL A   1      42.303  28.463  34.415  1.00  0.00     0.058 A 
ATOM     41  C   UNL A   1      42.473  28.743  35.789  1.00  0.00     0.135 A 
ATOM     42  C   UNL A   1      42.752  27.189  33.999  1.00  0.00     0.135 A 
ATOM     43  F   UNL A   1      42.068  29.914  36.305  1.00  0.00    -0.206 F 
ATOM     44  C   UNL A   1      43.143  27.874  36.654  1.00  0.00     0.059 A 
ATOM     45  C   UNL A   1      43.373  26.287  34.856  1.00  0.00     0.059 A 
ATOM     46  F   UNL A   1      42.705  26.791  32.723  1.00  0.00    -0.206 F 
ATOM     47  C   UNL A   1      43.615  26.661  36.167  1.00  0.00     0.060 A 
BRANCH  47  48
ATOM     48  S   UNL A   1      44.622  25.611  37.228  1.00  0.00     0.124 S 
ATOM     49  O   UNL A   1      44.447  24.310  36.593  1.00  0.00    -0.237 OA
ATOM     50  O   UNL A   1      45.942  26.219  37.092  1.00  0.00    -0.237 OA
ATOM     51  O   UNL A   1      43.999  25.766  38.539  1.00  0.00    -0.744 OA
ENDBRANCH  47  48
ENDBRANCH  26  40
BRANCH  27  52
ATOM     52  C   UNL A   1      43.514  26.046  26.455  1.00  0.00     0.058 A 
ATOM     53  C   UNL A   1      44.500  25.855  25.470  1.00  0.00     0.135 A 
ATOM     54  C   UNL A   1      42.851  24.884  26.903  1.00  0.00     0.135 A 
ATOM     55  F   UNL A   1      45.201  26.900  25.008  1.00  0.00    -0.206 F 
ATOM     56  C   UNL A   1      44.834  24.585  24.986  1.00  0.00     0.059 A 
ATOM     57  C   UNL A   1      43.157  23.611  26.425  1.00  0.00     0.059 A 
ATOM     58  F   UNL A   1      41.946  24.938  27.890  1.00  0.00    -0.206 F 
ATOM     59  C   UNL A   1      44.166  23.465  25.484  1.00  0.00     0.060 A 
BRANCH  59  60
ATOM     60  S   UNL A   1      44.701  21.811  24.985  1.00  0.00     0.124 S 
ATOM     61  O   UNL A   1      43.721  20.962  25.654  1.00  0.00    -0.237 OA
ATOM     62  O   UNL A   1      44.600  21.878  23.531  1.00  0.00    -0.237 OA
ATOM     63  O   UNL A   1      46.062  21.722  25.508  1.00  0.00    -0.744 OA
ENDBRANCH  59  60
ENDBRANCH  27  52
BRANCH  39  64
ATOM     64  C   UNL A   1      45.237  31.570  29.136  1.00  0.00     0.058 A 
ATOM     65  C   UNL A   1      46.552  31.913  28.776  1.00  0.00     0.135 A 
ATOM     66  C   UNL A   1      44.199  32.152  28.395  1.00  0.00     0.135 A 
ATOM     67  F   UNL A   1      47.604  31.321  29.360  1.00  0.00    -0.206 F 
ATOM     68  C   UNL A   1      46.821  32.823  27.753  1.00  0.00     0.059 A 
ATOM     69  C   UNL A   1      44.444  33.037  27.348  1.00  0.00     0.059 A 
ATOM     70  F   UNL A   1      42.922  31.815  28.645  1.00  0.00    -0.206 F 
ATOM     71  C   UNL A   1      45.759  33.377  27.040  1.00  0.00     0.060 A 
BRANCH  71  72
ATOM     72  S   UNL A   1      46.109  34.478  25.651  1.00  0.00     0.124 S 
ATOM     73  O   UNL A   1      45.223  33.951  24.613  1.00  0.00    -0.237 OA
ATOM     74  O   UNL A   1      45.739  35.789  26.186  1.00  0.00    -0.237 OA
ATOM     75  O   UNL A   1      47.531  34.292  25.413  1.00  0.00    -0.744 OA
ENDBRANCH  71  72
ENDBRANCH  39  64
ENDBRANCH  13  14
ENDBRANCH   6   8
ENDBRANCH   3   4
ENDBRANCH   2   3
ENDBRANCH   1   2
BRANCH   1  76
ATOM     76  C   UNL A   1      30.656  29.262  24.523  1.00  0.00     0.002 C 
BRANCH  76  77
ATOM     77  C   UNL A   1      30.890  29.290  23.011  1.00  0.00     0.021 C 
BRANCH  77  78
ATOM     78  C   UNL A   1      30.295  28.126  22.231  1.00  0.00     0.116 C 
BRANCH  78  79
ATOM     79  N   UNL A   1      31.300  27.254  21.668  1.00  0.00    -0.354 N 
ATOM     80  C   UNL A   1      31.698  26.033  22.123  1.00  0.00     0.243 C 
ATOM     81  H   UNL A   1      31.752  27.581  20.857  1.00  0.00     0.163 HD
ATOM     82  O   UNL A   1      32.314  25.302  21.345  1.00  0.00    -0.273 OA
BRANCH  80  83
ATOM     83  C   UNL A   1      31.324  25.589  23.546  1.00  0.00     0.180 C 
ATOM     84  C   UNL A   1      30.964  24.060  23.586  1.00  0.00     0.091 C 
ATOM     85  N   UNL A   1      32.099  26.085  24.763  1.00  0.00    -0.324 N 
ATOM     86  C   UNL A   1      30.749  23.654  24.993  1.00  0.00     0.042 A 
ATOM     87  C   UNL A   1      31.353  25.887  26.034  1.00  0.00     0.178 C 
ATOM     88  N   UNL A   1      30.396  22.427  25.467  1.00  0.00    -0.348 N 
ATOM     89  C   UNL A   1      30.922  24.455  26.098  1.00  0.00     0.081 A 
ATOM     90  C   UNL A   1      30.327  22.541  26.830  1.00  0.00     0.197 A 
ATOM     91  H   UNL A   1      30.224  21.617  24.934  1.00  0.00     0.167 HD
ATOM     92  N   UNL A   1      30.634  23.755  27.241  1.00  0.00    -0.240 NA
BRANCH  85  93
ATOM     93  C   UNL A   1      33.447  26.416  24.921  1.00  0.00     0.224 C 
ATOM     94  O   UNL A   1      33.960  27.331  24.262  1.00  0.00    -0.275 OA
BRANCH  93  95
ATOM     95  C   UNL A   1      34.391  25.640  25.835  1.00  0.00     0.107 C 
BRANCH  95  96
ATOM     96  C   UNL A   1      34.855  24.241  25.359  1.00  0.00    -0.020 C 
ATOM     97  C   UNL A   1      34.558  24.043  23.868  1.00  0.00     0.011 C 
ATOM     98  C   UNL A   1      34.192  23.054  26.106  1.00  0.00     0.011 C 
ATOM     99  C   UNL A   1      36.384  24.127  25.613  1.00  0.00     0.011 C 
ATOM    100  C   UNL A   1      35.115  22.739  23.315  1.00  0.00    -0.010 C 
ATOM    101  C   UNL A   1      34.741  21.705  25.566  1.00  0.00    -0.010 C 
ATOM    102  C   UNL A   1      36.941  22.815  25.042  1.00  0.00    -0.010 C 
ATOM    103  C   UNL A   1      36.633  22.738  23.538  1.00  0.00     0.007 C 
ATOM    104  C   UNL A   1      34.447  21.583  24.061  1.00  0.00     0.007 C 
ATOM    105  C   UNL A   1      36.267  21.638  25.761  1.00  0.00     0.007 C 
ENDBRANCH  95  96
ENDBRANCH  93  95
ENDBRANCH  85  93
ENDBRANCH  80  83
ENDBRANCH  78  79
ENDBRANCH  77  78
ENDBRANCH  76  77
ENDBRANCH   1  76
TORSDOF 19
ENDMDL
MODEL 2
REMARK VINA RESULT:     -12.9      1.976      3.337
REMARK SMILES O=C(NCCCCCCNC(=O)[C@H]1Cc2[nH]cnc2CN1C(=O)C[C@]12C[C@H]3C[C@H](C[C@H](C3)C1)C2)c1ccc(-c2c3nc(c(-c4c(F)cc(S(=O)(=O)[O-])cc4F)c4ccc([nH]4)c(-c4c(F)cc(S(=O)(=O)[O-])cc4F)c4nc(c(-c5c(F)cc(S(=O)(=O)[O-])cc5F)c5ccc2[nH]5)C=C4)C=C3)cc1
REMARK SMILES IDX 6 1 5 2 4 3 3 4 1 5 2 6 35 8 36 9 100 10 37 11 99 12 38 13
REMARK SMILES IDX 39 14 40 15 93 16 41 17 98 18 92 19 94 20 42 21 97 22 91 23
REMARK SMILES IDX 90 24 43 26 77 27 56 28 76 29 57 30 60 31 75 32 95 33 58 34
REMARK SMILES IDX 59 35 74 37 96 38 61 39 44 40 45 41 54 42 46 43 47 44 53 45
REMARK SMILES IDX 55 46 48 47 49 48 50 49 51 50 52 51 78 52 79 53 88 54 80 55
REMARK SMILES IDX 81 56 87 57 89 58 82 59 83 60 84 61 85 62 86 63 62 64 63 65
REMARK SMILES IDX 72 66 64 67 65 68 71 69 73 70 66 71 67 72 68 73 69 74 70 75
REMARK SMILES IDX 7 76 8 77 9 78 10 79 11 80 12 82 13 83 14 84 21 85 15 86
REMARK SMILES IDX 20 87 16 88 19 89 17 90 18 92 22 93 23 94 24 95 25 96 26 97
REMARK SMILES IDX 33 98 34 99 27 100 31 101 29 102 28 103 32 104 30 105
REMARK H PARENT 3 7 94 25 60 36 10 81 16 91
REMARK Flexibility Score: inf
ROOT
ATOM      1  C   UNL A   1      35.302  32.769  27.974  1.00  0.00     0.002 C 
ENDROOT
BRANCH   1   2
ATOM      2  C   UNL A   1      34.044  33.634  28.093  1.00  0.00     0.021 C 
BRANCH   2   3
ATOM      3  C   UNL A   1      34.159  34.822  29.048  1.00  0.00     0.116 C 
BRANCH   3   4
ATOM      4  N   UNL A   1      33.707  34.543  30.390  1.00  0.00    -0.352 N 
ATOM      5  O   UNL A   1      33.634  34.043  32.535  1.00  0.00    -0.269 OA
ATOM      6  C   UNL A   1      34.287  33.977  31.491  1.00  0.00     0.251 C 
ATOM      7  H   UNL A   1      32.777  34.823  30.548  1.00  0.00     0.163 HD
BRANCH   6   8
ATOM      8  C   UNL A   1      35.587  33.251  31.493  1.00  0.00     0.039 A 
ATOM      9  C   UNL A   1      36.853  33.835  31.413  1.00  0.00     0.014 A 
ATOM     10  C   UNL A   1      35.499  31.847  31.527  1.00  0.00     0.014 A 
ATOM     11  C   UNL A   1      37.990  33.048  31.268  1.00  0.00     0.010 A 
ATOM     12  C   UNL A   1      36.632  31.053  31.404  1.00  0.00     0.010 A 
ATOM     13  C   UNL A   1      37.872  31.659  31.230  1.00  0.00    -0.014 A 
BRANCH  13  14
ATOM     14  C   UNL A   1      39.095  30.874  31.118  1.00  0.00     0.031 A 
ATOM     15  C   UNL A   1      39.828  30.656  32.400  1.00  0.00     0.074 A 
ATOM     16  C   UNL A   1      39.462  30.255  29.979  1.00  0.00     0.049 A 
ATOM     17  N   UNL A   1      41.036  30.999  32.714  1.00  0.00    -0.248 NA
ATOM     18  C   UNL A   1      39.069  30.070  33.516  1.00  0.00     0.031 C 
ATOM     19  C   UNL A   1      38.690  30.125  28.740  1.00  0.00     0.029 A 
ATOM     20  N   UNL A   1      40.569  29.502  29.732  1.00  0.00    -0.354 N 
ATOM     21  C   UNL A   1      41.261  30.487  33.992  1.00  0.00     0.074 A 
ATOM     22  C   UNL A   1      39.977  30.072  34.491  1.00  0.00     0.031 C 
ATOM     23  C   UNL A   1      39.242  29.158  27.975  1.00  0.00     0.029 A 
ATOM     24  C   UNL A   1      40.468  28.697  28.605  1.00  0.00     0.049 A 
ATOM     25  H   UNL A   1      41.372  29.527  30.301  1.00  0.00     0.167 HD
ATOM     26  C   UNL A   1      42.516  30.241  34.464  1.00  0.00     0.037 A 
ATOM     27  C   UNL A   1      41.287  27.668  28.268  1.00  0.00     0.037 A 
ATOM     28  C   UNL A   1      43.512  30.963  33.715  1.00  0.00     0.049 A 
ATOM     29  C   UNL A   1      42.561  27.852  29.010  1.00  0.00     0.074 A 
ATOM     30  C   UNL A   1      43.758  32.298  33.455  1.00  0.00     0.029 A 
ATOM     31  N   UNL A   1      44.278  30.267  32.813  1.00  0.00    -0.354 N 
ATOM     32  N   UNL A   1      43.398  28.832  28.798  1.00  0.00    -0.248 NA
ATOM     33  C   UNL A   1      42.704  27.181  30.293  1.00  0.00     0.031 C 
ATOM     34  C   UNL A   1      44.251  32.329  32.117  1.00  0.00     0.029 A 
ATOM     35  C   UNL A   1      44.316  31.011  31.663  1.00  0.00     0.049 A 
ATOM     36  H   UNL A   1      44.718  29.399  32.965  1.00  0.00     0.167 HD
ATOM     37  C   UNL A   1      43.875  29.172  30.054  1.00  0.00     0.074 A 
ATOM     38  C   UNL A   1      43.486  28.062  30.921  1.00  0.00     0.031 C 
ATOM     39  C   UNL A   1      44.300  30.439  30.336  1.00  0.00     0.037 A 
BRANCH  26  40
ATOM     40  C   UNL A   1      42.879  29.070  35.357  1.00  0.00     0.058 A 
ATOM     41  C   UNL A   1      43.687  29.295  36.494  1.00  0.00     0.135 A 
ATOM     42  C   UNL A   1      42.737  27.716  34.977  1.00  0.00     0.135 A 
ATOM     43  F   UNL A   1      43.880  30.539  36.960  1.00  0.00    -0.206 F 
ATOM     44  C   UNL A   1      44.390  28.269  37.128  1.00  0.00     0.059 A 
ATOM     45  C   UNL A   1      43.386  26.673  35.629  1.00  0.00     0.059 A 
ATOM     46  F   UNL A   1      42.044  27.341  33.896  1.00  0.00    -0.206 F 
ATOM     47  C   UNL A   1      44.254  26.965  36.667  1.00  0.00     0.060 A 
BRANCH  47  48
ATOM     48  S   UNL A   1      45.283  25.664  37.369  1.00  0.00     0.124 S 
ATOM     49  O   UNL A   1      45.574  24.860  36.188  1.00  0.00    -0.237 OA
ATOM     50  O   UNL A   1      46.401  26.424  37.918  1.00  0.00    -0.237 OA
ATOM     51  O   UNL A   1      44.407  25.044  38.359  1.00  0.00    -0.744 OA
ENDBRANCH  47  48
ENDBRANCH  26  40
BRANCH  27  52
ATOM     52  C   UNL A   1      40.900  26.374  27.644  1.00  0.00     0.058 A 
ATOM     53  C   UNL A   1      41.663  25.799  26.612  1.00  0.00     0.135 A 
ATOM     54  C   UNL A   1      39.926  25.541  28.232  1.00  0.00     0.135 A 
ATOM     55  F   UNL A   1      42.632  26.510  26.016  1.00  0.00    -0.206 F 
ATOM     56  C   UNL A   1      41.496  24.468  26.214  1.00  0.00     0.059 A 
ATOM     57  C   UNL A   1      39.732  24.217  27.843  1.00  0.00     0.059 A 
ATOM     58  F   UNL A   1      39.191  25.959  29.273  1.00  0.00    -0.206 F 
ATOM     59  C   UNL A   1      40.537  23.678  26.848  1.00  0.00     0.060 A 
BRANCH  59  60
ATOM     60  S   UNL A   1      40.424  21.917  26.453  1.00  0.00     0.124 S 
ATOM     61  O   UNL A   1      41.576  21.730  25.578  1.00  0.00    -0.237 OA
ATOM     62  O   UNL A   1      40.517  21.298  27.771  1.00  0.00    -0.237 OA
ATOM     63  O   UNL A   1      39.121  21.798  25.803  1.00  0.00    -0.744 OA
ENDBRANCH  59  60
ENDBRANCH  27  52
BRANCH  39  64
ATOM     64  C   UNL A   1      44.522  31.391  29.189  1.00  0.00     0.058 A 
ATOM     65  C   UNL A   1      45.671  31.396  28.378  1.00  0.00     0.135 A 
ATOM     66  C   UNL A   1      43.460  32.219  28.798  1.00  0.00     0.135 A 
ATOM     67  F   UNL A   1      46.688  30.556  28.617  1.00  0.00    -0.206 F 
ATOM     68  C   UNL A   1      45.773  32.216  27.254  1.00  0.00     0.059 A 
ATOM     69  C   UNL A   1      43.527  33.022  27.662  1.00  0.00     0.059 A 
ATOM     70  F   UNL A   1      42.309  32.211  29.492  1.00  0.00    -0.206 F 
ATOM     71  C   UNL A   1      44.694  33.024  26.900  1.00  0.00     0.060 A 
BRANCH  71  72
ATOM     72  S   UNL A   1      44.789  34.011  25.391  1.00  0.00     0.124 S 
ATOM     73  O   UNL A   1      44.332  33.062  24.376  1.00  0.00    -0.237 OA
ATOM     74  O   UNL A   1      43.870  35.114  25.677  1.00  0.00    -0.237 OA
ATOM     75  O   UNL A   1      46.191  34.385  25.310  1.00  0.00    -0.744 OA
ENDBRANCH  71  72
ENDBRANCH  39  64
ENDBRANCH  13  14
ENDBRANCH   6   8
ENDBRANCH   3   4
ENDBRANCH   2   3
ENDBRANCH   1   2
BRANCH   1  76
ATOM     76  C   UNL A   1      35.069  31.276  27.727  1.00  0.00     0.002 C 
BRANCH  76  77
ATOM     77  C   UNL A   1      33.642  30.870  27.350  1.00  0.00     0.021 C 
BRANCH  77  78
ATOM     78  C   UNL A   1      33.522  29.652  26.445  1.00  0.00     0.116 C 
BRANCH  78  79
ATOM     79  N   UNL A   1      32.933  28.513  27.110  1.00  0.00    -0.354 N 
ATOM     80  C   UNL A   1      32.096  27.576  26.582  1.00  0.00     0.243 C 
ATOM     81  H   UNL A   1      33.165  28.399  28.060  1.00  0.00     0.163 HD
ATOM     82  O   UNL A   1      31.963  26.514  27.191  1.00  0.00    -0.273 OA
BRANCH  80  83
ATOM     83  C   UNL A   1      31.402  27.845  25.237  1.00  0.00     0.180 C 
ATOM     84  C   UNL A   1      30.916  29.337  25.139  1.00  0.00     0.091 C 
ATOM     85  N   UNL A   1      31.949  27.275  23.932  1.00  0.00    -0.324 N 
ATOM     86  C   UNL A   1      30.384  29.580  23.780  1.00  0.00     0.042 A 
ATOM     87  C   UNL A   1      30.943  27.293  22.836  1.00  0.00     0.178 C 
ATOM     88  N   UNL A   1      29.841  30.727  23.285  1.00  0.00    -0.348 N 
ATOM     89  C   UNL A   1      30.391  28.681  22.739  1.00  0.00     0.081 A 
ATOM     90  C   UNL A   1      29.503  30.468  21.983  1.00  0.00     0.197 A 
ATOM     91  H   UNL A   1      29.715  31.576  23.768  1.00  0.00     0.167 HD
ATOM     92  N   UNL A   1      29.818  29.239  21.626  1.00  0.00    -0.240 NA
BRANCH  85  93
ATOM     93  C   UNL A   1      33.257  27.013  23.521  1.00  0.00     0.224 C 
ATOM     94  O   UNL A   1      34.120  27.902  23.539  1.00  0.00    -0.275 OA
BRANCH  93  95
ATOM     95  C   UNL A   1      33.695  25.667  22.950  1.00  0.00     0.107 C 
BRANCH  95  96
ATOM     96  C   UNL A   1      33.957  24.517  23.955  1.00  0.00    -0.020 C 
ATOM     97  C   UNL A   1      32.676  23.719  24.221  1.00  0.00     0.011 C 
ATOM     98  C   UNL A   1      34.488  24.980  25.338  1.00  0.00     0.011 C 
ATOM     99  C   UNL A   1      35.045  23.586  23.351  1.00  0.00     0.011 C 
ATOM    100  C   UNL A   1      32.905  22.495  25.096  1.00  0.00    -0.010 C 
ATOM    101  C   UNL A   1      34.735  23.752  26.257  1.00  0.00    -0.010 C 
ATOM    102  C   UNL A   1      35.262  22.348  24.232  1.00  0.00    -0.010 C 
ATOM    103  C   UNL A   1      33.932  21.595  24.395  1.00  0.00     0.007 C 
ATOM    104  C   UNL A   1      33.425  22.971  26.453  1.00  0.00     0.007 C 
ATOM    105  C   UNL A   1      35.762  22.804  25.609  1.00  0.00     0.007 C 
ENDBRANCH  95  96
ENDBRANCH  93  95
ENDBRANCH  85  93
ENDBRANCH  80  83
ENDBRANCH  78  79
ENDBRANCH  77  78
ENDBRANCH  76  77
ENDBRANCH   1  76
TORSDOF 19
ENDMDL
MODEL 3
REMARK VINA RESULT:     -12.8      2.533      9.078
REMARK SMILES O=C(NCCCCCCNC(=O)[C@H]1Cc2[nH]cnc2CN1C(=O)C[C@]12C[C@H]3C[C@H](C[C@H](C3)C1)C2)c1ccc(-c2c3nc(c(-c4c(F)cc(S(=O)(=O)[O-])cc4F)c4ccc([nH]4)c(-c4c(F)cc(S(=O)(=O)[O-])cc4F)c4nc(c(-c5c(F)cc(S(=O)(=O)[O-])cc5F)c5ccc2[nH]5)C=C4)C=C3)cc1
REMARK SMILES IDX 6 1 5 2 4 3 3 4 1 5 2 6 35 8 36 9 100 10 37 11 99 12 38 13
REMARK SMILES IDX 39 14 40 15 93 16 41 17 98 18 92 19 94 20 42 21 97 22 91 23
REMARK SMILES IDX 90 24 43 26 77 27 56 28 76 29 57 30 60 31 75 32 95 33 58 34
REMARK SMILES IDX 59 35 74 37 96 38 61 39 44 40 45 41 54 42 46 43 47 44 53 45
REMARK SMILES IDX 55 46 48 47 49 48 50 49 51 50 52 51 78 52 79 53 88 54 80 55
REMARK SMILES IDX 81 56 87 57 89 58 82 59 83 60 84 61 85 62 86 63 62 64 63 65
REMARK SMILES IDX 72 66 64 67 65 68 71 69 73 70 66 71 67 72 68 73 69 74 70 75
REMARK SMILES IDX 7 76 8 77 9 78 10 79 11 80 12 82 13 83 14 84 21 85 15 86
REMARK SMILES IDX 20 87 16 88 19 89 17 90 18 92 22 93 23 94 24 95 25 96 26 97
REMARK SMILES IDX 33 98 34 99 27 100 31 101 29 102 28 103 32 104 30 105
REMARK H PARENT 3 7 94 25 60 36 10 81 16 91
REMARK Flexibility Score: inf
ROOT
ATOM      1  C   UNL A   1      39.309  21.168  25.700  1.00  0.00     0.002 C 
ENDROOT
BRANCH   1   2
ATOM      2  C   UNL A   1      40.091  19.992  26.291  1.00  0.00     0.021 C 
BRANCH   2   3
ATOM      3  C   UNL A   1      41.475  20.339  26.838  1.00  0.00     0.116 C 
BRANCH   3   4
ATOM      4  N   UNL A   1      42.444  20.665  25.819  1.00  0.00    -0.352 N 
ATOM      5  O   UNL A   1      44.101  21.586  24.695  1.00  0.00    -0.269 OA
ATOM      6  C   UNL A   1      43.284  21.723  25.610  1.00  0.00     0.251 C 
ATOM      7  H   UNL A   1      42.517  19.974  25.122  1.00  0.00     0.163 HD
BRANCH   6   8
ATOM      8  C   UNL A   1      43.236  23.013  26.352  1.00  0.00     0.039 A 
ATOM      9  C   UNL A   1      43.778  23.253  27.616  1.00  0.00     0.014 A 
ATOM     10  C   UNL A   1      42.526  24.051  25.719  1.00  0.00     0.014 A 
ATOM     11  C   UNL A   1      43.535  24.453  28.275  1.00  0.00     0.010 A 
ATOM     12  C   UNL A   1      42.299  25.260  26.363  1.00  0.00     0.010 A 
ATOM     13  C   UNL A   1      42.768  25.441  27.659  1.00  0.00    -0.014 A 
BRANCH  13  14
ATOM     14  C   UNL A   1      42.575  26.698  28.372  1.00  0.00     0.031 A 
ATOM     15  C   UNL A   1      43.684  27.687  28.223  1.00  0.00     0.074 A 
ATOM     16  C   UNL A   1      41.421  27.016  28.990  1.00  0.00     0.049 A 
ATOM     17  N   UNL A   1      44.429  28.215  29.140  1.00  0.00    -0.248 NA
ATOM     18  C   UNL A   1      44.079  28.051  26.854  1.00  0.00     0.031 C 
ATOM     19  C   UNL A   1      40.153  26.282  28.954  1.00  0.00     0.029 A 
ATOM     20  N   UNL A   1      41.107  28.140  29.691  1.00  0.00    -0.354 N 
ATOM     21  C   UNL A   1      45.248  29.136  28.485  1.00  0.00     0.074 A 
ATOM     22  C   UNL A   1      45.101  28.876  27.078  1.00  0.00     0.031 C 
ATOM     23  C   UNL A   1      39.164  27.088  29.399  1.00  0.00     0.029 A 
ATOM     24  C   UNL A   1      39.743  28.336  29.868  1.00  0.00     0.049 A 
ATOM     25  H   UNL A   1      41.787  28.759  30.044  1.00  0.00     0.167 HD
ATOM     26  C   UNL A   1      45.822  30.187  29.137  1.00  0.00     0.037 A 
ATOM     27  C   UNL A   1      39.136  29.476  30.284  1.00  0.00     0.037 A 
ATOM     28  C   UNL A   1      45.856  29.970  30.560  1.00  0.00     0.049 A 
ATOM     29  C   UNL A   1      40.160  30.298  30.979  1.00  0.00     0.074 A 
ATOM     30  C   UNL A   1      46.417  29.016  31.388  1.00  0.00     0.029 A 
ATOM     31  N   UNL A   1      44.955  30.650  31.342  1.00  0.00    -0.354 N 
ATOM     32  N   UNL A   1      40.724  29.965  32.109  1.00  0.00    -0.248 NA
ATOM     33  C   UNL A   1      40.877  31.294  30.197  1.00  0.00     0.031 C 
ATOM     34  C   UNL A   1      45.479  28.851  32.449  1.00  0.00     0.029 A 
ATOM     35  C   UNL A   1      44.430  29.743  32.226  1.00  0.00     0.049 A 
ATOM     36  H   UNL A   1      44.730  31.607  31.281  1.00  0.00     0.167 HD
ATOM     37  C   UNL A   1      42.042  30.377  31.985  1.00  0.00     0.074 A 
ATOM     38  C   UNL A   1      42.053  31.272  30.829  1.00  0.00     0.031 C 
ATOM     39  C   UNL A   1      43.051  29.748  32.657  1.00  0.00     0.037 A 
BRANCH  26  40
ATOM     40  C   UNL A   1      46.015  31.565  28.532  1.00  0.00     0.058 A 
ATOM     41  C   UNL A   1      44.905  32.230  27.965  1.00  0.00     0.135 A 
ATOM     42  C   UNL A   1      47.276  32.113  28.206  1.00  0.00     0.135 A 
ATOM     43  F   UNL A   1      43.654  31.811  28.218  1.00  0.00    -0.206 F 
ATOM     44  C   UNL A   1      45.044  33.279  27.055  1.00  0.00     0.059 A 
ATOM     45  C   UNL A   1      47.434  33.192  27.344  1.00  0.00     0.059 A 
ATOM     46  F   UNL A   1      48.425  31.571  28.624  1.00  0.00    -0.206 F 
ATOM     47  C   UNL A   1      46.317  33.731  26.729  1.00  0.00     0.060 A 
BRANCH  47  48
ATOM     48  S   UNL A   1      46.515  34.967  25.434  1.00  0.00     0.124 S 
ATOM     49  O   UNL A   1      47.908  34.764  25.054  1.00  0.00    -0.237 OA
ATOM     50  O   UNL A   1      45.516  34.546  24.457  1.00  0.00    -0.237 OA
ATOM     51  O   UNL A   1      46.221  36.221  26.121  1.00  0.00    -0.744 OA
ENDBRANCH  47  48
ENDBRANCH  26  40
BRANCH  27  52
ATOM     52  C   UNL A   1      37.846  30.039  29.801  1.00  0.00     0.058 A 
ATOM     53  C   UNL A   1      36.916  30.609  30.689  1.00  0.00     0.135 A 
ATOM     54  C   UNL A   1      37.618  30.275  28.430  1.00  0.00     0.135 A 
ATOM     55  F   UNL A   1      37.071  30.460  32.013  1.00  0.00    -0.206 F 
ATOM     56  C   UNL A   1      35.847  31.396  30.245  1.00  0.00     0.059 A 
ATOM     57  C   UNL A   1      36.553  31.043  27.964  1.00  0.00     0.059 A 
ATOM     58  F   UNL A   1      38.480  29.842  27.498  1.00  0.00    -0.206 F 
ATOM     59  C   UNL A   1      35.683  31.622  28.879  1.00  0.00     0.060 A 
BRANCH  59  60
ATOM     60  S   UNL A   1      34.405  32.766  28.307  1.00  0.00     0.124 S 
ATOM     61  O   UNL A   1      35.177  33.703  27.499  1.00  0.00    -0.237 OA
ATOM     62  O   UNL A   1      33.504  31.883  27.575  1.00  0.00    -0.237 OA
ATOM     63  O   UNL A   1      33.862  33.314  29.548  1.00  0.00    -0.744 OA
ENDBRANCH  59  60
ENDBRANCH  27  52
BRANCH  39  64
ATOM     64  C   UNL A   1      42.686  28.790  33.762  1.00  0.00     0.058 A 
ATOM     65  C   UNL A   1      42.516  27.406  33.582  1.00  0.00     0.135 A 
ATOM     66  C   UNL A   1      42.669  29.271  35.079  1.00  0.00     0.135 A 
ATOM     67  F   UNL A   1      42.628  26.848  32.368  1.00  0.00    -0.206 F 
ATOM     68  C   UNL A   1      42.298  26.547  34.660  1.00  0.00     0.059 A 
ATOM     69  C   UNL A   1      42.485  28.428  36.172  1.00  0.00     0.059 A 
ATOM     70  F   UNL A   1      42.891  30.574  35.323  1.00  0.00    -0.206 F 
ATOM     71  C   UNL A   1      42.289  27.066  35.953  1.00  0.00     0.060 A 
BRANCH  71  72
ATOM     72  S   UNL A   1      42.106  25.941  37.354  1.00  0.00     0.124 S 
ATOM     73  O   UNL A   1      43.010  26.531  38.340  1.00  0.00    -0.237 OA
ATOM     74  O   UNL A   1      40.680  26.052  37.665  1.00  0.00    -0.237 OA
ATOM     75  O   UNL A   1      42.518  24.654  36.819  1.00  0.00    -0.744 OA
ENDBRANCH  71  72
ENDBRANCH  39  64
ENDBRANCH  13  14
ENDBRANCH   6   8
ENDBRANCH   3   4
ENDBRANCH   2   3
ENDBRANCH   1   2
BRANCH   1  76
ATOM     76  C   UNL A   1      39.325  22.463  26.516  1.00  0.00     0.002 C 
BRANCH  76  77
ATOM     77  C   UNL A   1      38.278  23.513  26.136  1.00  0.00     0.021 C 
BRANCH  77  78
ATOM     78  C   UNL A   1      36.919  22.968  25.723  1.00  0.00     0.116 C 
BRANCH  78  79
ATOM     79  N   UNL A   1      35.838  23.887  25.995  1.00  0.00    -0.354 N 
ATOM     80  C   UNL A   1      34.501  23.623  26.015  1.00  0.00     0.243 C 
ATOM     81  H   UNL A   1      36.098  24.816  26.189  1.00  0.00     0.163 HD
ATOM     82  O   UNL A   1      33.763  24.432  26.581  1.00  0.00    -0.273 OA
BRANCH  80  83
ATOM     83  C   UNL A   1      33.970  22.321  25.394  1.00  0.00     0.180 C 
ATOM     84  C   UNL A   1      33.901  21.171  26.463  1.00  0.00     0.091 C 
ATOM     85  N   UNL A   1      32.811  22.329  24.402  1.00  0.00    -0.324 N 
ATOM     86  C   UNL A   1      33.255  19.987  25.853  1.00  0.00     0.042 A 
ATOM     87  C   UNL A   1      32.720  21.067  23.620  1.00  0.00     0.178 C 
ATOM     88  N   UNL A   1      33.023  18.773  26.423  1.00  0.00    -0.348 N 
ATOM     89  C   UNL A   1      32.720  19.924  24.587  1.00  0.00     0.081 A 
ATOM     90  C   UNL A   1      32.397  18.010  25.473  1.00  0.00     0.197 A 
ATOM     91  H   UNL A   1      33.259  18.496  27.338  1.00  0.00     0.167 HD
ATOM     92  N   UNL A   1      32.205  18.675  24.352  1.00  0.00    -0.240 NA
BRANCH  85  93
ATOM     93  C   UNL A   1      31.693  23.160  24.302  1.00  0.00     0.224 C 
ATOM     94  O   UNL A   1      30.748  23.056  25.096  1.00  0.00    -0.275 OA
BRANCH  93  95
ATOM     95  C   UNL A   1      31.514  24.180  23.180  1.00  0.00     0.107 C 
BRANCH  95  96
ATOM     96  C   UNL A   1      31.911  25.647  23.480  1.00  0.00    -0.020 C 
ATOM     97  C   UNL A   1      31.230  26.610  22.500  1.00  0.00     0.011 C 
ATOM     98  C   UNL A   1      33.434  25.932  23.397  1.00  0.00     0.011 C 
ATOM     99  C   UNL A   1      31.475  25.978  24.935  1.00  0.00     0.011 C 
ATOM    100  C   UNL A   1      31.477  28.074  22.832  1.00  0.00    -0.010 C 
ATOM    101  C   UNL A   1      33.721  27.421  23.734  1.00  0.00    -0.010 C 
ATOM    102  C   UNL A   1      31.716  27.459  25.259  1.00  0.00    -0.010 C 
ATOM    103  C   UNL A   1      30.954  28.335  24.251  1.00  0.00     0.007 C 
ATOM    104  C   UNL A   1      32.981  28.335  22.743  1.00  0.00     0.007 C 
ATOM    105  C   UNL A   1      33.219  27.749  25.152  1.00  0.00     0.007 C 
ENDBRANCH  95  96
ENDBRANCH  93  95
ENDBRANCH  85  93
ENDBRANCH  80  83
ENDBRANCH  78  79
ENDBRANCH  77  78
ENDBRANCH  76  77
ENDBRANCH   1  76
TORSDOF 19
ENDMDL
