MODEL 1
REMARK VINA RESULT:     -12.1      0.000      0.000
REMARK SMILES O=C(NCCCCCCNC(=O)c1c(F)cccc1NC(=O)c1ccc(Cl)nc1)c1ccc(-c2c3nc(c(-c4c(F)cc(S(=O)(=O)[O-])cc4F)c4ccc([nH]4)c(-c4c(F)cc(S(=O)(=O)[O-])cc4F)c4nc(c(-c5c(F)cc(S(=O)(=O)[O-])cc5F)c5ccc2[nH]5)C=C4)C=C3)cc1
REMARK SMILES IDX 6 1 5 2 4 3 3 4 1 5 2 6 30 8 31 9 95 10 32 11 94 12 33 13
REMARK SMILES IDX 34 14 35 15 88 16 36 17 93 18 87 19 89 20 37 21 92 22 86 23
REMARK SMILES IDX 85 24 38 26 72 27 51 28 71 29 52 30 55 31 70 32 90 33 53 34
REMARK SMILES IDX 54 35 69 37 91 38 56 39 39 40 40 41 49 42 41 43 42 44 48 45
REMARK SMILES IDX 50 46 43 47 44 48 45 49 46 50 47 51 73 52 74 53 83 54 75 55
REMARK SMILES IDX 76 56 82 57 84 58 77 59 78 60 79 61 80 62 81 63 57 64 58 65
REMARK SMILES IDX 67 66 59 67 60 68 66 69 68 70 61 71 62 72 63 73 64 74 65 75
REMARK SMILES IDX 7 76 8 77 9 78 10 79 11 80 12 82 13 83 14 84 19 85 15 86
REMARK SMILES IDX 16 87 18 88 17 89 20 90 21 91 22 93 23 94 24 95 29 96 25 97
REMARK SMILES IDX 28 98 26 99 27 100
REMARK H PARENT 3 7 89 25 55 36 10 81 20 92
REMARK Flexibility Score: inf
ROOT
ATOM      1  C   UNL A   1      36.723  22.853  25.384  1.00  0.00     0.002 C 
ENDROOT
BRANCH   1   2
ATOM      2  C   UNL A   1      38.136  22.577  25.899  1.00  0.00     0.021 C 
BRANCH   2   3
ATOM      3  C   UNL A   1      38.864  23.773  26.502  1.00  0.00     0.116 C 
BRANCH   3   4
ATOM      4  N   UNL A   1      40.254  23.864  26.086  1.00  0.00    -0.352 N 
ATOM      5  O   UNL A   1      42.315  24.758  25.904  1.00  0.00    -0.269 OA
ATOM      6  C   UNL A   1      41.221  24.766  26.464  1.00  0.00     0.251 C 
ATOM      7  H   UNL A   1      40.545  23.179  25.441  1.00  0.00     0.163 HD
BRANCH   6   8
ATOM      8  C   UNL A   1      40.935  25.769  27.515  1.00  0.00     0.039 A 
ATOM      9  C   UNL A   1      41.705  26.928  27.632  1.00  0.00     0.014 A 
ATOM     10  C   UNL A   1      39.878  25.542  28.402  1.00  0.00     0.014 A 
ATOM     11  C   UNL A   1      41.522  27.772  28.723  1.00  0.00     0.010 A 
ATOM     12  C   UNL A   1      39.642  26.437  29.453  1.00  0.00     0.010 A 
ATOM     13  C   UNL A   1      40.490  27.537  29.648  1.00  0.00    -0.014 A 
BRANCH  13  14
ATOM     14  C   UNL A   1      40.311  28.472  30.789  1.00  0.00     0.031 A 
ATOM     15  C   UNL A   1      41.226  28.426  31.984  1.00  0.00     0.074 A 
ATOM     16  C   UNL A   1      39.350  29.415  30.715  1.00  0.00     0.049 A 
ATOM     17  N   UNL A   1      41.249  29.210  33.033  1.00  0.00    -0.248 NA
ATOM     18  C   UNL A   1      42.242  27.364  32.011  1.00  0.00     0.031 C 
ATOM     19  C   UNL A   1      38.396  29.554  29.612  1.00  0.00     0.029 A 
ATOM     20  N   UNL A   1      39.036  30.449  31.558  1.00  0.00    -0.354 N 
ATOM     21  C   UNL A   1      42.267  28.731  33.848  1.00  0.00     0.074 A 
ATOM     22  C   UNL A   1      42.821  27.570  33.187  1.00  0.00     0.031 C 
ATOM     23  C   UNL A   1      37.648  30.648  29.814  1.00  0.00     0.029 A 
ATOM     24  C   UNL A   1      38.030  31.257  31.084  1.00  0.00     0.049 A 
ATOM     25  H   UNL A   1      39.487  30.598  32.420  1.00  0.00     0.167 HD
ATOM     26  C   UNL A   1      42.708  29.221  35.032  1.00  0.00     0.037 A 
ATOM     27  C   UNL A   1      37.475  32.367  31.607  1.00  0.00     0.037 A 
ATOM     28  C   UNL A   1      42.162  30.386  35.682  1.00  0.00     0.049 A 
ATOM     29  C   UNL A   1      37.978  32.892  32.920  1.00  0.00     0.074 A 
ATOM     30  C   UNL A   1      42.544  30.962  36.882  1.00  0.00     0.029 A 
ATOM     31  N   UNL A   1      41.121  31.157  35.185  1.00  0.00    -0.354 N 
ATOM     32  N   UNL A   1      38.943  32.423  33.675  1.00  0.00    -0.248 NA
ATOM     33  C   UNL A   1      37.319  34.090  33.455  1.00  0.00     0.031 C 
ATOM     34  C   UNL A   1      41.716  32.063  37.124  1.00  0.00     0.029 A 
ATOM     35  C   UNL A   1      40.843  32.198  36.057  1.00  0.00     0.049 A 
ATOM     36  H   UNL A   1      40.648  30.990  34.338  1.00  0.00     0.167 HD
ATOM     37  C   UNL A   1      39.011  33.272  34.773  1.00  0.00     0.074 A 
ATOM     38  C   UNL A   1      38.003  34.294  34.573  1.00  0.00     0.031 C 
ATOM     39  C   UNL A   1      39.833  33.205  35.849  1.00  0.00     0.037 A 
BRANCH  26  40
ATOM     40  C   UNL A   1      43.837  28.496  35.711  1.00  0.00     0.058 A 
ATOM     41  C   UNL A   1      45.172  28.825  35.428  1.00  0.00     0.135 A 
ATOM     42  C   UNL A   1      43.599  27.446  36.612  1.00  0.00     0.135 A 
ATOM     43  F   UNL A   1      45.457  29.825  34.578  1.00  0.00    -0.206 F 
ATOM     44  C   UNL A   1      46.232  28.136  36.010  1.00  0.00     0.059 A 
ATOM     45  C   UNL A   1      44.643  26.756  37.221  1.00  0.00     0.059 A 
ATOM     46  F   UNL A   1      42.341  27.105  36.934  1.00  0.00    -0.206 F 
ATOM     47  C   UNL A   1      45.957  27.101  36.906  1.00  0.00     0.060 A 
BRANCH  47  48
ATOM     48  S   UNL A   1      47.340  26.252  37.699  1.00  0.00     0.124 S 
ATOM     49  O   UNL A   1      48.487  26.913  37.090  1.00  0.00    -0.237 OA
ATOM     50  O   UNL A   1      47.112  26.542  39.111  1.00  0.00    -0.237 OA
ATOM     51  O   UNL A   1      47.140  24.856  37.318  1.00  0.00    -0.744 OA
ENDBRANCH  47  48
ENDBRANCH  26  40
BRANCH  27  52
ATOM     52  C   UNL A   1      36.396  33.059  30.858  1.00  0.00     0.058 A 
ATOM     53  C   UNL A   1      36.692  33.911  29.783  1.00  0.00     0.135 A 
ATOM     54  C   UNL A   1      35.056  32.944  31.256  1.00  0.00     0.135 A 
ATOM     55  F   UNL A   1      37.961  34.062  29.373  1.00  0.00    -0.206 F 
ATOM     56  C   UNL A   1      35.703  34.656  29.153  1.00  0.00     0.059 A 
ATOM     57  C   UNL A   1      34.044  33.662  30.625  1.00  0.00     0.059 A 
ATOM     58  F   UNL A   1      34.727  32.133  32.272  1.00  0.00    -0.206 F 
ATOM     59  C   UNL A   1      34.383  34.534  29.590  1.00  0.00     0.060 A 
BRANCH  59  60
ATOM     60  S   UNL A   1      33.117  35.544  28.791  1.00  0.00     0.124 S 
ATOM     61  O   UNL A   1      32.436  36.121  29.946  1.00  0.00    -0.237 OA
ATOM     62  O   UNL A   1      33.918  36.470  27.997  1.00  0.00    -0.237 OA
ATOM     63  O   UNL A   1      32.344  34.571  28.027  1.00  0.00    -0.744 OA
ENDBRANCH  59  60
ENDBRANCH  27  52
BRANCH  39  64
ATOM     64  C   UNL A   1      39.685  34.273  36.894  1.00  0.00     0.058 A 
ATOM     65  C   UNL A   1      40.291  35.528  36.722  1.00  0.00     0.135 A 
ATOM     66  C   UNL A   1      38.988  34.037  38.090  1.00  0.00     0.135 A 
ATOM     67  F   UNL A   1      40.970  35.802  35.598  1.00  0.00    -0.206 F 
ATOM     68  C   UNL A   1      40.219  36.509  37.706  1.00  0.00     0.059 A 
ATOM     69  C   UNL A   1      38.887  35.011  39.079  1.00  0.00     0.059 A 
ATOM     70  F   UNL A   1      38.382  32.857  38.295  1.00  0.00    -0.206 F 
ATOM     71  C   UNL A   1      39.519  36.239  38.882  1.00  0.00     0.060 A 
BRANCH  71  72
ATOM     72  S   UNL A   1      39.412  37.532  40.138  1.00  0.00     0.124 S 
ATOM     73  O   UNL A   1      38.957  36.779  41.302  1.00  0.00    -0.237 OA
ATOM     74  O   UNL A   1      40.786  38.023  40.198  1.00  0.00    -0.237 OA
ATOM     75  O   UNL A   1      38.444  38.469  39.577  1.00  0.00    -0.744 OA
ENDBRANCH  71  72
ENDBRANCH  39  64
ENDBRANCH  13  14
ENDBRANCH   6   8
ENDBRANCH   3   4
ENDBRANCH   2   3
ENDBRANCH   1   2
BRANCH   1  76
ATOM     76  C   UNL A   1      35.968  21.648  24.816  1.00  0.00     0.002 C 
BRANCH  76  77
ATOM     77  C   UNL A   1      34.912  21.025  25.731  1.00  0.00     0.021 C 
BRANCH  77  78
ATOM     78  C   UNL A   1      34.261  21.981  26.726  1.00  0.00     0.116 C 
BRANCH  78  79
ATOM     79  N   UNL A   1      32.806  21.919  26.695  1.00  0.00    -0.352 N 
ATOM     80  C   UNL A   1      31.944  22.550  25.830  1.00  0.00     0.256 C 
ATOM     81  H   UNL A   1      32.386  21.353  27.383  1.00  0.00     0.163 HD
ATOM     82  O   UNL A   1      30.729  22.501  26.001  1.00  0.00    -0.269 OA
BRANCH  80  83
ATOM     83  C   UNL A   1      32.492  23.393  24.753  1.00  0.00     0.099 A 
ATOM     84  C   UNL A   1      32.788  22.796  23.524  1.00  0.00     0.138 A 
ATOM     85  C   UNL A   1      32.775  24.752  24.977  1.00  0.00     0.057 A 
ATOM     86  F   UNL A   1      32.447  21.522  23.280  1.00  0.00    -0.206 F 
ATOM     87  C   UNL A   1      33.483  23.493  22.546  1.00  0.00     0.040 A 
ATOM     88  C   UNL A   1      33.567  25.405  24.025  1.00  0.00     0.027 A 
ATOM     89  C   UNL A   1      33.910  24.789  22.815  1.00  0.00     0.005 A 
BRANCH  85  90
ATOM     90  N   UNL A   1      32.277  25.383  26.146  1.00  0.00    -0.321 N 
ATOM     91  C   UNL A   1      31.583  26.553  26.359  1.00  0.00     0.257 C 
ATOM     92  H   UNL A   1      32.465  24.883  26.974  1.00  0.00     0.170 HD
ATOM     93  O   UNL A   1      31.396  26.976  27.499  1.00  0.00    -0.269 OA
BRANCH  91  94
ATOM     94  C   UNL A   1      30.997  27.315  25.252  1.00  0.00     0.058 A 
ATOM     95  C   UNL A   1      30.008  26.785  24.418  1.00  0.00     0.018 A 
ATOM     96  C   UNL A   1      31.453  28.603  25.012  1.00  0.00     0.126 A 
ATOM     97  C   UNL A   1      29.586  27.531  23.320  1.00  0.00     0.042 A 
ATOM     98  N   UNL A   1      31.056  29.349  23.953  1.00  0.00    -0.244 NA
ATOM     99  C   UNL A   1      30.145  28.786  23.130  1.00  0.00     0.129 A 
ATOM    100  Cl  UNL A   1      29.731  29.735  21.764  1.00  0.00    -0.062 Cl
ENDBRANCH  91  94
ENDBRANCH  85  90
ENDBRANCH  80  83
ENDBRANCH  78  79
ENDBRANCH  77  78
ENDBRANCH  76  77
ENDBRANCH   1  76
TORSDOF 18
ENDMDL
MODEL 2
REMARK VINA RESULT:     -12.0      6.640     11.925
REMARK SMILES O=C(NCCCCCCNC(=O)c1c(F)cccc1NC(=O)c1ccc(Cl)nc1)c1ccc(-c2c3nc(c(-c4c(F)cc(S(=O)(=O)[O-])cc4F)c4ccc([nH]4)c(-c4c(F)cc(S(=O)(=O)[O-])cc4F)c4nc(c(-c5c(F)cc(S(=O)(=O)[O-])cc5F)c5ccc2[nH]5)C=C4)C=C3)cc1
REMARK SMILES IDX 6 1 5 2 4 3 3 4 1 5 2 6 30 8 31 9 95 10 32 11 94 12 33 13
REMARK SMILES IDX 34 14 35 15 88 16 36 17 93 18 87 19 89 20 37 21 92 22 86 23
REMARK SMILES IDX 85 24 38 26 72 27 51 28 71 29 52 30 55 31 70 32 90 33 53 34
REMARK SMILES IDX 54 35 69 37 91 38 56 39 39 40 40 41 49 42 41 43 42 44 48 45
REMARK SMILES IDX 50 46 43 47 44 48 45 49 46 50 47 51 73 52 74 53 83 54 75 55
REMARK SMILES IDX 76 56 82 57 84 58 77 59 78 60 79 61 80 62 81 63 57 64 58 65
REMARK SMILES IDX 67 66 59 67 60 68 66 69 68 70 61 71 62 72 63 73 64 74 65 75
REMARK SMILES IDX 7 76 8 77 9 78 10 79 11 80 12 82 13 83 14 84 19 85 15 86
REMARK SMILES IDX 16 87 18 88 17 89 20 90 21 91 22 93 23 94 24 95 29 96 25 97
REMARK SMILES IDX 28 98 26 99 27 100
REMARK H PARENT 3 7 89 25 55 36 10 81 20 92
REMARK Flexibility Score: inf
ROOT
ATOM      1  C   UNL A   1      33.023  28.851  27.554  1.00  0.00     0.002 C 
ENDROOT
BRANCH   1   2
ATOM      2  C   UNL A   1      33.978  29.847  26.894  1.00  0.00     0.021 C 
BRANCH   2   3
ATOM      3  C   UNL A   1      35.334  30.010  27.571  1.00  0.00     0.116 C 
BRANCH   3   4
ATOM      4  N   UNL A   1      35.238  30.136  29.016  1.00  0.00    -0.352 N 
ATOM      5  O   UNL A   1      35.917  30.017  31.162  1.00  0.00    -0.269 OA
ATOM      6  C   UNL A   1      36.219  29.998  29.971  1.00  0.00     0.251 C 
ATOM      7  H   UNL A   1      34.342  30.350  29.361  1.00  0.00     0.163 HD
BRANCH   6   8
ATOM      8  C   UNL A   1      37.628  29.792  29.567  1.00  0.00     0.039 A 
ATOM      9  C   UNL A   1      38.031  29.977  28.243  1.00  0.00     0.014 A 
ATOM     10  C   UNL A   1      38.563  29.403  30.532  1.00  0.00     0.014 A 
ATOM     11  C   UNL A   1      39.319  29.621  27.856  1.00  0.00     0.010 A 
ATOM     12  C   UNL A   1      39.882  29.125  30.155  1.00  0.00     0.010 A 
ATOM     13  C   UNL A   1      40.261  29.189  28.806  1.00  0.00    -0.014 A 
BRANCH  13  14
ATOM     14  C   UNL A   1      41.634  28.838  28.359  1.00  0.00     0.031 A 
ATOM     15  C   UNL A   1      42.753  29.845  28.418  1.00  0.00     0.074 A 
ATOM     16  C   UNL A   1      41.886  27.578  27.954  1.00  0.00     0.049 A 
ATOM     17  N   UNL A   1      44.020  29.684  28.128  1.00  0.00    -0.248 NA
ATOM     18  C   UNL A   1      42.409  31.207  28.852  1.00  0.00     0.031 C 
ATOM     19  C   UNL A   1      40.883  26.516  27.846  1.00  0.00     0.029 A 
ATOM     20  N   UNL A   1      43.058  26.965  27.592  1.00  0.00    -0.354 N 
ATOM     21  C   UNL A   1      44.620  30.921  28.331  1.00  0.00     0.074 A 
ATOM     22  C   UNL A   1      43.573  31.832  28.741  1.00  0.00     0.031 C 
ATOM     23  C   UNL A   1      41.490  25.370  27.508  1.00  0.00     0.029 A 
ATOM     24  C   UNL A   1      42.915  25.624  27.323  1.00  0.00     0.049 A 
ATOM     25  H   UNL A   1      43.918  27.439  27.531  1.00  0.00     0.167 HD
ATOM     26  C   UNL A   1      45.925  31.263  28.199  1.00  0.00     0.037 A 
ATOM     27  C   UNL A   1      43.827  24.698  26.969  1.00  0.00     0.037 A 
ATOM     28  C   UNL A   1      46.967  30.349  27.803  1.00  0.00     0.049 A 
ATOM     29  C   UNL A   1      45.266  25.099  26.829  1.00  0.00     0.074 A 
ATOM     30  C   UNL A   1      48.319  30.601  27.645  1.00  0.00     0.029 A 
ATOM     31  N   UNL A   1      46.776  29.008  27.506  1.00  0.00    -0.354 N 
ATOM     32  N   UNL A   1      45.813  26.275  27.026  1.00  0.00    -0.248 NA
ATOM     33  C   UNL A   1      46.211  24.054  26.416  1.00  0.00     0.031 C 
ATOM     34  C   UNL A   1      48.940  29.420  27.226  1.00  0.00     0.029 A 
ATOM     35  C   UNL A   1      47.983  28.421  27.160  1.00  0.00     0.049 A 
ATOM     36  H   UNL A   1      45.910  28.540  27.537  1.00  0.00     0.167 HD
ATOM     37  C   UNL A   1      47.168  26.111  26.766  1.00  0.00     0.074 A 
ATOM     38  C   UNL A   1      47.360  24.717  26.418  1.00  0.00     0.031 C 
ATOM     39  C   UNL A   1      48.159  27.034  26.809  1.00  0.00     0.037 A 
BRANCH  26  40
ATOM     40  C   UNL A   1      46.305  32.690  28.482  1.00  0.00     0.058 A 
ATOM     41  C   UNL A   1      46.249  33.660  27.468  1.00  0.00     0.135 A 
ATOM     42  C   UNL A   1      46.767  33.090  29.746  1.00  0.00     0.135 A 
ATOM     43  F   UNL A   1      45.811  33.333  26.242  1.00  0.00    -0.206 F 
ATOM     44  C   UNL A   1      46.641  34.976  27.696  1.00  0.00     0.059 A 
ATOM     45  C   UNL A   1      47.145  34.405  30.002  1.00  0.00     0.059 A 
ATOM     46  F   UNL A   1      46.820  32.207  30.755  1.00  0.00    -0.206 F 
ATOM     47  C   UNL A   1      47.089  35.339  28.967  1.00  0.00     0.060 A 
BRANCH  47  48
ATOM     48  S   UNL A   1      47.540  37.062  29.268  1.00  0.00     0.124 S 
ATOM     49  O   UNL A   1      47.551  37.609  27.916  1.00  0.00    -0.237 OA
ATOM     50  O   UNL A   1      46.456  37.519  30.132  1.00  0.00    -0.237 OA
ATOM     51  O   UNL A   1      48.843  36.959  29.918  1.00  0.00    -0.744 OA
ENDBRANCH  47  48
ENDBRANCH  26  40
BRANCH  27  52
ATOM     52  C   UNL A   1      43.388  23.296  26.753  1.00  0.00     0.058 A 
ATOM     53  C   UNL A   1      43.100  22.452  27.836  1.00  0.00     0.135 A 
ATOM     54  C   UNL A   1      43.327  22.753  25.461  1.00  0.00     0.135 A 
ATOM     55  F   UNL A   1      43.157  22.924  29.091  1.00  0.00    -0.206 F 
ATOM     56  C   UNL A   1      42.806  21.107  27.650  1.00  0.00     0.059 A 
ATOM     57  C   UNL A   1      43.011  21.415  25.248  1.00  0.00     0.059 A 
ATOM     58  F   UNL A   1      43.584  23.527  24.396  1.00  0.00    -0.206 F 
ATOM     59  C   UNL A   1      42.777  20.595  26.352  1.00  0.00     0.060 A 
BRANCH  59  60
ATOM     60  S   UNL A   1      42.438  18.835  26.131  1.00  0.00     0.124 S 
ATOM     61  O   UNL A   1      43.416  18.478  25.108  1.00  0.00    -0.237 OA
ATOM     62  O   UNL A   1      42.692  18.302  27.466  1.00  0.00    -0.237 OA
ATOM     63  O   UNL A   1      41.043  18.812  25.703  1.00  0.00    -0.744 OA
ENDBRANCH  59  60
ENDBRANCH  27  52
BRANCH  39  64
ATOM     64  C   UNL A   1      49.548  26.568  26.480  1.00  0.00     0.058 A 
ATOM     65  C   UNL A   1      50.037  26.656  25.167  1.00  0.00     0.135 A 
ATOM     66  C   UNL A   1      50.376  25.987  27.453  1.00  0.00     0.135 A 
ATOM     67  F   UNL A   1      49.283  27.201  24.200  1.00  0.00    -0.206 F 
ATOM     68  C   UNL A   1      51.296  26.172  24.828  1.00  0.00     0.059 A 
ATOM     69  C   UNL A   1      51.648  25.515  27.141  1.00  0.00     0.059 A 
ATOM     70  F   UNL A   1      49.957  25.892  28.725  1.00  0.00    -0.206 F 
ATOM     71  C   UNL A   1      52.092  25.600  25.821  1.00  0.00     0.060 A 
BRANCH  71  72
ATOM     72  S   UNL A   1      53.736  25.001  25.371  1.00  0.00     0.124 S 
ATOM     73  O   UNL A   1      53.925  25.611  24.060  1.00  0.00    -0.237 OA
ATOM     74  O   UNL A   1      54.567  25.535  26.446  1.00  0.00    -0.237 OA
ATOM     75  O   UNL A   1      53.578  23.550  25.374  1.00  0.00    -0.744 OA
ENDBRANCH  71  72
ENDBRANCH  39  64
ENDBRANCH  13  14
ENDBRANCH   6   8
ENDBRANCH   3   4
ENDBRANCH   2   3
ENDBRANCH   1   2
BRANCH   1  76
ATOM     76  C   UNL A   1      32.733  27.574  26.763  1.00  0.00     0.002 C 
BRANCH  76  77
ATOM     77  C   UNL A   1      31.330  26.986  26.929  1.00  0.00     0.021 C 
BRANCH  77  78
ATOM     78  C   UNL A   1      30.941  25.920  25.907  1.00  0.00     0.116 C 
BRANCH  78  79
ATOM     79  N   UNL A   1      29.961  26.399  24.942  1.00  0.00    -0.352 N 
ATOM     80  C   UNL A   1      30.183  27.068  23.761  1.00  0.00     0.256 C 
ATOM     81  H   UNL A   1      29.018  26.222  25.163  1.00  0.00     0.163 HD
ATOM     82  O   UNL A   1      29.249  27.519  23.105  1.00  0.00    -0.269 OA
BRANCH  80  83
ATOM     83  C   UNL A   1      31.567  27.348  23.341  1.00  0.00     0.099 A 
ATOM     84  C   UNL A   1      32.089  28.624  23.568  1.00  0.00     0.138 A 
ATOM     85  C   UNL A   1      32.324  26.373  22.665  1.00  0.00     0.057 A 
ATOM     86  F   UNL A   1      31.402  29.529  24.280  1.00  0.00    -0.206 F 
ATOM     87  C   UNL A   1      33.308  29.000  23.022  1.00  0.00     0.040 A 
ATOM     88  C   UNL A   1      33.498  26.801  22.034  1.00  0.00     0.027 A 
ATOM     89  C   UNL A   1      33.994  28.098  22.218  1.00  0.00     0.005 A 
BRANCH  85  90
ATOM     90  N   UNL A   1      31.862  25.032  22.634  1.00  0.00    -0.321 N 
ATOM     91  C   UNL A   1      32.428  23.834  23.010  1.00  0.00     0.257 C 
ATOM     92  H   UNL A   1      30.953  24.938  22.267  1.00  0.00     0.170 HD
ATOM     93  O   UNL A   1      31.884  22.767  22.733  1.00  0.00    -0.269 OA
BRANCH  91  94
ATOM     94  C   UNL A   1      33.666  23.779  23.794  1.00  0.00     0.058 A 
ATOM     95  C   UNL A   1      33.706  24.093  25.155  1.00  0.00     0.018 A 
ATOM     96  C   UNL A   1      34.844  23.416  23.157  1.00  0.00     0.126 A 
ATOM     97  C   UNL A   1      34.940  24.126  25.800  1.00  0.00     0.042 A 
ATOM     98  N   UNL A   1      36.055  23.436  23.763  1.00  0.00    -0.244 NA
ATOM     99  C   UNL A   1      36.070  23.806  25.062  1.00  0.00     0.129 A 
ATOM    100  Cl  UNL A   1      37.632  23.892  25.764  1.00  0.00    -0.062 Cl
ENDBRANCH  91  94
ENDBRANCH  85  90
ENDBRANCH  80  83
ENDBRANCH  78  79
ENDBRANCH  77  78
ENDBRANCH  76  77
ENDBRANCH   1  76
TORSDOF 18
ENDMDL
MODEL 3
REMARK VINA RESULT:     -11.9      1.425      1.890
REMARK SMILES O=C(NCCCCCCNC(=O)c1c(F)cccc1NC(=O)c1ccc(Cl)nc1)c1ccc(-c2c3nc(c(-c4c(F)cc(S(=O)(=O)[O-])cc4F)c4ccc([nH]4)c(-c4c(F)cc(S(=O)(=O)[O-])cc4F)c4nc(c(-c5c(F)cc(S(=O)(=O)[O-])cc5F)c5ccc2[nH]5)C=C4)C=C3)cc1
REMARK SMILES IDX 6 1 5 2 4 3 3 4 1 5 2 6 30 8 31 9 95 10 32 11 94 12 33 13
REMARK SMILES IDX 34 14 35 15 88 16 36 17 93 18 87 19 89 20 37 21 92 22 86 23
REMARK SMILES IDX 85 24 38 26 72 27 51 28 71 29 52 30 55 31 70 32 90 33 53 34
REMARK SMILES IDX 54 35 69 37 91 38 56 39 39 40 40 41 49 42 41 43 42 44 48 45
REMARK SMILES IDX 50 46 43 47 44 48 45 49 46 50 47 51 73 52 74 53 83 54 75 55
REMARK SMILES IDX 76 56 82 57 84 58 77 59 78 60 79 61 80 62 81 63 57 64 58 65
REMARK SMILES IDX 67 66 59 67 60 68 66 69 68 70 61 71 62 72 63 73 64 74 65 75
REMARK SMILES IDX 7 76 8 77 9 78 10 79 11 80 12 82 13 83 14 84 19 85 15 86
REMARK SMILES IDX 16 87 18 88 17 89 20 90 21 91 22 93 23 94 24 95 29 96 25 97
REMARK SMILES IDX 28 98 26 99 27 100
REMARK H PARENT 3 7 89 25 55 36 10 81 20 92
REMARK Flexibility Score: inf
ROOT
ATOM      1  C   UNL A   1      38.172  21.986  25.527  1.00  0.00     0.002 C 
ENDROOT
BRANCH   1   2
ATOM      2  C   UNL A   1      39.371  22.059  26.473  1.00  0.00     0.021 C 
BRANCH   2   3
ATOM      3  C   UNL A   1      39.791  23.461  26.900  1.00  0.00     0.116 C 
BRANCH   3   4
ATOM      4  N   UNL A   1      40.749  24.071  25.991  1.00  0.00    -0.352 N 
ATOM      5  O   UNL A   1      41.982  25.717  25.071  1.00  0.00    -0.269 OA
ATOM      6  C   UNL A   1      41.276  25.342  26.003  1.00  0.00     0.251 C 
ATOM      7  H   UNL A   1      41.065  23.490  25.262  1.00  0.00     0.163 HD
BRANCH   6   8
ATOM      8  C   UNL A   1      40.965  26.267  27.117  1.00  0.00     0.039 A 
ATOM      9  C   UNL A   1      41.615  27.498  27.231  1.00  0.00     0.014 A 
ATOM     10  C   UNL A   1      40.008  25.893  28.065  1.00  0.00     0.014 A 
ATOM     11  C   UNL A   1      41.427  28.275  28.369  1.00  0.00     0.010 A 
ATOM     12  C   UNL A   1      39.759  26.717  29.169  1.00  0.00     0.010 A 
ATOM     13  C   UNL A   1      40.497  27.894  29.354  1.00  0.00    -0.014 A 
BRANCH  13  14
ATOM     14  C   UNL A   1      40.307  28.762  30.546  1.00  0.00     0.031 A 
ATOM     15  C   UNL A   1      41.230  28.667  31.732  1.00  0.00     0.074 A 
ATOM     16  C   UNL A   1      39.328  29.687  30.529  1.00  0.00     0.049 A 
ATOM     17  N   UNL A   1      41.244  29.392  32.823  1.00  0.00    -0.248 NA
ATOM     18  C   UNL A   1      42.267  27.625  31.695  1.00  0.00     0.031 C 
ATOM     19  C   UNL A   1      38.365  29.869  29.440  1.00  0.00     0.029 A 
ATOM     20  N   UNL A   1      38.999  30.667  31.430  1.00  0.00    -0.354 N 
ATOM     21  C   UNL A   1      42.276  28.888  33.605  1.00  0.00     0.074 A 
ATOM     22  C   UNL A   1      42.849  27.777  32.878  1.00  0.00     0.031 C 
ATOM     23  C   UNL A   1      37.597  30.935  29.706  1.00  0.00     0.029 A 
ATOM     24  C   UNL A   1      37.975  31.480  31.006  1.00  0.00     0.049 A 
ATOM     25  H   UNL A   1      39.452  30.777  32.297  1.00  0.00     0.167 HD
ATOM     26  C   UNL A   1      42.714  29.321  34.813  1.00  0.00     0.037 A 
ATOM     27  C   UNL A   1      37.401  32.548  31.593  1.00  0.00     0.037 A 
ATOM     28  C   UNL A   1      42.149  30.437  35.528  1.00  0.00     0.049 A 
ATOM     29  C   UNL A   1      37.902  33.009  32.931  1.00  0.00     0.074 A 
ATOM     30  C   UNL A   1      42.527  30.953  36.757  1.00  0.00     0.029 A 
ATOM     31  N   UNL A   1      41.091  31.214  35.081  1.00  0.00    -0.354 N 
ATOM     32  N   UNL A   1      38.880  32.518  33.654  1.00  0.00    -0.248 NA
ATOM     33  C   UNL A   1      37.222  34.162  33.534  1.00  0.00     0.031 C 
ATOM     34  C   UNL A   1      41.679  32.022  37.064  1.00  0.00     0.029 A 
ATOM     35  C   UNL A   1      40.798  32.199  36.010  1.00  0.00     0.049 A 
ATOM     36  H   UNL A   1      40.616  31.085  34.228  1.00  0.00     0.167 HD
ATOM     37  C   UNL A   1      38.938  33.306  34.797  1.00  0.00     0.074 A 
ATOM     38  C   UNL A   1      37.909  34.318  34.659  1.00  0.00     0.031 C 
ATOM     39  C   UNL A   1      39.767  33.196  35.863  1.00  0.00     0.037 A 
BRANCH  26  40
ATOM     40  C   UNL A   1      43.861  28.582  35.445  1.00  0.00     0.058 A 
ATOM     41  C   UNL A   1      45.188  28.922  35.139  1.00  0.00     0.135 A 
ATOM     42  C   UNL A   1      43.648  27.507  36.323  1.00  0.00     0.135 A 
ATOM     43  F   UNL A   1      45.450  29.945  34.309  1.00  0.00    -0.206 F 
ATOM     44  C   UNL A   1      46.264  28.221  35.676  1.00  0.00     0.059 A 
ATOM     45  C   UNL A   1      44.708  26.804  36.888  1.00  0.00     0.059 A 
ATOM     46  F   UNL A   1      42.399  27.153  36.665  1.00  0.00    -0.206 F 
ATOM     47  C   UNL A   1      46.013  27.162  36.551  1.00  0.00     0.060 A 
BRANCH  47  48
ATOM     48  S   UNL A   1      47.416  26.297  37.288  1.00  0.00     0.124 S 
ATOM     49  O   UNL A   1      46.948  24.916  37.291  1.00  0.00    -0.237 OA
ATOM     50  O   UNL A   1      48.495  26.602  36.352  1.00  0.00    -0.237 OA
ATOM     51  O   UNL A   1      47.545  26.922  38.601  1.00  0.00    -0.744 OA
ENDBRANCH  47  48
ENDBRANCH  26  40
BRANCH  27  52
ATOM     52  C   UNL A   1      36.305  33.259  30.888  1.00  0.00     0.058 A 
ATOM     53  C   UNL A   1      36.573  34.124  29.816  1.00  0.00     0.135 A 
ATOM     54  C   UNL A   1      34.977  33.149  31.328  1.00  0.00     0.135 A 
ATOM     55  F   UNL A   1      37.830  34.270  29.368  1.00  0.00    -0.206 F 
ATOM     56  C   UNL A   1      35.571  34.885  29.229  1.00  0.00     0.059 A 
ATOM     57  C   UNL A   1      33.952  33.885  30.741  1.00  0.00     0.059 A 
ATOM     58  F   UNL A   1      34.674  32.327  32.344  1.00  0.00    -0.206 F 
ATOM     59  C   UNL A   1      34.265  34.768  29.707  1.00  0.00     0.060 A 
BRANCH  59  60
ATOM     60  S   UNL A   1      32.982  35.799  28.963  1.00  0.00     0.124 S 
ATOM     61  O   UNL A   1      32.381  34.871  28.011  1.00  0.00    -0.237 OA
ATOM     62  O   UNL A   1      32.160  36.149  30.117  1.00  0.00    -0.237 OA
ATOM     63  O   UNL A   1      33.737  36.902  28.376  1.00  0.00    -0.744 OA
ENDBRANCH  59  60
ENDBRANCH  27  52
BRANCH  39  64
ATOM     64  C   UNL A   1      39.605  34.201  36.967  1.00  0.00     0.058 A 
ATOM     65  C   UNL A   1      40.202  35.468  36.871  1.00  0.00     0.135 A 
ATOM     66  C   UNL A   1      38.903  33.891  38.143  1.00  0.00     0.135 A 
ATOM     67  F   UNL A   1      40.885  35.812  35.768  1.00  0.00    -0.206 F 
ATOM     68  C   UNL A   1      40.117  36.391  37.909  1.00  0.00     0.059 A 
ATOM     69  C   UNL A   1      38.788  34.806  39.185  1.00  0.00     0.059 A 
ATOM     70  F   UNL A   1      38.305  32.697  38.276  1.00  0.00    -0.206 F 
ATOM     71  C   UNL A   1      39.411  36.049  39.063  1.00  0.00     0.060 A 
BRANCH  71  72
ATOM     72  S   UNL A   1      39.287  37.266  40.391  1.00  0.00     0.124 S 
ATOM     73  O   UNL A   1      38.607  36.504  41.432  1.00  0.00    -0.237 OA
ATOM     74  O   UNL A   1      40.688  37.588  40.651  1.00  0.00    -0.237 OA
ATOM     75  O   UNL A   1      38.507  38.344  39.789  1.00  0.00    -0.744 OA
ENDBRANCH  71  72
ENDBRANCH  39  64
ENDBRANCH  13  14
ENDBRANCH   6   8
ENDBRANCH   3   4
ENDBRANCH   2   3
ENDBRANCH   1   2
BRANCH   1  76
ATOM     76  C   UNL A   1      36.915  22.737  25.977  1.00  0.00     0.002 C 
BRANCH  76  77
ATOM     77  C   UNL A   1      36.144  23.473  24.879  1.00  0.00     0.021 C 
BRANCH  77  78
ATOM     78  C   UNL A   1      35.070  24.439  25.369  1.00  0.00     0.116 C 
BRANCH  78  79
ATOM     79  N   UNL A   1      33.751  23.824  25.443  1.00  0.00    -0.352 N 
ATOM     80  C   UNL A   1      32.595  24.206  24.803  1.00  0.00     0.256 C 
ATOM     81  H   UNL A   1      33.678  23.034  26.025  1.00  0.00     0.163 HD
ATOM     82  O   UNL A   1      31.524  23.662  25.057  1.00  0.00    -0.269 OA
BRANCH  80  83
ATOM     83  C   UNL A   1      32.625  25.361  23.890  1.00  0.00     0.099 A 
ATOM     84  C   UNL A   1      33.235  25.210  22.642  1.00  0.00     0.138 A 
ATOM     85  C   UNL A   1      32.110  26.608  24.290  1.00  0.00     0.057 A 
ATOM     86  F   UNL A   1      33.655  24.006  22.224  1.00  0.00    -0.206 F 
ATOM     87  C   UNL A   1      33.464  26.309  21.825  1.00  0.00     0.040 A 
ATOM     88  C   UNL A   1      32.444  27.718  23.505  1.00  0.00     0.027 A 
ATOM     89  C   UNL A   1      33.104  27.573  22.278  1.00  0.00     0.005 A 
BRANCH  85  90
ATOM     90  N   UNL A   1      31.313  26.688  25.461  1.00  0.00    -0.321 N 
ATOM     91  C   UNL A   1      31.439  27.392  26.638  1.00  0.00     0.257 C 
ATOM     92  H   UNL A   1      30.506  26.124  25.426  1.00  0.00     0.170 HD
ATOM     93  O   UNL A   1      30.690  27.171  27.587  1.00  0.00    -0.269 OA
BRANCH  91  94
ATOM     94  C   UNL A   1      32.430  28.462  26.793  1.00  0.00     0.058 A 
ATOM     95  C   UNL A   1      33.794  28.203  26.954  1.00  0.00     0.018 A 
ATOM     96  C   UNL A   1      31.995  29.780  26.796  1.00  0.00     0.126 A 
ATOM     97  C   UNL A   1      34.653  29.270  27.209  1.00  0.00     0.042 A 
ATOM     98  N   UNL A   1      32.811  30.833  27.038  1.00  0.00    -0.244 NA
ATOM     99  C   UNL A   1      34.113  30.546  27.253  1.00  0.00     0.129 A 
ATOM    100  Cl  UNL A   1      35.092  31.902  27.631  1.00  0.00    -0.062 Cl
ENDBRANCH  91  94
ENDBRANCH  85  90
ENDBRANCH  80  83
ENDBRANCH  78  79
ENDBRANCH  77  78
ENDBRANCH  76  77
ENDBRANCH   1  76
TORSDOF 18
ENDMDL
