MODEL 1
REMARK VINA RESULT:     -13.3      0.000      0.000
REMARK SMILES COc1ccc(/C=C2/C(=O)N(c3ccccc3)C(=O)[NH+]=C2NCCCCCCNC(=O)c2ccc(-c3c4nc(c(-c5c(F)cc(S(=O)(=O)[O-])cc5F)c5ccc([nH]5)c(-c5c(F)cc(S(=O)(=O)[O-])cc5F)c5nc(c(-c6c(F)cc(S(=O)(=O)[O-])cc6F)c6ccc3[nH]6)C=C5)C=C4)cc2)cc1C(=O)[O-]
REMARK SMILES IDX 26 1 25 2 24 3 23 4 22 5 7 6 8 7 9 8 21 9 10 10 11 11 20 12
REMARK SMILES IDX 18 13 19 16 6 17 3 18 4 19 99 20 5 21 98 22 2 23 1 24 100 25
REMARK SMILES IDX 101 26 102 27 12 28 13 29 17 30 14 31 16 32 15 33 27 34
REMARK SMILES IDX 28 35 29 36 30 37 31 39 32 40 33 41 97 42 34 43 96 44 35 45
REMARK SMILES IDX 36 46 37 47 90 48 38 49 95 50 89 51 91 52 39 53 94 54 88 55
REMARK SMILES IDX 87 56 40 58 74 59 53 60 73 61 54 62 57 63 72 64 92 65 55 66
REMARK SMILES IDX 56 67 71 69 93 70 58 71 41 72 42 73 51 74 43 75 44 76 50 77
REMARK SMILES IDX 52 78 45 79 46 80 47 81 48 82 49 83 75 84 76 85 85 86 77 87
REMARK SMILES IDX 78 88 84 89 86 90 79 91 80 92 81 93 82 94 83 95 59 96 60 97
REMARK SMILES IDX 69 98 61 99 62 100 68 101 70 102 63 103 64 104 65 105 66 106
REMARK SMILES IDX 67 107
REMARK H PARENT 20 14 22 15 29 38 91 57 57 68
REMARK Flexibility Score: inf
ROOT
ATOM      1  C   UNL A   1      34.818  30.336  27.370  1.00  0.00     0.002 C 
ENDROOT
BRANCH   1   2
ATOM      2  C   UNL A   1      33.309  30.171  27.014  1.00  0.00     0.003 C 
BRANCH   2   3
ATOM      3  C   UNL A   1      32.478  29.415  25.635  1.00  0.00     0.037 C 
BRANCH   3   4
ATOM      4  C   UNL A   1      32.280  27.380  24.826  1.00  0.00     0.194 C 
BRANCH   4   5
ATOM      5  N   UNL A   1      32.119  25.949  25.612  1.00  0.00    -0.305 N 
ATOM      6  C   UNL A   1      31.935  25.111  22.710  1.00  0.00     0.030 C 
ATOM      7  C   UNL A   1      32.365  24.315  23.694  1.00  0.00     0.129 C 
ATOM      8  C   UNL A   1      32.991  23.012  23.426  1.00  0.00     0.328 C 
ATOM      9  C   UNL A   1      32.132  24.657  25.117  1.00  0.00     0.236 C 
ATOM     10  O   UNL A   1      33.666  22.828  22.416  1.00  0.00    -0.249 OA
ATOM     11  N   UNL A   1      32.700  22.084  24.408  1.00  0.00    -0.155 N 
ATOM     12  N   UNL A   1      31.860  23.679  25.936  1.00  0.00    -0.209 N 
ATOM     13  C   UNL A   1      31.796  22.396  25.419  1.00  0.00     0.448 C 
ATOM     14  H   UNL A   1      31.705  23.848  26.893  1.00  0.00     0.270 HD
ATOM     15  H   UNL A   1      31.992  26.021  26.586  1.00  0.00     0.256 HD
ATOM     16  O   UNL A   1      30.954  21.595  25.820  1.00  0.00    -0.212 OA
BRANCH   6  17
ATOM     17  C   UNL A   1      31.512  26.439  23.119  1.00  0.00    -0.024 A 
ATOM     18  C   UNL A   1      29.584  29.472  22.781  1.00  0.00     0.127 A 
ATOM     19  C   UNL A   1      31.324  29.458  22.288  1.00  0.00     0.048 A 
ATOM     20  C   UNL A   1      28.808  27.963  23.352  1.00  0.00     0.040 A 
ATOM     21  C   UNL A   1      32.332  27.955  22.534  1.00  0.00     0.012 A 
ATOM     22  C   UNL A   1      29.768  26.476  23.563  1.00  0.00     0.022 A 
BRANCH  18  23
ATOM     23  O   UNL A   1      28.951  30.684  22.842  1.00  0.00    -0.496 OA
ATOM     24  C   UNL A   1      28.359  31.007  21.575  1.00  0.00     0.278 C 
ENDBRANCH  18  23
BRANCH  20  25
ATOM     25  C   UNL A   1      27.363  27.813  23.565  1.00  0.00     0.075 C 
ATOM     26  O   UNL A   1      26.531  28.646  23.265  1.00  0.00    -0.545 OA
ATOM     27  O   UNL A   1      27.073  26.688  24.227  1.00  0.00    -0.545 OA
ENDBRANCH  20  25
ENDBRANCH   6  17
BRANCH  11  28
ATOM     28  C   UNL A   1      33.076  20.742  24.181  1.00  0.00     0.111 A 
ATOM     29  C   UNL A   1      34.174  20.176  24.837  1.00  0.00     0.044 A 
ATOM     30  C   UNL A   1      32.258  19.951  23.368  1.00  0.00     0.044 A 
ATOM     31  C   UNL A   1      34.443  18.816  24.681  1.00  0.00     0.004 A 
ATOM     32  C   UNL A   1      32.532  18.594  23.215  1.00  0.00     0.004 A 
ATOM     33  C   UNL A   1      33.621  18.026  23.876  1.00  0.00     0.000 A 
ENDBRANCH  11  28
ENDBRANCH   4   5
ENDBRANCH   3   4
ENDBRANCH   2   3
ENDBRANCH   1   2
BRANCH   1  34
ATOM     34  C   UNL A   1      35.285  31.162  28.582  1.00  0.00     0.021 C 
BRANCH  34  35
ATOM     35  C   UNL A   1      35.696  30.363  29.808  1.00  0.00     0.116 C 
BRANCH  35  36
ATOM     36  N   UNL A   1      35.977  31.174  30.972  1.00  0.00    -0.352 N 
ATOM     37  C   UNL A   1      37.197  31.322  31.595  1.00  0.00     0.251 C 
ATOM     38  H   UNL A   1      35.220  31.671  31.358  1.00  0.00     0.163 HD
ATOM     39  O   UNL A   1      37.267  31.882  32.684  1.00  0.00    -0.269 OA
BRANCH  37  40
ATOM     40  C   UNL A   1      38.428  30.778  30.959  1.00  0.00     0.039 A 
ATOM     41  C   UNL A   1      39.330  30.054  31.745  1.00  0.00     0.014 A 
ATOM     42  C   UNL A   1      38.722  31.014  29.612  1.00  0.00     0.014 A 
ATOM     43  C   UNL A   1      40.517  29.569  31.181  1.00  0.00     0.010 A 
ATOM     44  C   UNL A   1      39.879  30.479  29.037  1.00  0.00     0.010 A 
ATOM     45  C   UNL A   1      40.806  29.777  29.823  1.00  0.00    -0.014 A 
BRANCH  45  46
ATOM     46  C   UNL A   1      42.107  29.327  29.249  1.00  0.00     0.031 A 
ATOM     47  C   UNL A   1      43.284  30.270  29.207  1.00  0.00     0.074 A 
ATOM     48  C   UNL A   1      42.244  28.072  28.776  1.00  0.00     0.049 A 
ATOM     49  N   UNL A   1      44.508  30.048  28.795  1.00  0.00    -0.248 NA
ATOM     50  C   UNL A   1      43.053  31.645  29.675  1.00  0.00     0.031 C 
ATOM     51  C   UNL A   1      41.181  27.067  28.726  1.00  0.00     0.029 A 
ATOM     52  N   UNL A   1      43.340  27.423  28.258  1.00  0.00    -0.354 N 
ATOM     53  C   UNL A   1      45.189  31.251  28.955  1.00  0.00     0.074 A 
ATOM     54  C   UNL A   1      44.226  32.215  29.440  1.00  0.00     0.031 C 
ATOM     55  C   UNL A   1      41.686  25.919  28.241  1.00  0.00     0.029 A 
ATOM     56  C   UNL A   1      43.099  26.111  27.922  1.00  0.00     0.049 A 
ATOM     57  H   UNL A   1      44.215  27.857  28.140  1.00  0.00     0.167 HD
ATOM     58  C   UNL A   1      46.500  31.524  28.747  1.00  0.00     0.037 A 
ATOM     59  C   UNL A   1      43.923  25.167  27.425  1.00  0.00     0.037 A 
ATOM     60  C   UNL A   1      47.466  30.563  28.282  1.00  0.00     0.049 A 
ATOM     61  C   UNL A   1      45.373  25.498  27.185  1.00  0.00     0.074 A 
ATOM     62  C   UNL A   1      48.825  30.735  28.082  1.00  0.00     0.029 A 
ATOM     63  N   UNL A   1      47.177  29.250  27.940  1.00  0.00    -0.354 N 
ATOM     64  N   UNL A   1      46.011  26.623  27.401  1.00  0.00    -0.248 NA
ATOM     65  C   UNL A   1      46.218  24.425  26.639  1.00  0.00     0.031 C 
ATOM     66  C   UNL A   1      49.350  29.540  27.578  1.00  0.00     0.029 A 
ATOM     67  C   UNL A   1      48.328  28.607  27.511  1.00  0.00     0.049 A 
ATOM     68  H   UNL A   1      46.286  28.836  27.994  1.00  0.00     0.167 HD
ATOM     69  C   UNL A   1      47.335  26.384  27.049  1.00  0.00     0.074 A 
ATOM     70  C   UNL A   1      47.410  25.006  26.613  1.00  0.00     0.031 C 
ATOM     71  C   UNL A   1      48.394  27.232  27.085  1.00  0.00     0.037 A 
BRANCH  58  72
ATOM     72  C   UNL A   1      46.969  32.927  29.028  1.00  0.00     0.058 A 
ATOM     73  C   UNL A   1      46.998  33.908  28.023  1.00  0.00     0.135 A 
ATOM     74  C   UNL A   1      47.377  33.303  30.318  1.00  0.00     0.135 A 
ATOM     75  F   UNL A   1      46.631  33.601  26.768  1.00  0.00    -0.206 F 
ATOM     76  C   UNL A   1      47.451  35.198  28.277  1.00  0.00     0.059 A 
ATOM     77  C   UNL A   1      47.806  34.596  30.602  1.00  0.00     0.059 A 
ATOM     78  F   UNL A   1      47.366  32.408  31.318  1.00  0.00    -0.206 F 
ATOM     79  C   UNL A   1      47.858  35.532  29.569  1.00  0.00     0.060 A 
BRANCH  79  80
ATOM     80  S   UNL A   1      48.462  37.205  29.879  1.00  0.00     0.124 S 
ATOM     81  O   UNL A   1      49.530  37.315  28.890  1.00  0.00    -0.237 OA
ATOM     82  O   UNL A   1      47.277  38.018  29.625  1.00  0.00    -0.237 OA
ATOM     83  O   UNL A   1      48.899  37.157  31.271  1.00  0.00    -0.744 OA
ENDBRANCH  79  80
ENDBRANCH  58  72
BRANCH  59  84
ATOM     84  C   UNL A   1      43.405  23.799  27.150  1.00  0.00     0.058 A 
ATOM     85  C   UNL A   1      43.078  23.399  25.846  1.00  0.00     0.135 A 
ATOM     86  C   UNL A   1      43.229  22.866  28.184  1.00  0.00     0.135 A 
ATOM     87  F   UNL A   1      43.219  24.259  24.826  1.00  0.00    -0.206 F 
ATOM     88  C   UNL A   1      42.578  22.129  25.576  1.00  0.00     0.059 A 
ATOM     89  C   UNL A   1      42.755  21.581  27.936  1.00  0.00     0.059 A 
ATOM     90  F   UNL A   1      43.541  23.194  29.447  1.00  0.00    -0.206 F 
ATOM     91  C   UNL A   1      42.423  21.226  26.629  1.00  0.00     0.060 A 
BRANCH  91  92
ATOM     92  S   UNL A   1      41.820  19.563  26.263  1.00  0.00     0.124 S 
ATOM     93  O   UNL A   1      42.276  18.821  27.434  1.00  0.00    -0.237 OA
ATOM     94  O   UNL A   1      40.380  19.775  26.162  1.00  0.00    -0.237 OA
ATOM     95  O   UNL A   1      42.488  19.234  25.008  1.00  0.00    -0.744 OA
ENDBRANCH  91  92
ENDBRANCH  59  84
BRANCH  71  96
ATOM     96  C   UNL A   1      49.736  26.688  26.675  1.00  0.00     0.058 A 
ATOM     97  C   UNL A   1      50.171  26.719  25.340  1.00  0.00     0.135 A 
ATOM     98  C   UNL A   1      50.619  26.173  27.639  1.00  0.00     0.135 A 
ATOM     99  F   UNL A   1      49.365  27.195  24.379  1.00  0.00    -0.206 F 
ATOM    100  C   UNL A   1      51.424  26.239  24.972  1.00  0.00     0.059 A 
ATOM    101  C   UNL A   1      51.888  25.712  27.297  1.00  0.00     0.059 A 
ATOM    102  F   UNL A   1      50.259  26.129  28.931  1.00  0.00    -0.206 F 
ATOM    103  C   UNL A   1      52.276  25.738  25.959  1.00  0.00     0.060 A 
BRANCH 103 104
ATOM    104  S   UNL A   1      53.912  25.148  25.472  1.00  0.00     0.124 S 
ATOM    105  O   UNL A   1      53.576  23.964  24.688  1.00  0.00    -0.237 OA
ATOM    106  O   UNL A   1      54.441  26.279  24.716  1.00  0.00    -0.237 OA
ATOM    107  O   UNL A   1      54.574  24.890  26.747  1.00  0.00    -0.744 OA
ENDBRANCH 103 104
ENDBRANCH  71  96
ENDBRANCH  45  46
ENDBRANCH  37  40
ENDBRANCH  35  36
ENDBRANCH  34  35
ENDBRANCH   1  34
TORSDOF 19
ENDMDL
MODEL 2
REMARK VINA RESULT:     -13.2      0.698      7.891
REMARK SMILES COc1ccc(/C=C2/C(=O)N(c3ccccc3)C(=O)[NH+]=C2NCCCCCCNC(=O)c2ccc(-c3c4nc(c(-c5c(F)cc(S(=O)(=O)[O-])cc5F)c5ccc([nH]5)c(-c5c(F)cc(S(=O)(=O)[O-])cc5F)c5nc(c(-c6c(F)cc(S(=O)(=O)[O-])cc6F)c6ccc3[nH]6)C=C5)C=C4)cc2)cc1C(=O)[O-]
REMARK SMILES IDX 26 1 25 2 24 3 23 4 22 5 7 6 8 7 9 8 21 9 10 10 11 11 20 12
REMARK SMILES IDX 18 13 19 16 6 17 3 18 4 19 99 20 5 21 98 22 2 23 1 24 100 25
REMARK SMILES IDX 101 26 102 27 12 28 13 29 17 30 14 31 16 32 15 33 27 34
REMARK SMILES IDX 28 35 29 36 30 37 31 39 32 40 33 41 97 42 34 43 96 44 35 45
REMARK SMILES IDX 36 46 37 47 90 48 38 49 95 50 89 51 91 52 39 53 94 54 88 55
REMARK SMILES IDX 87 56 40 58 74 59 53 60 73 61 54 62 57 63 72 64 92 65 55 66
REMARK SMILES IDX 56 67 71 69 93 70 58 71 41 72 42 73 51 74 43 75 44 76 50 77
REMARK SMILES IDX 52 78 45 79 46 80 47 81 48 82 49 83 75 84 76 85 85 86 77 87
REMARK SMILES IDX 78 88 84 89 86 90 79 91 80 92 81 93 82 94 83 95 59 96 60 97
REMARK SMILES IDX 69 98 61 99 62 100 68 101 70 102 63 103 64 104 65 105 66 106
REMARK SMILES IDX 67 107
REMARK H PARENT 20 14 22 15 29 38 91 57 57 68
REMARK Flexibility Score: inf
ROOT
ATOM      1  C   UNL A   1      34.920  30.770  27.408  1.00  0.00     0.002 C 
ENDROOT
BRANCH   1   2
ATOM      2  C   UNL A   1      33.792  29.695  27.334  1.00  0.00     0.003 C 
BRANCH   2   3
ATOM      3  C   UNL A   1      32.825  29.064  25.981  1.00  0.00     0.037 C 
BRANCH   3   4
ATOM      4  C   UNL A   1      32.484  27.097  25.059  1.00  0.00     0.194 C 
BRANCH   4   5
ATOM      5  N   UNL A   1      32.223  25.639  25.763  1.00  0.00    -0.305 N 
ATOM      6  C   UNL A   1      32.194  24.944  22.818  1.00  0.00     0.030 C 
ATOM      7  C   UNL A   1      32.533  24.087  23.787  1.00  0.00     0.129 C 
ATOM      8  C   UNL A   1      33.129  22.775  23.494  1.00  0.00     0.328 C 
ATOM      9  C   UNL A   1      32.223  24.371  25.207  1.00  0.00     0.236 C 
ATOM     10  O   UNL A   1      33.860  22.612  22.520  1.00  0.00    -0.249 OA
ATOM     11  N   UNL A   1      32.744  21.814  24.410  1.00  0.00    -0.155 N 
ATOM     12  N   UNL A   1      31.866  23.367  25.960  1.00  0.00    -0.209 N 
ATOM     13  C   UNL A   1      31.790  22.113  25.378  1.00  0.00     0.448 C 
ATOM     14  H   UNL A   1      31.657  23.498  26.913  1.00  0.00     0.270 HD
ATOM     15  H   UNL A   1      32.038  25.670  26.729  1.00  0.00     0.256 HD
ATOM     16  O   UNL A   1      30.897  21.326  25.688  1.00  0.00    -0.212 OA
BRANCH   6  17
ATOM     17  C   UNL A   1      31.792  26.267  23.264  1.00  0.00    -0.024 A 
ATOM     18  C   UNL A   1      30.001  29.385  22.954  1.00  0.00     0.127 A 
ATOM     19  C   UNL A   1      31.769  29.326  22.574  1.00  0.00     0.048 A 
ATOM     20  C   UNL A   1      29.135  27.881  23.398  1.00  0.00     0.040 A 
ATOM     21  C   UNL A   1      32.703  27.775  22.809  1.00  0.00     0.012 A 
ATOM     22  C   UNL A   1      30.025  26.350  23.596  1.00  0.00     0.022 A 
BRANCH  18  23
ATOM     23  O   UNL A   1      29.410  30.616  23.033  1.00  0.00    -0.496 OA
ATOM     24  C   UNL A   1      28.925  31.026  21.746  1.00  0.00     0.278 C 
ENDBRANCH  18  23
BRANCH  20  25
ATOM     25  C   UNL A   1      27.675  27.778  23.509  1.00  0.00     0.075 C 
ATOM     26  O   UNL A   1      26.892  28.621  23.120  1.00  0.00    -0.545 OA
ATOM     27  O   UNL A   1      27.305  26.686  24.187  1.00  0.00    -0.545 OA
ENDBRANCH  20  25
ENDBRANCH   6  17
BRANCH  11  28
ATOM     28  C   UNL A   1      33.086  20.471  24.142  1.00  0.00     0.111 A 
ATOM     29  C   UNL A   1      34.146  19.846  24.808  1.00  0.00     0.044 A 
ATOM     30  C   UNL A   1      32.271  19.738  23.274  1.00  0.00     0.044 A 
ATOM     31  C   UNL A   1      34.379  18.485  24.607  1.00  0.00     0.004 A 
ATOM     32  C   UNL A   1      32.509  18.380  23.076  1.00  0.00     0.004 A 
ATOM     33  C   UNL A   1      33.560  17.753  23.746  1.00  0.00     0.000 A 
ENDBRANCH  11  28
ENDBRANCH   4   5
ENDBRANCH   3   4
ENDBRANCH   2   3
ENDBRANCH   1   2
BRANCH   1  34
ATOM     34  C   UNL A   1      36.214  30.540  28.209  1.00  0.00     0.021 C 
BRANCH  34  35
ATOM     35  C   UNL A   1      36.083  29.656  29.438  1.00  0.00     0.116 C 
BRANCH  35  36
ATOM     36  N   UNL A   1      36.058  30.385  30.687  1.00  0.00    -0.352 N 
ATOM     37  C   UNL A   1      37.130  30.626  31.519  1.00  0.00     0.251 C 
ATOM     38  H   UNL A   1      35.187  30.745  30.972  1.00  0.00     0.163 HD
ATOM     39  O   UNL A   1      36.945  31.087  32.641  1.00  0.00    -0.269 OA
BRANCH  37  40
ATOM     40  C   UNL A   1      38.511  30.302  31.067  1.00  0.00     0.039 A 
ATOM     41  C   UNL A   1      39.032  30.970  29.955  1.00  0.00     0.014 A 
ATOM     42  C   UNL A   1      39.275  29.316  31.701  1.00  0.00     0.014 A 
ATOM     43  C   UNL A   1      40.312  30.652  29.484  1.00  0.00     0.010 A 
ATOM     44  C   UNL A   1      40.575  29.041  31.264  1.00  0.00     0.010 A 
ATOM     45  C   UNL A   1      41.096  29.684  30.131  1.00  0.00    -0.014 A 
BRANCH  45  46
ATOM     46  C   UNL A   1      42.425  29.294  29.577  1.00  0.00     0.031 A 
ATOM     47  C   UNL A   1      42.629  27.917  28.993  1.00  0.00     0.074 A 
ATOM     48  C   UNL A   1      43.449  30.171  29.581  1.00  0.00     0.049 A 
ATOM     49  N   UNL A   1      43.693  27.411  28.419  1.00  0.00    -0.248 NA
ATOM     50  C   UNL A   1      41.497  26.983  29.078  1.00  0.00     0.031 C 
ATOM     51  C   UNL A   1      43.400  31.523  30.142  1.00  0.00     0.029 A 
ATOM     52  N   UNL A   1      44.726  30.062  29.088  1.00  0.00    -0.354 N 
ATOM     53  C   UNL A   1      43.357  26.105  28.076  1.00  0.00     0.074 A 
ATOM     54  C   UNL A   1      42.014  25.877  28.564  1.00  0.00     0.031 C 
ATOM     55  C   UNL A   1      44.581  32.128  29.928  1.00  0.00     0.029 A 
ATOM     56  C   UNL A   1      45.478  31.203  29.239  1.00  0.00     0.049 A 
ATOM     57  H   UNL A   1      45.071  29.242  28.666  1.00  0.00     0.167 HD
ATOM     58  C   UNL A   1      44.083  25.188  27.392  1.00  0.00     0.037 A 
ATOM     59  C   UNL A   1      46.742  31.480  28.857  1.00  0.00     0.037 A 
ATOM     60  C   UNL A   1      45.413  25.416  26.889  1.00  0.00     0.049 A 
ATOM     61  C   UNL A   1      47.538  30.439  28.114  1.00  0.00     0.074 A 
ATOM     62  C   UNL A   1      46.212  24.563  26.148  1.00  0.00     0.029 A 
ATOM     63  N   UNL A   1      46.143  26.581  27.077  1.00  0.00    -0.354 N 
ATOM     64  N   UNL A   1      47.179  29.233  27.745  1.00  0.00    -0.248 NA
ATOM     65  C   UNL A   1      48.910  30.802  27.728  1.00  0.00     0.031 C 
ATOM     66  C   UNL A   1      47.441  25.194  25.925  1.00  0.00     0.029 A 
ATOM     67  C   UNL A   1      47.390  26.461  26.484  1.00  0.00     0.049 A 
ATOM     68  H   UNL A   1      45.821  27.376  27.559  1.00  0.00     0.167 HD
ATOM     69  C   UNL A   1      48.268  28.706  27.058  1.00  0.00     0.074 A 
ATOM     70  C   UNL A   1      49.294  29.726  27.054  1.00  0.00     0.031 C 
ATOM     71  C   UNL A   1      48.404  27.485  26.480  1.00  0.00     0.037 A 
BRANCH  58  72
ATOM     72  C   UNL A   1      43.449  23.845  27.144  1.00  0.00     0.058 A 
ATOM     73  C   UNL A   1      43.459  22.835  28.120  1.00  0.00     0.135 A 
ATOM     74  C   UNL A   1      42.807  23.569  25.926  1.00  0.00     0.135 A 
ATOM     75  F   UNL A   1      44.069  23.040  29.298  1.00  0.00    -0.206 F 
ATOM     76  C   UNL A   1      42.892  21.587  27.884  1.00  0.00     0.059 A 
ATOM     77  C   UNL A   1      42.206  22.338  25.679  1.00  0.00     0.059 A 
ATOM     78  F   UNL A   1      42.762  24.499  24.959  1.00  0.00    -0.206 F 
ATOM     79  C   UNL A   1      42.272  21.346  26.657  1.00  0.00     0.060 A 
BRANCH  79  80
ATOM     80  S   UNL A   1      41.556  19.716  26.357  1.00  0.00     0.124 S 
ATOM     81  O   UNL A   1      41.764  19.067  27.648  1.00  0.00    -0.237 OA
ATOM     82  O   UNL A   1      40.172  20.038  26.026  1.00  0.00    -0.237 OA
ATOM     83  O   UNL A   1      42.355  19.191  25.254  1.00  0.00    -0.744 OA
ENDBRANCH  79  80
ENDBRANCH  58  72
BRANCH  59  84
ATOM     84  C   UNL A   1      47.327  32.818  29.141  1.00  0.00     0.058 A 
ATOM     85  C   UNL A   1      48.000  33.072  30.346  1.00  0.00     0.135 A 
ATOM     86  C   UNL A   1      47.228  33.868  28.214  1.00  0.00     0.135 A 
ATOM     87  F   UNL A   1      48.111  32.104  31.268  1.00  0.00    -0.206 F 
ATOM     88  C   UNL A   1      48.539  34.322  30.631  1.00  0.00     0.059 A 
ATOM     89  C   UNL A   1      47.782  35.119  28.466  1.00  0.00     0.059 A 
ATOM     90  F   UNL A   1      46.608  33.673  27.040  1.00  0.00    -0.206 F 
ATOM     91  C   UNL A   1      48.427  35.339  29.682  1.00  0.00     0.060 A 
BRANCH  91  92
ATOM     92  S   UNL A   1      49.172  36.945  30.040  1.00  0.00     0.124 S 
ATOM     93  O   UNL A   1      50.414  36.869  29.278  1.00  0.00    -0.237 OA
ATOM     94  O   UNL A   1      48.165  37.871  29.530  1.00  0.00    -0.237 OA
ATOM     95  O   UNL A   1      49.320  36.928  31.492  1.00  0.00    -0.744 OA
ENDBRANCH  91  92
ENDBRANCH  59  84
BRANCH  71  96
ATOM     96  C   UNL A   1      49.694  27.193  25.763  1.00  0.00     0.058 A 
ATOM     97  C   UNL A   1      49.838  27.400  24.382  1.00  0.00     0.135 A 
ATOM     98  C   UNL A   1      50.819  26.747  26.478  1.00  0.00     0.135 A 
ATOM     99  F   UNL A   1      48.795  27.820  23.651  1.00  0.00    -0.206 F 
ATOM    100  C   UNL A   1      51.043  27.154  23.731  1.00  0.00     0.059 A 
ATOM    101  C   UNL A   1      52.041  26.519  25.852  1.00  0.00     0.059 A 
ATOM    102  F   UNL A   1      50.741  26.542  27.803  1.00  0.00    -0.206 F 
ATOM    103  C   UNL A   1      52.140  26.714  24.476  1.00  0.00     0.060 A 
BRANCH 103 104
ATOM    104  S   UNL A   1      53.706  26.428  23.625  1.00  0.00     0.124 S 
ATOM    105  O   UNL A   1      54.337  27.741  23.724  1.00  0.00    -0.237 OA
ATOM    106  O   UNL A   1      54.312  25.372  24.429  1.00  0.00    -0.237 OA
ATOM    107  O   UNL A   1      53.297  26.028  22.282  1.00  0.00    -0.744 OA
ENDBRANCH 103 104
ENDBRANCH  71  96
ENDBRANCH  45  46
ENDBRANCH  37  40
ENDBRANCH  35  36
ENDBRANCH  34  35
ENDBRANCH   1  34
TORSDOF 19
ENDMDL
MODEL 3
REMARK VINA RESULT:     -12.5      5.983     13.049
REMARK SMILES COc1ccc(/C=C2/C(=O)N(c3ccccc3)C(=O)[NH+]=C2NCCCCCCNC(=O)c2ccc(-c3c4nc(c(-c5c(F)cc(S(=O)(=O)[O-])cc5F)c5ccc([nH]5)c(-c5c(F)cc(S(=O)(=O)[O-])cc5F)c5nc(c(-c6c(F)cc(S(=O)(=O)[O-])cc6F)c6ccc3[nH]6)C=C5)C=C4)cc2)cc1C(=O)[O-]
REMARK SMILES IDX 26 1 25 2 24 3 23 4 22 5 7 6 8 7 9 8 21 9 10 10 11 11 20 12
REMARK SMILES IDX 18 13 19 16 6 17 3 18 4 19 99 20 5 21 98 22 2 23 1 24 100 25
REMARK SMILES IDX 101 26 102 27 12 28 13 29 17 30 14 31 16 32 15 33 27 34
REMARK SMILES IDX 28 35 29 36 30 37 31 39 32 40 33 41 97 42 34 43 96 44 35 45
REMARK SMILES IDX 36 46 37 47 90 48 38 49 95 50 89 51 91 52 39 53 94 54 88 55
REMARK SMILES IDX 87 56 40 58 74 59 53 60 73 61 54 62 57 63 72 64 92 65 55 66
REMARK SMILES IDX 56 67 71 69 93 70 58 71 41 72 42 73 51 74 43 75 44 76 50 77
REMARK SMILES IDX 52 78 45 79 46 80 47 81 48 82 49 83 75 84 76 85 85 86 77 87
REMARK SMILES IDX 78 88 84 89 86 90 79 91 80 92 81 93 82 94 83 95 59 96 60 97
REMARK SMILES IDX 69 98 61 99 62 100 68 101 70 102 63 103 64 104 65 105 66 106
REMARK SMILES IDX 67 107
REMARK H PARENT 20 14 22 15 29 38 91 57 57 68
REMARK Flexibility Score: inf
ROOT
ATOM      1  C   UNL A   1      46.374  24.254  24.778  1.00  0.00     0.002 C 
ENDROOT
BRANCH   1   2
ATOM      2  C   UNL A   1      44.852  23.940  24.911  1.00  0.00     0.003 C 
BRANCH   2   3
ATOM      3  C   UNL A   1      43.416  24.985  25.002  1.00  0.00     0.037 C 
BRANCH   3   4
ATOM      4  C   UNL A   1      42.327  26.049  26.589  1.00  0.00     0.194 C 
BRANCH   4   5
ATOM      5  N   UNL A   1      41.334  27.350  26.489  1.00  0.00    -0.305 N 
ATOM      6  C   UNL A   1      40.861  26.398  29.323  1.00  0.00     0.030 C 
ATOM      7  C   UNL A   1      40.705  27.664  28.921  1.00  0.00     0.129 C 
ATOM      8  C   UNL A   1      40.486  28.762  29.874  1.00  0.00     0.328 C 
ATOM      9  C   UNL A   1      40.632  28.011  27.483  1.00  0.00     0.236 C 
ATOM     10  O   UNL A   1      40.987  28.740  30.995  1.00  0.00    -0.249 OA
ATOM     11  N   UNL A   1      39.663  29.744  29.354  1.00  0.00    -0.155 N 
ATOM     12  N   UNL A   1      39.806  28.956  27.130  1.00  0.00    -0.209 N 
ATOM     13  C   UNL A   1      39.047  29.559  28.120  1.00  0.00     0.448 C 
ATOM     14  H   UNL A   1      39.724  29.233  26.189  1.00  0.00     0.270 HD
ATOM     15  H   UNL A   1      41.219  27.717  25.583  1.00  0.00     0.256 HD
ATOM     16  O   UNL A   1      37.878  29.878  27.913  1.00  0.00    -0.212 OA
BRANCH   6  17
ATOM     17  C   UNL A   1      41.253  25.457  28.288  1.00  0.00    -0.024 A 
ATOM     18  C   UNL A   1      41.344  22.198  26.738  1.00  0.00     0.127 A 
ATOM     19  C   UNL A   1      42.778  22.787  27.671  1.00  0.00     0.048 A 
ATOM     20  C   UNL A   1      39.860  23.198  26.662  1.00  0.00     0.040 A 
ATOM     21  C   UNL A   1      42.777  24.467  28.386  1.00  0.00     0.012 A 
ATOM     22  C   UNL A   1      39.828  24.826  27.387  1.00  0.00     0.022 A 
BRANCH  18  23
ATOM     23  O   UNL A   1      41.495  21.062  25.992  1.00  0.00    -0.496 OA
ATOM     24  C   UNL A   1      41.141  19.903  26.760  1.00  0.00     0.278 C 
ENDBRANCH  18  23
BRANCH  20  25
ATOM     25  C   UNL A   1      38.578  22.724  26.126  1.00  0.00     0.075 C 
ATOM     26  O   UNL A   1      38.364  21.587  25.755  1.00  0.00    -0.545 OA
ATOM     27  O   UNL A   1      37.696  23.720  25.995  1.00  0.00    -0.545 OA
ENDBRANCH  20  25
ENDBRANCH   6  17
BRANCH  11  28
ATOM     28  C   UNL A   1      39.215  30.760  30.226  1.00  0.00     0.111 A 
ATOM     29  C   UNL A   1      38.188  30.524  31.146  1.00  0.00     0.044 A 
ATOM     30  C   UNL A   1      39.895  31.982  30.229  1.00  0.00     0.044 A 
ATOM     31  C   UNL A   1      37.853  31.512  32.073  1.00  0.00     0.004 A 
ATOM     32  C   UNL A   1      39.555  32.965  31.155  1.00  0.00     0.004 A 
ATOM     33  C   UNL A   1      38.538  32.728  32.080  1.00  0.00     0.000 A 
ENDBRANCH  11  28
ENDBRANCH   4   5
ENDBRANCH   3   4
ENDBRANCH   2   3
ENDBRANCH   1   2
BRANCH   1  34
ATOM     34  C   UNL A   1      47.209  24.762  25.967  1.00  0.00     0.021 C 
BRANCH  34  35
ATOM     35  C   UNL A   1      48.438  25.581  25.610  1.00  0.00     0.116 C 
BRANCH  35  36
ATOM     36  N   UNL A   1      48.331  26.286  24.352  1.00  0.00    -0.352 N 
ATOM     37  C   UNL A   1      47.549  27.390  24.093  1.00  0.00     0.251 C 
ATOM     38  H   UNL A   1      48.871  25.941  23.604  1.00  0.00     0.163 HD
ATOM     39  O   UNL A   1      47.396  27.778  22.939  1.00  0.00    -0.269 OA
BRANCH  37  40
ATOM     40  C   UNL A   1      46.867  28.098  25.211  1.00  0.00     0.039 A 
ATOM     41  C   UNL A   1      47.629  28.890  26.074  1.00  0.00     0.014 A 
ATOM     42  C   UNL A   1      45.494  27.950  25.441  1.00  0.00     0.014 A 
ATOM     43  C   UNL A   1      47.018  29.531  27.159  1.00  0.00     0.010 A 
ATOM     44  C   UNL A   1      44.876  28.637  26.491  1.00  0.00     0.010 A 
ATOM     45  C   UNL A   1      45.637  29.410  27.381  1.00  0.00    -0.014 A 
BRANCH  45  46
ATOM     46  C   UNL A   1      45.007  30.030  28.583  1.00  0.00     0.031 A 
ATOM     47  C   UNL A   1      44.887  29.245  29.866  1.00  0.00     0.074 A 
ATOM     48  C   UNL A   1      44.554  31.299  28.536  1.00  0.00     0.049 A 
ATOM     49  N   UNL A   1      44.418  29.626  31.029  1.00  0.00    -0.248 NA
ATOM     50  C   UNL A   1      45.338  27.845  29.835  1.00  0.00     0.031 C 
ATOM     51  C   UNL A   1      44.578  32.161  27.354  1.00  0.00     0.029 A 
ATOM     52  N   UNL A   1      43.995  32.088  29.512  1.00  0.00    -0.354 N 
ATOM     53  C   UNL A   1      44.519  28.517  31.863  1.00  0.00     0.074 A 
ATOM     54  C   UNL A   1      45.032  27.431  31.056  1.00  0.00     0.031 C 
ATOM     55  C   UNL A   1      44.091  33.370  27.684  1.00  0.00     0.029 A 
ATOM     56  C   UNL A   1      43.698  33.363  29.091  1.00  0.00     0.049 A 
ATOM     57  H   UNL A   1      43.823  31.770  30.428  1.00  0.00     0.167 HD
ATOM     58  C   UNL A   1      44.240  28.415  33.186  1.00  0.00     0.037 A 
ATOM     59  C   UNL A   1      43.179  34.412  29.762  1.00  0.00     0.037 A 
ATOM     60  C   UNL A   1      43.746  29.498  33.997  1.00  0.00     0.049 A 
ATOM     61  C   UNL A   1      42.859  34.271  31.227  1.00  0.00     0.074 A 
ATOM     62  C   UNL A   1      43.474  29.502  35.354  1.00  0.00     0.029 A 
ATOM     63  N   UNL A   1      43.445  30.768  33.527  1.00  0.00    -0.354 N 
ATOM     64  N   UNL A   1      43.020  33.232  32.012  1.00  0.00    -0.248 NA
ATOM     65  C   UNL A   1      42.293  35.450  31.900  1.00  0.00     0.031 C 
ATOM     66  C   UNL A   1      42.969  30.761  35.697  1.00  0.00     0.029 A 
ATOM     67  C   UNL A   1      42.972  31.558  34.563  1.00  0.00     0.049 A 
ATOM     68  H   UNL A   1      43.553  31.065  32.595  1.00  0.00     0.167 HD
ATOM     69  C   UNL A   1      42.606  33.642  33.275  1.00  0.00     0.074 A 
ATOM     70  C   UNL A   1      42.195  35.025  33.152  1.00  0.00     0.031 C 
ATOM     71  C   UNL A   1      42.571  32.936  34.433  1.00  0.00     0.037 A 
BRANCH  58  72
ATOM     72  C   UNL A   1      44.467  27.079  33.842  1.00  0.00     0.058 A 
ATOM     73  C   UNL A   1      43.404  26.205  34.119  1.00  0.00     0.135 A 
ATOM     74  C   UNL A   1      45.763  26.658  34.182  1.00  0.00     0.135 A 
ATOM     75  F   UNL A   1      42.143  26.561  33.827  1.00  0.00    -0.206 F 
ATOM     76  C   UNL A   1      43.611  24.980  34.744  1.00  0.00     0.059 A 
ATOM     77  C   UNL A   1      45.998  25.424  34.781  1.00  0.00     0.059 A 
ATOM     78  F   UNL A   1      46.818  27.452  33.936  1.00  0.00    -0.206 F 
ATOM     79  C   UNL A   1      44.913  24.601  35.077  1.00  0.00     0.060 A 
BRANCH  79  80
ATOM     80  S   UNL A   1      45.165  23.016  35.905  1.00  0.00     0.124 S 
ATOM     81  O   UNL A   1      44.908  23.374  37.298  1.00  0.00    -0.237 OA
ATOM     82  O   UNL A   1      44.159  22.169  35.274  1.00  0.00    -0.237 OA
ATOM     83  O   UNL A   1      46.550  22.683  35.588  1.00  0.00    -0.744 OA
ENDBRANCH  79  80
ENDBRANCH  58  72
BRANCH  59  84
ATOM     84  C   UNL A   1      42.959  35.706  29.061  1.00  0.00     0.058 A 
ATOM     85  C   UNL A   1      41.742  35.982  28.418  1.00  0.00     0.135 A 
ATOM     86  C   UNL A   1      43.957  36.692  29.023  1.00  0.00     0.135 A 
ATOM     87  F   UNL A   1      40.762  35.067  28.419  1.00  0.00    -0.206 F 
ATOM     88  C   UNL A   1      41.528  37.181  27.747  1.00  0.00     0.059 A 
ATOM     89  C   UNL A   1      43.757  37.910  28.380  1.00  0.00     0.059 A 
ATOM     90  F   UNL A   1      45.133  36.484  29.635  1.00  0.00    -0.206 F 
ATOM     91  C   UNL A   1      42.542  38.141  27.737  1.00  0.00     0.060 A 
BRANCH  91  92
ATOM     92  S   UNL A   1      42.237  39.715  26.905  1.00  0.00     0.124 S 
ATOM     93  O   UNL A   1      41.042  39.409  26.126  1.00  0.00    -0.237 OA
ATOM     94  O   UNL A   1      42.051  40.625  28.030  1.00  0.00    -0.237 OA
ATOM     95  O   UNL A   1      43.457  39.926  26.133  1.00  0.00    -0.744 OA
ENDBRANCH  91  92
ENDBRANCH  59  84
BRANCH  71  96
ATOM     96  C   UNL A   1      42.105  33.651  35.672  1.00  0.00     0.058 A 
ATOM     97  C   UNL A   1      40.753  33.673  36.050  1.00  0.00     0.135 A 
ATOM     98  C   UNL A   1      43.031  34.283  36.520  1.00  0.00     0.135 A 
ATOM     99  F   UNL A   1      39.826  33.090  35.275  1.00  0.00    -0.206 F 
ATOM    100  C   UNL A   1      40.332  34.313  37.212  1.00  0.00     0.059 A 
ATOM    101  C   UNL A   1      42.636  34.907  37.700  1.00  0.00     0.059 A 
ATOM    102  F   UNL A   1      44.338  34.284  36.212  1.00  0.00    -0.206 F 
ATOM    103  C   UNL A   1      41.282  34.927  38.031  1.00  0.00     0.060 A 
BRANCH 103 104
ATOM    104  S   UNL A   1      40.727  35.727  39.552  1.00  0.00     0.124 S 
ATOM    105  O   UNL A   1      41.429  37.005  39.484  1.00  0.00    -0.237 OA
ATOM    106  O   UNL A   1      39.281  35.787  39.364  1.00  0.00    -0.237 OA
ATOM    107  O   UNL A   1      41.180  34.817  40.600  1.00  0.00    -0.744 OA
ENDBRANCH 103 104
ENDBRANCH  71  96
ENDBRANCH  45  46
ENDBRANCH  37  40
ENDBRANCH  35  36
ENDBRANCH  34  35
ENDBRANCH   1  34
TORSDOF 19
ENDMDL
