MODEL 1
REMARK VINA RESULT:     -12.2      0.000      0.000
REMARK SMILES Cc1cc(C(=O)Nc2c(Cl)cc(Cl)cc2C(=O)NCCCCCCNC(=O)c2ccc(-c3c4nc(c(-c5c(F)cc(S(=O)(=O)[O-])cc5F)c5ccc([nH]5)c(-c5c(F)cc(S(=O)(=O)[O-])cc5F)c5nc(c(-c6c(F)cc(S(=O)(=O)[O-])cc6F)c6ccc3[nH]6)C=C5)C=C4)cc2)c(C)s1
REMARK SMILES IDX 22 1 21 2 20 3 19 4 18 5 16 6 17 7 15 9 8 10 9 11 10 12
REMARK SMILES IDX 11 13 14 14 12 15 13 16 7 17 5 18 6 19 4 21 1 22 2 23 3 24
REMARK SMILES IDX 96 25 94 26 95 27 23 28 24 29 25 30 26 31 27 33 28 34 29 35
REMARK SMILES IDX 93 36 30 37 92 38 31 39 32 40 33 41 86 42 34 43 91 44 85 45
REMARK SMILES IDX 87 46 35 47 90 48 84 49 83 50 36 52 70 53 49 54 69 55 50 56
REMARK SMILES IDX 53 57 68 58 88 59 51 60 52 61 67 63 89 64 54 65 37 66 38 67
REMARK SMILES IDX 47 68 39 69 40 70 46 71 48 72 41 73 42 74 43 75 44 76 45 77
REMARK SMILES IDX 71 78 72 79 81 80 73 81 74 82 80 83 82 84 75 85 76 86 77 87
REMARK SMILES IDX 78 88 79 89 55 90 56 91 65 92 57 93 58 94 64 95 66 96 59 97
REMARK SMILES IDX 60 98 61 99 62 100 63 101
REMARK H PARENT 18 8 7 20 25 32 87 51 53 62
REMARK Flexibility Score: inf
ROOT
ATOM      1  C   UNL A   1      36.065  23.120  26.102  1.00  0.00     0.002 C 
ENDROOT
BRANCH   1   2
ATOM      2  C   UNL A   1      35.477  21.740  26.418  1.00  0.00     0.002 C 
BRANCH   2   3
ATOM      3  C   UNL A   1      34.163  21.669  27.201  1.00  0.00     0.021 C 
BRANCH   3   4
ATOM      4  C   UNL A   1      32.897  21.342  26.419  1.00  0.00     0.116 C 
BRANCH   4   5
ATOM      5  N   UNL A   1      31.793  22.256  26.579  1.00  0.00    -0.352 N 
ATOM      6  C   UNL A   1      31.286  23.225  25.753  1.00  0.00     0.253 C 
ATOM      7  O   UNL A   1      30.291  23.829  26.167  1.00  0.00    -0.269 OA
ATOM      8  H   UNL A   1      31.319  22.168  27.436  1.00  0.00     0.163 HD
BRANCH   6   9
ATOM      9  C   UNL A   1      31.842  23.663  24.428  1.00  0.00     0.066 A 
ATOM     10  C   UNL A   1      31.291  24.546  23.474  1.00  0.00     0.073 A 
ATOM     11  C   UNL A   1      32.098  24.989  22.393  1.00  0.00     0.066 A 
ATOM     12  Cl  UNL A   1      31.572  26.230  21.301  1.00  0.00    -0.082 Cl
ATOM     13  C   UNL A   1      33.368  24.460  22.170  1.00  0.00     0.043 A 
ATOM     14  C   UNL A   1      33.131  23.139  24.173  1.00  0.00     0.036 A 
ATOM     15  C   UNL A   1      33.866  23.512  23.048  1.00  0.00     0.043 A 
ATOM     16  Cl  UNL A   1      35.408  22.810  22.757  1.00  0.00    -0.084 Cl
BRANCH  10  17
ATOM     17  N   UNL A   1      29.978  25.019  23.577  1.00  0.00    -0.320 N 
ATOM     18  C   UNL A   1      29.503  26.204  24.132  1.00  0.00     0.256 C 
ATOM     19  O   UNL A   1      28.279  26.347  24.097  1.00  0.00    -0.269 OA
ATOM     20  H   UNL A   1      29.287  24.425  23.203  1.00  0.00     0.170 HD
BRANCH  18  21
ATOM     21  C   UNL A   1      30.398  27.292  24.609  1.00  0.00     0.054 A 
ATOM     22  C   UNL A   1      32.528  28.908  27.298  1.00  0.00     0.056 C 
ATOM     23  C   UNL A   1      31.789  28.529  26.064  1.00  0.00     0.003 A 
ATOM     24  C   UNL A   1      31.364  27.277  25.679  1.00  0.00     0.029 A 
ATOM     25  S   UNL A   1      31.356  29.691  24.909  1.00  0.00    -0.145 S 
ATOM     26  C   UNL A   1      30.488  28.535  23.975  1.00  0.00     0.014 A 
ATOM     27  C   UNL A   1      29.921  29.005  22.670  1.00  0.00     0.057 C 
ENDBRANCH  18  21
ENDBRANCH  10  17
ENDBRANCH   6   9
ENDBRANCH   4   5
ENDBRANCH   3   4
ENDBRANCH   2   3
ENDBRANCH   1   2
BRANCH   1  28
ATOM     28  C   UNL A   1      37.535  23.195  25.686  1.00  0.00     0.021 C 
BRANCH  28  29
ATOM     29  C   UNL A   1      38.494  23.874  26.655  1.00  0.00     0.116 C 
BRANCH  29  30
ATOM     30  N   UNL A   1      39.891  23.762  26.265  1.00  0.00    -0.352 N 
ATOM     31  C   UNL A   1      40.951  24.579  26.583  1.00  0.00     0.251 C 
ATOM     32  H   UNL A   1      40.109  22.991  25.693  1.00  0.00     0.163 HD
ATOM     33  O   UNL A   1      42.054  24.377  26.081  1.00  0.00    -0.269 OA
BRANCH  31  34
ATOM     34  C   UNL A   1      40.753  25.726  27.498  1.00  0.00     0.039 A 
ATOM     35  C   UNL A   1      39.749  25.653  28.469  1.00  0.00     0.014 A 
ATOM     36  C   UNL A   1      41.564  26.862  27.414  1.00  0.00     0.014 A 
ATOM     37  C   UNL A   1      39.614  26.678  29.410  1.00  0.00     0.010 A 
ATOM     38  C   UNL A   1      41.471  27.850  28.391  1.00  0.00     0.010 A 
ATOM     39  C   UNL A   1      40.502  27.765  29.405  1.00  0.00    -0.014 A 
BRANCH  39  40
ATOM     40  C   UNL A   1      40.462  28.820  30.451  1.00  0.00     0.031 A 
ATOM     41  C   UNL A   1      41.317  28.692  31.680  1.00  0.00     0.074 A 
ATOM     42  C   UNL A   1      39.572  29.826  30.353  1.00  0.00     0.049 A 
ATOM     43  N   UNL A   1      41.307  29.407  32.775  1.00  0.00    -0.248 NA
ATOM     44  C   UNL A   1      42.289  27.588  31.690  1.00  0.00     0.031 C 
ATOM     45  C   UNL A   1      38.652  30.034  29.233  1.00  0.00     0.029 A 
ATOM     46  N   UNL A   1      39.269  30.843  31.225  1.00  0.00    -0.354 N 
ATOM     47  C   UNL A   1      42.245  28.821  33.618  1.00  0.00     0.074 A 
ATOM     48  C   UNL A   1      42.776  27.670  32.919  1.00  0.00     0.031 C 
ATOM     49  C   UNL A   1      37.884  31.105  29.489  1.00  0.00     0.029 A 
ATOM     50  C   UNL A   1      38.226  31.634  30.806  1.00  0.00     0.049 A 
ATOM     51  H   UNL A   1      39.754  30.991  32.070  1.00  0.00     0.167 HD
ATOM     52  C   UNL A   1      42.634  29.214  34.855  1.00  0.00     0.037 A 
ATOM     53  C   UNL A   1      37.593  32.654  31.422  1.00  0.00     0.037 A 
ATOM     54  C   UNL A   1      42.115  30.374  35.534  1.00  0.00     0.049 A 
ATOM     55  C   UNL A   1      38.052  33.089  32.786  1.00  0.00     0.074 A 
ATOM     56  C   UNL A   1      42.493  30.896  36.758  1.00  0.00     0.029 A 
ATOM     57  N   UNL A   1      41.099  31.186  35.049  1.00  0.00    -0.354 N 
ATOM     58  N   UNL A   1      38.985  32.565  33.544  1.00  0.00    -0.248 NA
ATOM     59  C   UNL A   1      37.381  34.256  33.374  1.00  0.00     0.031 C 
ATOM     60  C   UNL A   1      41.678  32.000  37.033  1.00  0.00     0.029 A 
ATOM     61  C   UNL A   1      40.824  32.195  35.958  1.00  0.00     0.049 A 
ATOM     62  H   UNL A   1      40.641  31.064  34.186  1.00  0.00     0.167 HD
ATOM     63  C   UNL A   1      39.031  33.352  34.690  1.00  0.00     0.074 A 
ATOM     64  C   UNL A   1      38.033  34.390  34.522  1.00  0.00     0.031 C 
ATOM     65  C   UNL A   1      39.831  33.227  35.777  1.00  0.00     0.037 A 
BRANCH  52  66
ATOM     66  C   UNL A   1      43.659  28.362  35.555  1.00  0.00     0.058 A 
ATOM     67  C   UNL A   1      45.037  28.535  35.345  1.00  0.00     0.135 A 
ATOM     68  C   UNL A   1      43.256  27.345  36.435  1.00  0.00     0.135 A 
ATOM     69  F   UNL A   1      45.478  29.485  34.506  1.00  0.00    -0.206 F 
ATOM     70  C   UNL A   1      45.975  27.692  35.933  1.00  0.00     0.059 A 
ATOM     71  C   UNL A   1      44.179  26.509  37.059  1.00  0.00     0.059 A 
ATOM     72  F   UNL A   1      41.952  27.138  36.681  1.00  0.00    -0.206 F 
ATOM     73  C   UNL A   1      45.535  26.674  36.779  1.00  0.00     0.060 A 
BRANCH  73  74
ATOM     74  S   UNL A   1      46.757  25.555  37.495  1.00  0.00     0.124 S 
ATOM     75  O   UNL A   1      47.986  26.031  36.869  1.00  0.00    -0.237 OA
ATOM     76  O   UNL A   1      46.630  25.821  38.924  1.00  0.00    -0.237 OA
ATOM     77  O   UNL A   1      46.302  24.236  37.064  1.00  0.00    -0.744 OA
ENDBRANCH  73  74
ENDBRANCH  52  66
BRANCH  53  78
ATOM     78  C   UNL A   1      36.467  33.331  30.728  1.00  0.00     0.058 A 
ATOM     79  C   UNL A   1      35.145  33.156  31.161  1.00  0.00     0.135 A 
ATOM     80  C   UNL A   1      36.698  34.226  29.672  1.00  0.00     0.135 A 
ATOM     81  F   UNL A   1      34.874  32.303  32.161  1.00  0.00    -0.206 F 
ATOM     82  C   UNL A   1      34.091  33.853  30.579  1.00  0.00     0.059 A 
ATOM     83  C   UNL A   1      35.663  34.951  29.089  1.00  0.00     0.059 A 
ATOM     84  F   UNL A   1      37.947  34.438  29.232  1.00  0.00    -0.206 F 
ATOM     85  C   UNL A   1      34.362  34.760  29.552  1.00  0.00     0.060 A 
BRANCH  85  86
ATOM     86  S   UNL A   1      33.000  35.737  28.880  1.00  0.00     0.124 S 
ATOM     87  O   UNL A   1      32.278  36.110  30.091  1.00  0.00    -0.237 OA
ATOM     88  O   UNL A   1      33.707  36.819  28.200  1.00  0.00    -0.237 OA
ATOM     89  O   UNL A   1      32.315  34.797  27.998  1.00  0.00    -0.744 OA
ENDBRANCH  85  86
ENDBRANCH  53  78
BRANCH  65  90
ATOM     90  C   UNL A   1      39.694  34.255  36.866  1.00  0.00     0.058 A 
ATOM     91  C   UNL A   1      38.949  34.007  38.029  1.00  0.00     0.135 A 
ATOM     92  C   UNL A   1      40.382  35.477  36.775  1.00  0.00     0.135 A 
ATOM     93  F   UNL A   1      38.267  32.860  38.163  1.00  0.00    -0.206 F 
ATOM     94  C   UNL A   1      38.883  34.940  39.061  1.00  0.00     0.059 A 
ATOM     95  C   UNL A   1      40.349  36.413  37.804  1.00  0.00     0.059 A 
ATOM     96  F   UNL A   1      41.114  35.761  35.685  1.00  0.00    -0.206 F 
ATOM     97  C   UNL A   1      39.591  36.137  38.940  1.00  0.00     0.060 A 
BRANCH  97  98
ATOM     98  S   UNL A   1      39.542  37.315  40.309  1.00  0.00     0.124 S 
ATOM     99  O   UNL A   1      38.932  38.478  39.675  1.00  0.00    -0.237 OA
ATOM    100  O   UNL A   1      38.716  36.621  41.291  1.00  0.00    -0.237 OA
ATOM    101  O   UNL A   1      40.947  37.466  40.678  1.00  0.00    -0.744 OA
ENDBRANCH  97  98
ENDBRANCH  65  90
ENDBRANCH  39  40
ENDBRANCH  31  34
ENDBRANCH  29  30
ENDBRANCH  28  29
ENDBRANCH   1  28
TORSDOF 18
ENDMDL
MODEL 2
REMARK VINA RESULT:     -12.1      1.734      2.763
REMARK SMILES Cc1cc(C(=O)Nc2c(Cl)cc(Cl)cc2C(=O)NCCCCCCNC(=O)c2ccc(-c3c4nc(c(-c5c(F)cc(S(=O)(=O)[O-])cc5F)c5ccc([nH]5)c(-c5c(F)cc(S(=O)(=O)[O-])cc5F)c5nc(c(-c6c(F)cc(S(=O)(=O)[O-])cc6F)c6ccc3[nH]6)C=C5)C=C4)cc2)c(C)s1
REMARK SMILES IDX 22 1 21 2 20 3 19 4 18 5 16 6 17 7 15 9 8 10 9 11 10 12
REMARK SMILES IDX 11 13 14 14 12 15 13 16 7 17 5 18 6 19 4 21 1 22 2 23 3 24
REMARK SMILES IDX 96 25 94 26 95 27 23 28 24 29 25 30 26 31 27 33 28 34 29 35
REMARK SMILES IDX 93 36 30 37 92 38 31 39 32 40 33 41 86 42 34 43 91 44 85 45
REMARK SMILES IDX 87 46 35 47 90 48 84 49 83 50 36 52 70 53 49 54 69 55 50 56
REMARK SMILES IDX 53 57 68 58 88 59 51 60 52 61 67 63 89 64 54 65 37 66 38 67
REMARK SMILES IDX 47 68 39 69 40 70 46 71 48 72 41 73 42 74 43 75 44 76 45 77
REMARK SMILES IDX 71 78 72 79 81 80 73 81 74 82 80 83 82 84 75 85 76 86 77 87
REMARK SMILES IDX 78 88 79 89 55 90 56 91 65 92 57 93 58 94 64 95 66 96 59 97
REMARK SMILES IDX 60 98 61 99 62 100 63 101
REMARK H PARENT 18 8 7 20 25 32 87 51 53 62
REMARK Flexibility Score: inf
ROOT
ATOM      1  C   UNL A   1      40.792  20.797  26.187  1.00  0.00     0.002 C 
ENDROOT
BRANCH   1   2
ATOM      2  C   UNL A   1      39.613  19.831  26.024  1.00  0.00     0.002 C 
BRANCH   2   3
ATOM      3  C   UNL A   1      38.427  20.267  25.159  1.00  0.00     0.021 C 
BRANCH   3   4
ATOM      4  C   UNL A   1      37.818  21.635  25.442  1.00  0.00     0.116 C 
BRANCH   4   5
ATOM      5  N   UNL A   1      37.323  22.362  24.299  1.00  0.00    -0.352 N 
ATOM      6  C   UNL A   1      36.054  22.730  23.933  1.00  0.00     0.253 C 
ATOM      7  O   UNL A   1      35.956  23.392  22.895  1.00  0.00    -0.269 OA
ATOM      8  H   UNL A   1      38.023  22.646  23.668  1.00  0.00     0.163 HD
BRANCH   6   9
ATOM      9  C   UNL A   1      34.774  22.369  24.631  1.00  0.00     0.066 A 
ATOM     10  C   UNL A   1      33.912  23.184  25.397  1.00  0.00     0.073 A 
ATOM     11  C   UNL A   1      32.639  22.683  25.774  1.00  0.00     0.066 A 
ATOM     12  Cl  UNL A   1      31.442  23.685  26.530  1.00  0.00    -0.082 Cl
ATOM     13  C   UNL A   1      32.279  21.357  25.534  1.00  0.00     0.043 A 
ATOM     14  C   UNL A   1      34.384  21.028  24.406  1.00  0.00     0.036 A 
ATOM     15  C   UNL A   1      33.171  20.528  24.875  1.00  0.00     0.043 A 
ATOM     16  Cl  UNL A   1      32.766  18.876  24.619  1.00  0.00    -0.084 Cl
BRANCH  10  17
ATOM     17  N   UNL A   1      34.267  24.484  25.775  1.00  0.00    -0.320 N 
ATOM     18  C   UNL A   1      34.003  25.696  25.140  1.00  0.00     0.256 C 
ATOM     19  O   UNL A   1      34.460  26.693  25.702  1.00  0.00    -0.269 OA
ATOM     20  H   UNL A   1      34.781  24.553  26.612  1.00  0.00     0.170 HD
BRANCH  18  21
ATOM     21  C   UNL A   1      33.117  25.812  23.951  1.00  0.00     0.054 A 
ATOM     22  C   UNL A   1      32.529  25.611  20.210  1.00  0.00     0.056 C 
ATOM     23  C   UNL A   1      32.443  25.768  21.688  1.00  0.00     0.003 A 
ATOM     24  C   UNL A   1      33.251  25.206  22.649  1.00  0.00     0.029 A 
ATOM     25  S   UNL A   1      31.247  26.735  22.399  1.00  0.00    -0.145 S 
ATOM     26  C   UNL A   1      31.902  26.503  23.973  1.00  0.00     0.014 A 
ATOM     27  C   UNL A   1      31.138  27.091  25.120  1.00  0.00     0.057 C 
ENDBRANCH  18  21
ENDBRANCH  10  17
ENDBRANCH   6   9
ENDBRANCH   4   5
ENDBRANCH   3   4
ENDBRANCH   2   3
ENDBRANCH   1   2
BRANCH   1  28
ATOM     28  C   UNL A   1      40.879  21.612  27.478  1.00  0.00     0.021 C 
BRANCH  28  29
ATOM     29  C   UNL A   1      40.422  23.063  27.411  1.00  0.00     0.116 C 
BRANCH  29  30
ATOM     30  N   UNL A   1      40.934  23.782  26.255  1.00  0.00    -0.352 N 
ATOM     31  C   UNL A   1      41.308  25.102  26.147  1.00  0.00     0.251 C 
ATOM     32  H   UNL A   1      41.026  23.249  25.433  1.00  0.00     0.163 HD
ATOM     33  O   UNL A   1      41.632  25.560  25.055  1.00  0.00    -0.269 OA
BRANCH  31  34
ATOM     34  C   UNL A   1      41.281  25.979  27.340  1.00  0.00     0.039 A 
ATOM     35  C   UNL A   1      42.320  26.897  27.528  1.00  0.00     0.014 A 
ATOM     36  C   UNL A   1      40.230  25.913  28.258  1.00  0.00     0.014 A 
ATOM     37  C   UNL A   1      42.261  27.806  28.589  1.00  0.00     0.010 A 
ATOM     38  C   UNL A   1      40.140  26.861  29.275  1.00  0.00     0.010 A 
ATOM     39  C   UNL A   1      41.149  27.823  29.446  1.00  0.00    -0.014 A 
BRANCH  39  40
ATOM     40  C   UNL A   1      40.996  28.842  30.517  1.00  0.00     0.031 A 
ATOM     41  C   UNL A   1      41.805  28.733  31.779  1.00  0.00     0.074 A 
ATOM     42  C   UNL A   1      40.047  29.792  30.408  1.00  0.00     0.049 A 
ATOM     43  N   UNL A   1      41.702  29.413  32.892  1.00  0.00    -0.248 NA
ATOM     44  C   UNL A   1      42.846  27.694  31.802  1.00  0.00     0.031 C 
ATOM     45  C   UNL A   1      39.164  29.973  29.254  1.00  0.00     0.029 A 
ATOM     46  N   UNL A   1      39.642  30.760  31.292  1.00  0.00    -0.354 N 
ATOM     47  C   UNL A   1      42.640  28.864  33.759  1.00  0.00     0.074 A 
ATOM     48  C   UNL A   1      43.274  27.770  33.053  1.00  0.00     0.031 C 
ATOM     49  C   UNL A   1      38.317  30.985  29.505  1.00  0.00     0.029 A 
ATOM     50  C   UNL A   1      38.567  31.495  30.850  1.00  0.00     0.049 A 
ATOM     51  H   UNL A   1      40.080  30.914  32.161  1.00  0.00     0.167 HD
ATOM     52  C   UNL A   1      42.950  29.244  35.022  1.00  0.00     0.037 A 
ATOM     53  C   UNL A   1      37.845  32.453  31.463  1.00  0.00     0.037 A 
ATOM     54  C   UNL A   1      42.328  30.347  35.708  1.00  0.00     0.049 A 
ATOM     55  C   UNL A   1      38.215  32.876  32.858  1.00  0.00     0.074 A 
ATOM     56  C   UNL A   1      42.619  30.856  36.961  1.00  0.00     0.029 A 
ATOM     57  N   UNL A   1      41.282  31.106  35.201  1.00  0.00    -0.354 N 
ATOM     58  N   UNL A   1      39.148  32.391  33.642  1.00  0.00    -0.248 NA
ATOM     59  C   UNL A   1      37.445  33.980  33.447  1.00  0.00     0.031 C 
ATOM     60  C   UNL A   1      41.723  31.896  37.230  1.00  0.00     0.029 A 
ATOM     61  C   UNL A   1      40.904  32.068  36.124  1.00  0.00     0.049 A 
ATOM     62  H   UNL A   1      40.870  30.981  34.316  1.00  0.00     0.167 HD
ATOM     63  C   UNL A   1      39.094  33.145  34.810  1.00  0.00     0.074 A 
ATOM     64  C   UNL A   1      38.038  34.122  34.626  1.00  0.00     0.031 C 
ATOM     65  C   UNL A   1      39.854  33.039  35.928  1.00  0.00     0.037 A 
BRANCH  52  66
ATOM     66  C   UNL A   1      43.998  28.438  35.743  1.00  0.00     0.058 A 
ATOM     67  C   UNL A   1      43.660  27.362  36.580  1.00  0.00     0.135 A 
ATOM     68  C   UNL A   1      45.358  28.761  35.611  1.00  0.00     0.135 A 
ATOM     69  F   UNL A   1      42.375  27.017  36.752  1.00  0.00    -0.206 F 
ATOM     70  C   UNL A   1      44.627  26.673  37.306  1.00  0.00     0.059 A 
ATOM     71  C   UNL A   1      46.345  28.065  36.303  1.00  0.00     0.059 A 
ATOM     72  F   UNL A   1      45.740  29.775  34.818  1.00  0.00    -0.206 F 
ATOM     73  C   UNL A   1      45.966  27.041  37.171  1.00  0.00     0.060 A 
BRANCH  73  74
ATOM     74  S   UNL A   1      47.206  26.175  38.156  1.00  0.00     0.124 S 
ATOM     75  O   UNL A   1      48.418  26.433  37.387  1.00  0.00    -0.237 OA
ATOM     76  O   UNL A   1      47.117  26.856  39.444  1.00  0.00    -0.237 OA
ATOM     77  O   UNL A   1      46.739  24.792  38.150  1.00  0.00    -0.744 OA
ENDBRANCH  73  74
ENDBRANCH  52  66
BRANCH  53  78
ATOM     78  C   UNL A   1      36.706  33.077  30.740  1.00  0.00     0.058 A 
ATOM     79  C   UNL A   1      35.381  32.780  31.089  1.00  0.00     0.135 A 
ATOM     80  C   UNL A   1      36.921  34.040  29.741  1.00  0.00     0.135 A 
ATOM     81  F   UNL A   1      35.126  31.860  32.030  1.00  0.00    -0.206 F 
ATOM     82  C   UNL A   1      34.308  33.424  30.481  1.00  0.00     0.059 A 
ATOM     83  C   UNL A   1      35.865  34.712  29.134  1.00  0.00     0.059 A 
ATOM     84  F   UNL A   1      38.172  34.368  29.383  1.00  0.00    -0.206 F 
ATOM     85  C   UNL A   1      34.561  34.399  29.514  1.00  0.00     0.060 A 
BRANCH  85  86
ATOM     86  S   UNL A   1      33.163  35.304  28.811  1.00  0.00     0.124 S 
ATOM     87  O   UNL A   1      32.455  35.731  30.013  1.00  0.00    -0.237 OA
ATOM     88  O   UNL A   1      33.831  36.359  28.055  1.00  0.00    -0.237 OA
ATOM     89  O   UNL A   1      32.485  34.297  28.001  1.00  0.00    -0.744 OA
ENDBRANCH  85  86
ENDBRANCH  53  78
BRANCH  65  90
ATOM     90  C   UNL A   1      39.604  34.024  37.037  1.00  0.00     0.058 A 
ATOM     91  C   UNL A   1      38.833  33.693  38.161  1.00  0.00     0.135 A 
ATOM     92  C   UNL A   1      40.210  35.291  37.006  1.00  0.00     0.135 A 
ATOM     93  F   UNL A   1      38.227  32.498  38.237  1.00  0.00    -0.206 F 
ATOM     94  C   UNL A   1      38.663  34.588  39.213  1.00  0.00     0.059 A 
ATOM     95  C   UNL A   1      40.072  36.193  38.057  1.00  0.00     0.059 A 
ATOM     96  F   UNL A   1      40.963  35.655  35.955  1.00  0.00    -0.206 F 
ATOM     97  C   UNL A   1      39.291  35.833  39.154  1.00  0.00     0.060 A 
BRANCH  97  98
ATOM     98  S   UNL A   1      39.108  36.965  40.550  1.00  0.00     0.124 S 
ATOM     99  O   UNL A   1      38.435  36.118  41.529  1.00  0.00    -0.237 OA
ATOM    100  O   UNL A   1      40.492  37.312  40.856  1.00  0.00    -0.237 OA
ATOM    101  O   UNL A   1      38.303  38.054  40.002  1.00  0.00    -0.744 OA
ENDBRANCH  97  98
ENDBRANCH  65  90
ENDBRANCH  39  40
ENDBRANCH  31  34
ENDBRANCH  29  30
ENDBRANCH  28  29
ENDBRANCH   1  28
TORSDOF 18
ENDMDL
MODEL 3
REMARK VINA RESULT:     -12.0      2.565      3.248
REMARK SMILES Cc1cc(C(=O)Nc2c(Cl)cc(Cl)cc2C(=O)NCCCCCCNC(=O)c2ccc(-c3c4nc(c(-c5c(F)cc(S(=O)(=O)[O-])cc5F)c5ccc([nH]5)c(-c5c(F)cc(S(=O)(=O)[O-])cc5F)c5nc(c(-c6c(F)cc(S(=O)(=O)[O-])cc6F)c6ccc3[nH]6)C=C5)C=C4)cc2)c(C)s1
REMARK SMILES IDX 22 1 21 2 20 3 19 4 18 5 16 6 17 7 15 9 8 10 9 11 10 12
REMARK SMILES IDX 11 13 14 14 12 15 13 16 7 17 5 18 6 19 4 21 1 22 2 23 3 24
REMARK SMILES IDX 96 25 94 26 95 27 23 28 24 29 25 30 26 31 27 33 28 34 29 35
REMARK SMILES IDX 93 36 30 37 92 38 31 39 32 40 33 41 86 42 34 43 91 44 85 45
REMARK SMILES IDX 87 46 35 47 90 48 84 49 83 50 36 52 70 53 49 54 69 55 50 56
REMARK SMILES IDX 53 57 68 58 88 59 51 60 52 61 67 63 89 64 54 65 37 66 38 67
REMARK SMILES IDX 47 68 39 69 40 70 46 71 48 72 41 73 42 74 43 75 44 76 45 77
REMARK SMILES IDX 71 78 72 79 81 80 73 81 74 82 80 83 82 84 75 85 76 86 77 87
REMARK SMILES IDX 78 88 79 89 55 90 56 91 65 92 57 93 58 94 64 95 66 96 59 97
REMARK SMILES IDX 60 98 61 99 62 100 63 101
REMARK H PARENT 18 8 7 20 25 32 87 51 53 62
REMARK Flexibility Score: inf
ROOT
ATOM      1  C   UNL A   1      35.950  21.270  25.301  1.00  0.00     0.002 C 
ENDROOT
BRANCH   1   2
ATOM      2  C   UNL A   1      34.625  20.512  25.162  1.00  0.00     0.002 C 
BRANCH   2   3
ATOM      3  C   UNL A   1      33.708  20.414  26.384  1.00  0.00     0.021 C 
BRANCH   3   4
ATOM      4  C   UNL A   1      33.838  21.497  27.448  1.00  0.00     0.116 C 
BRANCH   4   5
ATOM      5  N   UNL A   1      32.676  22.322  27.664  1.00  0.00    -0.352 N 
ATOM      6  C   UNL A   1      31.961  23.129  26.817  1.00  0.00     0.253 C 
ATOM      7  O   UNL A   1      30.973  23.691  27.303  1.00  0.00    -0.269 OA
ATOM      8  H   UNL A   1      32.335  22.303  28.587  1.00  0.00     0.163 HD
BRANCH   6   9
ATOM      9  C   UNL A   1      32.281  23.441  25.383  1.00  0.00     0.066 A 
ATOM     10  C   UNL A   1      32.963  24.551  24.839  1.00  0.00     0.073 A 
ATOM     11  C   UNL A   1      33.349  24.526  23.474  1.00  0.00     0.066 A 
ATOM     12  Cl  UNL A   1      34.367  25.748  22.782  1.00  0.00    -0.082 Cl
ATOM     13  C   UNL A   1      32.943  23.499  22.623  1.00  0.00     0.043 A 
ATOM     14  C   UNL A   1      31.878  22.416  24.495  1.00  0.00     0.036 A 
ATOM     15  C   UNL A   1      32.182  22.462  23.136  1.00  0.00     0.043 A 
ATOM     16  Cl  UNL A   1      31.626  21.216  22.089  1.00  0.00    -0.084 Cl
BRANCH  10  17
ATOM     17  N   UNL A   1      33.292  25.668  25.615  1.00  0.00    -0.320 N 
ATOM     18  C   UNL A   1      32.748  26.950  25.600  1.00  0.00     0.256 C 
ATOM     19  O   UNL A   1      33.255  27.745  26.394  1.00  0.00    -0.269 OA
ATOM     20  H   UNL A   1      34.016  25.528  26.268  1.00  0.00     0.170 HD
BRANCH  18  21
ATOM     21  C   UNL A   1      31.552  27.314  24.794  1.00  0.00     0.054 A 
ATOM     22  C   UNL A   1      27.952  26.751  23.745  1.00  0.00     0.056 C 
ATOM     23  C   UNL A   1      29.349  27.222  23.947  1.00  0.00     0.003 A 
ATOM     24  C   UNL A   1      30.161  27.024  25.040  1.00  0.00     0.029 A 
ATOM     25  S   UNL A   1      30.152  28.122  22.758  1.00  0.00    -0.145 S 
ATOM     26  C   UNL A   1      31.620  28.122  23.655  1.00  0.00     0.014 A 
ATOM     27  C   UNL A   1      32.758  28.921  23.096  1.00  0.00     0.057 C 
ENDBRANCH  18  21
ENDBRANCH  10  17
ENDBRANCH   6   9
ENDBRANCH   4   5
ENDBRANCH   3   4
ENDBRANCH   2   3
ENDBRANCH   1   2
BRANCH   1  28
ATOM     28  C   UNL A   1      35.953  22.771  25.009  1.00  0.00     0.021 C 
BRANCH  28  29
ATOM     29  C   UNL A   1      37.221  23.540  25.355  1.00  0.00     0.116 C 
BRANCH  29  30
ATOM     30  N   UNL A   1      38.398  22.695  25.481  1.00  0.00    -0.352 N 
ATOM     31  C   UNL A   1      39.606  22.969  26.081  1.00  0.00     0.251 C 
ATOM     32  H   UNL A   1      38.320  21.799  25.079  1.00  0.00     0.163 HD
ATOM     33  O   UNL A   1      40.525  22.158  26.007  1.00  0.00    -0.269 OA
BRANCH  31  34
ATOM     34  C   UNL A   1      39.809  24.257  26.782  1.00  0.00     0.039 A 
ATOM     35  C   UNL A   1      39.249  24.433  28.052  1.00  0.00     0.014 A 
ATOM     36  C   UNL A   1      40.562  25.281  26.201  1.00  0.00     0.014 A 
ATOM     37  C   UNL A   1      39.516  25.599  28.775  1.00  0.00     0.010 A 
ATOM     38  C   UNL A   1      40.881  26.413  26.947  1.00  0.00     0.010 A 
ATOM     39  C   UNL A   1      40.370  26.580  28.245  1.00  0.00    -0.014 A 
BRANCH  39  40
ATOM     40  C   UNL A   1      40.766  27.783  29.024  1.00  0.00     0.031 A 
ATOM     41  C   UNL A   1      42.039  27.776  29.821  1.00  0.00     0.074 A 
ATOM     42  C   UNL A   1      39.923  28.831  29.111  1.00  0.00     0.049 A 
ATOM     43  N   UNL A   1      42.478  28.650  30.691  1.00  0.00    -0.248 NA
ATOM     44  C   UNL A   1      42.920  26.612  29.639  1.00  0.00     0.031 C 
ATOM     45  C   UNL A   1      38.635  28.938  28.424  1.00  0.00     0.029 A 
ATOM     46  N   UNL A   1      40.008  29.990  29.842  1.00  0.00    -0.354 N 
ATOM     47  C   UNL A   1      43.667  28.126  31.185  1.00  0.00     0.074 A 
ATOM     48  C   UNL A   1      43.859  26.842  30.544  1.00  0.00     0.031 C 
ATOM     49  C   UNL A   1      38.047  30.095  28.772  1.00  0.00     0.029 A 
ATOM     50  C   UNL A   1      38.894  30.790  29.736  1.00  0.00     0.049 A 
ATOM     51  H   UNL A   1      40.793  30.227  30.389  1.00  0.00     0.167 HD
ATOM     52  C   UNL A   1      44.524  28.671  32.082  1.00  0.00     0.037 A 
ATOM     53  C   UNL A   1      38.575  31.939  30.364  1.00  0.00     0.037 A 
ATOM     54  C   UNL A   1      44.336  29.959  32.698  1.00  0.00     0.049 A 
ATOM     55  C   UNL A   1      39.546  32.540  31.341  1.00  0.00     0.074 A 
ATOM     56  C   UNL A   1      45.178  30.631  33.566  1.00  0.00     0.029 A 
ATOM     57  N   UNL A   1      43.220  30.767  32.519  1.00  0.00    -0.354 N 
ATOM     58  N   UNL A   1      40.699  32.065  31.751  1.00  0.00    -0.248 NA
ATOM     59  C   UNL A   1      39.182  33.834  31.935  1.00  0.00     0.031 C 
ATOM     60  C   UNL A   1      44.556  31.826  33.943  1.00  0.00     0.029 A 
ATOM     61  C   UNL A   1      43.345  31.922  33.274  1.00  0.00     0.049 A 
ATOM     62  H   UNL A   1      42.454  30.552  31.940  1.00  0.00     0.167 HD
ATOM     63  C   UNL A   1      41.210  33.012  32.632  1.00  0.00     0.074 A 
ATOM     64  C   UNL A   1      40.242  34.090  32.692  1.00  0.00     0.031 C 
ATOM     65  C   UNL A   1      42.377  32.991  33.322  1.00  0.00     0.037 A 
BRANCH  52  66
ATOM     66  C   UNL A   1      45.733  27.856  32.460  1.00  0.00     0.058 A 
ATOM     67  C   UNL A   1      46.954  27.981  31.778  1.00  0.00     0.135 A 
ATOM     68  C   UNL A   1      45.662  26.923  33.506  1.00  0.00     0.135 A 
ATOM     69  F   UNL A   1      47.075  28.851  30.763  1.00  0.00    -0.206 F 
ATOM     70  C   UNL A   1      48.043  27.169  32.080  1.00  0.00     0.059 A 
ATOM     71  C   UNL A   1      46.748  26.121  33.846  1.00  0.00     0.059 A 
ATOM     72  F   UNL A   1      44.522  26.766  34.198  1.00  0.00    -0.206 F 
ATOM     73  C   UNL A   1      47.926  26.233  33.107  1.00  0.00     0.060 A 
BRANCH  73  74
ATOM     74  S   UNL A   1      49.327  25.149  33.455  1.00  0.00     0.124 S 
ATOM     75  O   UNL A   1      48.674  24.052  34.162  1.00  0.00    -0.237 OA
ATOM     76  O   UNL A   1      49.822  24.835  32.118  1.00  0.00    -0.237 OA
ATOM     77  O   UNL A   1      50.209  25.984  34.265  1.00  0.00    -0.744 OA
ENDBRANCH  73  74
ENDBRANCH  52  66
BRANCH  53  78
ATOM     78  C   UNL A   1      37.273  32.591  30.063  1.00  0.00     0.058 A 
ATOM     79  C   UNL A   1      36.132  32.310  30.828  1.00  0.00     0.135 A 
ATOM     80  C   UNL A   1      37.165  33.564  29.057  1.00  0.00     0.135 A 
ATOM     81  F   UNL A   1      36.185  31.380  31.794  1.00  0.00    -0.206 F 
ATOM     82  C   UNL A   1      34.932  32.979  30.615  1.00  0.00     0.059 A 
ATOM     83  C   UNL A   1      35.981  34.262  28.840  1.00  0.00     0.059 A 
ATOM     84  F   UNL A   1      38.233  33.879  28.308  1.00  0.00    -0.206 F 
ATOM     85  C   UNL A   1      34.869  33.964  29.627  1.00  0.00     0.060 A 
BRANCH  85  86
ATOM     86  S   UNL A   1      33.336  34.899  29.434  1.00  0.00     0.124 S 
ATOM     87  O   UNL A   1      32.628  34.104  28.437  1.00  0.00    -0.237 OA
ATOM     88  O   UNL A   1      32.785  34.866  30.785  1.00  0.00    -0.237 OA
ATOM     89  O   UNL A   1      33.797  36.210  28.987  1.00  0.00    -0.744 OA
ENDBRANCH  85  86
ENDBRANCH  53  78
BRANCH  65  90
ATOM     90  C   UNL A   1      42.700  34.182  34.182  1.00  0.00     0.058 A 
ATOM     91  C   UNL A   1      42.333  34.240  35.534  1.00  0.00     0.135 A 
ATOM     92  C   UNL A   1      43.456  35.246  33.660  1.00  0.00     0.135 A 
ATOM     93  F   UNL A   1      41.604  33.254  36.080  1.00  0.00    -0.206 F 
ATOM     94  C   UNL A   1      42.695  35.317  36.338  1.00  0.00     0.059 A 
ATOM     95  C   UNL A   1      43.849  36.320  34.451  1.00  0.00     0.059 A 
ATOM     96  F   UNL A   1      43.839  35.235  32.372  1.00  0.00    -0.206 F 
ATOM     97  C   UNL A   1      43.458  36.349  35.789  1.00  0.00     0.060 A 
BRANCH  97  98
ATOM     98  S   UNL A   1      43.968  37.714  36.856  1.00  0.00     0.124 S 
ATOM     99  O   UNL A   1      45.278  37.259  37.310  1.00  0.00    -0.237 OA
ATOM    100  O   UNL A   1      43.974  38.847  35.937  1.00  0.00    -0.237 OA
ATOM    101  O   UNL A   1      42.928  37.752  37.880  1.00  0.00    -0.744 OA
ENDBRANCH  97  98
ENDBRANCH  65  90
ENDBRANCH  39  40
ENDBRANCH  31  34
ENDBRANCH  29  30
ENDBRANCH  28  29
ENDBRANCH   1  28
TORSDOF 18
ENDMDL
