MODEL 1
REMARK VINA RESULT:     -11.8      0.000      0.000
REMARK SMILES COc1cccc(Cn2c(=O)c(=O)n(CC(=O)NCCCCCCNC(=O)c3ccc(-c4c5nc(c(-c6c(F)cc(S(=O)(=O)[O-])cc6F)c6ccc([nH]6)c(-c6c(F)cc(S(=O)(=O)[O-])cc6F)c6nc(c(-c7c(F)cc(S(=O)(=O)[O-])cc7F)c7ccc4[nH]7)C=C6)C=C5)cc3)c3ccccc32)c1
REMARK SMILES IDX 21 1 20 2 19 3 18 4 16 5 17 6 15 8 14 9 9 10 10 11 99 12
REMARK SMILES IDX 11 13 12 14 94 15 98 16 13 17 95 18 97 19 96 20 8 21 7 22
REMARK SMILES IDX 3 23 4 24 100 25 5 26 6 27 2 28 1 29 22 30 23 31 24 32 25 33
REMARK SMILES IDX 26 34 27 36 28 37 29 38 93 39 30 40 92 41 31 42 32 43 33 44
REMARK SMILES IDX 86 45 34 46 91 47 85 48 87 49 35 50 90 51 84 52 83 53 36 55
REMARK SMILES IDX 70 56 49 57 69 58 50 59 53 60 68 61 88 62 51 63 52 64 67 66
REMARK SMILES IDX 89 67 54 68 37 69 38 70 47 71 39 72 40 73 46 74 48 75 41 76
REMARK SMILES IDX 42 77 43 78 44 79 45 80 71 81 72 82 81 83 73 84 74 85 80 86
REMARK SMILES IDX 82 87 75 88 76 89 77 90 78 91 79 92 55 93 56 94 65 95 57 96
REMARK SMILES IDX 58 97 64 98 66 99 59 100 60 101 61 102 62 103 63 104
REMARK H PARENT 18 7 25 35 87 54 53 65
REMARK Flexibility Score: inf
ROOT
ATOM      1  C   UNL A   1      34.558  33.031  28.670  1.00  0.00     0.002 C 
ENDROOT
BRANCH   1   2
ATOM      2  C   UNL A   1      35.540  32.083  27.967  1.00  0.00     0.021 C 
BRANCH   2   3
ATOM      3  C   UNL A   1      34.919  30.729  27.632  1.00  0.00     0.116 C 
BRANCH   3   4
ATOM      4  N   UNL A   1      33.475  30.824  27.595  1.00  0.00    -0.355 N 
ATOM      5  C   UNL A   1      32.584  30.443  26.647  1.00  0.00     0.240 C 
ATOM      6  O   UNL A   1      31.391  30.673  26.896  1.00  0.00    -0.273 OA
ATOM      7  H   UNL A   1      33.072  31.236  28.393  1.00  0.00     0.163 HD
BRANCH   5   8
ATOM      8  C   UNL A   1      32.927  29.555  25.444  1.00  0.00     0.226 C 
BRANCH   8   9
ATOM      9  N   UNL A   1      32.206  28.373  24.996  1.00  0.00    -0.293 N 
ATOM     10  N   UNL A   1      30.681  26.030  24.634  1.00  0.00    -0.298 N 
ATOM     11  C   UNL A   1      31.418  26.203  25.790  1.00  0.00     0.317 A 
ATOM     12  C   UNL A   1      30.229  27.233  24.029  1.00  0.00     0.068 A 
ATOM     13  O   UNL A   1      31.208  25.654  26.868  1.00  0.00    -0.263 OA
ATOM     14  C   UNL A   1      32.562  27.188  25.627  1.00  0.00     0.317 A 
ATOM     15  C   UNL A   1      30.974  28.432  24.256  1.00  0.00     0.069 A 
ATOM     16  C   UNL A   1      28.985  27.290  23.385  1.00  0.00     0.028 A 
ATOM     17  O   UNL A   1      33.654  26.946  26.133  1.00  0.00    -0.263 OA
ATOM     18  C   UNL A   1      30.464  29.644  23.777  1.00  0.00     0.028 A 
ATOM     19  C   UNL A   1      28.464  28.523  22.988  1.00  0.00     0.002 A 
ATOM     20  C   UNL A   1      29.204  29.690  23.171  1.00  0.00     0.002 A 
BRANCH  10  21
ATOM     21  C   UNL A   1      30.303  24.668  24.254  1.00  0.00     0.162 C 
BRANCH  21  22
ATOM     22  C   UNL A   1      31.556  23.953  23.730  1.00  0.00    -0.024 A 
ATOM     23  C   UNL A   1      33.355  22.442  24.343  1.00  0.00     0.119 A 
ATOM     24  C   UNL A   1      34.212  23.074  23.452  1.00  0.00     0.046 A 
ATOM     25  C   UNL A   1      32.015  22.805  24.403  1.00  0.00     0.052 A 
ATOM     26  C   UNL A   1      33.720  24.098  22.639  1.00  0.00     0.004 A 
ATOM     27  C   UNL A   1      32.410  24.567  22.805  1.00  0.00     0.006 A 
BRANCH  23  28
ATOM     28  O   UNL A   1      33.860  21.718  25.389  1.00  0.00    -0.497 OA
ATOM     29  C   UNL A   1      34.284  20.416  25.018  1.00  0.00     0.278 C 
ENDBRANCH  23  28
ENDBRANCH  21  22
ENDBRANCH  10  21
ENDBRANCH   8   9
ENDBRANCH   5   8
ENDBRANCH   3   4
ENDBRANCH   2   3
ENDBRANCH   1   2
BRANCH   1  30
ATOM     30  C   UNL A   1      35.190  33.877  29.783  1.00  0.00     0.002 C 
BRANCH  30  31
ATOM     31  C   UNL A   1      36.723  33.932  29.760  1.00  0.00     0.021 C 
BRANCH  31  32
ATOM     32  C   UNL A   1      37.403  33.304  30.975  1.00  0.00     0.116 C 
BRANCH  32  33
ATOM     33  N   UNL A   1      36.649  32.167  31.479  1.00  0.00    -0.352 N 
ATOM     34  C   UNL A   1      36.814  30.829  31.235  1.00  0.00     0.251 C 
ATOM     35  H   UNL A   1      35.907  32.393  32.086  1.00  0.00     0.163 HD
ATOM     36  O   UNL A   1      35.905  30.047  31.502  1.00  0.00    -0.269 OA
BRANCH  34  37
ATOM     37  C   UNL A   1      38.083  30.323  30.671  1.00  0.00     0.039 A 
ATOM     38  C   UNL A   1      39.098  29.919  31.543  1.00  0.00     0.014 A 
ATOM     39  C   UNL A   1      38.305  30.324  29.290  1.00  0.00     0.014 A 
ATOM     40  C   UNL A   1      40.326  29.497  31.031  1.00  0.00     0.010 A 
ATOM     41  C   UNL A   1      39.507  29.847  28.777  1.00  0.00     0.010 A 
ATOM     42  C   UNL A   1      40.537  29.453  29.644  1.00  0.00    -0.014 A 
BRANCH  42  43
ATOM     43  C   UNL A   1      41.845  29.030  29.089  1.00  0.00     0.031 A 
ATOM     44  C   UNL A   1      42.967  30.020  28.959  1.00  0.00     0.074 A 
ATOM     45  C   UNL A   1      42.001  27.766  28.652  1.00  0.00     0.049 A 
ATOM     46  N   UNL A   1      44.177  29.841  28.497  1.00  0.00    -0.248 NA
ATOM     47  C   UNL A   1      42.682  31.402  29.375  1.00  0.00     0.031 C 
ATOM     48  C   UNL A   1      40.959  26.739  28.655  1.00  0.00     0.029 A 
ATOM     49  N   UNL A   1      43.091  27.136  28.111  1.00  0.00    -0.354 N 
ATOM     50  C   UNL A   1      44.791  31.087  28.545  1.00  0.00     0.074 A 
ATOM     51  C   UNL A   1      43.804  32.024  29.037  1.00  0.00     0.031 C 
ATOM     52  C   UNL A   1      41.465  25.600  28.153  1.00  0.00     0.029 A 
ATOM     53  C   UNL A   1      42.860  25.822  27.783  1.00  0.00     0.049 A 
ATOM     54  H   UNL A   1      43.957  27.583  27.971  1.00  0.00     0.167 HD
ATOM     55  C   UNL A   1      46.066  31.417  28.229  1.00  0.00     0.037 A 
ATOM     56  C   UNL A   1      43.683  24.898  27.253  1.00  0.00     0.037 A 
ATOM     57  C   UNL A   1      47.052  30.473  27.773  1.00  0.00     0.049 A 
ATOM     58  C   UNL A   1      45.115  25.261  26.983  1.00  0.00     0.074 A 
ATOM     59  C   UNL A   1      48.392  30.684  27.505  1.00  0.00     0.029 A 
ATOM     60  N   UNL A   1      46.799  29.133  27.515  1.00  0.00    -0.354 N 
ATOM     61  N   UNL A   1      45.708  26.423  27.123  1.00  0.00    -0.248 NA
ATOM     62  C   UNL A   1      45.995  24.187  26.504  1.00  0.00     0.031 C 
ATOM     63  C   UNL A   1      48.944  29.476  27.060  1.00  0.00     0.029 A 
ATOM     64  C   UNL A   1      47.954  28.506  27.080  1.00  0.00     0.049 A 
ATOM     65  H   UNL A   1      45.925  28.692  27.626  1.00  0.00     0.167 HD
ATOM     66  C   UNL A   1      47.034  26.219  26.763  1.00  0.00     0.074 A 
ATOM     67  C   UNL A   1      47.159  24.817  26.411  1.00  0.00     0.031 C 
ATOM     68  C   UNL A   1      48.056  27.110  26.730  1.00  0.00     0.037 A 
BRANCH  55  69
ATOM     69  C   UNL A   1      46.453  32.863  28.369  1.00  0.00     0.058 A 
ATOM     70  C   UNL A   1      46.353  33.761  27.293  1.00  0.00     0.135 A 
ATOM     71  C   UNL A   1      46.955  33.354  29.585  1.00  0.00     0.135 A 
ATOM     72  F   UNL A   1      45.892  33.340  26.104  1.00  0.00    -0.206 F 
ATOM     73  C   UNL A   1      46.788  35.078  27.400  1.00  0.00     0.059 A 
ATOM     74  C   UNL A   1      47.371  34.675  29.722  1.00  0.00     0.059 A 
ATOM     75  F   UNL A   1      47.070  32.542  30.646  1.00  0.00    -0.206 F 
ATOM     76  C   UNL A   1      47.309  35.522  28.615  1.00  0.00     0.060 A 
BRANCH  76  77
ATOM     77  S   UNL A   1      47.918  37.218  28.733  1.00  0.00     0.124 S 
ATOM     78  O   UNL A   1      48.721  37.320  27.519  1.00  0.00    -0.237 OA
ATOM     79  O   UNL A   1      46.684  37.998  28.743  1.00  0.00    -0.237 OA
ATOM     80  O   UNL A   1      48.667  37.220  29.985  1.00  0.00    -0.744 OA
ENDBRANCH  76  77
ENDBRANCH  55  69
BRANCH  56  81
ATOM     81  C   UNL A   1      43.165  23.529  27.008  1.00  0.00     0.058 A 
ATOM     82  C   UNL A   1      42.868  23.096  25.709  1.00  0.00     0.135 A 
ATOM     83  C   UNL A   1      43.046  22.602  28.055  1.00  0.00     0.135 A 
ATOM     84  F   UNL A   1      42.967  23.950  24.678  1.00  0.00    -0.206 F 
ATOM     85  C   UNL A   1      42.480  21.785  25.451  1.00  0.00     0.059 A 
ATOM     86  C   UNL A   1      42.676  21.282  27.820  1.00  0.00     0.059 A 
ATOM     87  F   UNL A   1      43.340  22.967  29.313  1.00  0.00    -0.206 F 
ATOM     88  C   UNL A   1      42.398  20.882  26.513  1.00  0.00     0.060 A 
BRANCH  88  89
ATOM     89  S   UNL A   1      42.005  19.156  26.155  1.00  0.00     0.124 S 
ATOM     90  O   UNL A   1      42.265  18.522  27.442  1.00  0.00    -0.237 OA
ATOM     91  O   UNL A   1      40.604  19.235  25.752  1.00  0.00    -0.237 OA
ATOM     92  O   UNL A   1      42.937  18.818  25.083  1.00  0.00    -0.744 OA
ENDBRANCH  88  89
ENDBRANCH  56  81
BRANCH  68  93
ATOM     93  C   UNL A   1      49.402  26.596  26.307  1.00  0.00     0.058 A 
ATOM     94  C   UNL A   1      49.828  26.673  24.973  1.00  0.00     0.135 A 
ATOM     95  C   UNL A   1      50.294  26.071  27.256  1.00  0.00     0.135 A 
ATOM     96  F   UNL A   1      49.009  27.162  24.029  1.00  0.00    -0.206 F 
ATOM     97  C   UNL A   1      51.089  26.230  24.589  1.00  0.00     0.059 A 
ATOM     98  C   UNL A   1      51.567  25.641  26.897  1.00  0.00     0.059 A 
ATOM     99  F   UNL A   1      49.936  25.985  28.546  1.00  0.00    -0.206 F 
ATOM    100  C   UNL A   1      51.952  25.715  25.558  1.00  0.00     0.060 A 
BRANCH 100 101
ATOM    101  S   UNL A   1      53.601  25.177  25.057  1.00  0.00     0.124 S 
ATOM    102  O   UNL A   1      54.440  25.843  26.047  1.00  0.00    -0.237 OA
ATOM    103  O   UNL A   1      53.509  23.725  25.176  1.00  0.00    -0.237 OA
ATOM    104  O   UNL A   1      53.719  25.680  23.691  1.00  0.00    -0.744 OA
ENDBRANCH 100 101
ENDBRANCH  68  93
ENDBRANCH  42  43
ENDBRANCH  34  37
ENDBRANCH  32  33
ENDBRANCH  31  32
ENDBRANCH  30  31
ENDBRANCH   1  30
TORSDOF 20
ENDMDL
MODEL 2
REMARK VINA RESULT:     -11.6      1.665      8.589
REMARK SMILES COc1cccc(Cn2c(=O)c(=O)n(CC(=O)NCCCCCCNC(=O)c3ccc(-c4c5nc(c(-c6c(F)cc(S(=O)(=O)[O-])cc6F)c6ccc([nH]6)c(-c6c(F)cc(S(=O)(=O)[O-])cc6F)c6nc(c(-c7c(F)cc(S(=O)(=O)[O-])cc7F)c7ccc4[nH]7)C=C6)C=C5)cc3)c3ccccc32)c1
REMARK SMILES IDX 21 1 20 2 19 3 18 4 16 5 17 6 15 8 14 9 9 10 10 11 99 12
REMARK SMILES IDX 11 13 12 14 94 15 98 16 13 17 95 18 97 19 96 20 8 21 7 22
REMARK SMILES IDX 3 23 4 24 100 25 5 26 6 27 2 28 1 29 22 30 23 31 24 32 25 33
REMARK SMILES IDX 26 34 27 36 28 37 29 38 93 39 30 40 92 41 31 42 32 43 33 44
REMARK SMILES IDX 86 45 34 46 91 47 85 48 87 49 35 50 90 51 84 52 83 53 36 55
REMARK SMILES IDX 70 56 49 57 69 58 50 59 53 60 68 61 88 62 51 63 52 64 67 66
REMARK SMILES IDX 89 67 54 68 37 69 38 70 47 71 39 72 40 73 46 74 48 75 41 76
REMARK SMILES IDX 42 77 43 78 44 79 45 80 71 81 72 82 81 83 73 84 74 85 80 86
REMARK SMILES IDX 82 87 75 88 76 89 77 90 78 91 79 92 55 93 56 94 65 95 57 96
REMARK SMILES IDX 58 97 64 98 66 99 59 100 60 101 61 102 62 103 63 104
REMARK H PARENT 18 7 25 35 87 54 53 65
REMARK Flexibility Score: inf
ROOT
ATOM      1  C   UNL A   1      32.015  27.784  26.154  1.00  0.00     0.002 C 
ENDROOT
BRANCH   1   2
ATOM      2  C   UNL A   1      31.478  28.690  25.037  1.00  0.00     0.021 C 
BRANCH   2   3
ATOM      3  C   UNL A   1      30.993  27.906  23.819  1.00  0.00     0.116 C 
BRANCH   3   4
ATOM      4  N   UNL A   1      32.072  27.716  22.872  1.00  0.00    -0.355 N 
ATOM      5  C   UNL A   1      32.565  26.589  22.302  1.00  0.00     0.240 C 
ATOM      6  O   UNL A   1      33.520  26.744  21.527  1.00  0.00    -0.273 OA
ATOM      7  H   UNL A   1      32.524  28.546  22.596  1.00  0.00     0.163 HD
BRANCH   5   8
ATOM      8  C   UNL A   1      31.880  25.218  22.363  1.00  0.00     0.226 C 
BRANCH   8   9
ATOM      9  N   UNL A   1      32.313  24.057  23.126  1.00  0.00    -0.293 N 
ATOM     10  N   UNL A   1      33.606  22.070  24.652  1.00  0.00    -0.298 N 
ATOM     11  C   UNL A   1      34.329  22.827  23.750  1.00  0.00     0.317 A 
ATOM     12  C   UNL A   1      32.475  22.724  25.209  1.00  0.00     0.068 A 
ATOM     13  O   UNL A   1      35.539  23.029  23.785  1.00  0.00    -0.263 OA
ATOM     14  C   UNL A   1      33.468  23.440  22.660  1.00  0.00     0.317 A 
ATOM     15  C   UNL A   1      31.852  23.768  24.457  1.00  0.00     0.069 A 
ATOM     16  C   UNL A   1      32.092  22.491  26.537  1.00  0.00     0.028 A 
ATOM     17  O   UNL A   1      33.870  23.455  21.500  1.00  0.00    -0.263 OA
ATOM     18  C   UNL A   1      30.824  24.508  25.052  1.00  0.00     0.028 A 
ATOM     19  C   UNL A   1      31.119  23.296  27.132  1.00  0.00     0.002 A 
ATOM     20  C   UNL A   1      30.480  24.289  26.390  1.00  0.00     0.002 A 
BRANCH  10  21
ATOM     21  C   UNL A   1      34.154  20.777  25.063  1.00  0.00     0.162 C 
BRANCH  21  22
ATOM     22  C   UNL A   1      33.351  19.673  24.362  1.00  0.00    -0.024 A 
ATOM     23  C   UNL A   1      33.346  17.314  23.786  1.00  0.00     0.119 A 
ATOM     24  C   UNL A   1      32.635  17.583  22.624  1.00  0.00     0.046 A 
ATOM     25  C   UNL A   1      33.606  18.330  24.698  1.00  0.00     0.052 A 
ATOM     26  C   UNL A   1      32.211  18.888  22.367  1.00  0.00     0.004 A 
ATOM     27  C   UNL A   1      32.602  19.939  23.208  1.00  0.00     0.006 A 
BRANCH  23  28
ATOM     28  O   UNL A   1      34.082  16.165  23.894  1.00  0.00    -0.497 OA
ATOM     29  C   UNL A   1      34.136  15.655  25.216  1.00  0.00     0.278 C 
ENDBRANCH  23  28
ENDBRANCH  21  22
ENDBRANCH  10  21
ENDBRANCH   8   9
ENDBRANCH   5   8
ENDBRANCH   3   4
ENDBRANCH   2   3
ENDBRANCH   1   2
BRANCH   1  30
ATOM     30  C   UNL A   1      32.774  28.532  27.258  1.00  0.00     0.002 C 
BRANCH  30  31
ATOM     31  C   UNL A   1      33.932  29.409  26.764  1.00  0.00     0.021 C 
BRANCH  31  32
ATOM     32  C   UNL A   1      35.249  29.206  27.511  1.00  0.00     0.116 C 
BRANCH  32  33
ATOM     33  N   UNL A   1      35.317  30.032  28.706  1.00  0.00    -0.352 N 
ATOM     34  C   UNL A   1      36.339  30.190  29.605  1.00  0.00     0.251 C 
ATOM     35  H   UNL A   1      34.506  30.558  28.898  1.00  0.00     0.163 HD
ATOM     36  O   UNL A   1      36.108  30.687  30.703  1.00  0.00    -0.269 OA
BRANCH  34  37
ATOM     37  C   UNL A   1      37.714  29.780  29.252  1.00  0.00     0.039 A 
ATOM     38  C   UNL A   1      38.586  29.386  30.272  1.00  0.00     0.014 A 
ATOM     39  C   UNL A   1      38.170  29.860  27.932  1.00  0.00     0.014 A 
ATOM     40  C   UNL A   1      39.907  29.056  29.965  1.00  0.00     0.010 A 
ATOM     41  C   UNL A   1      39.469  29.473  27.619  1.00  0.00     0.010 A 
ATOM     42  C   UNL A   1      40.356  29.091  28.636  1.00  0.00    -0.014 A 
BRANCH  42  43
ATOM     43  C   UNL A   1      41.763  28.765  28.302  1.00  0.00     0.031 A 
ATOM     44  C   UNL A   1      42.139  27.369  27.892  1.00  0.00     0.074 A 
ATOM     45  C   UNL A   1      42.709  29.714  28.421  1.00  0.00     0.049 A 
ATOM     46  N   UNL A   1      43.311  26.891  27.565  1.00  0.00    -0.248 NA
ATOM     47  C   UNL A   1      41.059  26.370  27.876  1.00  0.00     0.031 C 
ATOM     48  C   UNL A   1      42.476  31.083  28.885  1.00  0.00     0.029 A 
ATOM     49  N   UNL A   1      44.057  29.669  28.173  1.00  0.00    -0.354 N 
ATOM     50  C   UNL A   1      43.117  25.536  27.327  1.00  0.00     0.074 A 
ATOM     51  C   UNL A   1      41.722  25.258  27.592  1.00  0.00     0.031 C 
ATOM     52  C   UNL A   1      43.640  31.753  28.875  1.00  0.00     0.029 A 
ATOM     53  C   UNL A   1      44.700  30.859  28.416  1.00  0.00     0.049 A 
ATOM     54  H   UNL A   1      44.519  28.862  27.852  1.00  0.00     0.167 HD
ATOM     55  C   UNL A   1      44.013  24.612  26.904  1.00  0.00     0.037 A 
ATOM     56  C   UNL A   1      45.997  31.193  28.275  1.00  0.00     0.037 A 
ATOM     57  C   UNL A   1      45.391  24.904  26.609  1.00  0.00     0.049 A 
ATOM     58  C   UNL A   1      46.960  30.178  27.731  1.00  0.00     0.074 A 
ATOM     59  C   UNL A   1      46.362  24.064  26.096  1.00  0.00     0.029 A 
ATOM     60  N   UNL A   1      45.993  26.139  26.804  1.00  0.00    -0.354 N 
ATOM     61  N   UNL A   1      46.741  28.922  27.420  1.00  0.00    -0.248 NA
ATOM     62  C   UNL A   1      48.339  30.627  27.499  1.00  0.00     0.031 C 
ATOM     63  C   UNL A   1      47.560  24.784  26.006  1.00  0.00     0.029 A 
ATOM     64  C   UNL A   1      47.326  26.082  26.434  1.00  0.00     0.049 A 
ATOM     65  H   UNL A   1      45.539  26.940  27.154  1.00  0.00     0.167 HD
ATOM     66  C   UNL A   1      47.950  28.433  26.941  1.00  0.00     0.074 A 
ATOM     67  C   UNL A   1      48.894  29.533  26.992  1.00  0.00     0.031 C 
ATOM     68  C   UNL A   1      48.250  27.188  26.496  1.00  0.00     0.037 A 
BRANCH  55  69
ATOM     69  C   UNL A   1      43.517  23.202  26.742  1.00  0.00     0.058 A 
ATOM     70  C   UNL A   1      43.276  22.373  27.851  1.00  0.00     0.135 A 
ATOM     71  C   UNL A   1      43.304  22.661  25.464  1.00  0.00     0.135 A 
ATOM     72  F   UNL A   1      43.477  22.836  29.096  1.00  0.00    -0.206 F 
ATOM     73  C   UNL A   1      42.896  21.044  27.698  1.00  0.00     0.059 A 
ATOM     74  C   UNL A   1      42.898  21.342  25.288  1.00  0.00     0.059 A 
ATOM     75  F   UNL A   1      43.515  23.409  24.370  1.00  0.00    -0.206 F 
ATOM     76  C   UNL A   1      42.723  20.533  26.411  1.00  0.00     0.060 A 
BRANCH  76  77
ATOM     77  S   UNL A   1      42.278  18.794  26.218  1.00  0.00     0.124 S 
ATOM     78  O   UNL A   1      40.892  18.898  25.775  1.00  0.00    -0.237 OA
ATOM     79  O   UNL A   1      43.231  18.333  25.212  1.00  0.00    -0.237 OA
ATOM     80  O   UNL A   1      42.472  18.246  27.556  1.00  0.00    -0.744 OA
ENDBRANCH  76  77
ENDBRANCH  55  69
BRANCH  56  81
ATOM     81  C   UNL A   1      46.423  32.576  28.606  1.00  0.00     0.058 A 
ATOM     82  C   UNL A   1      46.925  32.888  29.876  1.00  0.00     0.135 A 
ATOM     83  C   UNL A   1      46.422  33.586  27.632  1.00  0.00     0.135 A 
ATOM     84  F   UNL A   1      46.943  31.952  30.839  1.00  0.00    -0.206 F 
ATOM     85  C   UNL A   1      47.424  34.152  30.170  1.00  0.00     0.059 A 
ATOM     86  C   UNL A   1      46.931  34.853  27.897  1.00  0.00     0.059 A 
ATOM     87  F   UNL A   1      45.969  33.327  26.396  1.00  0.00    -0.206 F 
ATOM     88  C   UNL A   1      47.433  35.126  29.169  1.00  0.00     0.060 A 
BRANCH  88  89
ATOM     89  S   UNL A   1      48.186  36.728  29.525  1.00  0.00     0.124 S 
ATOM     90  O   UNL A   1      49.342  36.339  30.323  1.00  0.00    -0.237 OA
ATOM     91  O   UNL A   1      48.474  37.238  28.188  1.00  0.00    -0.237 OA
ATOM     92  O   UNL A   1      47.132  37.440  30.243  1.00  0.00    -0.744 OA
ENDBRANCH  88  89
ENDBRANCH  56  81
BRANCH  68  93
ATOM     93  C   UNL A   1      49.654  26.948  26.022  1.00  0.00     0.058 A 
ATOM     94  C   UNL A   1      50.659  26.514  26.899  1.00  0.00     0.135 A 
ATOM     95  C   UNL A   1      49.984  27.103  24.666  1.00  0.00     0.135 A 
ATOM     96  F   UNL A   1      50.394  26.356  28.205  1.00  0.00    -0.206 F 
ATOM     97  C   UNL A   1      51.950  26.256  26.451  1.00  0.00     0.059 A 
ATOM     98  C   UNL A   1      51.264  26.832  24.193  1.00  0.00     0.059 A 
ATOM     99  F   UNL A   1      49.055  27.507  23.786  1.00  0.00    -0.206 F 
ATOM    100  C   UNL A   1      52.243  26.419  25.096  1.00  0.00     0.060 A 
BRANCH 100 101
ATOM    101  S   UNL A   1      53.913  26.047  24.517  1.00  0.00     0.124 S 
ATOM    102  O   UNL A   1      53.812  26.382  23.100  1.00  0.00    -0.237 OA
ATOM    103  O   UNL A   1      54.734  26.944  25.324  1.00  0.00    -0.237 OA
ATOM    104  O   UNL A   1      54.066  24.627  24.819  1.00  0.00    -0.744 OA
ENDBRANCH 100 101
ENDBRANCH  68  93
ENDBRANCH  42  43
ENDBRANCH  34  37
ENDBRANCH  32  33
ENDBRANCH  31  32
ENDBRANCH  30  31
ENDBRANCH   1  30
TORSDOF 20
ENDMDL
MODEL 3
REMARK VINA RESULT:     -11.6      6.192     12.069
REMARK SMILES COc1cccc(Cn2c(=O)c(=O)n(CC(=O)NCCCCCCNC(=O)c3ccc(-c4c5nc(c(-c6c(F)cc(S(=O)(=O)[O-])cc6F)c6ccc([nH]6)c(-c6c(F)cc(S(=O)(=O)[O-])cc6F)c6nc(c(-c7c(F)cc(S(=O)(=O)[O-])cc7F)c7ccc4[nH]7)C=C6)C=C5)cc3)c3ccccc32)c1
REMARK SMILES IDX 21 1 20 2 19 3 18 4 16 5 17 6 15 8 14 9 9 10 10 11 99 12
REMARK SMILES IDX 11 13 12 14 94 15 98 16 13 17 95 18 97 19 96 20 8 21 7 22
REMARK SMILES IDX 3 23 4 24 100 25 5 26 6 27 2 28 1 29 22 30 23 31 24 32 25 33
REMARK SMILES IDX 26 34 27 36 28 37 29 38 93 39 30 40 92 41 31 42 32 43 33 44
REMARK SMILES IDX 86 45 34 46 91 47 85 48 87 49 35 50 90 51 84 52 83 53 36 55
REMARK SMILES IDX 70 56 49 57 69 58 50 59 53 60 68 61 88 62 51 63 52 64 67 66
REMARK SMILES IDX 89 67 54 68 37 69 38 70 47 71 39 72 40 73 46 74 48 75 41 76
REMARK SMILES IDX 42 77 43 78 44 79 45 80 71 81 72 82 81 83 73 84 74 85 80 86
REMARK SMILES IDX 82 87 75 88 76 89 77 90 78 91 79 92 55 93 56 94 65 95 57 96
REMARK SMILES IDX 58 97 64 98 66 99 59 100 60 101 61 102 62 103 63 104
REMARK H PARENT 18 7 25 35 87 54 53 65
REMARK Flexibility Score: inf
ROOT
ATOM      1  C   UNL A   1      41.815  20.496  26.607  1.00  0.00     0.002 C 
ENDROOT
BRANCH   1   2
ATOM      2  C   UNL A   1      40.418  21.007  26.988  1.00  0.00     0.021 C 
BRANCH   2   3
ATOM      3  C   UNL A   1      39.637  21.544  25.792  1.00  0.00     0.116 C 
BRANCH   3   4
ATOM      4  N   UNL A   1      38.808  22.665  26.185  1.00  0.00    -0.355 N 
ATOM      5  C   UNL A   1      37.748  23.244  25.569  1.00  0.00     0.240 C 
ATOM      6  O   UNL A   1      37.243  24.214  26.152  1.00  0.00    -0.273 OA
ATOM      7  H   UNL A   1      39.057  23.075  27.044  1.00  0.00     0.163 HD
BRANCH   5   8
ATOM      8  C   UNL A   1      37.009  22.640  24.368  1.00  0.00     0.226 C 
BRANCH   8   9
ATOM      9  N   UNL A   1      35.651  22.119  24.349  1.00  0.00    -0.293 N 
ATOM     10  N   UNL A   1      33.040  21.170  24.834  1.00  0.00    -0.298 N 
ATOM     11  C   UNL A   1      34.047  20.919  25.746  1.00  0.00     0.317 A 
ATOM     12  C   UNL A   1      33.199  22.366  24.085  1.00  0.00     0.068 A 
ATOM     13  O   UNL A   1      33.894  20.668  26.938  1.00  0.00    -0.263 OA
ATOM     14  C   UNL A   1      35.437  20.996  25.139  1.00  0.00     0.317 A 
ATOM     15  C   UNL A   1      34.519  22.875  23.884  1.00  0.00     0.069 A 
ATOM     16  C   UNL A   1      32.086  23.134  23.713  1.00  0.00     0.028 A 
ATOM     17  O   UNL A   1      36.287  20.167  25.450  1.00  0.00    -0.263 OA
ATOM     18  C   UNL A   1      34.676  24.120  23.265  1.00  0.00     0.028 A 
ATOM     19  C   UNL A   1      32.270  24.407  23.171  1.00  0.00     0.002 A 
ATOM     20  C   UNL A   1      33.556  24.891  22.936  1.00  0.00     0.002 A 
BRANCH  10  21
ATOM     21  C   UNL A   1      31.863  20.301  24.849  1.00  0.00     0.162 C 
BRANCH  21  22
ATOM     22  C   UNL A   1      32.280  18.922  24.320  1.00  0.00    -0.024 A 
ATOM     23  C   UNL A   1      33.527  16.908  24.856  1.00  0.00     0.119 A 
ATOM     24  C   UNL A   1      33.846  16.730  23.517  1.00  0.00     0.046 A 
ATOM     25  C   UNL A   1      32.665  17.929  25.240  1.00  0.00     0.052 A 
ATOM     26  C   UNL A   1      33.317  17.603  22.564  1.00  0.00     0.004 A 
ATOM     27  C   UNL A   1      32.572  18.721  22.964  1.00  0.00     0.006 A 
BRANCH  23  28
ATOM     28  O   UNL A   1      34.294  16.329  25.831  1.00  0.00    -0.497 OA
ATOM     29  C   UNL A   1      35.503  15.775  25.340  1.00  0.00     0.278 C 
ENDBRANCH  23  28
ENDBRANCH  21  22
ENDBRANCH  10  21
ENDBRANCH   8   9
ENDBRANCH   5   8
ENDBRANCH   3   4
ENDBRANCH   2   3
ENDBRANCH   1   2
BRANCH   1  30
ATOM     30  C   UNL A   1      42.888  21.591  26.544  1.00  0.00     0.002 C 
BRANCH  30  31
ATOM     31  C   UNL A   1      43.032  22.428  27.822  1.00  0.00     0.021 C 
BRANCH  31  32
ATOM     32  C   UNL A   1      43.695  23.789  27.622  1.00  0.00     0.116 C 
BRANCH  32  33
ATOM     33  N   UNL A   1      43.272  24.409  26.376  1.00  0.00    -0.352 N 
ATOM     34  C   UNL A   1      42.407  25.451  26.164  1.00  0.00     0.251 C 
ATOM     35  H   UNL A   1      43.668  24.022  25.561  1.00  0.00     0.163 HD
ATOM     36  O   UNL A   1      41.943  25.636  25.043  1.00  0.00    -0.269 OA
BRANCH  34  37
ATOM     37  C   UNL A   1      42.044  26.357  27.274  1.00  0.00     0.039 A 
ATOM     38  C   UNL A   1      42.785  27.527  27.462  1.00  0.00     0.014 A 
ATOM     39  C   UNL A   1      41.030  26.018  28.176  1.00  0.00     0.014 A 
ATOM     40  C   UNL A   1      42.498  28.365  28.541  1.00  0.00     0.010 A 
ATOM     41  C   UNL A   1      40.705  26.882  29.216  1.00  0.00     0.010 A 
ATOM     42  C   UNL A   1      41.452  28.051  29.422  1.00  0.00    -0.014 A 
BRANCH  42  43
ATOM     43  C   UNL A   1      41.153  28.920  30.585  1.00  0.00     0.031 A 
ATOM     44  C   UNL A   1      41.951  28.789  31.852  1.00  0.00     0.074 A 
ATOM     45  C   UNL A   1      40.128  29.789  30.516  1.00  0.00     0.049 A 
ATOM     46  N   UNL A   1      41.838  29.456  32.972  1.00  0.00    -0.248 NA
ATOM     47  C   UNL A   1      42.993  27.751  31.874  1.00  0.00     0.031 C 
ATOM     48  C   UNL A   1      39.235  29.949  29.367  1.00  0.00     0.029 A 
ATOM     49  N   UNL A   1      39.657  30.691  31.435  1.00  0.00    -0.354 N 
ATOM     50  C   UNL A   1      42.775  28.905  33.837  1.00  0.00     0.074 A 
ATOM     51  C   UNL A   1      43.417  27.819  33.128  1.00  0.00     0.031 C 
ATOM     52  C   UNL A   1      38.332  30.904  29.645  1.00  0.00     0.029 A 
ATOM     53  C   UNL A   1      38.575  31.413  30.992  1.00  0.00     0.049 A 
ATOM     54  H   UNL A   1      40.057  30.810  32.326  1.00  0.00     0.167 HD
ATOM     55  C   UNL A   1      43.090  29.284  35.100  1.00  0.00     0.037 A 
ATOM     56  C   UNL A   1      37.866  32.382  31.600  1.00  0.00     0.037 A 
ATOM     57  C   UNL A   1      42.470  30.388  35.785  1.00  0.00     0.049 A 
ATOM     58  C   UNL A   1      38.278  32.843  32.968  1.00  0.00     0.074 A 
ATOM     59  C   UNL A   1      42.770  30.909  37.030  1.00  0.00     0.029 A 
ATOM     60  N   UNL A   1      41.420  31.141  35.279  1.00  0.00    -0.354 N 
ATOM     61  N   UNL A   1      39.231  32.375  33.740  1.00  0.00    -0.248 NA
ATOM     62  C   UNL A   1      37.536  33.973  33.542  1.00  0.00     0.031 C 
ATOM     63  C   UNL A   1      41.882  31.962  37.289  1.00  0.00     0.029 A 
ATOM     64  C   UNL A   1      41.050  32.115  36.190  1.00  0.00     0.049 A 
ATOM     65  H   UNL A   1      41.000  31.003  34.399  1.00  0.00     0.167 HD
ATOM     66  C   UNL A   1      39.214  33.162  34.885  1.00  0.00     0.074 A 
ATOM     67  C   UNL A   1      38.163  34.145  34.699  1.00  0.00     0.031 C 
ATOM     68  C   UNL A   1      39.999  33.081  35.987  1.00  0.00     0.037 A 
BRANCH  55  69
ATOM     69  C   UNL A   1      44.150  28.489  35.809  1.00  0.00     0.058 A 
ATOM     70  C   UNL A   1      43.824  27.412  36.651  1.00  0.00     0.135 A 
ATOM     71  C   UNL A   1      45.507  28.820  35.668  1.00  0.00     0.135 A 
ATOM     72  F   UNL A   1      42.541  27.061  36.832  1.00  0.00    -0.206 F 
ATOM     73  C   UNL A   1      44.800  26.729  37.370  1.00  0.00     0.059 A 
ATOM     74  C   UNL A   1      46.501  28.134  36.357  1.00  0.00     0.059 A 
ATOM     75  F   UNL A   1      45.875  29.837  34.873  1.00  0.00    -0.206 F 
ATOM     76  C   UNL A   1      46.135  27.107  37.227  1.00  0.00     0.060 A 
BRANCH  76  77
ATOM     77  S   UNL A   1      47.391  26.250  38.202  1.00  0.00     0.124 S 
ATOM     78  O   UNL A   1      46.566  25.538  39.172  1.00  0.00    -0.237 OA
ATOM     79  O   UNL A   1      48.054  25.417  37.203  1.00  0.00    -0.237 OA
ATOM     80  O   UNL A   1      48.199  27.338  38.741  1.00  0.00    -0.744 OA
ENDBRANCH  76  77
ENDBRANCH  55  69
BRANCH  56  81
ATOM     81  C   UNL A   1      36.734  33.008  30.873  1.00  0.00     0.058 A 
ATOM     82  C   UNL A   1      35.409  32.766  31.262  1.00  0.00     0.135 A 
ATOM     83  C   UNL A   1      36.958  33.930  29.840  1.00  0.00     0.135 A 
ATOM     84  F   UNL A   1      35.148  31.889  32.245  1.00  0.00    -0.206 F 
ATOM     85  C   UNL A   1      34.342  33.423  30.659  1.00  0.00     0.059 A 
ATOM     86  C   UNL A   1      35.909  34.613  29.233  1.00  0.00     0.059 A 
ATOM     87  F   UNL A   1      38.211  34.209  29.448  1.00  0.00    -0.206 F 
ATOM     88  C   UNL A   1      34.604  34.355  29.651  1.00  0.00     0.060 A 
BRANCH  88  89
ATOM     89  S   UNL A   1      33.224  35.287  28.953  1.00  0.00     0.124 S 
ATOM     90  O   UNL A   1      32.457  35.617  30.148  1.00  0.00    -0.237 OA
ATOM     91  O   UNL A   1      33.903  36.402  28.300  1.00  0.00    -0.237 OA
ATOM     92  O   UNL A   1      32.599  34.328  28.046  1.00  0.00    -0.744 OA
ENDBRANCH  88  89
ENDBRANCH  56  81
BRANCH  68  93
ATOM     93  C   UNL A   1      39.758  34.086  37.077  1.00  0.00     0.058 A 
ATOM     94  C   UNL A   1      38.860  33.830  38.123  1.00  0.00     0.135 A 
ATOM     95  C   UNL A   1      40.474  35.293  37.102  1.00  0.00     0.135 A 
ATOM     96  F   UNL A   1      38.148  32.692  38.139  1.00  0.00    -0.206 F 
ATOM     97  C   UNL A   1      38.665  34.746  39.151  1.00  0.00     0.059 A 
ATOM     98  C   UNL A   1      40.309  36.215  38.132  1.00  0.00     0.059 A 
ATOM     99  F   UNL A   1      41.352  35.580  36.129  1.00  0.00    -0.206 F 
ATOM    100  C   UNL A   1      39.395  35.936  39.147  1.00  0.00     0.060 A 
BRANCH 100 101
ATOM    101  S   UNL A   1      39.163  37.102  40.505  1.00  0.00     0.124 S 
ATOM    102  O   UNL A   1      38.623  36.235  41.547  1.00  0.00    -0.237 OA
ATOM    103  O   UNL A   1      40.517  37.597  40.731  1.00  0.00    -0.237 OA
ATOM    104  O   UNL A   1      38.230  38.081  39.954  1.00  0.00    -0.744 OA
ENDBRANCH 100 101
ENDBRANCH  68  93
ENDBRANCH  42  43
ENDBRANCH  34  37
ENDBRANCH  32  33
ENDBRANCH  31  32
ENDBRANCH  30  31
ENDBRANCH   1  30
TORSDOF 20
ENDMDL
