MODEL 1
REMARK VINA RESULT:     -11.7      0.000      0.000
REMARK SMILES Cc1ccc(-c2ncccc2C(=O)NCCCCCCNC(=O)c2ccc(-c3c4nc(c(-c5c(F)cc(S(=O)(=O)[O-])cc5F)c5ccc([nH]5)c(-c5c(F)cc(S(=O)(=O)[O-])cc5F)c5nc(c(-c6c(F)cc(S(=O)(=O)[O-])cc6F)c6ccc3[nH]6)C=C5)C=C4)cc2)c(Cl)c1
REMARK SMILES IDX 18 1 17 2 16 3 15 4 14 5 12 6 13 7 11 9 6 10 7 11 8 12 10 13
REMARK SMILES IDX 9 14 5 15 1 16 2 17 3 18 92 19 4 20 90 21 91 22 19 23 20 24
REMARK SMILES IDX 21 25 22 26 23 28 24 29 25 30 89 31 26 32 88 33 27 34 28 35
REMARK SMILES IDX 29 36 82 37 30 38 87 39 81 40 83 41 31 42 86 43 80 44 79 45
REMARK SMILES IDX 32 47 66 48 45 49 65 50 46 51 49 52 64 53 84 54 47 55 48 56
REMARK SMILES IDX 63 58 85 59 50 60 33 61 34 62 43 63 35 64 36 65 42 66 44 67
REMARK SMILES IDX 37 68 38 69 39 70 40 71 41 72 67 73 68 74 77 75 69 76 70 77
REMARK SMILES IDX 76 78 78 79 71 80 72 81 73 82 74 83 75 84 51 85 52 86 61 87
REMARK SMILES IDX 53 88 54 89 60 90 62 91 55 92 56 93 57 94 58 95 59 96
REMARK H PARENT 14 8 21 27 83 46 49 57
REMARK Flexibility Score: inf
ROOT
ATOM      1  C   UNL A   1      40.672  22.098  27.701  1.00  0.00     0.002 C 
ENDROOT
BRANCH   1   2
ATOM      2  C   UNL A   1      39.705  22.284  26.523  1.00  0.00     0.002 C 
BRANCH   2   3
ATOM      3  C   UNL A   1      39.070  23.680  26.413  1.00  0.00     0.021 C 
BRANCH   3   4
ATOM      4  C   UNL A   1      37.569  23.644  26.128  1.00  0.00     0.116 C 
BRANCH   4   5
ATOM      5  N   UNL A   1      37.323  23.403  24.722  1.00  0.00    -0.352 N 
ATOM      6  C   UNL A   1      36.341  22.848  23.949  1.00  0.00     0.253 C 
ATOM      7  O   UNL A   1      36.607  22.878  22.746  1.00  0.00    -0.269 OA
ATOM      8  H   UNL A   1      38.068  23.730  24.168  1.00  0.00     0.163 HD
BRANCH   6   9
ATOM      9  C   UNL A   1      35.036  22.276  24.429  1.00  0.00     0.066 A 
ATOM     10  C   UNL A   1      33.916  23.116  24.624  1.00  0.00     0.084 A 
ATOM     11  N   UNL A   1      32.733  22.675  25.157  1.00  0.00    -0.255 NA
ATOM     12  C   UNL A   1      32.638  21.386  25.521  1.00  0.00     0.112 A 
ATOM     13  C   UNL A   1      34.838  20.924  24.738  1.00  0.00     0.018 A 
ATOM     14  C   UNL A   1      33.648  20.476  25.314  1.00  0.00     0.021 A 
BRANCH  10  15
ATOM     15  C   UNL A   1      33.833  24.531  24.221  1.00  0.00     0.020 A 
ATOM     16  C   UNL A   1      33.440  28.725  23.203  1.00  0.00     0.044 C 
ATOM     17  C   UNL A   1      33.609  27.279  23.559  1.00  0.00    -0.050 A 
ATOM     18  C   UNL A   1      33.944  26.893  24.857  1.00  0.00     0.004 A 
ATOM     19  C   UNL A   1      33.424  26.291  22.583  1.00  0.00     0.024 A 
ATOM     20  C   UNL A   1      34.069  25.539  25.178  1.00  0.00     0.012 A 
ATOM     21  C   UNL A   1      33.527  24.932  22.910  1.00  0.00     0.050 A 
ATOM     22  Cl  UNL A   1      33.226  23.789  21.643  1.00  0.00    -0.084 Cl
ENDBRANCH  10  15
ENDBRANCH   6   9
ENDBRANCH   4   5
ENDBRANCH   3   4
ENDBRANCH   2   3
ENDBRANCH   1   2
BRANCH   1  23
ATOM     23  C   UNL A   1      42.136  21.885  27.309  1.00  0.00     0.021 C 
BRANCH  23  24
ATOM     24  C   UNL A   1      42.991  23.145  27.373  1.00  0.00     0.116 C 
BRANCH  24  25
ATOM     25  N   UNL A   1      42.856  23.946  26.168  1.00  0.00    -0.352 N 
ATOM     26  C   UNL A   1      42.378  25.225  26.028  1.00  0.00     0.251 C 
ATOM     27  H   UNL A   1      43.146  23.509  25.335  1.00  0.00     0.163 HD
ATOM     28  O   UNL A   1      42.108  25.660  24.913  1.00  0.00    -0.269 OA
BRANCH  26  29
ATOM     29  C   UNL A   1      42.179  26.067  27.227  1.00  0.00     0.039 A 
ATOM     30  C   UNL A   1      43.068  27.114  27.475  1.00  0.00     0.014 A 
ATOM     31  C   UNL A   1      41.123  25.815  28.108  1.00  0.00     0.014 A 
ATOM     32  C   UNL A   1      42.869  27.940  28.583  1.00  0.00     0.010 A 
ATOM     33  C   UNL A   1      40.884  26.683  29.170  1.00  0.00     0.010 A 
ATOM     34  C   UNL A   1      41.758  27.750  29.422  1.00  0.00    -0.014 A 
BRANCH  34  35
ATOM     35  C   UNL A   1      41.497  28.658  30.568  1.00  0.00     0.031 A 
ATOM     36  C   UNL A   1      42.307  28.537  31.830  1.00  0.00     0.074 A 
ATOM     37  C   UNL A   1      40.487  29.548  30.493  1.00  0.00     0.049 A 
ATOM     38  N   UNL A   1      42.189  29.198  32.953  1.00  0.00    -0.248 NA
ATOM     39  C   UNL A   1      43.372  27.521  31.842  1.00  0.00     0.031 C 
ATOM     40  C   UNL A   1      39.596  29.718  29.343  1.00  0.00     0.029 A 
ATOM     41  N   UNL A   1      40.030  30.465  31.405  1.00  0.00    -0.354 N 
ATOM     42  C   UNL A   1      43.148  28.669  33.808  1.00  0.00     0.074 A 
ATOM     43  C   UNL A   1      43.806  27.597  33.093  1.00  0.00     0.031 C 
ATOM     44  C   UNL A   1      38.713  30.693  29.611  1.00  0.00     0.029 A 
ATOM     45  C   UNL A   1      38.948  31.189  30.964  1.00  0.00     0.049 A 
ATOM     46  H   UNL A   1      40.438  30.593  32.291  1.00  0.00     0.167 HD
ATOM     47  C   UNL A   1      43.467  29.056  35.067  1.00  0.00     0.037 A 
ATOM     48  C   UNL A   1      38.220  32.140  31.582  1.00  0.00     0.037 A 
ATOM     49  C   UNL A   1      42.823  30.140  35.761  1.00  0.00     0.049 A 
ATOM     50  C   UNL A   1      38.600  32.562  32.975  1.00  0.00     0.074 A 
ATOM     51  C   UNL A   1      43.119  30.658  37.009  1.00  0.00     0.029 A 
ATOM     52  N   UNL A   1      41.750  30.871  35.270  1.00  0.00    -0.354 N 
ATOM     53  N   UNL A   1      39.561  32.104  33.740  1.00  0.00    -0.248 NA
ATOM     54  C   UNL A   1      37.803  33.634  33.585  1.00  0.00     0.031 C 
ATOM     55  C   UNL A   1      42.193  31.667  37.296  1.00  0.00     0.029 A 
ATOM     56  C   UNL A   1      41.354  31.816  36.202  1.00  0.00     0.049 A 
ATOM     57  H   UNL A   1      41.331  30.737  34.389  1.00  0.00     0.167 HD
ATOM     58  C   UNL A   1      39.500  32.847  34.913  1.00  0.00     0.074 A 
ATOM     59  C   UNL A   1      38.417  33.795  34.750  1.00  0.00     0.031 C 
ATOM     60  C   UNL A   1      40.273  32.755  36.024  1.00  0.00     0.037 A 
BRANCH  47  61
ATOM     61  C   UNL A   1      44.558  28.299  35.777  1.00  0.00     0.058 A 
ATOM     62  C   UNL A   1      45.909  28.664  35.660  1.00  0.00     0.135 A 
ATOM     63  C   UNL A   1      44.246  27.214  36.612  1.00  0.00     0.135 A 
ATOM     64  F   UNL A   1      46.268  29.684  34.865  1.00  0.00    -0.206 F 
ATOM     65  C   UNL A   1      46.912  27.961  36.319  1.00  0.00     0.059 A 
ATOM     66  C   UNL A   1      45.230  26.516  37.305  1.00  0.00     0.059 A 
ATOM     67  F   UNL A   1      42.970  26.821  36.761  1.00  0.00    -0.206 F 
ATOM     68  C   UNL A   1      46.563  26.888  37.139  1.00  0.00     0.060 A 
BRANCH  68  69
ATOM     69  S   UNL A   1      47.878  25.987  37.987  1.00  0.00     0.124 S 
ATOM     70  O   UNL A   1      47.461  26.106  39.380  1.00  0.00    -0.237 OA
ATOM     71  O   UNL A   1      47.769  24.653  37.405  1.00  0.00    -0.237 OA
ATOM     72  O   UNL A   1      49.083  26.728  37.627  1.00  0.00    -0.744 OA
ENDBRANCH  68  69
ENDBRANCH  47  61
BRANCH  48  73
ATOM     73  C   UNL A   1      37.071  32.766  30.874  1.00  0.00     0.058 A 
ATOM     74  C   UNL A   1      35.749  32.431  31.202  1.00  0.00     0.135 A 
ATOM     75  C   UNL A   1      37.271  33.733  29.876  1.00  0.00     0.135 A 
ATOM     76  F   UNL A   1      35.505  31.509  32.145  1.00  0.00    -0.206 F 
ATOM     77  C   UNL A   1      34.667  33.022  30.559  1.00  0.00     0.059 A 
ATOM     78  C   UNL A   1      36.205  34.357  29.237  1.00  0.00     0.059 A 
ATOM     79  F   UNL A   1      38.517  34.102  29.539  1.00  0.00    -0.206 F 
ATOM     80  C   UNL A   1      34.906  33.988  29.580  1.00  0.00     0.060 A 
BRANCH  80  81
ATOM     81  S   UNL A   1      33.492  34.792  28.792  1.00  0.00     0.124 S 
ATOM     82  O   UNL A   1      34.095  36.019  28.288  1.00  0.00    -0.237 OA
ATOM     83  O   UNL A   1      33.104  33.808  27.785  1.00  0.00    -0.237 OA
ATOM     84  O   UNL A   1      32.546  34.957  29.892  1.00  0.00    -0.744 OA
ENDBRANCH  80  81
ENDBRANCH  48  73
BRANCH  60  85
ATOM     85  C   UNL A   1      39.997  33.722  37.144  1.00  0.00     0.058 A 
ATOM     86  C   UNL A   1      40.607  34.984  37.198  1.00  0.00     0.135 A 
ATOM     87  C   UNL A   1      39.066  33.400  38.145  1.00  0.00     0.135 A 
ATOM     88  F   UNL A   1      41.509  35.340  36.269  1.00  0.00    -0.206 F 
ATOM     89  C   UNL A   1      40.323  35.885  38.219  1.00  0.00     0.059 A 
ATOM     90  C   UNL A   1      38.745  34.297  39.158  1.00  0.00     0.059 A 
ATOM     91  F   UNL A   1      38.445  32.210  38.134  1.00  0.00    -0.206 F 
ATOM     92  C   UNL A   1      39.387  35.532  39.194  1.00  0.00     0.060 A 
BRANCH  92  93
ATOM     93  S   UNL A   1      39.003  36.724  40.494  1.00  0.00     0.124 S 
ATOM     94  O   UNL A   1      40.300  36.878  41.146  1.00  0.00    -0.237 OA
ATOM     95  O   UNL A   1      38.536  37.878  39.731  1.00  0.00    -0.237 OA
ATOM     96  O   UNL A   1      37.979  36.047  41.284  1.00  0.00    -0.744 OA
ENDBRANCH  92  93
ENDBRANCH  60  85
ENDBRANCH  34  35
ENDBRANCH  26  29
ENDBRANCH  24  25
ENDBRANCH  23  24
ENDBRANCH   1  23
TORSDOF 17
ENDMDL
MODEL 2
REMARK VINA RESULT:     -11.6      4.685     10.181
REMARK SMILES Cc1ccc(-c2ncccc2C(=O)NCCCCCCNC(=O)c2ccc(-c3c4nc(c(-c5c(F)cc(S(=O)(=O)[O-])cc5F)c5ccc([nH]5)c(-c5c(F)cc(S(=O)(=O)[O-])cc5F)c5nc(c(-c6c(F)cc(S(=O)(=O)[O-])cc6F)c6ccc3[nH]6)C=C5)C=C4)cc2)c(Cl)c1
REMARK SMILES IDX 18 1 17 2 16 3 15 4 14 5 12 6 13 7 11 9 6 10 7 11 8 12 10 13
REMARK SMILES IDX 9 14 5 15 1 16 2 17 3 18 92 19 4 20 90 21 91 22 19 23 20 24
REMARK SMILES IDX 21 25 22 26 23 28 24 29 25 30 89 31 26 32 88 33 27 34 28 35
REMARK SMILES IDX 29 36 82 37 30 38 87 39 81 40 83 41 31 42 86 43 80 44 79 45
REMARK SMILES IDX 32 47 66 48 45 49 65 50 46 51 49 52 64 53 84 54 47 55 48 56
REMARK SMILES IDX 63 58 85 59 50 60 33 61 34 62 43 63 35 64 36 65 42 66 44 67
REMARK SMILES IDX 37 68 38 69 39 70 40 71 41 72 67 73 68 74 77 75 69 76 70 77
REMARK SMILES IDX 76 78 78 79 71 80 72 81 73 82 74 83 75 84 51 85 52 86 61 87
REMARK SMILES IDX 53 88 54 89 60 90 62 91 55 92 56 93 57 94 58 95 59 96
REMARK H PARENT 14 8 21 27 83 46 49 57
REMARK Flexibility Score: inf
ROOT
ATOM      1  C   UNL A   1      33.700  27.255  24.523  1.00  0.00     0.002 C 
ENDROOT
BRANCH   1   2
ATOM      2  C   UNL A   1      34.043  25.760  24.574  1.00  0.00     0.002 C 
BRANCH   2   3
ATOM      3  C   UNL A   1      33.942  25.021  23.229  1.00  0.00     0.021 C 
BRANCH   3   4
ATOM      4  C   UNL A   1      34.852  23.796  23.140  1.00  0.00     0.116 C 
BRANCH   4   5
ATOM      5  N   UNL A   1      35.304  23.399  24.456  1.00  0.00    -0.352 N 
ATOM      6  C   UNL A   1      35.136  22.338  25.305  1.00  0.00     0.253 C 
ATOM      7  O   UNL A   1      35.754  22.473  26.362  1.00  0.00    -0.269 OA
ATOM      8  H   UNL A   1      35.896  24.079  24.850  1.00  0.00     0.163 HD
BRANCH   6   9
ATOM      9  C   UNL A   1      34.335  21.094  25.040  1.00  0.00     0.066 A 
ATOM     10  C   UNL A   1      32.924  21.122  25.116  1.00  0.00     0.084 A 
ATOM     11  N   UNL A   1      32.144  20.003  24.989  1.00  0.00    -0.255 NA
ATOM     12  C   UNL A   1      32.751  18.821  24.794  1.00  0.00     0.112 A 
ATOM     13  C   UNL A   1      34.898  19.848  24.739  1.00  0.00     0.018 A 
ATOM     14  C   UNL A   1      34.113  18.698  24.643  1.00  0.00     0.021 A 
BRANCH  10  15
ATOM     15  C   UNL A   1      32.104  22.339  25.260  1.00  0.00     0.020 A 
ATOM     16  C   UNL A   1      29.810  26.008  25.512  1.00  0.00     0.044 C 
ATOM     17  C   UNL A   1      30.575  24.722  25.420  1.00  0.00    -0.050 A 
ATOM     18  C   UNL A   1      30.684  24.035  24.211  1.00  0.00     0.004 A 
ATOM     19  C   UNL A   1      31.200  24.195  26.558  1.00  0.00     0.024 A 
ATOM     20  C   UNL A   1      31.425  22.853  24.136  1.00  0.00     0.012 A 
ATOM     21  C   UNL A   1      31.962  23.021  26.479  1.00  0.00     0.050 A 
ATOM     22  Cl  UNL A   1      32.738  22.483  27.932  1.00  0.00    -0.084 Cl
ENDBRANCH  10  15
ENDBRANCH   6   9
ENDBRANCH   4   5
ENDBRANCH   3   4
ENDBRANCH   2   3
ENDBRANCH   1   2
BRANCH   1  23
ATOM     23  C   UNL A   1      32.931  27.784  25.736  1.00  0.00     0.021 C 
BRANCH  23  24
ATOM     24  C   UNL A   1      33.815  28.186  26.911  1.00  0.00     0.116 C 
BRANCH  24  25
ATOM     25  N   UNL A   1      33.641  29.587  27.257  1.00  0.00    -0.352 N 
ATOM     26  C   UNL A   1      34.478  30.413  27.965  1.00  0.00     0.251 C 
ATOM     27  H   UNL A   1      32.806  30.001  26.941  1.00  0.00     0.163 HD
ATOM     28  O   UNL A   1      34.070  31.496  28.371  1.00  0.00    -0.269 OA
BRANCH  26  29
ATOM     29  C   UNL A   1      35.865  29.985  28.244  1.00  0.00     0.039 A 
ATOM     30  C   UNL A   1      36.829  30.111  27.242  1.00  0.00     0.014 A 
ATOM     31  C   UNL A   1      36.210  29.450  29.490  1.00  0.00     0.014 A 
ATOM     32  C   UNL A   1      38.151  29.746  27.506  1.00  0.00     0.010 A 
ATOM     33  C   UNL A   1      37.540  29.156  29.774  1.00  0.00     0.010 A 
ATOM     34  C   UNL A   1      38.522  29.293  28.783  1.00  0.00    -0.014 A 
BRANCH  34  35
ATOM     35  C   UNL A   1      39.935  28.961  29.098  1.00  0.00     0.031 A 
ATOM     36  C   UNL A   1      40.834  29.993  29.724  1.00  0.00     0.074 A 
ATOM     37  C   UNL A   1      40.424  27.751  28.761  1.00  0.00     0.049 A 
ATOM     38  N   UNL A   1      42.106  29.910  30.018  1.00  0.00    -0.248 NA
ATOM     39  C   UNL A   1      40.231  31.300  30.034  1.00  0.00     0.031 C 
ATOM     40  C   UNL A   1      39.664  26.688  28.099  1.00  0.00     0.029 A 
ATOM     41  N   UNL A   1      41.677  27.215  28.916  1.00  0.00    -0.354 N 
ATOM     42  C   UNL A   1      42.459  31.152  30.531  1.00  0.00     0.074 A 
ATOM     43  C   UNL A   1      41.281  31.989  30.459  1.00  0.00     0.031 C 
ATOM     44  C   UNL A   1      40.461  25.623  27.920  1.00  0.00     0.029 A 
ATOM     45  C   UNL A   1      41.796  25.939  28.419  1.00  0.00     0.049 A 
ATOM     46  H   UNL A   1      42.421  27.698  29.341  1.00  0.00     0.167 HD
ATOM     47  C   UNL A   1      43.651  31.553  31.034  1.00  0.00     0.037 A 
ATOM     48  C   UNL A   1      42.863  25.117  28.363  1.00  0.00     0.037 A 
ATOM     49  C   UNL A   1      44.811  30.705  31.124  1.00  0.00     0.049 A 
ATOM     50  C   UNL A   1      44.173  25.578  28.939  1.00  0.00     0.074 A 
ATOM     51  C   UNL A   1      46.044  30.991  31.683  1.00  0.00     0.029 A 
ATOM     52  N   UNL A   1      44.885  29.407  30.638  1.00  0.00    -0.354 N 
ATOM     53  N   UNL A   1      44.469  26.731  29.491  1.00  0.00    -0.248 NA
ATOM     54  C   UNL A   1      45.292  24.628  28.894  1.00  0.00     0.031 C 
ATOM     55  C   UNL A   1      46.880  29.887  31.489  1.00  0.00     0.029 A 
ATOM     56  C   UNL A   1      46.151  28.890  30.859  1.00  0.00     0.049 A 
ATOM     57  H   UNL A   1      44.147  28.926  30.200  1.00  0.00     0.167 HD
ATOM     58  C   UNL A   1      45.800  26.636  29.881  1.00  0.00     0.074 A 
ATOM     59  C   UNL A   1      46.247  25.307  29.514  1.00  0.00     0.031 C 
ATOM     60  C   UNL A   1      46.581  27.563  30.489  1.00  0.00     0.037 A 
BRANCH  47  61
ATOM     61  C   UNL A   1      43.763  32.972  31.525  1.00  0.00     0.058 A 
ATOM     62  C   UNL A   1      43.533  33.311  32.868  1.00  0.00     0.135 A 
ATOM     63  C   UNL A   1      44.137  34.003  30.647  1.00  0.00     0.135 A 
ATOM     64  F   UNL A   1      43.159  32.371  33.750  1.00  0.00    -0.206 F 
ATOM     65  C   UNL A   1      43.638  34.624  33.316  1.00  0.00     0.059 A 
ATOM     66  C   UNL A   1      44.278  35.318  31.079  1.00  0.00     0.059 A 
ATOM     67  F   UNL A   1      44.369  33.736  29.352  1.00  0.00    -0.206 F 
ATOM     68  C   UNL A   1      44.010  35.621  32.413  1.00  0.00     0.060 A 
BRANCH  68  69
ATOM     69  S   UNL A   1      44.142  37.320  33.011  1.00  0.00     0.124 S 
ATOM     70  O   UNL A   1      45.404  37.274  33.743  1.00  0.00    -0.237 OA
ATOM     71  O   UNL A   1      44.158  38.088  31.770  1.00  0.00    -0.237 OA
ATOM     72  O   UNL A   1      42.946  37.485  33.832  1.00  0.00    -0.744 OA
ENDBRANCH  68  69
ENDBRANCH  47  61
BRANCH  48  73
ATOM     73  C   UNL A   1      42.724  23.768  27.750  1.00  0.00     0.058 A 
ATOM     74  C   UNL A   1      42.846  23.585  26.365  1.00  0.00     0.135 A 
ATOM     75  C   UNL A   1      42.494  22.631  28.542  1.00  0.00     0.135 A 
ATOM     76  F   UNL A   1      43.060  24.641  25.566  1.00  0.00    -0.206 F 
ATOM     77  C   UNL A   1      42.735  22.327  25.784  1.00  0.00     0.059 A 
ATOM     78  C   UNL A   1      42.405  21.359  27.986  1.00  0.00     0.059 A 
ATOM     79  F   UNL A   1      42.388  22.750  29.875  1.00  0.00    -0.206 F 
ATOM     80  C   UNL A   1      42.518  21.218  26.605  1.00  0.00     0.060 A 
BRANCH  80  81
ATOM     81  S   UNL A   1      42.433  19.581  25.845  1.00  0.00     0.124 S 
ATOM     82  O   UNL A   1      41.036  19.520  25.434  1.00  0.00    -0.237 OA
ATOM     83  O   UNL A   1      43.414  19.692  24.769  1.00  0.00    -0.237 OA
ATOM     84  O   UNL A   1      42.811  18.687  26.936  1.00  0.00    -0.744 OA
ENDBRANCH  80  81
ENDBRANCH  48  73
BRANCH  60  85
ATOM     85  C   UNL A   1      47.994  27.168  30.824  1.00  0.00     0.058 A 
ATOM     86  C   UNL A   1      48.333  26.625  32.072  1.00  0.00     0.135 A 
ATOM     87  C   UNL A   1      49.010  27.285  29.862  1.00  0.00     0.135 A 
ATOM     88  F   UNL A   1      47.401  26.497  33.030  1.00  0.00    -0.206 F 
ATOM     89  C   UNL A   1      49.636  26.233  32.364  1.00  0.00     0.059 A 
ATOM     90  C   UNL A   1      50.312  26.873  30.121  1.00  0.00     0.059 A 
ATOM     91  F   UNL A   1      48.737  27.788  28.647  1.00  0.00    -0.206 F 
ATOM     92  C   UNL A   1      50.618  26.359  31.380  1.00  0.00     0.060 A 
BRANCH  92  93
ATOM     93  S   UNL A   1      52.297  25.815  31.760  1.00  0.00     0.124 S 
ATOM     94  O   UNL A   1      52.631  26.665  32.899  1.00  0.00    -0.237 OA
ATOM     95  O   UNL A   1      52.106  24.399  32.061  1.00  0.00    -0.237 OA
ATOM     96  O   UNL A   1      53.032  26.094  30.531  1.00  0.00    -0.744 OA
ENDBRANCH  92  93
ENDBRANCH  60  85
ENDBRANCH  34  35
ENDBRANCH  26  29
ENDBRANCH  24  25
ENDBRANCH  23  24
ENDBRANCH   1  23
TORSDOF 17
ENDMDL
MODEL 3
REMARK VINA RESULT:     -11.6      4.655     10.245
REMARK SMILES Cc1ccc(-c2ncccc2C(=O)NCCCCCCNC(=O)c2ccc(-c3c4nc(c(-c5c(F)cc(S(=O)(=O)[O-])cc5F)c5ccc([nH]5)c(-c5c(F)cc(S(=O)(=O)[O-])cc5F)c5nc(c(-c6c(F)cc(S(=O)(=O)[O-])cc6F)c6ccc3[nH]6)C=C5)C=C4)cc2)c(Cl)c1
REMARK SMILES IDX 18 1 17 2 16 3 15 4 14 5 12 6 13 7 11 9 6 10 7 11 8 12 10 13
REMARK SMILES IDX 9 14 5 15 1 16 2 17 3 18 92 19 4 20 90 21 91 22 19 23 20 24
REMARK SMILES IDX 21 25 22 26 23 28 24 29 25 30 89 31 26 32 88 33 27 34 28 35
REMARK SMILES IDX 29 36 82 37 30 38 87 39 81 40 83 41 31 42 86 43 80 44 79 45
REMARK SMILES IDX 32 47 66 48 45 49 65 50 46 51 49 52 64 53 84 54 47 55 48 56
REMARK SMILES IDX 63 58 85 59 50 60 33 61 34 62 43 63 35 64 36 65 42 66 44 67
REMARK SMILES IDX 37 68 38 69 39 70 40 71 41 72 67 73 68 74 77 75 69 76 70 77
REMARK SMILES IDX 76 78 78 79 71 80 72 81 73 82 74 83 75 84 51 85 52 86 61 87
REMARK SMILES IDX 53 88 54 89 60 90 62 91 55 92 56 93 57 94 58 95 59 96
REMARK H PARENT 14 8 21 27 83 46 49 57
REMARK Flexibility Score: inf
ROOT
ATOM      1  C   UNL A   1      33.649  27.938  24.517  1.00  0.00     0.002 C 
ENDROOT
BRANCH   1   2
ATOM      2  C   UNL A   1      32.892  27.519  23.249  1.00  0.00     0.002 C 
BRANCH   2   3
ATOM      3  C   UNL A   1      33.687  26.632  22.276  1.00  0.00     0.021 C 
BRANCH   3   4
ATOM      4  C   UNL A   1      32.801  25.830  21.323  1.00  0.00     0.116 C 
BRANCH   4   5
ATOM      5  N   UNL A   1      32.798  24.430  21.689  1.00  0.00    -0.352 N 
ATOM      6  C   UNL A   1      32.453  23.670  22.774  1.00  0.00     0.253 C 
ATOM      7  O   UNL A   1      32.644  22.466  22.591  1.00  0.00    -0.269 OA
ATOM      8  H   UNL A   1      33.135  23.868  20.955  1.00  0.00     0.163 HD
BRANCH   6   9
ATOM      9  C   UNL A   1      31.866  24.164  24.067  1.00  0.00     0.066 A 
ATOM     10  C   UNL A   1      32.560  23.978  25.283  1.00  0.00     0.084 A 
ATOM     11  N   UNL A   1      32.034  24.310  26.505  1.00  0.00    -0.255 NA
ATOM     12  C   UNL A   1      30.796  24.827  26.546  1.00  0.00     0.112 A 
ATOM     13  C   UNL A   1      30.621  24.796  24.172  1.00  0.00     0.018 A 
ATOM     14  C   UNL A   1      30.065  25.105  25.415  1.00  0.00     0.021 A 
BRANCH  10  15
ATOM     15  C   UNL A   1      33.944  23.486  25.407  1.00  0.00     0.020 A 
ATOM     16  C   UNL A   1      38.061  22.139  25.571  1.00  0.00     0.044 C 
ATOM     17  C   UNL A   1      36.642  22.621  25.543  1.00  0.00    -0.050 A 
ATOM     18  C   UNL A   1      36.344  23.971  25.358  1.00  0.00     0.004 A 
ATOM     19  C   UNL A   1      35.589  21.709  25.699  1.00  0.00     0.024 A 
ATOM     20  C   UNL A   1      35.015  24.399  25.306  1.00  0.00     0.012 A 
ATOM     21  C   UNL A   1      34.255  22.134  25.625  1.00  0.00     0.050 A 
ATOM     22  Cl  UNL A   1      33.029  20.920  25.776  1.00  0.00    -0.084 Cl
ENDBRANCH  10  15
ENDBRANCH   6   9
ENDBRANCH   4   5
ENDBRANCH   3   4
ENDBRANCH   2   3
ENDBRANCH   1   2
BRANCH   1  23
ATOM     23  C   UNL A   1      32.861  27.789  25.821  1.00  0.00     0.021 C 
BRANCH  23  24
ATOM     24  C   UNL A   1      33.631  28.207  27.068  1.00  0.00     0.116 C 
BRANCH  24  25
ATOM     25  N   UNL A   1      33.481  29.627  27.338  1.00  0.00    -0.352 N 
ATOM     26  C   UNL A   1      34.340  30.480  27.984  1.00  0.00     0.251 C 
ATOM     27  H   UNL A   1      32.646  30.034  27.013  1.00  0.00     0.163 HD
ATOM     28  O   UNL A   1      33.953  31.589  28.337  1.00  0.00    -0.269 OA
BRANCH  26  29
ATOM     29  C   UNL A   1      35.727  30.050  28.264  1.00  0.00     0.039 A 
ATOM     30  C   UNL A   1      36.681  30.133  27.248  1.00  0.00     0.014 A 
ATOM     31  C   UNL A   1      36.080  29.553  29.523  1.00  0.00     0.014 A 
ATOM     32  C   UNL A   1      38.002  29.766  27.511  1.00  0.00     0.010 A 
ATOM     33  C   UNL A   1      37.410  29.257  29.803  1.00  0.00     0.010 A 
ATOM     34  C   UNL A   1      38.384  29.353  28.798  1.00  0.00    -0.014 A 
BRANCH  34  35
ATOM     35  C   UNL A   1      39.797  29.019  29.110  1.00  0.00     0.031 A 
ATOM     36  C   UNL A   1      40.706  30.058  29.708  1.00  0.00     0.074 A 
ATOM     37  C   UNL A   1      40.276  27.799  28.794  1.00  0.00     0.049 A 
ATOM     38  N   UNL A   1      41.979  29.974  29.994  1.00  0.00    -0.248 NA
ATOM     39  C   UNL A   1      40.113  31.374  29.995  1.00  0.00     0.031 C 
ATOM     40  C   UNL A   1      39.505  26.727  28.159  1.00  0.00     0.029 A 
ATOM     41  N   UNL A   1      41.527  27.259  28.950  1.00  0.00    -0.354 N 
ATOM     42  C   UNL A   1      42.343  31.224  30.478  1.00  0.00     0.074 A 
ATOM     43  C   UNL A   1      41.169  32.066  30.398  1.00  0.00     0.031 C 
ATOM     44  C   UNL A   1      40.295  25.654  27.997  1.00  0.00     0.029 A 
ATOM     45  C   UNL A   1      41.636  25.972  28.479  1.00  0.00     0.049 A 
ATOM     46  H   UNL A   1      42.277  27.747  29.361  1.00  0.00     0.167 HD
ATOM     47  C   UNL A   1      43.542  31.628  30.965  1.00  0.00     0.037 A 
ATOM     48  C   UNL A   1      42.697  25.143  28.432  1.00  0.00     0.037 A 
ATOM     49  C   UNL A   1      44.698  30.776  31.064  1.00  0.00     0.049 A 
ATOM     50  C   UNL A   1      44.014  25.609  28.990  1.00  0.00     0.074 A 
ATOM     51  C   UNL A   1      45.936  31.066  31.608  1.00  0.00     0.029 A 
ATOM     52  N   UNL A   1      44.761  29.468  30.603  1.00  0.00    -0.354 N 
ATOM     53  N   UNL A   1      44.321  26.771  29.515  1.00  0.00    -0.248 NA
ATOM     54  C   UNL A   1      45.127  24.651  28.956  1.00  0.00     0.031 C 
ATOM     55  C   UNL A   1      46.764  29.953  31.430  1.00  0.00     0.029 A 
ATOM     56  C   UNL A   1      46.025  28.947  30.826  1.00  0.00     0.049 A 
ATOM     57  H   UNL A   1      44.016  28.982  30.181  1.00  0.00     0.167 HD
ATOM     58  C   UNL A   1      45.654  26.676  29.897  1.00  0.00     0.074 A 
ATOM     59  C   UNL A   1      46.091  25.338  29.554  1.00  0.00     0.031 C 
ATOM     60  C   UNL A   1      46.444  27.611  30.480  1.00  0.00     0.037 A 
BRANCH  47  61
ATOM     61  C   UNL A   1      43.665  33.056  31.426  1.00  0.00     0.058 A 
ATOM     62  C   UNL A   1      43.484  33.419  32.771  1.00  0.00     0.135 A 
ATOM     63  C   UNL A   1      44.000  34.073  30.516  1.00  0.00     0.135 A 
ATOM     64  F   UNL A   1      43.149  32.493  33.682  1.00  0.00    -0.206 F 
ATOM     65  C   UNL A   1      43.600  34.740  33.190  1.00  0.00     0.059 A 
ATOM     66  C   UNL A   1      44.151  35.396  30.918  1.00  0.00     0.059 A 
ATOM     67  F   UNL A   1      44.184  33.784  29.217  1.00  0.00    -0.206 F 
ATOM     68  C   UNL A   1      43.933  35.722  32.256  1.00  0.00     0.060 A 
BRANCH  68  69
ATOM     69  S   UNL A   1      44.079  37.432  32.818  1.00  0.00     0.124 S 
ATOM     70  O   UNL A   1      43.945  38.164  31.562  1.00  0.00    -0.237 OA
ATOM     71  O   UNL A   1      42.957  37.554  33.743  1.00  0.00    -0.237 OA
ATOM     72  O   UNL A   1      45.402  37.476  33.433  1.00  0.00    -0.744 OA
ENDBRANCH  68  69
ENDBRANCH  47  61
BRANCH  48  73
ATOM     73  C   UNL A   1      42.546  23.783  27.849  1.00  0.00     0.058 A 
ATOM     74  C   UNL A   1      42.454  22.649  28.669  1.00  0.00     0.135 A 
ATOM     75  C   UNL A   1      42.463  23.593  26.460  1.00  0.00     0.135 A 
ATOM     76  F   UNL A   1      42.535  22.778  30.002  1.00  0.00    -0.206 F 
ATOM     77  C   UNL A   1      42.297  21.375  28.135  1.00  0.00     0.059 A 
ATOM     78  C   UNL A   1      42.279  22.332  25.904  1.00  0.00     0.059 A 
ATOM     79  F   UNL A   1      42.527  24.648  25.632  1.00  0.00    -0.206 F 
ATOM     80  C   UNL A   1      42.205  21.227  26.750  1.00  0.00     0.060 A 
BRANCH  80  81
ATOM     81  S   UNL A   1      41.941  19.574  26.070  1.00  0.00     0.124 S 
ATOM     82  O   UNL A   1      42.354  18.729  27.184  1.00  0.00    -0.237 OA
ATOM     83  O   UNL A   1      40.512  19.590  25.773  1.00  0.00    -0.237 OA
ATOM     84  O   UNL A   1      42.815  19.551  24.900  1.00  0.00    -0.744 OA
ENDBRANCH  80  81
ENDBRANCH  48  73
BRANCH  60  85
ATOM     85  C   UNL A   1      47.858  27.215  30.813  1.00  0.00     0.058 A 
ATOM     86  C   UNL A   1      48.206  26.711  32.075  1.00  0.00     0.135 A 
ATOM     87  C   UNL A   1      48.864  27.291  29.837  1.00  0.00     0.135 A 
ATOM     88  F   UNL A   1      47.283  26.623  33.047  1.00  0.00    -0.206 F 
ATOM     89  C   UNL A   1      49.509  26.318  32.366  1.00  0.00     0.059 A 
ATOM     90  C   UNL A   1      50.166  26.876  30.096  1.00  0.00     0.059 A 
ATOM     91  F   UNL A   1      48.582  27.756  28.609  1.00  0.00    -0.206 F 
ATOM     92  C   UNL A   1      50.481  26.402  31.367  1.00  0.00     0.060 A 
BRANCH  92  93
ATOM     93  S   UNL A   1      52.159  25.856  31.747  1.00  0.00     0.124 S 
ATOM     94  O   UNL A   1      52.855  26.147  30.498  1.00  0.00    -0.237 OA
ATOM     95  O   UNL A   1      52.514  26.703  32.883  1.00  0.00    -0.237 OA
ATOM     96  O   UNL A   1      51.994  24.440  32.059  1.00  0.00    -0.744 OA
ENDBRANCH  92  93
ENDBRANCH  60  85
ENDBRANCH  34  35
ENDBRANCH  26  29
ENDBRANCH  24  25
ENDBRANCH  23  24
ENDBRANCH   1  23
TORSDOF 17
ENDMDL
