MODEL 1
REMARK VINA RESULT:     -12.0      0.000      0.000
REMARK SMILES Cc1cc(C[N@H+]2CC[C@](C)(C(=O)NCCCCCCNC(=O)c3ccc(-c4c5nc(c(-c6c(F)cc(S(=O)(=O)[O-])cc6F)c6ccc([nH]6)c(-c6c(F)cc(S(=O)(=O)[O-])cc6F)c6nc(c(-c7c(F)cc(S(=O)(=O)[O-])cc7F)c7ccc4[nH]7)C=C6)C=C5)cc3)C2)c2ccccc2n1
REMARK SMILES IDX 17 1 16 2 15 3 14 4 13 5 11 6 12 7 9 9 6 10 7 11 89 12 8 14
REMARK SMILES IDX 10 15 5 16 4 17 1 18 2 19 3 20 96 21 95 22 90 23 94 24 91 25
REMARK SMILES IDX 93 26 92 27 18 28 19 29 20 30 21 31 22 33 23 34 24 35 88 36
REMARK SMILES IDX 25 37 87 38 26 39 27 40 28 41 81 42 29 43 86 44 80 45 82 46
REMARK SMILES IDX 30 47 85 48 79 49 78 50 31 52 65 53 44 54 64 55 45 56 48 57
REMARK SMILES IDX 63 58 83 59 46 60 47 61 62 63 84 64 49 65 32 66 33 67 42 68
REMARK SMILES IDX 34 69 35 70 41 71 43 72 36 73 37 74 38 75 39 76 40 77 66 78
REMARK SMILES IDX 67 79 76 80 68 81 69 82 75 83 77 84 70 85 71 86 72 87 73 88
REMARK SMILES IDX 74 89 50 90 51 91 60 92 52 93 53 94 59 95 61 96 54 97 55 98
REMARK SMILES IDX 56 99 57 100 58 101
REMARK H PARENT 13 8 6 13 20 32 82 51 48 62
REMARK Flexibility Score: inf
ROOT
ATOM      1  C   UNL A   1      33.305  30.448  26.939  1.00  0.00     0.002 C 
ENDROOT
BRANCH   1   2
ATOM      2  C   UNL A   1      32.524  29.281  26.323  1.00  0.00     0.002 C 
BRANCH   2   3
ATOM      3  C   UNL A   1      31.420  29.679  25.339  1.00  0.00     0.021 C 
BRANCH   3   4
ATOM      4  C   UNL A   1      31.406  28.869  24.044  1.00  0.00     0.116 C 
BRANCH   4   5
ATOM      5  N   UNL A   1      30.170  28.122  23.859  1.00  0.00    -0.355 N 
ATOM      6  C   UNL A   1      29.922  26.776  23.822  1.00  0.00     0.231 C 
ATOM      7  O   UNL A   1      28.744  26.421  23.729  1.00  0.00    -0.274 OA
ATOM      8  H   UNL A   1      29.371  28.684  23.739  1.00  0.00     0.163 HD
BRANCH   6   9
ATOM      9  C   UNL A   1      31.064  25.761  23.918  1.00  0.00     0.100 C 
ATOM     10  N   UNL A   1      32.966  25.430  25.383  1.00  0.00    -0.330 N 
ATOM     11  C   UNL A   1      33.451  25.445  24.010  1.00  0.00     0.263 C 
ATOM     12  C   UNL A   1      31.523  25.637  25.374  1.00  0.00     0.279 C 
ATOM     13  H   UNL A   1      33.412  26.219  25.851  1.00  0.00     0.348 HD
ATOM     14  C   UNL A   1      32.376  26.241  23.267  1.00  0.00     0.084 C 
ATOM     15  C   UNL A   1      30.651  24.440  23.238  1.00  0.00     0.028 C 
BRANCH  10  16
ATOM     16  C   UNL A   1      33.484  24.419  26.309  1.00  0.00     0.299 C 
BRANCH  16  17
ATOM     17  C   UNL A   1      34.021  23.138  25.692  1.00  0.00     0.017 A 
ATOM     18  C   UNL A   1      32.579  19.922  24.293  1.00  0.00     0.067 C 
ATOM     19  C   UNL A   1      33.530  20.937  24.847  1.00  0.00     0.038 A 
ATOM     20  C   UNL A   1      33.086  22.174  25.282  1.00  0.00     0.033 A 
ATOM     21  N   UNL A   1      34.830  20.582  24.893  1.00  0.00    -0.253 NA
ATOM     22  C   UNL A   1      35.742  21.503  25.242  1.00  0.00     0.071 A 
ATOM     23  C   UNL A   1      35.403  22.835  25.561  1.00  0.00     0.009 A 
ATOM     24  C   UNL A   1      37.076  21.118  25.289  1.00  0.00     0.029 A 
ATOM     25  C   UNL A   1      36.460  23.765  25.724  1.00  0.00     0.011 A 
ATOM     26  C   UNL A   1      38.101  22.024  25.569  1.00  0.00     0.002 A 
ATOM     27  C   UNL A   1      37.795  23.361  25.750  1.00  0.00     0.001 A 
ENDBRANCH  16  17
ENDBRANCH  10  16
ENDBRANCH   6   9
ENDBRANCH   4   5
ENDBRANCH   3   4
ENDBRANCH   2   3
ENDBRANCH   1   2
BRANCH   1  28
ATOM     28  C   UNL A   1      34.634  30.077  27.603  1.00  0.00     0.021 C 
BRANCH  28  29
ATOM     29  C   UNL A   1      35.464  31.262  28.088  1.00  0.00     0.116 C 
BRANCH  29  30
ATOM     30  N   UNL A   1      35.359  31.456  29.526  1.00  0.00    -0.352 N 
ATOM     31  C   UNL A   1      36.214  31.049  30.525  1.00  0.00     0.251 C 
ATOM     32  H   UNL A   1      34.564  31.951  29.827  1.00  0.00     0.163 HD
ATOM     33  O   UNL A   1      35.881  31.143  31.697  1.00  0.00    -0.269 OA
BRANCH  31  34
ATOM     34  C   UNL A   1      37.532  30.477  30.167  1.00  0.00     0.039 A 
ATOM     35  C   UNL A   1      37.943  30.499  28.832  1.00  0.00     0.014 A 
ATOM     36  C   UNL A   1      38.356  29.927  31.150  1.00  0.00     0.014 A 
ATOM     37  C   UNL A   1      39.217  30.035  28.491  1.00  0.00     0.010 A 
ATOM     38  C   UNL A   1      39.646  29.519  30.819  1.00  0.00     0.010 A 
ATOM     39  C   UNL A   1      40.091  29.573  29.487  1.00  0.00    -0.014 A 
BRANCH  39  40
ATOM     40  C   UNL A   1      41.479  29.135  29.184  1.00  0.00     0.031 A 
ATOM     41  C   UNL A   1      42.588  30.152  29.171  1.00  0.00     0.074 A 
ATOM     42  C   UNL A   1      41.716  27.863  28.810  1.00  0.00     0.049 A 
ATOM     43  N   UNL A   1      43.816  30.028  28.740  1.00  0.00    -0.248 NA
ATOM     44  C   UNL A   1      42.263  31.495  29.682  1.00  0.00     0.031 C 
ATOM     45  C   UNL A   1      40.719  26.791  28.760  1.00  0.00     0.029 A 
ATOM     46  N   UNL A   1      42.869  27.259  28.367  1.00  0.00    -0.354 N 
ATOM     47  C   UNL A   1      44.398  31.281  28.889  1.00  0.00     0.074 A 
ATOM     48  C   UNL A   1      43.383  32.158  29.431  1.00  0.00     0.031 C 
ATOM     49  C   UNL A   1      41.301  25.665  28.312  1.00  0.00     0.029 A 
ATOM     50  C   UNL A   1      42.698  25.945  27.994  1.00  0.00     0.049 A 
ATOM     51  H   UNL A   1      43.735  27.723  28.322  1.00  0.00     0.167 HD
ATOM     52  C   UNL A   1      45.665  31.660  28.605  1.00  0.00     0.037 A 
ATOM     53  C   UNL A   1      43.560  25.075  27.433  1.00  0.00     0.037 A 
ATOM     54  C   UNL A   1      46.682  30.767  28.120  1.00  0.00     0.049 A 
ATOM     55  C   UNL A   1      44.968  25.525  27.132  1.00  0.00     0.074 A 
ATOM     56  C   UNL A   1      48.018  31.038  27.881  1.00  0.00     0.029 A 
ATOM     57  N   UNL A   1      46.480  29.433  27.804  1.00  0.00    -0.354 N 
ATOM     58  N   UNL A   1      45.516  26.699  27.333  1.00  0.00    -0.248 NA
ATOM     59  C   UNL A   1      45.873  24.538  26.526  1.00  0.00     0.031 C 
ATOM     60  C   UNL A   1      48.616  29.879  27.381  1.00  0.00     0.029 A 
ATOM     61  C   UNL A   1      47.664  28.872  27.354  1.00  0.00     0.049 A 
ATOM     62  H   UNL A   1      45.624  28.954  27.887  1.00  0.00     0.167 HD
ATOM     63  C   UNL A   1      46.840  26.575  26.924  1.00  0.00     0.074 A 
ATOM     64  C   UNL A   1      47.010  25.217  26.456  1.00  0.00     0.031 C 
ATOM     65  C   UNL A   1      47.827  27.503  26.938  1.00  0.00     0.037 A 
BRANCH  52  66
ATOM     66  C   UNL A   1      46.041  33.101  28.810  1.00  0.00     0.058 A 
ATOM     67  C   UNL A   1      46.588  33.556  30.018  1.00  0.00     0.135 A 
ATOM     68  C   UNL A   1      45.936  34.015  27.749  1.00  0.00     0.135 A 
ATOM     69  F   UNL A   1      46.695  32.726  31.068  1.00  0.00    -0.206 F 
ATOM     70  C   UNL A   1      47.015  34.872  30.171  1.00  0.00     0.059 A 
ATOM     71  C   UNL A   1      46.379  35.330  27.871  1.00  0.00     0.059 A 
ATOM     72  F   UNL A   1      45.416  33.630  26.573  1.00  0.00    -0.206 F 
ATOM     73  C   UNL A   1      46.912  35.749  29.089  1.00  0.00     0.060 A 
BRANCH  73  74
ATOM     74  S   UNL A   1      47.514  37.438  29.290  1.00  0.00     0.124 S 
ATOM     75  O   UNL A   1      47.238  38.004  27.973  1.00  0.00    -0.237 OA
ATOM     76  O   UNL A   1      46.681  37.938  30.380  1.00  0.00    -0.237 OA
ATOM     77  O   UNL A   1      48.926  37.262  29.614  1.00  0.00    -0.744 OA
ENDBRANCH  73  74
ENDBRANCH  52  66
BRANCH  53  78
ATOM     78  C   UNL A   1      43.131  23.689  27.106  1.00  0.00     0.058 A 
ATOM     79  C   UNL A   1      43.011  22.717  28.112  1.00  0.00     0.135 A 
ATOM     80  C   UNL A   1      42.866  23.296  25.786  1.00  0.00     0.135 A 
ATOM     81  F   UNL A   1      43.257  23.043  29.390  1.00  0.00    -0.206 F 
ATOM     82  C   UNL A   1      42.680  21.399  27.818  1.00  0.00     0.059 A 
ATOM     83  C   UNL A   1      42.508  21.989  25.468  1.00  0.00     0.059 A 
ATOM     84  F   UNL A   1      42.948  24.190  24.788  1.00  0.00    -0.206 F 
ATOM     85  C   UNL A   1      42.437  21.043  26.491  1.00  0.00     0.060 A 
BRANCH  85  86
ATOM     86  S   UNL A   1      42.007  19.329  26.116  1.00  0.00     0.124 S 
ATOM     87  O   UNL A   1      42.373  18.658  27.358  1.00  0.00    -0.237 OA
ATOM     88  O   UNL A   1      40.578  19.423  25.838  1.00  0.00    -0.237 OA
ATOM     89  O   UNL A   1      42.844  19.021  24.959  1.00  0.00    -0.744 OA
ENDBRANCH  85  86
ENDBRANCH  53  78
BRANCH  65  90
ATOM     90  C   UNL A   1      49.203  27.080  26.512  1.00  0.00     0.058 A 
ATOM     91  C   UNL A   1      50.109  26.499  27.411  1.00  0.00     0.135 A 
ATOM     92  C   UNL A   1      49.570  27.153  25.158  1.00  0.00     0.135 A 
ATOM     93  F   UNL A   1      49.807  26.415  28.716  1.00  0.00    -0.206 F 
ATOM     94  C   UNL A   1      51.333  25.998  26.980  1.00  0.00     0.059 A 
ATOM     95  C   UNL A   1      50.778  26.637  24.702  1.00  0.00     0.059 A 
ATOM     96  F   UNL A   1      48.733  27.694  24.259  1.00  0.00    -0.206 F 
ATOM     97  C   UNL A   1      51.654  26.061  25.622  1.00  0.00     0.060 A 
BRANCH  97  98
ATOM     98  S   UNL A   1      53.204  25.325  25.062  1.00  0.00     0.124 S 
ATOM     99  O   UNL A   1      53.111  25.504  23.617  1.00  0.00    -0.237 OA
ATOM    100  O   UNL A   1      54.203  26.146  25.739  1.00  0.00    -0.237 OA
ATOM    101  O   UNL A   1      53.114  23.945  25.531  1.00  0.00    -0.744 OA
ENDBRANCH  97  98
ENDBRANCH  65  90
ENDBRANCH  39  40
ENDBRANCH  31  34
ENDBRANCH  29  30
ENDBRANCH  28  29
ENDBRANCH   1  28
TORSDOF 18
ENDMDL
MODEL 2
REMARK VINA RESULT:     -12.0      0.742      8.120
REMARK SMILES Cc1cc(C[N@H+]2CC[C@](C)(C(=O)NCCCCCCNC(=O)c3ccc(-c4c5nc(c(-c6c(F)cc(S(=O)(=O)[O-])cc6F)c6ccc([nH]6)c(-c6c(F)cc(S(=O)(=O)[O-])cc6F)c6nc(c(-c7c(F)cc(S(=O)(=O)[O-])cc7F)c7ccc4[nH]7)C=C6)C=C5)cc3)C2)c2ccccc2n1
REMARK SMILES IDX 17 1 16 2 15 3 14 4 13 5 11 6 12 7 9 9 6 10 7 11 89 12 8 14
REMARK SMILES IDX 10 15 5 16 4 17 1 18 2 19 3 20 96 21 95 22 90 23 94 24 91 25
REMARK SMILES IDX 93 26 92 27 18 28 19 29 20 30 21 31 22 33 23 34 24 35 88 36
REMARK SMILES IDX 25 37 87 38 26 39 27 40 28 41 81 42 29 43 86 44 80 45 82 46
REMARK SMILES IDX 30 47 85 48 79 49 78 50 31 52 65 53 44 54 64 55 45 56 48 57
REMARK SMILES IDX 63 58 83 59 46 60 47 61 62 63 84 64 49 65 32 66 33 67 42 68
REMARK SMILES IDX 34 69 35 70 41 71 43 72 36 73 37 74 38 75 39 76 40 77 66 78
REMARK SMILES IDX 67 79 76 80 68 81 69 82 75 83 77 84 70 85 71 86 72 87 73 88
REMARK SMILES IDX 74 89 50 90 51 91 60 92 52 93 53 94 59 95 61 96 54 97 55 98
REMARK SMILES IDX 56 99 57 100 58 101
REMARK H PARENT 13 8 6 13 20 32 82 51 48 62
REMARK Flexibility Score: inf
ROOT
ATOM      1  C   UNL A   1      32.850  29.776  27.255  1.00  0.00     0.002 C 
ENDROOT
BRANCH   1   2
ATOM      2  C   UNL A   1      31.906  29.014  26.317  1.00  0.00     0.002 C 
BRANCH   2   3
ATOM      3  C   UNL A   1      31.597  29.712  24.990  1.00  0.00     0.021 C 
BRANCH   3   4
ATOM      4  C   UNL A   1      31.449  28.768  23.799  1.00  0.00     0.116 C 
BRANCH   4   5
ATOM      5  N   UNL A   1      30.204  28.013  23.829  1.00  0.00    -0.355 N 
ATOM      6  C   UNL A   1      29.962  26.671  23.956  1.00  0.00     0.231 C 
ATOM      7  O   UNL A   1      28.783  26.316  24.030  1.00  0.00    -0.274 OA
ATOM      8  H   UNL A   1      29.393  28.564  23.741  1.00  0.00     0.163 HD
BRANCH   6   9
ATOM      9  C   UNL A   1      31.113  25.665  24.027  1.00  0.00     0.100 C 
ATOM     10  N   UNL A   1      32.995  25.290  25.509  1.00  0.00    -0.330 N 
ATOM     11  C   UNL A   1      33.501  25.370  24.147  1.00  0.00     0.263 C 
ATOM     12  C   UNL A   1      31.549  25.483  25.484  1.00  0.00     0.279 C 
ATOM     13  H   UNL A   1      33.424  26.063  26.018  1.00  0.00     0.348 HD
ATOM     14  C   UNL A   1      32.430  26.187  23.420  1.00  0.00     0.084 C 
ATOM     15  C   UNL A   1      30.726  24.371  23.284  1.00  0.00     0.028 C 
BRANCH  10  16
ATOM     16  C   UNL A   1      33.508  24.245  26.399  1.00  0.00     0.299 C 
BRANCH  16  17
ATOM     17  C   UNL A   1      34.050  22.989  25.737  1.00  0.00     0.017 A 
ATOM     18  C   UNL A   1      32.622  19.814  24.234  1.00  0.00     0.067 C 
ATOM     19  C   UNL A   1      33.569  20.815  24.819  1.00  0.00     0.038 A 
ATOM     20  C   UNL A   1      33.119  22.035  25.298  1.00  0.00     0.033 A 
ATOM     21  N   UNL A   1      34.872  20.467  24.849  1.00  0.00    -0.253 NA
ATOM     22  C   UNL A   1      35.780  21.381  25.226  1.00  0.00     0.071 A 
ATOM     23  C   UNL A   1      35.433  22.699  25.591  1.00  0.00     0.009 A 
ATOM     24  C   UNL A   1      37.116  21.003  25.256  1.00  0.00     0.029 A 
ATOM     25  C   UNL A   1      36.486  23.629  25.782  1.00  0.00     0.011 A 
ATOM     26  C   UNL A   1      38.136  21.904  25.563  1.00  0.00     0.002 A 
ATOM     27  C   UNL A   1      37.823  23.233  25.791  1.00  0.00     0.001 A 
ENDBRANCH  16  17
ENDBRANCH  10  16
ENDBRANCH   6   9
ENDBRANCH   4   5
ENDBRANCH   3   4
ENDBRANCH   2   3
ENDBRANCH   1   2
BRANCH   1  28
ATOM     28  C   UNL A   1      34.279  29.233  27.340  1.00  0.00     0.021 C 
BRANCH  28  29
ATOM     29  C   UNL A   1      35.324  30.242  27.808  1.00  0.00     0.116 C 
BRANCH  29  30
ATOM     30  N   UNL A   1      35.344  30.383  29.256  1.00  0.00    -0.352 N 
ATOM     31  C   UNL A   1      36.331  30.039  30.152  1.00  0.00     0.251 C 
ATOM     32  H   UNL A   1      34.537  30.783  29.652  1.00  0.00     0.163 HD
ATOM     33  O   UNL A   1      36.110  30.065  31.352  1.00  0.00    -0.269 OA
BRANCH  31  34
ATOM     34  C   UNL A   1      37.658  29.620  29.646  1.00  0.00     0.039 A 
ATOM     35  C   UNL A   1      37.930  29.723  28.279  1.00  0.00     0.014 A 
ATOM     36  C   UNL A   1      38.629  29.133  30.523  1.00  0.00     0.014 A 
ATOM     37  C   UNL A   1      39.204  29.405  27.799  1.00  0.00     0.010 A 
ATOM     38  C   UNL A   1      39.914  28.873  30.054  1.00  0.00     0.010 A 
ATOM     39  C   UNL A   1      40.216  29.011  28.688  1.00  0.00    -0.014 A 
BRANCH  39  40
ATOM     40  C   UNL A   1      41.603  28.731  28.235  1.00  0.00     0.031 A 
ATOM     41  C   UNL A   1      41.975  27.336  27.812  1.00  0.00     0.074 A 
ATOM     42  C   UNL A   1      42.545  29.691  28.317  1.00  0.00     0.049 A 
ATOM     43  N   UNL A   1      43.159  26.832  27.580  1.00  0.00    -0.248 NA
ATOM     44  C   UNL A   1      40.871  26.372  27.661  1.00  0.00     0.031 C 
ATOM     45  C   UNL A   1      42.312  31.077  28.735  1.00  0.00     0.029 A 
ATOM     46  N   UNL A   1      43.898  29.642  28.083  1.00  0.00    -0.354 N 
ATOM     47  C   UNL A   1      42.948  25.487  27.295  1.00  0.00     0.074 A 
ATOM     48  C   UNL A   1      41.526  25.248  27.404  1.00  0.00     0.031 C 
ATOM     49  C   UNL A   1      43.480  31.742  28.729  1.00  0.00     0.029 A 
ATOM     50  C   UNL A   1      44.551  30.823  28.357  1.00  0.00     0.049 A 
ATOM     51  H   UNL A   1      44.357  28.838  27.750  1.00  0.00     0.167 HD
ATOM     52  C   UNL A   1      43.860  24.544  26.966  1.00  0.00     0.037 A 
ATOM     53  C   UNL A   1      45.865  31.121  28.340  1.00  0.00     0.037 A 
ATOM     54  C   UNL A   1      45.265  24.804  26.805  1.00  0.00     0.049 A 
ATOM     55  C   UNL A   1      46.858  30.050  27.965  1.00  0.00     0.074 A 
ATOM     56  C   UNL A   1      46.258  23.932  26.393  1.00  0.00     0.029 A 
ATOM     57  N   UNL A   1      45.878  26.025  27.043  1.00  0.00    -0.354 N 
ATOM     58  N   UNL A   1      46.634  28.798  27.643  1.00  0.00    -0.248 NA
ATOM     59  C   UNL A   1      48.279  30.426  27.954  1.00  0.00     0.031 C 
ATOM     60  C   UNL A   1      47.476  24.613  26.422  1.00  0.00     0.029 A 
ATOM     61  C   UNL A   1      47.237  25.923  26.804  1.00  0.00     0.049 A 
ATOM     62  H   UNL A   1      45.415  26.843  27.337  1.00  0.00     0.167 HD
ATOM     63  C   UNL A   1      47.879  28.254  27.346  1.00  0.00     0.074 A 
ATOM     64  C   UNL A   1      48.854  29.307  27.532  1.00  0.00     0.031 C 
ATOM     65  C   UNL A   1      48.187  26.996  26.949  1.00  0.00     0.037 A 
BRANCH  52  66
ATOM     66  C   UNL A   1      43.382  23.135  26.751  1.00  0.00     0.058 A 
ATOM     67  C   UNL A   1      43.315  22.566  25.471  1.00  0.00     0.135 A 
ATOM     68  C   UNL A   1      43.077  22.318  27.852  1.00  0.00     0.135 A 
ATOM     69  F   UNL A   1      43.582  23.309  24.386  1.00  0.00    -0.206 F 
ATOM     70  C   UNL A   1      42.956  21.234  25.288  1.00  0.00     0.059 A 
ATOM     71  C   UNL A   1      42.739  20.977  27.694  1.00  0.00     0.059 A 
ATOM     72  F   UNL A   1      43.123  22.816  29.097  1.00  0.00    -0.206 F 
ATOM     73  C   UNL A   1      42.676  20.446  26.406  1.00  0.00     0.060 A 
BRANCH  73  74
ATOM     74  S   UNL A   1      42.258  18.709  26.154  1.00  0.00     0.124 S 
ATOM     75  O   UNL A   1      43.234  18.319  25.141  1.00  0.00    -0.237 OA
ATOM     76  O   UNL A   1      42.464  18.142  27.483  1.00  0.00    -0.237 OA
ATOM     77  O   UNL A   1      40.870  18.754  25.703  1.00  0.00    -0.744 OA
ENDBRANCH  73  74
ENDBRANCH  52  66
BRANCH  53  78
ATOM     78  C   UNL A   1      46.335  32.488  28.692  1.00  0.00     0.058 A 
ATOM     79  C   UNL A   1      46.453  33.484  27.709  1.00  0.00     0.135 A 
ATOM     80  C   UNL A   1      46.709  32.819  30.003  1.00  0.00     0.135 A 
ATOM     81  F   UNL A   1      46.111  33.214  26.440  1.00  0.00    -0.206 F 
ATOM     82  C   UNL A   1      46.957  34.745  28.005  1.00  0.00     0.059 A 
ATOM     83  C   UNL A   1      47.192  34.083  30.330  1.00  0.00     0.059 A 
ATOM     84  F   UNL A   1      46.598  31.910  30.985  1.00  0.00    -0.206 F 
ATOM     85  C   UNL A   1      47.330  35.033  29.318  1.00  0.00     0.060 A 
BRANCH  85  86
ATOM     86  S   UNL A   1      47.984  36.674  29.695  1.00  0.00     0.124 S 
ATOM     87  O   UNL A   1      48.985  36.838  28.647  1.00  0.00    -0.237 OA
ATOM     88  O   UNL A   1      46.796  37.513  29.581  1.00  0.00    -0.237 OA
ATOM     89  O   UNL A   1      48.506  36.522  31.051  1.00  0.00    -0.744 OA
ENDBRANCH  85  86
ENDBRANCH  53  78
BRANCH  65  90
ATOM     90  C   UNL A   1      49.617  26.690  26.610  1.00  0.00     0.058 A 
ATOM     91  C   UNL A   1      50.492  26.118  27.544  1.00  0.00     0.135 A 
ATOM     92  C   UNL A   1      50.079  26.867  25.295  1.00  0.00     0.135 A 
ATOM     93  F   UNL A   1      50.100  25.937  28.816  1.00  0.00    -0.206 F 
ATOM     94  C   UNL A   1      51.777  25.725  27.185  1.00  0.00     0.059 A 
ATOM     95  C   UNL A   1      51.351  26.459  24.908  1.00  0.00     0.059 A 
ATOM     96  F   UNL A   1      49.275  27.405  24.364  1.00  0.00    -0.206 F 
ATOM     97  C   UNL A   1      52.193  25.889  25.861  1.00  0.00     0.060 A 
BRANCH  97  98
ATOM     98  S   UNL A   1      53.829  25.291  25.386  1.00  0.00     0.124 S 
ATOM     99  O   UNL A   1      54.675  25.909  26.402  1.00  0.00    -0.237 OA
ATOM    100  O   UNL A   1      53.673  23.842  25.487  1.00  0.00    -0.237 OA
ATOM    101  O   UNL A   1      53.998  25.803  24.030  1.00  0.00    -0.744 OA
ENDBRANCH  97  98
ENDBRANCH  65  90
ENDBRANCH  39  40
ENDBRANCH  31  34
ENDBRANCH  29  30
ENDBRANCH  28  29
ENDBRANCH   1  28
TORSDOF 18
ENDMDL
MODEL 3
REMARK VINA RESULT:     -11.9      0.989      1.877
REMARK SMILES Cc1cc(C[N@H+]2CC[C@](C)(C(=O)NCCCCCCNC(=O)c3ccc(-c4c5nc(c(-c6c(F)cc(S(=O)(=O)[O-])cc6F)c6ccc([nH]6)c(-c6c(F)cc(S(=O)(=O)[O-])cc6F)c6nc(c(-c7c(F)cc(S(=O)(=O)[O-])cc7F)c7ccc4[nH]7)C=C6)C=C5)cc3)C2)c2ccccc2n1
REMARK SMILES IDX 17 1 16 2 15 3 14 4 13 5 11 6 12 7 9 9 6 10 7 11 89 12 8 14
REMARK SMILES IDX 10 15 5 16 4 17 1 18 2 19 3 20 96 21 95 22 90 23 94 24 91 25
REMARK SMILES IDX 93 26 92 27 18 28 19 29 20 30 21 31 22 33 23 34 24 35 88 36
REMARK SMILES IDX 25 37 87 38 26 39 27 40 28 41 81 42 29 43 86 44 80 45 82 46
REMARK SMILES IDX 30 47 85 48 79 49 78 50 31 52 65 53 44 54 64 55 45 56 48 57
REMARK SMILES IDX 63 58 83 59 46 60 47 61 62 63 84 64 49 65 32 66 33 67 42 68
REMARK SMILES IDX 34 69 35 70 41 71 43 72 36 73 37 74 38 75 39 76 40 77 66 78
REMARK SMILES IDX 67 79 76 80 68 81 69 82 75 83 77 84 70 85 71 86 72 87 73 88
REMARK SMILES IDX 74 89 50 90 51 91 60 92 52 93 53 94 59 95 61 96 54 97 55 98
REMARK SMILES IDX 56 99 57 100 58 101
REMARK H PARENT 13 8 6 13 20 32 82 51 48 62
REMARK Flexibility Score: inf
ROOT
ATOM      1  C   UNL A   1      34.288  28.886  26.413  1.00  0.00     0.002 C 
ENDROOT
BRANCH   1   2
ATOM      2  C   UNL A   1      33.115  29.848  26.190  1.00  0.00     0.002 C 
BRANCH   2   3
ATOM      3  C   UNL A   1      31.784  29.185  25.825  1.00  0.00     0.021 C 
BRANCH   3   4
ATOM      4  C   UNL A   1      31.402  29.306  24.351  1.00  0.00     0.116 C 
BRANCH   4   5
ATOM      5  N   UNL A   1      32.559  29.306  23.466  1.00  0.00    -0.355 N 
ATOM      6  C   UNL A   1      33.131  28.308  22.725  1.00  0.00     0.231 C 
ATOM      7  O   UNL A   1      34.074  28.619  21.992  1.00  0.00    -0.274 OA
ATOM      8  H   UNL A   1      33.009  30.178  23.389  1.00  0.00     0.163 HD
BRANCH   6   9
ATOM      9  C   UNL A   1      32.600  26.874  22.789  1.00  0.00     0.100 C 
ATOM     10  N   UNL A   1      33.444  24.752  23.602  1.00  0.00    -0.330 N 
ATOM     11  C   UNL A   1      33.008  24.568  22.224  1.00  0.00     0.263 C 
ATOM     12  C   UNL A   1      33.231  26.144  23.979  1.00  0.00     0.279 C 
ATOM     13  H   UNL A   1      34.444  24.554  23.612  1.00  0.00     0.348 HD
ATOM     14  C   UNL A   1      33.094  25.978  21.637  1.00  0.00     0.084 C 
ATOM     15  C   UNL A   1      31.058  26.883  22.758  1.00  0.00     0.028 C 
BRANCH  10  16
ATOM     16  C   UNL A   1      33.099  23.735  24.599  1.00  0.00     0.299 C 
BRANCH  16  17
ATOM     17  C   UNL A   1      34.168  22.705  24.923  1.00  0.00     0.017 A 
ATOM     18  C   UNL A   1      37.850  22.727  25.830  1.00  0.00     0.067 C 
ATOM     19  C   UNL A   1      36.491  22.277  25.391  1.00  0.00     0.038 A 
ATOM     20  C   UNL A   1      35.453  23.179  25.229  1.00  0.00     0.033 A 
ATOM     21  N   UNL A   1      36.338  20.956  25.168  1.00  0.00    -0.253 NA
ATOM     22  C   UNL A   1      35.109  20.479  24.915  1.00  0.00     0.071 A 
ATOM     23  C   UNL A   1      33.962  21.300  24.877  1.00  0.00     0.009 A 
ATOM     24  C   UNL A   1      34.970  19.117  24.683  1.00  0.00     0.029 A 
ATOM     25  C   UNL A   1      32.697  20.664  24.795  1.00  0.00     0.011 A 
ATOM     26  C   UNL A   1      33.724  18.520  24.486  1.00  0.00     0.002 A 
ATOM     27  C   UNL A   1      32.579  19.292  24.580  1.00  0.00     0.001 A 
ENDBRANCH  16  17
ENDBRANCH  10  16
ENDBRANCH   6   9
ENDBRANCH   4   5
ENDBRANCH   3   4
ENDBRANCH   2   3
ENDBRANCH   1   2
BRANCH   1  28
ATOM     28  C   UNL A   1      35.165  29.184  27.633  1.00  0.00     0.021 C 
BRANCH  28  29
ATOM     29  C   UNL A   1      35.452  30.663  27.873  1.00  0.00     0.116 C 
BRANCH  29  30
ATOM     30  N   UNL A   1      35.249  31.046  29.262  1.00  0.00    -0.352 N 
ATOM     31  C   UNL A   1      36.128  30.987  30.320  1.00  0.00     0.251 C 
ATOM     32  H   UNL A   1      34.356  31.398  29.476  1.00  0.00     0.163 HD
ATOM     33  O   UNL A   1      35.735  31.184  31.459  1.00  0.00    -0.269 OA
BRANCH  31  34
ATOM     34  C   UNL A   1      37.550  30.663  30.066  1.00  0.00     0.039 A 
ATOM     35  C   UNL A   1      38.348  30.222  31.124  1.00  0.00     0.014 A 
ATOM     36  C   UNL A   1      38.088  30.792  28.783  1.00  0.00     0.014 A 
ATOM     37  C   UNL A   1      39.671  29.839  30.882  1.00  0.00     0.010 A 
ATOM     38  C   UNL A   1      39.385  30.355  28.533  1.00  0.00     0.010 A 
ATOM     39  C   UNL A   1      40.189  29.870  29.579  1.00  0.00    -0.014 A 
BRANCH  39  40
ATOM     40  C   UNL A   1      41.565  29.406  29.261  1.00  0.00     0.031 A 
ATOM     41  C   UNL A   1      42.691  30.403  29.225  1.00  0.00     0.074 A 
ATOM     42  C   UNL A   1      41.776  28.127  28.894  1.00  0.00     0.049 A 
ATOM     43  N   UNL A   1      43.911  30.255  28.779  1.00  0.00    -0.248 NA
ATOM     44  C   UNL A   1      42.395  31.756  29.729  1.00  0.00     0.031 C 
ATOM     45  C   UNL A   1      40.760  27.071  28.866  1.00  0.00     0.029 A 
ATOM     46  N   UNL A   1      42.913  27.500  28.441  1.00  0.00    -0.354 N 
ATOM     47  C   UNL A   1      44.515  31.500  28.910  1.00  0.00     0.074 A 
ATOM     48  C   UNL A   1      43.523  32.398  29.458  1.00  0.00     0.031 C 
ATOM     49  C   UNL A   1      41.317  25.933  28.420  1.00  0.00     0.029 A 
ATOM     50  C   UNL A   1      42.714  26.187  28.081  1.00  0.00     0.049 A 
ATOM     51  H   UNL A   1      43.786  27.949  28.381  1.00  0.00     0.167 HD
ATOM     52  C   UNL A   1      45.785  31.855  28.607  1.00  0.00     0.037 A 
ATOM     53  C   UNL A   1      43.555  25.298  27.516  1.00  0.00     0.037 A 
ATOM     54  C   UNL A   1      46.781  30.941  28.116  1.00  0.00     0.049 A 
ATOM     55  C   UNL A   1      44.965  25.721  27.193  1.00  0.00     0.074 A 
ATOM     56  C   UNL A   1      48.118  31.187  27.857  1.00  0.00     0.029 A 
ATOM     57  N   UNL A   1      46.552  29.608  27.813  1.00  0.00    -0.354 N 
ATOM     58  N   UNL A   1      45.536  26.887  27.378  1.00  0.00    -0.248 NA
ATOM     59  C   UNL A   1      45.846  24.714  26.584  1.00  0.00     0.031 C 
ATOM     60  C   UNL A   1      48.689  30.014  27.359  1.00  0.00     0.029 A 
ATOM     61  C   UNL A   1      47.720  29.024  27.353  1.00  0.00     0.049 A 
ATOM     62  H   UNL A   1      45.690  29.144  27.912  1.00  0.00     0.167 HD
ATOM     63  C   UNL A   1      46.852  26.738  26.952  1.00  0.00     0.074 A 
ATOM     64  C   UNL A   1      46.993  25.373  26.493  1.00  0.00     0.031 C 
ATOM     65  C   UNL A   1      47.855  27.649  26.946  1.00  0.00     0.037 A 
BRANCH  52  66
ATOM     66  C   UNL A   1      46.188  33.291  28.795  1.00  0.00     0.058 A 
ATOM     67  C   UNL A   1      46.725  33.754  30.005  1.00  0.00     0.135 A 
ATOM     68  C   UNL A   1      46.120  34.190  27.718  1.00  0.00     0.135 A 
ATOM     69  F   UNL A   1      46.798  32.939  31.069  1.00  0.00    -0.206 F 
ATOM     70  C   UNL A   1      47.177  35.063  30.144  1.00  0.00     0.059 A 
ATOM     71  C   UNL A   1      46.588  35.496  27.827  1.00  0.00     0.059 A 
ATOM     72  F   UNL A   1      45.610  33.797  26.540  1.00  0.00    -0.206 F 
ATOM     73  C   UNL A   1      47.110  35.924  29.047  1.00  0.00     0.060 A 
BRANCH  73  74
ATOM     74  S   UNL A   1      47.744  37.604  29.230  1.00  0.00     0.124 S 
ATOM     75  O   UNL A   1      47.022  38.304  28.172  1.00  0.00    -0.237 OA
ATOM     76  O   UNL A   1      47.348  37.939  30.595  1.00  0.00    -0.237 OA
ATOM     77  O   UNL A   1      49.180  37.452  29.016  1.00  0.00    -0.744 OA
ENDBRANCH  73  74
ENDBRANCH  52  66
BRANCH  53  78
ATOM     78  C   UNL A   1      43.097  23.916  27.206  1.00  0.00     0.058 A 
ATOM     79  C   UNL A   1      43.006  22.945  28.216  1.00  0.00     0.135 A 
ATOM     80  C   UNL A   1      42.778  23.526  25.897  1.00  0.00     0.135 A 
ATOM     81  F   UNL A   1      43.305  23.268  29.484  1.00  0.00    -0.206 F 
ATOM     82  C   UNL A   1      42.650  21.631  27.935  1.00  0.00     0.059 A 
ATOM     83  C   UNL A   1      42.393  22.223  25.594  1.00  0.00     0.059 A 
ATOM     84  F   UNL A   1      42.831  24.420  24.896  1.00  0.00    -0.206 F 
ATOM     85  C   UNL A   1      42.351  21.278  26.619  1.00  0.00     0.060 A 
BRANCH  85  86
ATOM     86  S   UNL A   1      41.888  19.569  26.261  1.00  0.00     0.124 S 
ATOM     87  O   UNL A   1      42.641  19.312  25.039  1.00  0.00    -0.237 OA
ATOM     88  O   UNL A   1      42.349  18.869  27.455  1.00  0.00    -0.237 OA
ATOM     89  O   UNL A   1      40.438  19.642  26.107  1.00  0.00    -0.744 OA
ENDBRANCH  85  86
ENDBRANCH  53  78
BRANCH  65  90
ATOM     90  C   UNL A   1      49.218  27.199  26.506  1.00  0.00     0.058 A 
ATOM     91  C   UNL A   1      50.142  26.651  27.406  1.00  0.00     0.135 A 
ATOM     92  C   UNL A   1      49.552  27.211  25.141  1.00  0.00     0.135 A 
ATOM     93  F   UNL A   1      49.872  26.625  28.721  1.00  0.00    -0.206 F 
ATOM     94  C   UNL A   1      51.353  26.125  26.968  1.00  0.00     0.059 A 
ATOM     95  C   UNL A   1      50.746  26.668  24.679  1.00  0.00     0.059 A 
ATOM     96  F   UNL A   1      48.696  27.719  24.240  1.00  0.00    -0.206 F 
ATOM     97  C   UNL A   1      51.641  26.127  25.601  1.00  0.00     0.060 A 
BRANCH  97  98
ATOM     98  S   UNL A   1      53.173  25.358  25.036  1.00  0.00     0.124 S 
ATOM     99  O   UNL A   1      54.173  26.102  25.794  1.00  0.00    -0.237 OA
ATOM    100  O   UNL A   1      52.986  23.964  25.430  1.00  0.00    -0.237 OA
ATOM    101  O   UNL A   1      53.166  25.601  23.597  1.00  0.00    -0.744 OA
ENDBRANCH  97  98
ENDBRANCH  65  90
ENDBRANCH  39  40
ENDBRANCH  31  34
ENDBRANCH  29  30
ENDBRANCH  28  29
ENDBRANCH   1  28
TORSDOF 18
ENDMDL
