MODEL 1
REMARK VINA RESULT:     -11.3      0.000      0.000
REMARK SMILES O=C(NCCCCCCNC(=O)[C@@H](CO)NC(=O)[C@H]1CCCc2ccccc21)c1ccc(-c2c3nc(c(-c4c(F)cc(S(=O)(=O)[O-])cc4F)c4ccc([nH]4)c(-c4c(F)cc(S(=O)(=O)[O-])cc4F)c4nc(c(-c5c(F)cc(S(=O)(=O)[O-])cc5F)c5ccc2[nH]5)C=C4)C=C3)cc1
REMARK SMILES IDX 6 1 5 2 4 3 3 4 1 5 2 6 29 8 30 9 94 10 31 11 93 12 32 13
REMARK SMILES IDX 33 14 34 15 87 16 35 17 92 18 86 19 88 20 36 21 91 22 85 23
REMARK SMILES IDX 84 24 37 26 71 27 50 28 70 29 51 30 54 31 69 32 89 33 52 34
REMARK SMILES IDX 53 35 68 37 90 38 55 39 38 40 39 41 48 42 40 43 41 44 47 45
REMARK SMILES IDX 49 46 42 47 43 48 44 49 45 50 46 51 72 52 73 53 82 54 74 55
REMARK SMILES IDX 75 56 81 57 83 58 76 59 77 60 78 61 79 62 80 63 56 64 57 65
REMARK SMILES IDX 66 66 58 67 59 68 65 69 67 70 60 71 61 72 62 73 63 74 64 75
REMARK SMILES IDX 7 76 8 77 9 78 10 79 11 80 12 82 13 83 14 84 15 85 16 87
REMARK SMILES IDX 17 88 18 90 19 91 20 92 28 93 21 94 23 95 27 96 22 97 24 98
REMARK SMILES IDX 26 99 25 100
REMARK H PARENT 3 7 88 25 54 36 10 81 15 86 16 89
REMARK Flexibility Score: inf
ROOT
ATOM      1  C   UNL A   1      31.982  28.144  25.597  1.00  0.00     0.002 C 
ENDROOT
BRANCH   1   2
ATOM      2  C   UNL A   1      33.410  27.610  25.512  1.00  0.00     0.021 C 
BRANCH   2   3
ATOM      3  C   UNL A   1      34.356  28.190  26.548  1.00  0.00     0.116 C 
BRANCH   3   4
ATOM      4  N   UNL A   1      33.917  29.485  27.036  1.00  0.00    -0.352 N 
ATOM      5  O   UNL A   1      34.048  31.328  28.339  1.00  0.00    -0.269 OA
ATOM      6  C   UNL A   1      34.597  30.345  27.871  1.00  0.00     0.251 C 
ATOM      7  H   UNL A   1      33.029  29.784  26.733  1.00  0.00     0.163 HD
BRANCH   6   8
ATOM      8  C   UNL A   1      36.004  30.028  28.204  1.00  0.00     0.039 A 
ATOM      9  C   UNL A   1      37.004  30.230  27.250  1.00  0.00     0.014 A 
ATOM     10  C   UNL A   1      36.313  29.475  29.448  1.00  0.00     0.014 A 
ATOM     11  C   UNL A   1      38.282  29.747  27.485  1.00  0.00     0.010 A 
ATOM     12  C   UNL A   1      37.628  29.087  29.723  1.00  0.00     0.010 A 
ATOM     13  C   UNL A   1      38.619  29.201  28.737  1.00  0.00    -0.014 A 
BRANCH  13  14
ATOM     14  C   UNL A   1      40.041  28.867  28.999  1.00  0.00     0.031 A 
ATOM     15  C   UNL A   1      40.629  27.536  28.622  1.00  0.00     0.074 A 
ATOM     16  C   UNL A   1      40.817  29.827  29.541  1.00  0.00     0.049 A 
ATOM     17  N   UNL A   1      41.866  27.124  28.744  1.00  0.00    -0.248 NA
ATOM     18  C   UNL A   1      39.719  26.534  28.045  1.00  0.00     0.031 C 
ATOM     19  C   UNL A   1      40.340  31.146  29.975  1.00  0.00     0.029 A 
ATOM     20  N   UNL A   1      42.163  29.867  29.793  1.00  0.00    -0.354 N 
ATOM     21  C   UNL A   1      41.884  25.817  28.272  1.00  0.00     0.074 A 
ATOM     22  C   UNL A   1      40.527  25.493  27.885  1.00  0.00     0.031 C 
ATOM     23  C   UNL A   1      41.383  31.884  30.374  1.00  0.00     0.029 A 
ATOM     24  C   UNL A   1      42.590  31.073  30.296  1.00  0.00     0.049 A 
ATOM     25  H   UNL A   1      42.766  29.107  29.628  1.00  0.00     0.167 HD
ATOM     26  C   UNL A   1      42.941  24.973  28.166  1.00  0.00     0.037 A 
ATOM     27  C   UNL A   1      43.815  31.481  30.672  1.00  0.00     0.037 A 
ATOM     28  C   UNL A   1      44.288  25.314  28.552  1.00  0.00     0.049 A 
ATOM     29  C   UNL A   1      44.965  30.529  30.531  1.00  0.00     0.074 A 
ATOM     30  C   UNL A   1      45.430  24.531  28.483  1.00  0.00     0.029 A 
ATOM     31  N   UNL A   1      44.681  26.540  29.070  1.00  0.00    -0.354 N 
ATOM     32  N   UNL A   1      44.961  29.299  30.076  1.00  0.00    -0.248 NA
ATOM     33  C   UNL A   1      46.282  31.016  30.955  1.00  0.00     0.031 C 
ATOM     34  C   UNL A   1      46.504  25.271  28.990  1.00  0.00     0.029 A 
ATOM     35  C   UNL A   1      46.042  26.531  29.334  1.00  0.00     0.049 A 
ATOM     36  H   UNL A   1      44.081  27.304  29.229  1.00  0.00     0.167 HD
ATOM     37  C   UNL A   1      46.275  28.861  30.163  1.00  0.00     0.074 A 
ATOM     38  C   UNL A   1      47.051  29.973  30.676  1.00  0.00     0.031 C 
ATOM     39  C   UNL A   1      46.792  27.645  29.859  1.00  0.00     0.037 A 
BRANCH  26  40
ATOM     40  C   UNL A   1      42.688  23.594  27.618  1.00  0.00     0.058 A 
ATOM     41  C   UNL A   1      42.754  23.327  26.241  1.00  0.00     0.135 A 
ATOM     42  C   UNL A   1      42.443  22.513  28.480  1.00  0.00     0.135 A 
ATOM     43  F   UNL A   1      42.970  24.326  25.369  1.00  0.00    -0.206 F 
ATOM     44  C   UNL A   1      42.573  22.042  25.738  1.00  0.00     0.059 A 
ATOM     45  C   UNL A   1      42.281  21.215  28.001  1.00  0.00     0.059 A 
ATOM     46  F   UNL A   1      42.369  22.710  29.806  1.00  0.00    -0.206 F 
ATOM     47  C   UNL A   1      42.340  20.991  26.626  1.00  0.00     0.060 A 
BRANCH  47  48
ATOM     48  S   UNL A   1      42.129  19.327  25.959  1.00  0.00     0.124 S 
ATOM     49  O   UNL A   1      42.993  19.373  24.783  1.00  0.00    -0.237 OA
ATOM     50  O   UNL A   1      42.599  18.488  27.057  1.00  0.00    -0.237 OA
ATOM     51  O   UNL A   1      40.698  19.248  25.683  1.00  0.00    -0.744 OA
ENDBRANCH  47  48
ENDBRANCH  26  40
BRANCH  27  52
ATOM     52  C   UNL A   1      43.997  32.843  31.235  1.00  0.00     0.058 A 
ATOM     53  C   UNL A   1      43.889  33.084  32.611  1.00  0.00     0.135 A 
ATOM     54  C   UNL A   1      44.316  33.929  30.403  1.00  0.00     0.135 A 
ATOM     55  F   UNL A   1      43.588  32.078  33.447  1.00  0.00    -0.206 F 
ATOM     56  C   UNL A   1      44.071  34.357  33.143  1.00  0.00     0.059 A 
ATOM     57  C   UNL A   1      44.533  35.203  30.913  1.00  0.00     0.059 A 
ATOM     58  F   UNL A   1      44.454  33.745  29.081  1.00  0.00    -0.206 F 
ATOM     59  C   UNL A   1      44.393  35.410  32.285  1.00  0.00     0.060 A 
BRANCH  59  60
ATOM     60  S   UNL A   1      44.673  37.051  32.984  1.00  0.00     0.124 S 
ATOM     61  O   UNL A   1      44.210  36.866  34.354  1.00  0.00    -0.237 OA
ATOM     62  O   UNL A   1      46.112  37.219  32.812  1.00  0.00    -0.237 OA
ATOM     63  O   UNL A   1      43.846  37.914  32.146  1.00  0.00    -0.744 OA
ENDBRANCH  59  60
ENDBRANCH  27  52
BRANCH  39  64
ATOM     64  C   UNL A   1      48.269  27.471  30.074  1.00  0.00     0.058 A 
ATOM     65  C   UNL A   1      49.196  27.769  29.063  1.00  0.00     0.135 A 
ATOM     66  C   UNL A   1      48.760  26.996  31.299  1.00  0.00     0.135 A 
ATOM     67  F   UNL A   1      48.774  28.218  27.870  1.00  0.00    -0.206 F 
ATOM     68  C   UNL A   1      50.558  27.565  29.246  1.00  0.00     0.059 A 
ATOM     69  C   UNL A   1      50.122  26.808  31.513  1.00  0.00     0.059 A 
ATOM     70  F   UNL A   1      47.914  26.704  32.301  1.00  0.00    -0.206 F 
ATOM     71  C   UNL A   1      51.011  27.077  30.474  1.00  0.00     0.060 A 
BRANCH  71  72
ATOM     72  S   UNL A   1      52.782  26.806  30.698  1.00  0.00     0.124 S 
ATOM     73  O   UNL A   1      52.790  25.653  31.592  1.00  0.00    -0.237 OA
ATOM     74  O   UNL A   1      53.238  26.555  29.335  1.00  0.00    -0.237 OA
ATOM     75  O   UNL A   1      53.243  28.060  31.286  1.00  0.00    -0.744 OA
ENDBRANCH  71  72
ENDBRANCH  39  64
ENDBRANCH  13  14
ENDBRANCH   6   8
ENDBRANCH   3   4
ENDBRANCH   2   3
ENDBRANCH   1   2
BRANCH   1  76
ATOM     76  C   UNL A   1      30.912  27.091  25.898  1.00  0.00     0.002 C 
BRANCH  76  77
ATOM     77  C   UNL A   1      30.410  26.290  24.684  1.00  0.00     0.021 C 
BRANCH  77  78
ATOM     78  C   UNL A   1      30.641  24.780  24.789  1.00  0.00     0.116 C 
BRANCH  78  79
ATOM     79  N   UNL A   1      30.202  24.306  26.077  1.00  0.00    -0.354 N 
ATOM     80  C   UNL A   1      30.675  23.280  26.824  1.00  0.00     0.244 C 
ATOM     81  H   UNL A   1      29.447  24.800  26.471  1.00  0.00     0.163 HD
ATOM     82  O   UNL A   1      29.916  22.840  27.696  1.00  0.00    -0.273 OA
BRANCH  80  83
ATOM     83  C   UNL A   1      32.088  22.699  26.647  1.00  0.00     0.197 C 
BRANCH  83  84
ATOM     84  C   UNL A   1      33.128  22.987  27.737  1.00  0.00     0.191 C 
BRANCH  84  85
ATOM     85  O   UNL A   1      34.184  22.039  27.812  1.00  0.00    -0.394 OA
ATOM     86  H   UNL A   1      34.975  22.464  28.179  1.00  0.00     0.210 HD
ENDBRANCH  84  85
ENDBRANCH  83  84
BRANCH  83  87
ATOM     87  N   UNL A   1      32.068  21.318  26.183  1.00  0.00    -0.342 N 
ATOM     88  C   UNL A   1      32.457  20.718  25.030  1.00  0.00     0.228 C 
ATOM     89  H   UNL A   1      31.693  20.691  26.842  1.00  0.00     0.164 HD
ATOM     90  O   UNL A   1      32.037  19.553  24.931  1.00  0.00    -0.274 OA
BRANCH  88  91
ATOM     91  C   UNL A   1      33.475  21.257  23.971  1.00  0.00     0.109 C 
ATOM     92  C   UNL A   1      32.664  22.171  22.997  1.00  0.00     0.018 C 
ATOM     93  C   UNL A   1      34.757  21.943  24.441  1.00  0.00    -0.032 A 
ATOM     94  C   UNL A   1      33.445  23.352  22.442  1.00  0.00     0.006 C 
ATOM     95  C   UNL A   1      34.887  23.342  24.446  1.00  0.00    -0.044 A 
ATOM     96  C   UNL A   1      35.885  21.197  24.815  1.00  0.00     0.005 A 
ATOM     97  C   UNL A   1      33.968  24.190  23.608  1.00  0.00     0.036 C 
ATOM     98  C   UNL A   1      35.941  23.950  25.141  1.00  0.00     0.004 A 
ATOM     99  C   UNL A   1      36.949  21.799  25.492  1.00  0.00     0.000 A 
ATOM    100  C   UNL A   1      36.945  23.173  25.708  1.00  0.00     0.000 A 
ENDBRANCH  88  91
ENDBRANCH  83  87
ENDBRANCH  80  83
ENDBRANCH  78  79
ENDBRANCH  77  78
ENDBRANCH  76  77
ENDBRANCH   1  76
TORSDOF 20
ENDMDL
MODEL 2
REMARK VINA RESULT:     -10.8      2.900      8.958
REMARK SMILES O=C(NCCCCCCNC(=O)[C@@H](CO)NC(=O)[C@H]1CCCc2ccccc21)c1ccc(-c2c3nc(c(-c4c(F)cc(S(=O)(=O)[O-])cc4F)c4ccc([nH]4)c(-c4c(F)cc(S(=O)(=O)[O-])cc4F)c4nc(c(-c5c(F)cc(S(=O)(=O)[O-])cc5F)c5ccc2[nH]5)C=C4)C=C3)cc1
REMARK SMILES IDX 6 1 5 2 4 3 3 4 1 5 2 6 29 8 30 9 94 10 31 11 93 12 32 13
REMARK SMILES IDX 33 14 34 15 87 16 35 17 92 18 86 19 88 20 36 21 91 22 85 23
REMARK SMILES IDX 84 24 37 26 71 27 50 28 70 29 51 30 54 31 69 32 89 33 52 34
REMARK SMILES IDX 53 35 68 37 90 38 55 39 38 40 39 41 48 42 40 43 41 44 47 45
REMARK SMILES IDX 49 46 42 47 43 48 44 49 45 50 46 51 72 52 73 53 82 54 74 55
REMARK SMILES IDX 75 56 81 57 83 58 76 59 77 60 78 61 79 62 80 63 56 64 57 65
REMARK SMILES IDX 66 66 58 67 59 68 65 69 67 70 60 71 61 72 62 73 63 74 64 75
REMARK SMILES IDX 7 76 8 77 9 78 10 79 11 80 12 82 13 83 14 84 15 85 16 87
REMARK SMILES IDX 17 88 18 90 19 91 20 92 28 93 21 94 23 95 27 96 22 97 24 98
REMARK SMILES IDX 26 99 25 100
REMARK H PARENT 3 7 88 25 54 36 10 81 15 86 16 89
REMARK Flexibility Score: inf
ROOT
ATOM      1  C   UNL A   1      33.382  30.816  27.341  1.00  0.00     0.002 C 
ENDROOT
BRANCH   1   2
ATOM      2  C   UNL A   1      34.119  29.480  27.389  1.00  0.00     0.021 C 
BRANCH   2   3
ATOM      3  C   UNL A   1      35.509  29.555  27.995  1.00  0.00     0.116 C 
BRANCH   3   4
ATOM      4  N   UNL A   1      35.494  30.074  29.351  1.00  0.00    -0.352 N 
ATOM      5  O   UNL A   1      36.356  30.428  31.412  1.00  0.00    -0.269 OA
ATOM      6  C   UNL A   1      36.541  30.120  30.247  1.00  0.00     0.251 C 
ATOM      7  H   UNL A   1      34.636  30.436  29.667  1.00  0.00     0.163 HD
BRANCH   6   8
ATOM      8  C   UNL A   1      37.892  29.759  29.761  1.00  0.00     0.039 A 
ATOM      9  C   UNL A   1      38.839  29.256  30.656  1.00  0.00     0.014 A 
ATOM     10  C   UNL A   1      38.229  29.981  28.424  1.00  0.00     0.014 A 
ATOM     11  C   UNL A   1      40.156  29.111  30.250  1.00  0.00     0.010 A 
ATOM     12  C   UNL A   1      39.535  29.731  27.991  1.00  0.00     0.010 A 
ATOM     13  C   UNL A   1      40.514  29.313  28.905  1.00  0.00    -0.014 A 
BRANCH  13  14
ATOM     14  C   UNL A   1      41.896  28.970  28.485  1.00  0.00     0.031 A 
ATOM     15  C   UNL A   1      43.016  29.971  28.539  1.00  0.00     0.074 A 
ATOM     16  C   UNL A   1      42.133  27.699  28.103  1.00  0.00     0.049 A 
ATOM     17  N   UNL A   1      44.282  29.798  28.252  1.00  0.00    -0.248 NA
ATOM     18  C   UNL A   1      42.679  31.341  28.956  1.00  0.00     0.031 C 
ATOM     19  C   UNL A   1      41.109  26.654  27.983  1.00  0.00     0.029 A 
ATOM     20  N   UNL A   1      43.297  27.056  27.776  1.00  0.00    -0.354 N 
ATOM     21  C   UNL A   1      44.891  31.032  28.441  1.00  0.00     0.074 A 
ATOM     22  C   UNL A   1      43.851  31.955  28.843  1.00  0.00     0.031 C 
ATOM     23  C   UNL A   1      41.698  25.492  27.677  1.00  0.00     0.029 A 
ATOM     24  C   UNL A   1      43.127  25.719  27.505  1.00  0.00     0.049 A 
ATOM     25  H   UNL A   1      44.172  27.507  27.739  1.00  0.00     0.167 HD
ATOM     26  C   UNL A   1      46.200  31.357  28.300  1.00  0.00     0.037 A 
ATOM     27  C   UNL A   1      44.016  24.779  27.141  1.00  0.00     0.037 A 
ATOM     28  C   UNL A   1      47.226  30.424  27.904  1.00  0.00     0.049 A 
ATOM     29  C   UNL A   1      45.458  25.166  27.005  1.00  0.00     0.074 A 
ATOM     30  C   UNL A   1      48.582  30.652  27.733  1.00  0.00     0.029 A 
ATOM     31  N   UNL A   1      47.014  29.081  27.625  1.00  0.00    -0.354 N 
ATOM     32  N   UNL A   1      46.014  26.339  27.195  1.00  0.00    -0.248 NA
ATOM     33  C   UNL A   1      46.392  24.109  26.604  1.00  0.00     0.031 C 
ATOM     34  C   UNL A   1      49.182  29.457  27.319  1.00  0.00     0.029 A 
ATOM     35  C   UNL A   1      48.210  28.472  27.275  1.00  0.00     0.049 A 
ATOM     36  H   UNL A   1      46.142  28.626  27.668  1.00  0.00     0.167 HD
ATOM     37  C   UNL A   1      47.365  26.162  26.932  1.00  0.00     0.074 A 
ATOM     38  C   UNL A   1      47.546  24.760  26.609  1.00  0.00     0.031 C 
ATOM     39  C   UNL A   1      48.365  27.078  26.943  1.00  0.00     0.037 A 
BRANCH  26  40
ATOM     40  C   UNL A   1      46.605  32.782  28.567  1.00  0.00     0.058 A 
ATOM     41  C   UNL A   1      47.038  33.198  29.836  1.00  0.00     0.135 A 
ATOM     42  C   UNL A   1      46.625  33.729  27.529  1.00  0.00     0.135 A 
ATOM     43  F   UNL A   1      47.025  32.339  30.869  1.00  0.00    -0.206 F 
ATOM     44  C   UNL A   1      47.462  34.503  30.071  1.00  0.00     0.059 A 
ATOM     45  C   UNL A   1      47.067  35.034  27.736  1.00  0.00     0.059 A 
ATOM     46  F   UNL A   1      46.222  33.387  26.296  1.00  0.00    -0.206 F 
ATOM     47  C   UNL A   1      47.476  35.414  29.014  1.00  0.00     0.060 A 
BRANCH  47  48
ATOM     48  S   UNL A   1      48.050  37.096  29.330  1.00  0.00     0.124 S 
ATOM     49  O   UNL A   1      49.199  36.853  30.198  1.00  0.00    -0.237 OA
ATOM     50  O   UNL A   1      48.363  37.577  27.988  1.00  0.00    -0.237 OA
ATOM     51  O   UNL A   1      46.904  37.733  29.970  1.00  0.00    -0.744 OA
ENDBRANCH  47  48
ENDBRANCH  26  40
BRANCH  27  52
ATOM     52  C   UNL A   1      43.553  23.396  26.860  1.00  0.00     0.058 A 
ATOM     53  C   UNL A   1      43.512  22.891  25.554  1.00  0.00     0.135 A 
ATOM     54  C   UNL A   1      43.169  22.540  27.906  1.00  0.00     0.135 A 
ATOM     55  F   UNL A   1      43.870  23.670  24.522  1.00  0.00    -0.206 F 
ATOM     56  C   UNL A   1      43.089  21.592  25.289  1.00  0.00     0.059 A 
ATOM     57  C   UNL A   1      42.773  21.229  27.670  1.00  0.00     0.059 A 
ATOM     58  F   UNL A   1      43.214  22.969  29.177  1.00  0.00    -0.206 F 
ATOM     59  C   UNL A   1      42.722  20.768  26.355  1.00  0.00     0.060 A 
BRANCH  59  60
ATOM     60  S   UNL A   1      42.218  19.069  26.012  1.00  0.00     0.124 S 
ATOM     61  O   UNL A   1      42.969  18.783  24.796  1.00  0.00    -0.237 OA
ATOM     62  O   UNL A   1      42.656  18.368  27.215  1.00  0.00    -0.237 OA
ATOM     63  O   UNL A   1      40.771  19.178  25.853  1.00  0.00    -0.744 OA
ENDBRANCH  59  60
ENDBRANCH  27  52
BRANCH  39  64
ATOM     64  C   UNL A   1      49.738  26.577  26.598  1.00  0.00     0.058 A 
ATOM     65  C   UNL A   1      50.586  26.035  27.577  1.00  0.00     0.135 A 
ATOM     66  C   UNL A   1      50.213  26.645  25.280  1.00  0.00     0.135 A 
ATOM     67  F   UNL A   1      50.181  25.956  28.854  1.00  0.00    -0.206 F 
ATOM     68  C   UNL A   1      51.874  25.613  27.268  1.00  0.00     0.059 A 
ATOM     69  C   UNL A   1      51.489  26.205  24.943  1.00  0.00     0.059 A 
ATOM     70  F   UNL A   1      49.437  27.147  24.306  1.00  0.00    -0.206 F 
ATOM     71  C   UNL A   1      52.319  25.709  25.947  1.00  0.00     0.060 A 
BRANCH  71  72
ATOM     72  S   UNL A   1      53.996  25.167  25.557  1.00  0.00     0.124 S 
ATOM     73  O   UNL A   1      54.576  25.031  26.888  1.00  0.00    -0.237 OA
ATOM     74  O   UNL A   1      53.765  23.920  24.835  1.00  0.00    -0.237 OA
ATOM     75  O   UNL A   1      54.525  26.263  24.749  1.00  0.00    -0.744 OA
ENDBRANCH  71  72
ENDBRANCH  39  64
ENDBRANCH  13  14
ENDBRANCH   6   8
ENDBRANCH   3   4
ENDBRANCH   2   3
ENDBRANCH   1   2
BRANCH   1  76
ATOM     76  C   UNL A   1      32.016  30.779  26.650  1.00  0.00     0.002 C 
BRANCH  76  77
ATOM     77  C   UNL A   1      31.662  29.455  25.951  1.00  0.00     0.021 C 
BRANCH  77  78
ATOM     78  C   UNL A   1      32.058  29.400  24.474  1.00  0.00     0.116 C 
BRANCH  78  79
ATOM     79  N   UNL A   1      30.875  29.320  23.653  1.00  0.00    -0.354 N 
ATOM     80  C   UNL A   1      30.406  28.284  22.917  1.00  0.00     0.244 C 
ATOM     81  H   UNL A   1      30.329  30.138  23.622  1.00  0.00     0.163 HD
ATOM     82  O   UNL A   1      29.599  28.567  22.023  1.00  0.00    -0.273 OA
BRANCH  80  83
ATOM     83  C   UNL A   1      30.808  26.823  23.179  1.00  0.00     0.197 C 
BRANCH  83  84
ATOM     84  C   UNL A   1      29.762  25.887  23.797  1.00  0.00     0.191 C 
BRANCH  84  85
ATOM     85  O   UNL A   1      28.452  26.431  23.872  1.00  0.00    -0.394 OA
ATOM     86  H   UNL A   1      27.994  26.289  23.029  1.00  0.00     0.210 HD
ENDBRANCH  84  85
ENDBRANCH  83  84
BRANCH  83  87
ATOM     87  N   UNL A   1      31.555  26.244  22.070  1.00  0.00    -0.342 N 
ATOM     88  C   UNL A   1      32.794  25.700  21.965  1.00  0.00     0.228 C 
ATOM     89  H   UNL A   1      31.058  26.247  21.221  1.00  0.00     0.164 HD
ATOM     90  O   UNL A   1      33.154  25.550  20.786  1.00  0.00    -0.274 OA
BRANCH  88  91
ATOM     91  C   UNL A   1      33.677  25.111  23.116  1.00  0.00     0.109 C 
ATOM     92  C   UNL A   1      33.932  26.276  24.125  1.00  0.00     0.018 C 
ATOM     93  C   UNL A   1      33.226  23.840  23.834  1.00  0.00    -0.032 A 
ATOM     94  C   UNL A   1      34.035  25.841  25.579  1.00  0.00     0.006 C 
ATOM     95  C   UNL A   1      32.610  23.884  25.096  1.00  0.00    -0.044 A 
ATOM     96  C   UNL A   1      33.480  22.571  23.292  1.00  0.00     0.005 A 
ATOM     97  C   UNL A   1      32.755  25.104  25.967  1.00  0.00     0.036 C 
ATOM     98  C   UNL A   1      31.952  22.753  25.600  1.00  0.00     0.004 A 
ATOM     99  C   UNL A   1      32.844  21.435  23.801  1.00  0.00     0.000 A 
ATOM    100  C   UNL A   1      32.029  21.541  24.922  1.00  0.00     0.000 A 
ENDBRANCH  88  91
ENDBRANCH  83  87
ENDBRANCH  80  83
ENDBRANCH  78  79
ENDBRANCH  77  78
ENDBRANCH  76  77
ENDBRANCH   1  76
TORSDOF 20
ENDMDL
MODEL 3
REMARK VINA RESULT:     -10.7      2.728      8.303
REMARK SMILES O=C(NCCCCCCNC(=O)[C@@H](CO)NC(=O)[C@H]1CCCc2ccccc21)c1ccc(-c2c3nc(c(-c4c(F)cc(S(=O)(=O)[O-])cc4F)c4ccc([nH]4)c(-c4c(F)cc(S(=O)(=O)[O-])cc4F)c4nc(c(-c5c(F)cc(S(=O)(=O)[O-])cc5F)c5ccc2[nH]5)C=C4)C=C3)cc1
REMARK SMILES IDX 6 1 5 2 4 3 3 4 1 5 2 6 29 8 30 9 94 10 31 11 93 12 32 13
REMARK SMILES IDX 33 14 34 15 87 16 35 17 92 18 86 19 88 20 36 21 91 22 85 23
REMARK SMILES IDX 84 24 37 26 71 27 50 28 70 29 51 30 54 31 69 32 89 33 52 34
REMARK SMILES IDX 53 35 68 37 90 38 55 39 38 40 39 41 48 42 40 43 41 44 47 45
REMARK SMILES IDX 49 46 42 47 43 48 44 49 45 50 46 51 72 52 73 53 82 54 74 55
REMARK SMILES IDX 75 56 81 57 83 58 76 59 77 60 78 61 79 62 80 63 56 64 57 65
REMARK SMILES IDX 66 66 58 67 59 68 65 69 67 70 60 71 61 72 62 73 63 74 64 75
REMARK SMILES IDX 7 76 8 77 9 78 10 79 11 80 12 82 13 83 14 84 15 85 16 87
REMARK SMILES IDX 17 88 18 90 19 91 20 92 28 93 21 94 23 95 27 96 22 97 24 98
REMARK SMILES IDX 26 99 25 100
REMARK H PARENT 3 7 88 25 54 36 10 81 15 86 16 89
REMARK Flexibility Score: inf
ROOT
ATOM      1  C   UNL A   1      32.177  28.195  25.709  1.00  0.00     0.002 C 
ENDROOT
BRANCH   1   2
ATOM      2  C   UNL A   1      33.620  27.704  25.638  1.00  0.00     0.021 C 
BRANCH   2   3
ATOM      3  C   UNL A   1      34.634  28.659  26.242  1.00  0.00     0.116 C 
BRANCH   3   4
ATOM      4  N   UNL A   1      34.047  29.938  26.598  1.00  0.00    -0.352 N 
ATOM      5  O   UNL A   1      33.772  31.768  27.897  1.00  0.00    -0.269 OA
ATOM      6  C   UNL A   1      34.452  30.803  27.592  1.00  0.00     0.251 C 
ATOM      7  H   UNL A   1      33.269  30.221  26.065  1.00  0.00     0.163 HD
BRANCH   6   8
ATOM      8  C   UNL A   1      35.721  30.514  28.296  1.00  0.00     0.039 A 
ATOM      9  C   UNL A   1      36.895  31.160  27.901  1.00  0.00     0.014 A 
ATOM     10  C   UNL A   1      35.747  29.554  29.310  1.00  0.00     0.014 A 
ATOM     11  C   UNL A   1      38.112  30.743  28.418  1.00  0.00     0.010 A 
ATOM     12  C   UNL A   1      36.965  29.213  29.906  1.00  0.00     0.010 A 
ATOM     13  C   UNL A   1      38.160  29.790  29.451  1.00  0.00    -0.014 A 
BRANCH  13  14
ATOM     14  C   UNL A   1      39.469  29.513  30.093  1.00  0.00     0.031 A 
ATOM     15  C   UNL A   1      39.921  30.241  31.328  1.00  0.00     0.074 A 
ATOM     16  C   UNL A   1      40.229  28.534  29.561  1.00  0.00     0.049 A 
ATOM     17  N   UNL A   1      41.015  30.067  32.026  1.00  0.00    -0.248 NA
ATOM     18  C   UNL A   1      39.045  31.304  31.845  1.00  0.00     0.031 C 
ATOM     19  C   UNL A   1      39.899  27.785  28.342  1.00  0.00     0.029 A 
ATOM     20  N   UNL A   1      41.407  27.975  29.980  1.00  0.00    -0.354 N 
ATOM     21  C   UNL A   1      40.968  31.000  33.054  1.00  0.00     0.074 A 
ATOM     22  C   UNL A   1      39.748  31.759  32.875  1.00  0.00     0.031 C 
ATOM     23  C   UNL A   1      40.813  26.826  28.152  1.00  0.00     0.029 A 
ATOM     24  C   UNL A   1      41.832  26.936  29.187  1.00  0.00     0.049 A 
ATOM     25  H   UNL A   1      41.900  28.287  30.773  1.00  0.00     0.167 HD
ATOM     26  C   UNL A   1      41.860  31.197  34.057  1.00  0.00     0.037 A 
ATOM     27  C   UNL A   1      42.929  26.163  29.270  1.00  0.00     0.037 A 
ATOM     28  C   UNL A   1      43.069  30.428  34.224  1.00  0.00     0.049 A 
ATOM     29  C   UNL A   1      43.890  26.396  30.397  1.00  0.00     0.074 A 
ATOM     30  C   UNL A   1      44.039  30.547  35.207  1.00  0.00     0.029 A 
ATOM     31  N   UNL A   1      43.474  29.392  33.393  1.00  0.00    -0.354 N 
ATOM     32  N   UNL A   1      43.823  27.281  31.363  1.00  0.00    -0.248 NA
ATOM     33  C   UNL A   1      45.074  25.532  30.446  1.00  0.00     0.031 C 
ATOM     34  C   UNL A   1      45.043  29.606  34.952  1.00  0.00     0.029 A 
ATOM     35  C   UNL A   1      44.680  28.870  33.836  1.00  0.00     0.049 A 
ATOM     36  H   UNL A   1      42.978  29.074  32.605  1.00  0.00     0.167 HD
ATOM     37  C   UNL A   1      44.959  27.083  32.134  1.00  0.00     0.074 A 
ATOM     38  C   UNL A   1      45.674  25.968  31.544  1.00  0.00     0.031 C 
ATOM     39  C   UNL A   1      45.382  27.770  33.225  1.00  0.00     0.037 A 
BRANCH  26  40
ATOM     40  C   UNL A   1      41.571  32.287  35.053  1.00  0.00     0.058 A 
ATOM     41  C   UNL A   1      42.075  33.587  34.886  1.00  0.00     0.135 A 
ATOM     42  C   UNL A   1      40.729  32.051  36.152  1.00  0.00     0.135 A 
ATOM     43  F   UNL A   1      42.898  33.867  33.862  1.00  0.00    -0.206 F 
ATOM     44  C   UNL A   1      41.765  34.610  35.779  1.00  0.00     0.059 A 
ATOM     45  C   UNL A   1      40.388  33.064  37.045  1.00  0.00     0.059 A 
ATOM     46  F   UNL A   1      40.219  30.827  36.361  1.00  0.00    -0.206 F 
ATOM     47  C   UNL A   1      40.918  34.339  36.854  1.00  0.00     0.060 A 
BRANCH  47  48
ATOM     48  S   UNL A   1      40.508  35.681  37.990  1.00  0.00     0.124 S 
ATOM     49  O   UNL A   1      41.825  36.032  38.513  1.00  0.00    -0.237 OA
ATOM     50  O   UNL A   1      39.896  36.665  37.103  1.00  0.00    -0.237 OA
ATOM     51  O   UNL A   1      39.600  35.054  38.946  1.00  0.00    -0.744 OA
ENDBRANCH  47  48
ENDBRANCH  26  40
BRANCH  27  52
ATOM     52  C   UNL A   1      43.177  25.122  28.239  1.00  0.00     0.058 A 
ATOM     53  C   UNL A   1      43.783  25.437  27.016  1.00  0.00     0.135 A 
ATOM     54  C   UNL A   1      42.836  23.781  28.476  1.00  0.00     0.135 A 
ATOM     55  F   UNL A   1      44.128  26.705  26.743  1.00  0.00    -0.206 F 
ATOM     56  C   UNL A   1      44.027  24.462  26.053  1.00  0.00     0.059 A 
ATOM     57  C   UNL A   1      43.097  22.784  27.544  1.00  0.00     0.059 A 
ATOM     58  F   UNL A   1      42.275  23.425  29.642  1.00  0.00    -0.206 F 
ATOM     59  C   UNL A   1      43.680  23.137  26.328  1.00  0.00     0.060 A 
BRANCH  59  60
ATOM     60  S   UNL A   1      44.039  21.868  25.095  1.00  0.00     0.124 S 
ATOM     61  O   UNL A   1      43.022  20.869  25.402  1.00  0.00    -0.237 OA
ATOM     62  O   UNL A   1      43.865  22.595  23.842  1.00  0.00    -0.237 OA
ATOM     63  O   UNL A   1      45.415  21.486  25.402  1.00  0.00    -0.744 OA
ENDBRANCH  59  60
ENDBRANCH  27  52
BRANCH  39  64
ATOM     64  C   UNL A   1      46.675  27.319  33.842  1.00  0.00     0.058 A 
ATOM     65  C   UNL A   1      47.906  27.861  33.439  1.00  0.00     0.135 A 
ATOM     66  C   UNL A   1      46.685  26.332  34.839  1.00  0.00     0.135 A 
ATOM     67  F   UNL A   1      47.949  28.801  32.482  1.00  0.00    -0.206 F 
ATOM     68  C   UNL A   1      49.106  27.412  33.976  1.00  0.00     0.059 A 
ATOM     69  C   UNL A   1      47.872  25.887  35.409  1.00  0.00     0.059 A 
ATOM     70  F   UNL A   1      45.533  25.789  35.265  1.00  0.00    -0.206 F 
ATOM     71  C   UNL A   1      49.079  26.418  34.957  1.00  0.00     0.060 A 
BRANCH  71  72
ATOM     72  S   UNL A   1      50.644  25.834  35.643  1.00  0.00     0.124 S 
ATOM     73  O   UNL A   1      50.288  25.619  37.041  1.00  0.00    -0.237 OA
ATOM     74  O   UNL A   1      50.901  24.629  34.861  1.00  0.00    -0.237 OA
ATOM     75  O   UNL A   1      51.558  26.945  35.390  1.00  0.00    -0.744 OA
ENDBRANCH  71  72
ENDBRANCH  39  64
ENDBRANCH  13  14
ENDBRANCH   6   8
ENDBRANCH   3   4
ENDBRANCH   2   3
ENDBRANCH   1   2
BRANCH   1  76
ATOM     76  C   UNL A   1      31.143  27.121  26.062  1.00  0.00     0.002 C 
BRANCH  76  77
ATOM     77  C   UNL A   1      30.363  26.535  24.873  1.00  0.00     0.021 C 
BRANCH  77  78
ATOM     78  C   UNL A   1      30.392  25.006  24.796  1.00  0.00     0.116 C 
BRANCH  78  79
ATOM     79  N   UNL A   1      29.984  24.444  26.059  1.00  0.00    -0.354 N 
ATOM     80  C   UNL A   1      30.487  23.382  26.732  1.00  0.00     0.244 C 
ATOM     81  H   UNL A   1      29.228  24.899  26.497  1.00  0.00     0.163 HD
ATOM     82  O   UNL A   1      29.751  22.874  27.587  1.00  0.00    -0.273 OA
BRANCH  80  83
ATOM     83  C   UNL A   1      31.906  22.838  26.495  1.00  0.00     0.197 C 
BRANCH  83  84
ATOM     84  C   UNL A   1      33.004  23.228  27.492  1.00  0.00     0.191 C 
BRANCH  84  85
ATOM     85  O   UNL A   1      33.869  22.164  27.865  1.00  0.00    -0.394 OA
ATOM     86  H   UNL A   1      33.606  21.824  28.735  1.00  0.00     0.210 HD
ENDBRANCH  84  85
ENDBRANCH  83  84
BRANCH  83  87
ATOM     87  N   UNL A   1      31.907  21.431  26.117  1.00  0.00    -0.342 N 
ATOM     88  C   UNL A   1      32.333  20.763  25.016  1.00  0.00     0.228 C 
ATOM     89  H   UNL A   1      31.517  20.843  26.803  1.00  0.00     0.164 HD
ATOM     90  O   UNL A   1      31.922  19.591  24.977  1.00  0.00    -0.274 OA
BRANCH  88  91
ATOM     91  C   UNL A   1      33.378  21.243  23.954  1.00  0.00     0.109 C 
ATOM     92  C   UNL A   1      32.600  22.133  22.932  1.00  0.00     0.018 C 
ATOM     93  C   UNL A   1      34.665  21.923  24.420  1.00  0.00    -0.032 A 
ATOM     94  C   UNL A   1      33.412  23.279  22.347  1.00  0.00     0.006 C 
ATOM     95  C   UNL A   1      34.820  23.319  24.374  1.00  0.00    -0.044 A 
ATOM     96  C   UNL A   1      35.772  21.171  24.841  1.00  0.00     0.005 A 
ATOM     97  C   UNL A   1      33.931  24.151  23.489  1.00  0.00     0.036 C 
ATOM     98  C   UNL A   1      35.874  23.934  25.064  1.00  0.00     0.004 A 
ATOM     99  C   UNL A   1      36.836  21.780  25.512  1.00  0.00     0.000 A 
ATOM    100  C   UNL A   1      36.854  23.161  25.676  1.00  0.00     0.000 A 
ENDBRANCH  88  91
ENDBRANCH  83  87
ENDBRANCH  80  83
ENDBRANCH  78  79
ENDBRANCH  77  78
ENDBRANCH  76  77
ENDBRANCH   1  76
TORSDOF 20
ENDMDL
