MODEL 1
REMARK VINA RESULT:     -11.4      0.000      0.000
REMARK SMILES C=Cc1cncc(-c2ccc([C@@H](C)C(=O)NCCCCCCNC(=O)c3ccc(-c4c5nc(c(-c6c(F)cc(S(=O)(=O)[O-])cc6F)c6ccc([nH]6)c(-c6c(F)cc(S(=O)(=O)[O-])cc6F)c6nc(c(-c7c(F)cc(S(=O)(=O)[O-])cc7F)c7ccc4[nH]7)C=C6)C=C5)cc3)cc2)c1
REMARK SMILES IDX 19 1 18 2 17 3 16 4 14 5 15 6 12 8 13 9 11 10 8 11 9 12
REMARK SMILES IDX 93 13 10 14 92 15 7 16 3 17 4 18 94 19 5 20 6 21 2 22 1 23
REMARK SMILES IDX 20 24 21 25 22 26 23 27 24 28 25 30 26 31 27 32 91 33 28 34
REMARK SMILES IDX 90 35 29 36 30 37 31 38 84 39 32 40 89 41 83 42 85 43 33 44
REMARK SMILES IDX 88 45 82 46 81 47 34 49 68 50 47 51 67 52 48 53 51 54 66 55
REMARK SMILES IDX 86 56 49 57 50 58 65 60 87 61 52 62 35 63 36 64 45 65 37 66
REMARK SMILES IDX 38 67 44 68 46 69 39 70 40 71 41 72 42 73 43 74 69 75 70 76
REMARK SMILES IDX 79 77 71 78 72 79 78 80 80 81 73 82 74 83 75 84 76 85 77 86
REMARK SMILES IDX 53 87 54 88 63 89 55 90 56 91 62 92 64 93 57 94 58 95 59 96
REMARK SMILES IDX 60 97 61 98
REMARK H PARENT 16 7 23 29 85 48 51 59
REMARK Flexibility Score: inf
ROOT
ATOM      1  C   UNL A   1      34.167  25.548  25.466  1.00  0.00     0.002 C 
ENDROOT
BRANCH   1   2
ATOM      2  C   UNL A   1      35.175  24.441  25.135  1.00  0.00     0.021 C 
BRANCH   2   3
ATOM      3  C   UNL A   1      34.613  23.027  25.292  1.00  0.00     0.116 C 
BRANCH   3   4
ATOM      4  N   UNL A   1      34.002  22.835  26.592  1.00  0.00    -0.356 N 
ATOM      5  C   UNL A   1      32.713  22.596  26.955  1.00  0.00     0.227 C 
ATOM      6  O   UNL A   1      32.479  22.572  28.170  1.00  0.00    -0.274 OA
ATOM      7  H   UNL A   1      34.633  22.888  27.346  1.00  0.00     0.163 HD
BRANCH   5   8
ATOM      8  C   UNL A   1      31.577  22.341  25.951  1.00  0.00     0.105 C 
ATOM      9  C   UNL A   1      31.789  21.099  25.085  1.00  0.00     0.023 C 
BRANCH   8  10
ATOM     10  C   UNL A   1      31.112  23.595  25.227  1.00  0.00    -0.036 A 
ATOM     11  C   UNL A   1      30.369  26.045  23.952  1.00  0.00    -0.017 A 
ATOM     12  C   UNL A   1      30.792  24.928  23.216  1.00  0.00     0.009 A 
ATOM     13  C   UNL A   1      30.291  25.895  25.344  1.00  0.00     0.009 A 
ATOM     14  C   UNL A   1      31.126  23.720  23.836  1.00  0.00     0.005 A 
ATOM     15  C   UNL A   1      30.671  24.700  25.972  1.00  0.00     0.005 A 
BRANCH  11  16
ATOM     16  C   UNL A   1      30.035  27.314  23.275  1.00  0.00     0.001 A 
ATOM     17  C   UNL A   1      28.603  29.266  22.940  1.00  0.00    -0.007 A 
ATOM     18  C   UNL A   1      29.538  29.722  22.015  1.00  0.00     0.119 A 
ATOM     19  C   UNL A   1      28.865  28.038  23.563  1.00  0.00     0.020 A 
ATOM     20  N   UNL A   1      30.669  29.062  21.690  1.00  0.00    -0.263 NA
ATOM     21  C   UNL A   1      30.884  27.886  22.324  1.00  0.00     0.119 A 
BRANCH  17  22
ATOM     22  C   UNL A   1      27.383  30.044  23.182  1.00  0.00     0.002 C 
ATOM     23  C   UNL A   1      27.368  31.286  23.678  1.00  0.00     0.009 C 
ENDBRANCH  17  22
ENDBRANCH  11  16
ENDBRANCH   8  10
ENDBRANCH   5   8
ENDBRANCH   3   4
ENDBRANCH   2   3
ENDBRANCH   1   2
BRANCH   1  24
ATOM     24  C   UNL A   1      33.963  26.593  24.361  1.00  0.00     0.002 C 
BRANCH  24  25
ATOM     25  C   UNL A   1      33.500  27.974  24.840  1.00  0.00     0.021 C 
BRANCH  25  26
ATOM     26  C   UNL A   1      34.056  28.399  26.195  1.00  0.00     0.116 C 
BRANCH  26  27
ATOM     27  N   UNL A   1      33.821  29.811  26.454  1.00  0.00    -0.352 N 
ATOM     28  C   UNL A   1      34.432  30.650  27.352  1.00  0.00     0.251 C 
ATOM     29  H   UNL A   1      33.119  30.227  25.902  1.00  0.00     0.163 HD
ATOM     30  O   UNL A   1      33.934  31.743  27.601  1.00  0.00    -0.269 OA
BRANCH  28  31
ATOM     31  C   UNL A   1      35.684  30.234  28.021  1.00  0.00     0.039 A 
ATOM     32  C   UNL A   1      36.902  30.428  27.366  1.00  0.00     0.014 A 
ATOM     33  C   UNL A   1      35.653  29.622  29.278  1.00  0.00     0.014 A 
ATOM     34  C   UNL A   1      38.093  30.050  27.990  1.00  0.00     0.010 A 
ATOM     35  C   UNL A   1      36.844  29.308  29.927  1.00  0.00     0.010 A 
ATOM     36  C   UNL A   1      38.076  29.508  29.285  1.00  0.00    -0.014 A 
BRANCH  36  37
ATOM     37  C   UNL A   1      39.332  29.127  29.980  1.00  0.00     0.031 A 
ATOM     38  C   UNL A   1      39.771  29.879  31.208  1.00  0.00     0.074 A 
ATOM     39  C   UNL A   1      40.107  28.148  29.473  1.00  0.00     0.049 A 
ATOM     40  N   UNL A   1      40.867  29.750  31.910  1.00  0.00    -0.248 NA
ATOM     41  C   UNL A   1      38.869  30.937  31.695  1.00  0.00     0.031 C 
ATOM     42  C   UNL A   1      39.810  27.376  28.264  1.00  0.00     0.029 A 
ATOM     43  N   UNL A   1      41.308  27.643  29.902  1.00  0.00    -0.354 N 
ATOM     44  C   UNL A   1      40.795  30.715  32.908  1.00  0.00     0.074 A 
ATOM     45  C   UNL A   1      39.573  31.457  32.689  1.00  0.00     0.031 C 
ATOM     46  C   UNL A   1      40.793  26.483  28.061  1.00  0.00     0.029 A 
ATOM     47  C   UNL A   1      41.805  26.643  29.100  1.00  0.00     0.049 A 
ATOM     48  H   UNL A   1      41.772  27.967  30.708  1.00  0.00     0.167 HD
ATOM     49  C   UNL A   1      41.658  30.946  33.927  1.00  0.00     0.037 A 
ATOM     50  C   UNL A   1      42.950  25.938  29.188  1.00  0.00     0.037 A 
ATOM     51  C   UNL A   1      42.860  30.186  34.152  1.00  0.00     0.049 A 
ATOM     52  C   UNL A   1      43.891  26.210  30.331  1.00  0.00     0.074 A 
ATOM     53  C   UNL A   1      43.773  30.305  35.185  1.00  0.00     0.029 A 
ATOM     54  N   UNL A   1      43.314  29.163  33.333  1.00  0.00    -0.354 N 
ATOM     55  N   UNL A   1      43.780  27.089  31.298  1.00  0.00    -0.248 NA
ATOM     56  C   UNL A   1      45.108  25.390  30.401  1.00  0.00     0.031 C 
ATOM     57  C   UNL A   1      44.801  29.383  34.968  1.00  0.00     0.029 A 
ATOM     58  C   UNL A   1      44.504  28.653  33.827  1.00  0.00     0.049 A 
ATOM     59  H   UNL A   1      42.859  28.846  32.520  1.00  0.00     0.167 HD
ATOM     60  C   UNL A   1      44.896  26.907  32.107  1.00  0.00     0.074 A 
ATOM     61  C   UNL A   1      45.664  25.829  31.521  1.00  0.00     0.031 C 
ATOM     62  C   UNL A   1      45.251  27.571  33.236  1.00  0.00     0.037 A 
BRANCH  49  63
ATOM     63  C   UNL A   1      41.328  32.065  34.877  1.00  0.00     0.058 A 
ATOM     64  C   UNL A   1      41.830  33.363  34.691  1.00  0.00     0.135 A 
ATOM     65  C   UNL A   1      40.477  31.846  35.974  1.00  0.00     0.135 A 
ATOM     66  F   UNL A   1      42.657  33.628  33.668  1.00  0.00    -0.206 F 
ATOM     67  C   UNL A   1      41.530  34.395  35.575  1.00  0.00     0.059 A 
ATOM     68  C   UNL A   1      40.140  32.870  36.855  1.00  0.00     0.059 A 
ATOM     69  F   UNL A   1      39.967  30.625  36.202  1.00  0.00    -0.206 F 
ATOM     70  C   UNL A   1      40.686  34.138  36.656  1.00  0.00     0.060 A 
BRANCH  70  71
ATOM     71  S   UNL A   1      40.309  35.487  37.795  1.00  0.00     0.124 S 
ATOM     72  O   UNL A   1      40.129  36.604  36.873  1.00  0.00    -0.237 OA
ATOM     73  O   UNL A   1      39.099  35.010  38.456  1.00  0.00    -0.237 OA
ATOM     74  O   UNL A   1      41.496  35.558  38.642  1.00  0.00    -0.744 OA
ENDBRANCH  70  71
ENDBRANCH  49  63
BRANCH  50  75
ATOM     75  C   UNL A   1      43.255  24.889  28.180  1.00  0.00     0.058 A 
ATOM     76  C   UNL A   1      43.931  25.207  26.992  1.00  0.00     0.135 A 
ATOM     77  C   UNL A   1      42.895  23.549  28.389  1.00  0.00     0.135 A 
ATOM     78  F   UNL A   1      44.291  26.475  26.744  1.00  0.00    -0.206 F 
ATOM     79  C   UNL A   1      44.225  24.238  26.039  1.00  0.00     0.059 A 
ATOM     80  C   UNL A   1      43.201  22.556  27.461  1.00  0.00     0.059 A 
ATOM     81  F   UNL A   1      42.264  23.190  29.517  1.00  0.00    -0.206 F 
ATOM     82  C   UNL A   1      43.858  22.913  26.284  1.00  0.00     0.060 A 
BRANCH  82  83
ATOM     83  S   UNL A   1      44.290  21.653  25.065  1.00  0.00     0.124 S 
ATOM     84  O   UNL A   1      44.092  22.376  23.814  1.00  0.00    -0.237 OA
ATOM     85  O   UNL A   1      45.675  21.351  25.414  1.00  0.00    -0.237 OA
ATOM     86  O   UNL A   1      43.336  20.583  25.336  1.00  0.00    -0.744 OA
ENDBRANCH  82  83
ENDBRANCH  50  75
BRANCH  62  87
ATOM     87  C   UNL A   1      46.504  27.124  33.936  1.00  0.00     0.058 A 
ATOM     88  C   UNL A   1      47.754  27.694  33.653  1.00  0.00     0.135 A 
ATOM     89  C   UNL A   1      46.442  26.146  34.943  1.00  0.00     0.135 A 
ATOM     90  F   UNL A   1      47.869  28.628  32.694  1.00  0.00    -0.206 F 
ATOM     91  C   UNL A   1      48.904  27.294  34.326  1.00  0.00     0.059 A 
ATOM     92  C   UNL A   1      47.575  25.751  35.647  1.00  0.00     0.059 A 
ATOM     93  F   UNL A   1      45.269  25.576  35.261  1.00  0.00    -0.206 F 
ATOM     94  C   UNL A   1      48.804  26.323  35.323  1.00  0.00     0.060 A 
BRANCH  94  95
ATOM     95  S   UNL A   1      50.298  25.836  36.212  1.00  0.00     0.124 S 
ATOM     96  O   UNL A   1      51.195  25.494  35.113  1.00  0.00    -0.237 OA
ATOM     97  O   UNL A   1      50.633  27.050  36.950  1.00  0.00    -0.237 OA
ATOM     98  O   UNL A   1      49.854  24.713  37.034  1.00  0.00    -0.744 OA
ENDBRANCH  94  95
ENDBRANCH  62  87
ENDBRANCH  36  37
ENDBRANCH  28  31
ENDBRANCH  26  27
ENDBRANCH  25  26
ENDBRANCH  24  25
ENDBRANCH   1  24
TORSDOF 19
ENDMDL
MODEL 2
REMARK VINA RESULT:     -11.1      2.585      3.250
REMARK SMILES C=Cc1cncc(-c2ccc([C@@H](C)C(=O)NCCCCCCNC(=O)c3ccc(-c4c5nc(c(-c6c(F)cc(S(=O)(=O)[O-])cc6F)c6ccc([nH]6)c(-c6c(F)cc(S(=O)(=O)[O-])cc6F)c6nc(c(-c7c(F)cc(S(=O)(=O)[O-])cc7F)c7ccc4[nH]7)C=C6)C=C5)cc3)cc2)c1
REMARK SMILES IDX 19 1 18 2 17 3 16 4 14 5 15 6 12 8 13 9 11 10 8 11 9 12
REMARK SMILES IDX 93 13 10 14 92 15 7 16 3 17 4 18 94 19 5 20 6 21 2 22 1 23
REMARK SMILES IDX 20 24 21 25 22 26 23 27 24 28 25 30 26 31 27 32 91 33 28 34
REMARK SMILES IDX 90 35 29 36 30 37 31 38 84 39 32 40 89 41 83 42 85 43 33 44
REMARK SMILES IDX 88 45 82 46 81 47 34 49 68 50 47 51 67 52 48 53 51 54 66 55
REMARK SMILES IDX 86 56 49 57 50 58 65 60 87 61 52 62 35 63 36 64 45 65 37 66
REMARK SMILES IDX 38 67 44 68 46 69 39 70 40 71 41 72 42 73 43 74 69 75 70 76
REMARK SMILES IDX 79 77 71 78 72 79 78 80 80 81 73 82 74 83 75 84 76 85 77 86
REMARK SMILES IDX 53 87 54 88 63 89 55 90 56 91 62 92 64 93 57 94 58 95 59 96
REMARK SMILES IDX 60 97 61 98
REMARK H PARENT 16 7 23 29 85 48 51 59
REMARK Flexibility Score: inf
ROOT
ATOM      1  C   UNL A   1      34.410  25.291  25.554  1.00  0.00     0.002 C 
ENDROOT
BRANCH   1   2
ATOM      2  C   UNL A   1      35.302  24.436  24.647  1.00  0.00     0.021 C 
BRANCH   2   3
ATOM      3  C   UNL A   1      34.866  22.973  24.555  1.00  0.00     0.116 C 
BRANCH   3   4
ATOM      4  N   UNL A   1      34.551  22.425  25.859  1.00  0.00    -0.356 N 
ATOM      5  C   UNL A   1      33.392  21.930  26.372  1.00  0.00     0.227 C 
ATOM      6  O   UNL A   1      33.410  21.617  27.569  1.00  0.00    -0.274 OA
ATOM      7  H   UNL A   1      35.311  22.409  26.484  1.00  0.00     0.163 HD
BRANCH   5   8
ATOM      8  C   UNL A   1      32.111  21.729  25.547  1.00  0.00     0.105 C 
ATOM      9  C   UNL A   1      32.231  20.643  24.477  1.00  0.00     0.023 C 
BRANCH   8  10
ATOM     10  C   UNL A   1      31.457  23.032  25.112  1.00  0.00    -0.036 A 
ATOM     11  C   UNL A   1      30.095  25.382  24.216  1.00  0.00    -0.017 A 
ATOM     12  C   UNL A   1      30.306  25.125  25.579  1.00  0.00     0.009 A 
ATOM     13  C   UNL A   1      30.616  24.450  23.306  1.00  0.00     0.009 A 
ATOM     14  C   UNL A   1      30.999  23.992  26.017  1.00  0.00     0.005 A 
ATOM     15  C   UNL A   1      31.269  23.289  23.745  1.00  0.00     0.005 A 
BRANCH  11  16
ATOM     16  C   UNL A   1      29.348  26.579  23.779  1.00  0.00     0.001 A 
ATOM     17  C   UNL A   1      29.218  28.749  22.663  1.00  0.00    -0.007 A 
ATOM     18  C   UNL A   1      27.852  28.738  22.926  1.00  0.00     0.119 A 
ATOM     19  C   UNL A   1      29.965  27.651  23.112  1.00  0.00     0.020 A 
ATOM     20  N   UNL A   1      27.210  27.743  23.574  1.00  0.00    -0.263 NA
ATOM     21  C   UNL A   1      27.971  26.700  23.979  1.00  0.00     0.119 A 
BRANCH  17  22
ATOM     22  C   UNL A   1      29.818  29.907  21.992  1.00  0.00     0.002 C 
ATOM     23  C   UNL A   1      29.273  31.129  21.966  1.00  0.00     0.009 C 
ENDBRANCH  17  22
ENDBRANCH  11  16
ENDBRANCH   8  10
ENDBRANCH   5   8
ENDBRANCH   3   4
ENDBRANCH   2   3
ENDBRANCH   1   2
BRANCH   1  24
ATOM     24  C   UNL A   1      33.636  26.407  24.840  1.00  0.00     0.002 C 
BRANCH  24  25
ATOM     25  C   UNL A   1      33.940  27.830  25.321  1.00  0.00     0.021 C 
BRANCH  25  26
ATOM     26  C   UNL A   1      33.703  28.066  26.810  1.00  0.00     0.116 C 
BRANCH  26  27
ATOM     27  N   UNL A   1      33.520  29.477  27.108  1.00  0.00    -0.352 N 
ATOM     28  C   UNL A   1      34.337  30.340  27.794  1.00  0.00     0.251 C 
ATOM     29  H   UNL A   1      32.685  29.873  26.766  1.00  0.00     0.163 HD
ATOM     30  O   UNL A   1      33.906  31.429  28.159  1.00  0.00    -0.269 OA
BRANCH  28  31
ATOM     31  C   UNL A   1      35.733  29.956  28.098  1.00  0.00     0.039 A 
ATOM     32  C   UNL A   1      36.699  30.054  27.095  1.00  0.00     0.014 A 
ATOM     33  C   UNL A   1      36.080  29.465  29.361  1.00  0.00     0.014 A 
ATOM     34  C   UNL A   1      38.023  29.704  27.369  1.00  0.00     0.010 A 
ATOM     35  C   UNL A   1      37.412  29.181  29.653  1.00  0.00     0.010 A 
ATOM     36  C   UNL A   1      38.395  29.286  28.658  1.00  0.00    -0.014 A 
BRANCH  36  37
ATOM     37  C   UNL A   1      39.802  28.939  28.981  1.00  0.00     0.031 A 
ATOM     38  C   UNL A   1      40.709  29.969  29.599  1.00  0.00     0.074 A 
ATOM     39  C   UNL A   1      40.280  27.719  28.663  1.00  0.00     0.049 A 
ATOM     40  N   UNL A   1      41.983  29.885  29.886  1.00  0.00    -0.248 NA
ATOM     41  C   UNL A   1      40.110  31.277  29.911  1.00  0.00     0.031 C 
ATOM     42  C   UNL A   1      39.511  26.651  28.022  1.00  0.00     0.029 A 
ATOM     43  N   UNL A   1      41.529  27.177  28.825  1.00  0.00    -0.354 N 
ATOM     44  C   UNL A   1      42.340  31.128  30.395  1.00  0.00     0.074 A 
ATOM     45  C   UNL A   1      41.162  31.965  30.330  1.00  0.00     0.031 C 
ATOM     46  C   UNL A   1      40.300  25.575  27.863  1.00  0.00     0.029 A 
ATOM     47  C   UNL A   1      41.638  25.889  28.355  1.00  0.00     0.049 A 
ATOM     48  H   UNL A   1      42.279  27.664  29.237  1.00  0.00     0.167 HD
ATOM     49  C   UNL A   1      43.536  31.528  30.893  1.00  0.00     0.037 A 
ATOM     50  C   UNL A   1      42.697  25.056  28.319  1.00  0.00     0.037 A 
ATOM     51  C   UNL A   1      44.697  30.680  30.977  1.00  0.00     0.049 A 
ATOM     52  C   UNL A   1      44.013  25.522  28.881  1.00  0.00     0.074 A 
ATOM     53  C   UNL A   1      45.939  30.973  31.512  1.00  0.00     0.029 A 
ATOM     54  N   UNL A   1      44.758  29.374  30.515  1.00  0.00    -0.354 N 
ATOM     55  N   UNL A   1      44.319  26.682  29.411  1.00  0.00    -0.248 NA
ATOM     56  C   UNL A   1      45.125  24.563  28.851  1.00  0.00     0.031 C 
ATOM     57  C   UNL A   1      46.763  29.857  31.338  1.00  0.00     0.029 A 
ATOM     58  C   UNL A   1      46.021  28.851  30.738  1.00  0.00     0.049 A 
ATOM     59  H   UNL A   1      44.013  28.889  30.091  1.00  0.00     0.167 HD
ATOM     60  C   UNL A   1      45.649  26.583  29.802  1.00  0.00     0.074 A 
ATOM     61  C   UNL A   1      46.086  25.246  29.457  1.00  0.00     0.031 C 
ATOM     62  C   UNL A   1      46.437  27.513  30.398  1.00  0.00     0.037 A 
BRANCH  49  63
ATOM     63  C   UNL A   1      43.643  32.945  31.388  1.00  0.00     0.058 A 
ATOM     64  C   UNL A   1      43.969  34.005  30.526  1.00  0.00     0.135 A 
ATOM     65  C   UNL A   1      43.393  33.253  32.736  1.00  0.00     0.135 A 
ATOM     66  F   UNL A   1      44.231  33.767  29.232  1.00  0.00    -0.206 F 
ATOM     67  C   UNL A   1      44.076  35.312  30.988  1.00  0.00     0.059 A 
ATOM     68  C   UNL A   1      43.466  34.559  33.213  1.00  0.00     0.059 A 
ATOM     69  F   UNL A   1      43.077  32.280  33.605  1.00  0.00    -0.206 F 
ATOM     70  C   UNL A   1      43.825  35.580  32.334  1.00  0.00     0.060 A 
BRANCH  70  71
ATOM     71  S   UNL A   1      43.971  37.282  32.917  1.00  0.00     0.124 S 
ATOM     72  O   UNL A   1      45.287  37.262  33.548  1.00  0.00    -0.237 OA
ATOM     73  O   UNL A   1      43.874  38.046  31.678  1.00  0.00    -0.237 OA
ATOM     74  O   UNL A   1      42.840  37.427  33.829  1.00  0.00    -0.744 OA
ENDBRANCH  70  71
ENDBRANCH  49  63
BRANCH  50  75
ATOM     75  C   UNL A   1      42.547  23.689  27.755  1.00  0.00     0.058 A 
ATOM     76  C   UNL A   1      42.584  23.473  26.370  1.00  0.00     0.135 A 
ATOM     77  C   UNL A   1      42.382  22.570  28.587  1.00  0.00     0.135 A 
ATOM     78  F   UNL A   1      42.734  24.512  25.533  1.00  0.00    -0.206 F 
ATOM     79  C   UNL A   1      42.446  22.201  25.825  1.00  0.00     0.059 A 
ATOM     80  C   UNL A   1      42.267  21.284  28.067  1.00  0.00     0.059 A 
ATOM     81  F   UNL A   1      42.358  22.720  29.920  1.00  0.00    -0.206 F 
ATOM     82  C   UNL A   1      42.290  21.111  26.683  1.00  0.00     0.060 A 
BRANCH  82  83
ATOM     83  S   UNL A   1      42.165  19.457  25.970  1.00  0.00     0.124 S 
ATOM     84  O   UNL A   1      40.731  19.350  25.726  1.00  0.00    -0.237 OA
ATOM     85  O   UNL A   1      43.007  19.570  24.783  1.00  0.00    -0.237 OA
ATOM     86  O   UNL A   1      42.694  18.597  27.024  1.00  0.00    -0.744 OA
ENDBRANCH  82  83
ENDBRANCH  50  75
BRANCH  62  87
ATOM     87  C   UNL A   1      47.840  27.107  30.752  1.00  0.00     0.058 A 
ATOM     88  C   UNL A   1      48.132  26.407  31.933  1.00  0.00     0.135 A 
ATOM     89  C   UNL A   1      48.900  27.377  29.871  1.00  0.00     0.135 A 
ATOM     90  F   UNL A   1      47.156  26.129  32.813  1.00  0.00    -0.206 F 
ATOM     91  C   UNL A   1      49.430  26.010  32.240  1.00  0.00     0.059 A 
ATOM     92  C   UNL A   1      50.200  26.965  30.144  1.00  0.00     0.059 A 
ATOM     93  F   UNL A   1      48.673  28.034  28.722  1.00  0.00    -0.206 F 
ATOM     94  C   UNL A   1      50.457  26.293  31.338  1.00  0.00     0.060 A 
BRANCH  94  95
ATOM     95  S   UNL A   1      52.132  25.744  31.731  1.00  0.00     0.124 S 
ATOM     96  O   UNL A   1      51.908  24.343  32.071  1.00  0.00    -0.237 OA
ATOM     97  O   UNL A   1      52.844  25.987  30.481  1.00  0.00    -0.237 OA
ATOM     98  O   UNL A   1      52.519  26.606  32.844  1.00  0.00    -0.744 OA
ENDBRANCH  94  95
ENDBRANCH  62  87
ENDBRANCH  36  37
ENDBRANCH  28  31
ENDBRANCH  26  27
ENDBRANCH  25  26
ENDBRANCH  24  25
ENDBRANCH   1  24
TORSDOF 19
ENDMDL
MODEL 3
REMARK VINA RESULT:     -10.8      3.525      8.305
REMARK SMILES C=Cc1cncc(-c2ccc([C@@H](C)C(=O)NCCCCCCNC(=O)c3ccc(-c4c5nc(c(-c6c(F)cc(S(=O)(=O)[O-])cc6F)c6ccc([nH]6)c(-c6c(F)cc(S(=O)(=O)[O-])cc6F)c6nc(c(-c7c(F)cc(S(=O)(=O)[O-])cc7F)c7ccc4[nH]7)C=C6)C=C5)cc3)cc2)c1
REMARK SMILES IDX 19 1 18 2 17 3 16 4 14 5 15 6 12 8 13 9 11 10 8 11 9 12
REMARK SMILES IDX 93 13 10 14 92 15 7 16 3 17 4 18 94 19 5 20 6 21 2 22 1 23
REMARK SMILES IDX 20 24 21 25 22 26 23 27 24 28 25 30 26 31 27 32 91 33 28 34
REMARK SMILES IDX 90 35 29 36 30 37 31 38 84 39 32 40 89 41 83 42 85 43 33 44
REMARK SMILES IDX 88 45 82 46 81 47 34 49 68 50 47 51 67 52 48 53 51 54 66 55
REMARK SMILES IDX 86 56 49 57 50 58 65 60 87 61 52 62 35 63 36 64 45 65 37 66
REMARK SMILES IDX 38 67 44 68 46 69 39 70 40 71 41 72 42 73 43 74 69 75 70 76
REMARK SMILES IDX 79 77 71 78 72 79 78 80 80 81 73 82 74 83 75 84 76 85 77 86
REMARK SMILES IDX 53 87 54 88 63 89 55 90 56 91 62 92 64 93 57 94 58 95 59 96
REMARK SMILES IDX 60 97 61 98
REMARK H PARENT 16 7 23 29 85 48 51 59
REMARK Flexibility Score: inf
ROOT
ATOM      1  C   UNL A   1      36.040  22.334  24.835  1.00  0.00     0.002 C 
ENDROOT
BRANCH   1   2
ATOM      2  C   UNL A   1      35.660  21.063  25.602  1.00  0.00     0.021 C 
BRANCH   2   3
ATOM      3  C   UNL A   1      35.308  19.879  24.699  1.00  0.00     0.116 C 
BRANCH   3   4
ATOM      4  N   UNL A   1      34.302  19.027  25.301  1.00  0.00    -0.356 N 
ATOM      5  C   UNL A   1      32.964  18.919  25.082  1.00  0.00     0.227 C 
ATOM      6  O   UNL A   1      32.343  18.154  25.831  1.00  0.00    -0.274 OA
ATOM      7  H   UNL A   1      34.651  18.418  25.992  1.00  0.00     0.163 HD
BRANCH   5   8
ATOM      8  C   UNL A   1      32.220  19.667  23.964  1.00  0.00     0.105 C 
ATOM      9  C   UNL A   1      32.402  19.045  22.579  1.00  0.00     0.023 C 
BRANCH   8  10
ATOM     10  C   UNL A   1      32.360  21.179  24.046  1.00  0.00    -0.036 A 
ATOM     11  C   UNL A   1      32.744  23.999  24.335  1.00  0.00    -0.017 A 
ATOM     12  C   UNL A   1      33.040  23.332  23.137  1.00  0.00     0.009 A 
ATOM     13  C   UNL A   1      32.213  23.224  25.377  1.00  0.00     0.009 A 
ATOM     14  C   UNL A   1      32.823  21.959  22.984  1.00  0.00     0.005 A 
ATOM     15  C   UNL A   1      32.041  21.839  25.243  1.00  0.00     0.005 A 
BRANCH  11  16
ATOM     16  C   UNL A   1      32.993  25.447  24.476  1.00  0.00     0.001 A 
ATOM     17  C   UNL A   1      33.095  27.498  25.802  1.00  0.00    -0.007 A 
ATOM     18  C   UNL A   1      33.567  28.143  24.664  1.00  0.00     0.119 A 
ATOM     19  C   UNL A   1      32.798  26.132  25.688  1.00  0.00     0.020 A 
ATOM     20  N   UNL A   1      33.759  27.539  23.472  1.00  0.00    -0.263 NA
ATOM     21  C   UNL A   1      33.469  26.219  23.412  1.00  0.00     0.119 A 
BRANCH  17  22
ATOM     22  C   UNL A   1      32.879  28.264  27.034  1.00  0.00     0.002 C 
ATOM     23  C   UNL A   1      31.726  28.292  27.712  1.00  0.00     0.009 C 
ENDBRANCH  17  22
ENDBRANCH  11  16
ENDBRANCH   8  10
ENDBRANCH   5   8
ENDBRANCH   3   4
ENDBRANCH   2   3
ENDBRANCH   1   2
BRANCH   1  24
ATOM     24  C   UNL A   1      37.481  22.816  25.046  1.00  0.00     0.002 C 
BRANCH  24  25
ATOM     25  C   UNL A   1      37.654  23.945  26.069  1.00  0.00     0.021 C 
BRANCH  25  26
ATOM     26  C   UNL A   1      38.965  23.905  26.848  1.00  0.00     0.116 C 
BRANCH  26  27
ATOM     27  N   UNL A   1      40.086  24.355  26.038  1.00  0.00    -0.352 N 
ATOM     28  C   UNL A   1      40.809  25.519  26.114  1.00  0.00     0.251 C 
ATOM     29  H   UNL A   1      40.368  23.732  25.329  1.00  0.00     0.163 HD
ATOM     30  O   UNL A   1      41.556  25.835  25.193  1.00  0.00    -0.269 OA
BRANCH  28  31
ATOM     31  C   UNL A   1      40.684  26.393  27.301  1.00  0.00     0.039 A 
ATOM     32  C   UNL A   1      39.784  26.044  28.311  1.00  0.00     0.014 A 
ATOM     33  C   UNL A   1      41.427  27.573  27.401  1.00  0.00     0.014 A 
ATOM     34  C   UNL A   1      39.663  26.854  29.442  1.00  0.00     0.010 A 
ATOM     35  C   UNL A   1      41.355  28.343  28.559  1.00  0.00     0.010 A 
ATOM     36  C   UNL A   1      40.464  27.999  29.586  1.00  0.00    -0.014 A 
BRANCH  36  37
ATOM     37  C   UNL A   1      40.374  28.858  30.794  1.00  0.00     0.031 A 
ATOM     38  C   UNL A   1      39.361  29.969  30.853  1.00  0.00     0.074 A 
ATOM     39  C   UNL A   1      41.242  28.677  31.809  1.00  0.00     0.049 A 
ATOM     40  N   UNL A   1      39.175  30.871  31.783  1.00  0.00    -0.248 NA
ATOM     41  C   UNL A   1      38.453  30.101  29.701  1.00  0.00     0.031 C 
ATOM     42  C   UNL A   1      42.296  27.662  31.849  1.00  0.00     0.029 A 
ATOM     43  N   UNL A   1      41.383  29.348  32.997  1.00  0.00    -0.354 N 
ATOM     44  C   UNL A   1      38.145  31.684  31.323  1.00  0.00     0.074 A 
ATOM     45  C   UNL A   1      37.781  31.201  30.010  1.00  0.00     0.031 C 
ATOM     46  C   UNL A   1      42.962  27.765  33.012  1.00  0.00     0.029 A 
ATOM     47  C   UNL A   1      42.409  28.875  33.781  1.00  0.00     0.049 A 
ATOM     48  H   UNL A   1      40.804  30.100  33.263  1.00  0.00     0.167 HD
ATOM     49  C   UNL A   1      37.542  32.724  31.950  1.00  0.00     0.037 A 
ATOM     50  C   UNL A   1      42.857  29.292  34.982  1.00  0.00     0.037 A 
ATOM     51  C   UNL A   1      37.894  33.182  33.268  1.00  0.00     0.049 A 
ATOM     52  C   UNL A   1      42.169  30.447  35.659  1.00  0.00     0.074 A 
ATOM     53  C   UNL A   1      37.311  34.192  34.013  1.00  0.00     0.029 A 
ATOM     54  N   UNL A   1      38.921  32.659  34.040  1.00  0.00    -0.354 N 
ATOM     55  N   UNL A   1      41.160  31.168  35.234  1.00  0.00    -0.248 NA
ATOM     56  C   UNL A   1      42.674  30.838  36.982  1.00  0.00     0.031 C 
ATOM     57  C   UNL A   1      38.010  34.307  35.218  1.00  0.00     0.029 A 
ATOM     58  C   UNL A   1      38.999  33.336  35.247  1.00  0.00     0.049 A 
ATOM     59  H   UNL A   1      39.509  31.916  33.771  1.00  0.00     0.167 HD
ATOM     60  C   UNL A   1      40.890  32.079  36.250  1.00  0.00     0.074 A 
ATOM     61  C   UNL A   1      41.836  31.811  37.312  1.00  0.00     0.031 C 
ATOM     62  C   UNL A   1      39.941  33.048  36.299  1.00  0.00     0.037 A 
BRANCH  49  63
ATOM     63  C   UNL A   1      36.437  33.432  31.214  1.00  0.00     0.058 A 
ATOM     64  C   UNL A   1      36.699  34.263  30.113  1.00  0.00     0.135 A 
ATOM     65  C   UNL A   1      35.096  33.258  31.596  1.00  0.00     0.135 A 
ATOM     66  F   UNL A   1      37.962  34.477  29.712  1.00  0.00    -0.206 F 
ATOM     67  C   UNL A   1      35.677  34.924  29.439  1.00  0.00     0.059 A 
ATOM     68  C   UNL A   1      34.055  33.886  30.918  1.00  0.00     0.059 A 
ATOM     69  F   UNL A   1      34.787  32.474  32.641  1.00  0.00    -0.206 F 
ATOM     70  C   UNL A   1      34.358  34.731  29.851  1.00  0.00     0.060 A 
BRANCH  70  71
ATOM     71  S   UNL A   1      33.043  35.598  28.967  1.00  0.00     0.124 S 
ATOM     72  O   UNL A   1      33.809  36.538  28.155  1.00  0.00    -0.237 OA
ATOM     73  O   UNL A   1      32.391  34.516  28.237  1.00  0.00    -0.237 OA
ATOM     74  O   UNL A   1      32.250  36.194  30.038  1.00  0.00    -0.744 OA
ENDBRANCH  70  71
ENDBRANCH  49  63
BRANCH  50  75
ATOM     75  C   UNL A   1      43.998  28.594  35.631  1.00  0.00     0.058 A 
ATOM     76  C   UNL A   1      43.781  27.534  36.523  1.00  0.00     0.135 A 
ATOM     77  C   UNL A   1      45.326  28.959  35.360  1.00  0.00     0.135 A 
ATOM     78  F   UNL A   1      42.528  27.153  36.819  1.00  0.00    -0.206 F 
ATOM     79  C   UNL A   1      44.836  26.870  37.138  1.00  0.00     0.059 A 
ATOM     80  C   UNL A   1      46.401  28.293  35.943  1.00  0.00     0.059 A 
ATOM     81  F   UNL A   1      45.588  29.954  34.499  1.00  0.00    -0.206 F 
ATOM     82  C   UNL A   1      46.144  27.256  36.839  1.00  0.00     0.060 A 
BRANCH  82  83
ATOM     83  S   UNL A   1      47.510  26.353  37.602  1.00  0.00     0.124 S 
ATOM     84  O   UNL A   1      48.468  27.424  37.848  1.00  0.00    -0.237 OA
ATOM     85  O   UNL A   1      46.876  25.780  38.786  1.00  0.00    -0.237 OA
ATOM     86  O   UNL A   1      47.889  25.388  36.574  1.00  0.00    -0.744 OA
ENDBRANCH  82  83
ENDBRANCH  50  75
BRANCH  62  87
ATOM     87  C   UNL A   1      39.851  33.864  37.559  1.00  0.00     0.058 A 
ATOM     88  C   UNL A   1      40.557  35.066  37.714  1.00  0.00     0.135 A 
ATOM     89  C   UNL A   1      39.004  33.461  38.605  1.00  0.00     0.135 A 
ATOM     90  F   UNL A   1      41.385  35.493  36.747  1.00  0.00    -0.206 F 
ATOM     91  C   UNL A   1      40.446  35.830  38.872  1.00  0.00     0.059 A 
ATOM     92  C   UNL A   1      38.856  34.222  39.759  1.00  0.00     0.059 A 
ATOM     93  F   UNL A   1      38.298  32.324  38.503  1.00  0.00    -0.206 F 
ATOM     94  C   UNL A   1      39.591  35.400  39.889  1.00  0.00     0.060 A 
BRANCH  94  95
ATOM     95  S   UNL A   1      39.430  36.416  41.372  1.00  0.00     0.124 S 
ATOM     96  O   UNL A   1      40.748  36.262  41.978  1.00  0.00    -0.237 OA
ATOM     97  O   UNL A   1      39.136  37.734  40.819  1.00  0.00    -0.237 OA
ATOM     98  O   UNL A   1      38.328  35.787  42.097  1.00  0.00    -0.744 OA
ENDBRANCH  94  95
ENDBRANCH  62  87
ENDBRANCH  36  37
ENDBRANCH  28  31
ENDBRANCH  26  27
ENDBRANCH  25  26
ENDBRANCH  24  25
ENDBRANCH   1  24
TORSDOF 19
ENDMDL
