MODEL 1
REMARK VINA RESULT:     -11.8      0.000      0.000
REMARK SMILES C[C@H]1CCCC[C@H]1[N@H+]1[C@@H](C(=O)NCCCCCCNC(=O)c2ccc(-c3c4nc(c(-c5c(F)cc(S(=O)(=O)[O-])cc5F)c5ccc([nH]5)c(-c5c(F)cc(S(=O)(=O)[O-])cc5F)c5nc(c(-c6c(F)cc(S(=O)(=O)[O-])cc6F)c6ccc3[nH]6)C=C5)C=C4)cc2)CC[C@@H]2CCCC[C@@H]21
REMARK SMILES IDX 16 1 15 2 14 3 13 4 12 5 10 6 11 7 9 9 8 10 95 11 88 13
REMARK SMILES IDX 90 14 94 15 89 16 91 17 93 18 92 19 7 20 1 21 2 22 3 23 4 24
REMARK SMILES IDX 6 25 5 26 17 27 18 28 19 29 20 30 21 32 22 33 23 34 87 35
REMARK SMILES IDX 24 36 86 37 25 38 26 39 27 40 80 41 28 42 85 43 79 44 81 45
REMARK SMILES IDX 29 46 84 47 78 48 77 49 30 51 64 52 43 53 63 54 44 55 47 56
REMARK SMILES IDX 62 57 82 58 45 59 46 60 61 62 83 63 48 64 31 65 32 66 41 67
REMARK SMILES IDX 33 68 34 69 40 70 42 71 35 72 36 73 37 74 38 75 39 76 65 77
REMARK SMILES IDX 66 78 75 79 67 80 68 81 74 82 76 83 69 84 70 85 71 86 72 87
REMARK SMILES IDX 73 88 49 89 50 90 59 91 51 92 52 93 58 94 60 95 53 96 54 97
REMARK SMILES IDX 55 98 56 99 57 100
REMARK H PARENT 12 8 8 12 19 31 81 50 47 61
REMARK Flexibility Score: inf
ROOT
ATOM      1  C   UNL A   1      31.657  27.479  25.897  1.00  0.00     0.002 C 
ENDROOT
BRANCH   1   2
ATOM      2  C   UNL A   1      30.718  26.272  26.003  1.00  0.00     0.002 C 
BRANCH   2   3
ATOM      3  C   UNL A   1      31.042  25.111  25.062  1.00  0.00     0.021 C 
BRANCH   3   4
ATOM      4  C   UNL A   1      30.569  25.293  23.621  1.00  0.00     0.116 C 
BRANCH   4   5
ATOM      5  N   UNL A   1      31.649  25.513  22.665  1.00  0.00    -0.351 N 
ATOM      6  C   UNL A   1      32.605  24.641  22.193  1.00  0.00     0.278 C 
ATOM      7  O   UNL A   1      33.257  24.977  21.199  1.00  0.00    -0.268 OA
ATOM      8  H   UNL A   1      31.703  26.426  22.301  1.00  0.00     0.163 HD
BRANCH   6   9
ATOM      9  C   UNL A   1      32.756  23.266  22.828  1.00  0.00     0.274 C 
ATOM     10  N   UNL A   1      33.845  22.971  23.809  1.00  0.00    -0.319 N 
ATOM     11  C   UNL A   1      33.891  21.499  24.110  1.00  0.00     0.188 C 
ATOM     12  H   UNL A   1      33.513  23.531  24.594  1.00  0.00     0.349 HD
ATOM     13  C   UNL A   1      32.515  22.127  21.833  1.00  0.00     0.076 C 
ATOM     14  C   UNL A   1      32.491  20.829  24.026  1.00  0.00     0.048 C 
ATOM     15  C   UNL A   1      34.521  21.061  25.459  1.00  0.00     0.065 C 
ATOM     16  C   UNL A   1      31.920  20.937  22.598  1.00  0.00     0.016 C 
ATOM     17  C   UNL A   1      31.540  21.349  25.140  1.00  0.00     0.010 C 
ATOM     18  C   UNL A   1      33.524  20.894  26.610  1.00  0.00     0.006 C 
ATOM     19  C   UNL A   1      32.291  21.757  26.415  1.00  0.00     0.001 C 
BRANCH  10  20
ATOM     20  C   UNL A   1      35.155  23.677  23.842  1.00  0.00     0.187 C 
ATOM     21  C   UNL A   1      34.749  25.642  25.558  1.00  0.00     0.014 C 
ATOM     22  C   UNL A   1      35.647  24.516  25.057  1.00  0.00     0.044 C 
ATOM     23  C   UNL A   1      36.095  23.608  26.192  1.00  0.00     0.009 C 
ATOM     24  C   UNL A   1      37.318  22.792  25.787  1.00  0.00     0.001 C 
ATOM     25  C   UNL A   1      36.392  22.895  23.331  1.00  0.00     0.065 C 
ATOM     26  C   UNL A   1      37.340  22.258  24.354  1.00  0.00     0.006 C 
ENDBRANCH  10  20
ENDBRANCH   6   9
ENDBRANCH   4   5
ENDBRANCH   3   4
ENDBRANCH   2   3
ENDBRANCH   1   2
BRANCH   1  27
ATOM     27  C   UNL A   1      32.059  28.122  27.228  1.00  0.00     0.021 C 
BRANCH  27  28
ATOM     28  C   UNL A   1      33.473  28.700  27.270  1.00  0.00     0.116 C 
BRANCH  28  29
ATOM     29  N   UNL A   1      33.490  30.089  27.702  1.00  0.00    -0.352 N 
ATOM     30  C   UNL A   1      34.482  30.794  28.339  1.00  0.00     0.251 C 
ATOM     31  H   UNL A   1      32.670  30.599  27.510  1.00  0.00     0.163 HD
ATOM     32  O   UNL A   1      34.246  31.915  28.788  1.00  0.00    -0.269 OA
BRANCH  30  33
ATOM     33  C   UNL A   1      35.825  30.197  28.512  1.00  0.00     0.039 A 
ATOM     34  C   UNL A   1      36.692  30.155  27.416  1.00  0.00     0.014 A 
ATOM     35  C   UNL A   1      36.236  29.694  29.749  1.00  0.00     0.014 A 
ATOM     36  C   UNL A   1      38.001  29.695  27.584  1.00  0.00     0.010 A 
ATOM     37  C   UNL A   1      37.561  29.296  29.930  1.00  0.00     0.010 A 
ATOM     38  C   UNL A   1      38.462  29.312  28.855  1.00  0.00    -0.014 A 
BRANCH  38  39
ATOM     39  C   UNL A   1      39.896  29.000  29.094  1.00  0.00     0.031 A 
ATOM     40  C   UNL A   1      40.836  30.052  29.615  1.00  0.00     0.074 A 
ATOM     41  C   UNL A   1      40.368  27.783  28.754  1.00  0.00     0.049 A 
ATOM     42  N   UNL A   1      42.129  29.981  29.804  1.00  0.00    -0.248 NA
ATOM     43  C   UNL A   1      40.251  31.359  29.950  1.00  0.00     0.031 C 
ATOM     44  C   UNL A   1      39.563  26.689  28.205  1.00  0.00     0.029 A 
ATOM     45  N   UNL A   1      41.638  27.262  28.806  1.00  0.00    -0.354 N 
ATOM     46  C   UNL A   1      42.516  31.233  30.264  1.00  0.00     0.074 A 
ATOM     47  C   UNL A   1      41.327  32.058  30.289  1.00  0.00     0.031 C 
ATOM     48  C   UNL A   1      40.351  25.623  27.995  1.00  0.00     0.029 A 
ATOM     49  C   UNL A   1      41.725  25.970  28.342  1.00  0.00     0.049 A 
ATOM     50  H   UNL A   1      42.413  27.766  29.144  1.00  0.00     0.167 HD
ATOM     51  C   UNL A   1      43.749  31.652  30.640  1.00  0.00     0.037 A 
ATOM     52  C   UNL A   1      42.791  25.159  28.195  1.00  0.00     0.037 A 
ATOM     53  C   UNL A   1      44.926  30.820  30.624  1.00  0.00     0.049 A 
ATOM     54  C   UNL A   1      44.156  25.663  28.581  1.00  0.00     0.074 A 
ATOM     55  C   UNL A   1      46.202  31.129  31.059  1.00  0.00     0.029 A 
ATOM     56  N   UNL A   1      44.977  29.523  30.133  1.00  0.00    -0.354 N 
ATOM     57  N   UNL A   1      44.490  26.825  29.091  1.00  0.00    -0.248 NA
ATOM     58  C   UNL A   1      45.287  24.752  28.367  1.00  0.00     0.031 C 
ATOM     59  C   UNL A   1      47.039  30.047  30.769  1.00  0.00     0.029 A 
ATOM     60  C   UNL A   1      46.272  29.037  30.211  1.00  0.00     0.049 A 
ATOM     61  H   UNL A   1      44.206  29.022  29.780  1.00  0.00     0.167 HD
ATOM     62  C   UNL A   1      45.867  26.774  29.279  1.00  0.00     0.074 A 
ATOM     63  C   UNL A   1      46.300  25.463  28.842  1.00  0.00     0.031 C 
ATOM     64  C   UNL A   1      46.695  27.730  29.769  1.00  0.00     0.037 A 
BRANCH  51  65
ATOM     65  C   UNL A   1      43.900  33.083  31.087  1.00  0.00     0.058 A 
ATOM     66  C   UNL A   1      44.177  34.119  30.181  1.00  0.00     0.135 A 
ATOM     67  C   UNL A   1      43.716  33.429  32.436  1.00  0.00     0.135 A 
ATOM     68  F   UNL A   1      44.373  33.847  28.880  1.00  0.00    -0.206 F 
ATOM     69  C   UNL A   1      44.298  35.440  30.600  1.00  0.00     0.059 A 
ATOM     70  C   UNL A   1      43.802  34.748  32.874  1.00  0.00     0.059 A 
ATOM     71  F   UNL A   1      43.446  32.481  33.347  1.00  0.00    -0.206 F 
ATOM     72  C   UNL A   1      44.109  35.745  31.950  1.00  0.00     0.060 A 
BRANCH  72  73
ATOM     73  S   UNL A   1      44.270  37.464  32.476  1.00  0.00     0.124 S 
ATOM     74  O   UNL A   1      43.356  37.507  33.613  1.00  0.00    -0.237 OA
ATOM     75  O   UNL A   1      45.690  37.558  32.802  1.00  0.00    -0.237 OA
ATOM     76  O   UNL A   1      43.847  38.222  31.302  1.00  0.00    -0.744 OA
ENDBRANCH  72  73
ENDBRANCH  51  65
BRANCH  52  77
ATOM     77  C   UNL A   1      42.610  23.781  27.666  1.00  0.00     0.058 A 
ATOM     78  C   UNL A   1      42.435  22.695  28.537  1.00  0.00     0.135 A 
ATOM     79  C   UNL A   1      42.589  23.520  26.286  1.00  0.00     0.135 A 
ATOM     80  F   UNL A   1      42.458  22.891  29.864  1.00  0.00    -0.206 F 
ATOM     81  C   UNL A   1      42.256  21.400  28.062  1.00  0.00     0.059 A 
ATOM     82  C   UNL A   1      42.384  22.239  25.787  1.00  0.00     0.059 A 
ATOM     83  F   UNL A   1      42.739  24.525  25.409  1.00  0.00    -0.206 F 
ATOM     84  C   UNL A   1      42.227  21.183  26.683  1.00  0.00     0.060 A 
BRANCH  84  85
ATOM     85  S   UNL A   1      41.938  19.505  26.079  1.00  0.00     0.124 S 
ATOM     86  O   UNL A   1      42.825  19.453  24.922  1.00  0.00    -0.237 OA
ATOM     87  O   UNL A   1      42.336  18.696  27.226  1.00  0.00    -0.237 OA
ATOM     88  O   UNL A   1      40.509  19.498  25.781  1.00  0.00    -0.744 OA
ENDBRANCH  84  85
ENDBRANCH  52  77
BRANCH  64  89
ATOM     89  C   UNL A   1      48.159  27.394  29.875  1.00  0.00     0.058 A 
ATOM     90  C   UNL A   1      49.074  27.769  28.879  1.00  0.00     0.135 A 
ATOM     91  C   UNL A   1      48.662  26.751  31.018  1.00  0.00     0.135 A 
ATOM     92  F   UNL A   1      48.645  28.375  27.761  1.00  0.00    -0.206 F 
ATOM     93  C   UNL A   1      50.434  27.506  29.006  1.00  0.00     0.059 A 
ATOM     94  C   UNL A   1      50.022  26.505  31.179  1.00  0.00     0.059 A 
ATOM     95  F   UNL A   1      47.832  26.376  32.004  1.00  0.00    -0.206 F 
ATOM     96  C   UNL A   1      50.900  26.881  30.164  1.00  0.00     0.060 A 
BRANCH  96  97
ATOM     97  S   UNL A   1      52.675  26.598  30.338  1.00  0.00     0.124 S 
ATOM     98  O   UNL A   1      53.038  26.166  28.993  1.00  0.00    -0.237 OA
ATOM     99  O   UNL A   1      53.162  27.916  30.733  1.00  0.00    -0.237 OA
ATOM    100  O   UNL A   1      52.756  25.570  31.371  1.00  0.00    -0.744 OA
ENDBRANCH  96  97
ENDBRANCH  64  89
ENDBRANCH  38  39
ENDBRANCH  30  33
ENDBRANCH  28  29
ENDBRANCH  27  28
ENDBRANCH   1  27
TORSDOF 17
ENDMDL
MODEL 2
REMARK VINA RESULT:     -11.6      2.171      3.354
REMARK SMILES C[C@H]1CCCC[C@H]1[N@H+]1[C@@H](C(=O)NCCCCCCNC(=O)c2ccc(-c3c4nc(c(-c5c(F)cc(S(=O)(=O)[O-])cc5F)c5ccc([nH]5)c(-c5c(F)cc(S(=O)(=O)[O-])cc5F)c5nc(c(-c6c(F)cc(S(=O)(=O)[O-])cc6F)c6ccc3[nH]6)C=C5)C=C4)cc2)CC[C@@H]2CCCC[C@@H]21
REMARK SMILES IDX 16 1 15 2 14 3 13 4 12 5 10 6 11 7 9 9 8 10 95 11 88 13
REMARK SMILES IDX 90 14 94 15 89 16 91 17 93 18 92 19 7 20 1 21 2 22 3 23 4 24
REMARK SMILES IDX 6 25 5 26 17 27 18 28 19 29 20 30 21 32 22 33 23 34 87 35
REMARK SMILES IDX 24 36 86 37 25 38 26 39 27 40 80 41 28 42 85 43 79 44 81 45
REMARK SMILES IDX 29 46 84 47 78 48 77 49 30 51 64 52 43 53 63 54 44 55 47 56
REMARK SMILES IDX 62 57 82 58 45 59 46 60 61 62 83 63 48 64 31 65 32 66 41 67
REMARK SMILES IDX 33 68 34 69 40 70 42 71 35 72 36 73 37 74 38 75 39 76 65 77
REMARK SMILES IDX 66 78 75 79 67 80 68 81 74 82 76 83 69 84 70 85 71 86 72 87
REMARK SMILES IDX 73 88 49 89 50 90 59 91 51 92 52 93 58 94 60 95 53 96 54 97
REMARK SMILES IDX 55 98 56 99 57 100
REMARK H PARENT 12 8 8 12 19 31 81 50 47 61
REMARK Flexibility Score: inf
ROOT
ATOM      1  C   UNL A   1      32.969  28.748  25.933  1.00  0.00     0.002 C 
ENDROOT
BRANCH   1   2
ATOM      2  C   UNL A   1      33.997  28.091  25.007  1.00  0.00     0.002 C 
BRANCH   2   3
ATOM      3  C   UNL A   1      34.060  28.665  23.591  1.00  0.00     0.021 C 
BRANCH   3   4
ATOM      4  C   UNL A   1      32.965  28.178  22.645  1.00  0.00     0.116 C 
BRANCH   4   5
ATOM      5  N   UNL A   1      33.371  27.070  21.787  1.00  0.00    -0.351 N 
ATOM      6  C   UNL A   1      32.955  25.757  21.779  1.00  0.00     0.278 C 
ATOM      7  O   UNL A   1      33.247  25.062  20.801  1.00  0.00    -0.268 OA
ATOM      8  H   UNL A   1      34.049  27.295  21.109  1.00  0.00     0.163 HD
BRANCH   6   9
ATOM      9  C   UNL A   1      32.071  25.236  22.903  1.00  0.00     0.274 C 
ATOM     10  N   UNL A   1      32.352  23.934  23.582  1.00  0.00    -0.319 N 
ATOM     11  C   UNL A   1      31.215  23.565  24.494  1.00  0.00     0.188 C 
ATOM     12  H   UNL A   1      33.201  24.191  24.085  1.00  0.00     0.349 HD
ATOM     13  C   UNL A   1      30.581  25.470  22.637  1.00  0.00     0.076 C 
ATOM     14  C   UNL A   1      30.507  24.811  25.099  1.00  0.00     0.048 C 
ATOM     15  C   UNL A   1      31.521  22.604  25.673  1.00  0.00     0.065 C 
ATOM     16  C   UNL A   1      29.877  25.673  23.987  1.00  0.00     0.016 C 
ATOM     17  C   UNL A   1      31.445  25.589  26.063  1.00  0.00     0.010 C 
ATOM     18  C   UNL A   1      31.874  23.297  26.993  1.00  0.00     0.006 C 
ATOM     19  C   UNL A   1      32.461  24.677  26.763  1.00  0.00     0.001 C 
BRANCH  10  20
ATOM     20  C   UNL A   1      33.061  22.792  22.942  1.00  0.00     0.187 C 
ATOM     21  C   UNL A   1      35.607  23.319  23.397  1.00  0.00     0.014 C 
ATOM     22  C   UNL A   1      34.471  22.303  23.382  1.00  0.00     0.044 C 
ATOM     23  C   UNL A   1      34.388  21.532  24.692  1.00  0.00     0.009 C 
ATOM     24  C   UNL A   1      33.588  20.246  24.517  1.00  0.00     0.001 C 
ATOM     25  C   UNL A   1      32.229  21.514  22.660  1.00  0.00     0.065 C 
ATOM     26  C   UNL A   1      32.350  20.326  23.622  1.00  0.00     0.006 C 
ENDBRANCH  10  20
ENDBRANCH   6   9
ENDBRANCH   4   5
ENDBRANCH   3   4
ENDBRANCH   2   3
ENDBRANCH   1   2
BRANCH   1  27
ATOM     27  C   UNL A   1      33.389  28.879  27.400  1.00  0.00     0.021 C 
BRANCH  27  28
ATOM     28  C   UNL A   1      34.842  29.293  27.627  1.00  0.00     0.116 C 
BRANCH  28  29
ATOM     29  N   UNL A   1      34.972  30.322  28.647  1.00  0.00    -0.352 N 
ATOM     30  C   UNL A   1      36.042  30.623  29.454  1.00  0.00     0.251 C 
ATOM     31  H   UNL A   1      34.176  30.887  28.777  1.00  0.00     0.163 HD
ATOM     32  O   UNL A   1      35.903  31.414  30.385  1.00  0.00    -0.269 OA
BRANCH  30  33
ATOM     33  C   UNL A   1      37.352  29.975  29.224  1.00  0.00     0.039 A 
ATOM     34  C   UNL A   1      37.858  29.917  27.922  1.00  0.00     0.014 A 
ATOM     35  C   UNL A   1      38.088  29.440  30.284  1.00  0.00     0.014 A 
ATOM     36  C   UNL A   1      39.140  29.408  27.697  1.00  0.00     0.010 A 
ATOM     37  C   UNL A   1      39.391  28.992  30.068  1.00  0.00     0.010 A 
ATOM     38  C   UNL A   1      39.938  28.991  28.776  1.00  0.00    -0.014 A 
BRANCH  38  39
ATOM     39  C   UNL A   1      41.366  28.623  28.582  1.00  0.00     0.031 A 
ATOM     40  C   UNL A   1      42.445  29.667  28.659  1.00  0.00     0.074 A 
ATOM     41  C   UNL A   1      41.677  27.354  28.250  1.00  0.00     0.049 A 
ATOM     42  N   UNL A   1      43.729  29.542  28.436  1.00  0.00    -0.248 NA
ATOM     43  C   UNL A   1      42.027  31.032  29.012  1.00  0.00     0.031 C 
ATOM     44  C   UNL A   1      40.715  26.258  28.109  1.00  0.00     0.029 A 
ATOM     45  N   UNL A   1      42.885  26.770  27.956  1.00  0.00    -0.354 N 
ATOM     46  C   UNL A   1      44.270  30.811  28.607  1.00  0.00     0.074 A 
ATOM     47  C   UNL A   1      43.170  31.699  28.914  1.00  0.00     0.031 C 
ATOM     48  C   UNL A   1      41.371  25.134  27.782  1.00  0.00     0.029 A 
ATOM     49  C   UNL A   1      42.791  25.435  27.636  1.00  0.00     0.049 A 
ATOM     50  H   UNL A   1      43.738  27.261  27.973  1.00  0.00     0.167 HD
ATOM     51  C   UNL A   1      45.567  31.195  28.525  1.00  0.00     0.037 A 
ATOM     52  C   UNL A   1      43.736  24.556  27.251  1.00  0.00     0.037 A 
ATOM     53  C   UNL A   1      46.659  30.299  28.231  1.00  0.00     0.049 A 
ATOM     54  C   UNL A   1      45.163  25.018  27.127  1.00  0.00     0.074 A 
ATOM     55  C   UNL A   1      48.013  30.579  28.203  1.00  0.00     0.029 A 
ATOM     56  N   UNL A   1      46.521  28.960  27.897  1.00  0.00    -0.354 N 
ATOM     57  N   UNL A   1      45.668  26.204  27.372  1.00  0.00    -0.248 NA
ATOM     58  C   UNL A   1      46.147  24.028  26.670  1.00  0.00     0.031 C 
ATOM     59  C   UNL A   1      48.690  29.427  27.786  1.00  0.00     0.029 A 
ATOM     60  C   UNL A   1      47.763  28.412  27.616  1.00  0.00     0.049 A 
ATOM     61  H   UNL A   1      45.667  28.471  27.864  1.00  0.00     0.167 HD
ATOM     62  C   UNL A   1      47.031  26.094  27.119  1.00  0.00     0.074 A 
ATOM     63  C   UNL A   1      47.274  24.724  26.718  1.00  0.00     0.031 C 
ATOM     64  C   UNL A   1      47.993  27.046  27.212  1.00  0.00     0.037 A 
BRANCH  51  65
ATOM     65  C   UNL A   1      45.885  32.652  28.738  1.00  0.00     0.058 A 
ATOM     66  C   UNL A   1      46.199  33.165  30.006  1.00  0.00     0.135 A 
ATOM     67  C   UNL A   1      45.922  33.538  27.649  1.00  0.00     0.135 A 
ATOM     68  F   UNL A   1      46.169  32.368  31.087  1.00  0.00    -0.206 F 
ATOM     69  C   UNL A   1      46.508  34.510  30.192  1.00  0.00     0.059 A 
ATOM     70  C   UNL A   1      46.258  34.880  27.805  1.00  0.00     0.059 A 
ATOM     71  F   UNL A   1      45.633  33.101  26.413  1.00  0.00    -0.206 F 
ATOM     72  C   UNL A   1      46.534  35.360  29.084  1.00  0.00     0.060 A 
BRANCH  72  73
ATOM     73  S   UNL A   1      46.936  37.100  29.342  1.00  0.00     0.124 S 
ATOM     74  O   UNL A   1      46.301  37.357  30.631  1.00  0.00    -0.237 OA
ATOM     75  O   UNL A   1      48.396  37.084  29.349  1.00  0.00    -0.237 OA
ATOM     76  O   UNL A   1      46.323  37.766  28.197  1.00  0.00    -0.744 OA
ENDBRANCH  72  73
ENDBRANCH  51  65
BRANCH  52  77
ATOM     77  C   UNL A   1      43.365  23.144  26.965  1.00  0.00     0.058 A 
ATOM     78  C   UNL A   1      43.328  22.664  25.647  1.00  0.00     0.135 A 
ATOM     79  C   UNL A   1      43.059  22.241  27.996  1.00  0.00     0.135 A 
ATOM     80  F   UNL A   1      43.601  23.490  24.626  1.00  0.00    -0.206 F 
ATOM     81  C   UNL A   1      42.991  21.345  25.360  1.00  0.00     0.059 A 
ATOM     82  C   UNL A   1      42.747  20.911  27.736  1.00  0.00     0.059 A 
ATOM     83  F   UNL A   1      43.093  22.645  29.276  1.00  0.00    -0.206 F 
ATOM     84  C   UNL A   1      42.708  20.474  26.413  1.00  0.00     0.060 A 
BRANCH  84  85
ATOM     85  S   UNL A   1      42.327  18.751  26.030  1.00  0.00     0.124 S 
ATOM     86  O   UNL A   1      43.247  18.484  24.930  1.00  0.00    -0.237 OA
ATOM     87  O   UNL A   1      42.630  18.084  27.293  1.00  0.00    -0.237 OA
ATOM     88  O   UNL A   1      40.912  18.791  25.675  1.00  0.00    -0.744 OA
ENDBRANCH  84  85
ENDBRANCH  52  77
BRANCH  64  89
ATOM     89  C   UNL A   1      49.406  26.640  26.887  1.00  0.00     0.058 A 
ATOM     90  C   UNL A   1      50.263  26.109  27.865  1.00  0.00     0.135 A 
ATOM     91  C   UNL A   1      49.887  26.721  25.570  1.00  0.00     0.135 A 
ATOM     92  F   UNL A   1      49.858  26.019  29.141  1.00  0.00    -0.206 F 
ATOM     93  C   UNL A   1      51.549  25.684  27.550  1.00  0.00     0.059 A 
ATOM     94  C   UNL A   1      51.160  26.275  25.228  1.00  0.00     0.059 A 
ATOM     95  F   UNL A   1      49.108  27.216  24.595  1.00  0.00    -0.206 F 
ATOM     96  C   UNL A   1      51.986  25.763  26.226  1.00  0.00     0.060 A 
BRANCH  96  97
ATOM     97  S   UNL A   1      53.638  25.156  25.825  1.00  0.00     0.124 S 
ATOM     98  O   UNL A   1      54.337  25.340  27.093  1.00  0.00    -0.237 OA
ATOM     99  O   UNL A   1      53.376  23.772  25.441  1.00  0.00    -0.237 OA
ATOM    100  O   UNL A   1      54.068  26.031  24.739  1.00  0.00    -0.744 OA
ENDBRANCH  96  97
ENDBRANCH  64  89
ENDBRANCH  38  39
ENDBRANCH  30  33
ENDBRANCH  28  29
ENDBRANCH  27  28
ENDBRANCH   1  27
TORSDOF 17
ENDMDL
MODEL 3
REMARK VINA RESULT:     -11.4      4.838     10.463
REMARK SMILES C[C@H]1CCCC[C@H]1[N@H+]1[C@@H](C(=O)NCCCCCCNC(=O)c2ccc(-c3c4nc(c(-c5c(F)cc(S(=O)(=O)[O-])cc5F)c5ccc([nH]5)c(-c5c(F)cc(S(=O)(=O)[O-])cc5F)c5nc(c(-c6c(F)cc(S(=O)(=O)[O-])cc6F)c6ccc3[nH]6)C=C5)C=C4)cc2)CC[C@@H]2CCCC[C@@H]21
REMARK SMILES IDX 16 1 15 2 14 3 13 4 12 5 10 6 11 7 9 9 8 10 95 11 88 13
REMARK SMILES IDX 90 14 94 15 89 16 91 17 93 18 92 19 7 20 1 21 2 22 3 23 4 24
REMARK SMILES IDX 6 25 5 26 17 27 18 28 19 29 20 30 21 32 22 33 23 34 87 35
REMARK SMILES IDX 24 36 86 37 25 38 26 39 27 40 80 41 28 42 85 43 79 44 81 45
REMARK SMILES IDX 29 46 84 47 78 48 77 49 30 51 64 52 43 53 63 54 44 55 47 56
REMARK SMILES IDX 62 57 82 58 45 59 46 60 61 62 83 63 48 64 31 65 32 66 41 67
REMARK SMILES IDX 33 68 34 69 40 70 42 71 35 72 36 73 37 74 38 75 39 76 65 77
REMARK SMILES IDX 66 78 75 79 67 80 68 81 74 82 76 83 69 84 70 85 71 86 72 87
REMARK SMILES IDX 73 88 49 89 50 90 59 91 51 92 52 93 58 94 60 95 53 96 54 97
REMARK SMILES IDX 55 98 56 99 57 100
REMARK H PARENT 12 8 8 12 19 31 81 50 47 61
REMARK Flexibility Score: inf
ROOT
ATOM      1  C   UNL A   1      35.695  23.146  26.120  1.00  0.00     0.002 C 
ENDROOT
BRANCH   1   2
ATOM      2  C   UNL A   1      34.699  22.212  25.424  1.00  0.00     0.002 C 
BRANCH   2   3
ATOM      3  C   UNL A   1      34.120  22.739  24.111  1.00  0.00     0.021 C 
BRANCH   3   4
ATOM      4  C   UNL A   1      32.736  23.374  24.222  1.00  0.00     0.116 C 
BRANCH   4   5
ATOM      5  N   UNL A   1      32.208  23.414  25.582  1.00  0.00    -0.351 N 
ATOM      6  C   UNL A   1      31.263  24.247  26.141  1.00  0.00     0.278 C 
ATOM      7  O   UNL A   1      30.789  23.932  27.237  1.00  0.00    -0.268 OA
ATOM      8  H   UNL A   1      32.586  22.743  26.195  1.00  0.00     0.163 HD
BRANCH   6   9
ATOM      9  C   UNL A   1      30.757  25.450  25.359  1.00  0.00     0.274 C 
ATOM     10  N   UNL A   1      31.464  26.767  25.404  1.00  0.00    -0.319 N 
ATOM     11  C   UNL A   1      30.641  27.824  24.722  1.00  0.00     0.188 C 
ATOM     12  H   UNL A   1      32.306  26.518  24.884  1.00  0.00     0.349 HD
ATOM     13  C   UNL A   1      29.232  25.582  25.402  1.00  0.00     0.076 C 
ATOM     14  C   UNL A   1      29.782  27.253  23.558  1.00  0.00     0.048 C 
ATOM     15  C   UNL A   1      31.385  29.068  24.165  1.00  0.00     0.065 C 
ATOM     16  C   UNL A   1      28.766  26.221  24.086  1.00  0.00     0.016 C 
ATOM     17  C   UNL A   1      30.671  26.743  22.389  1.00  0.00     0.010 C 
ATOM     18  C   UNL A   1      31.803  28.963  22.696  1.00  0.00     0.006 C 
ATOM     19  C   UNL A   1      31.989  27.519  22.267  1.00  0.00     0.001 C 
BRANCH  10  20
ATOM     20  C   UNL A   1      32.292  27.234  26.549  1.00  0.00     0.187 C 
ATOM     21  C   UNL A   1      34.730  26.460  25.898  1.00  0.00     0.014 C 
ATOM     22  C   UNL A   1      33.812  27.551  26.436  1.00  0.00     0.044 C 
ATOM     23  C   UNL A   1      34.033  28.876  25.721  1.00  0.00     0.009 C 
ATOM     24  C   UNL A   1      33.473  30.035  26.537  1.00  0.00     0.001 C 
ATOM     25  C   UNL A   1      31.688  28.340  27.453  1.00  0.00     0.065 C 
ATOM     26  C   UNL A   1      32.144  29.790  27.252  1.00  0.00     0.006 C 
ENDBRANCH  10  20
ENDBRANCH   6   9
ENDBRANCH   4   5
ENDBRANCH   3   4
ENDBRANCH   2   3
ENDBRANCH   1   2
BRANCH   1  27
ATOM     27  C   UNL A   1      37.143  23.052  25.630  1.00  0.00     0.021 C 
BRANCH  27  28
ATOM     28  C   UNL A   1      38.071  24.160  26.126  1.00  0.00     0.116 C 
BRANCH  28  29
ATOM     29  N   UNL A   1      39.468  23.755  26.120  1.00  0.00    -0.352 N 
ATOM     30  C   UNL A   1      40.561  24.376  26.675  1.00  0.00     0.251 C 
ATOM     31  H   UNL A   1      39.659  22.911  25.650  1.00  0.00     0.163 HD
ATOM     32  O   UNL A   1      41.693  23.974  26.412  1.00  0.00    -0.269 OA
BRANCH  30  33
ATOM     33  C   UNL A   1      40.379  25.544  27.565  1.00  0.00     0.039 A 
ATOM     34  C   UNL A   1      39.421  25.478  28.581  1.00  0.00     0.014 A 
ATOM     35  C   UNL A   1      41.157  26.695  27.411  1.00  0.00     0.014 A 
ATOM     36  C   UNL A   1      39.309  26.527  29.499  1.00  0.00     0.010 A 
ATOM     37  C   UNL A   1      41.089  27.710  28.365  1.00  0.00     0.010 A 
ATOM     38  C   UNL A   1      40.179  27.627  29.430  1.00  0.00    -0.014 A 
BRANCH  38  39
ATOM     39  C   UNL A   1      40.204  28.660  30.500  1.00  0.00     0.031 A 
ATOM     40  C   UNL A   1      41.135  28.529  31.672  1.00  0.00     0.074 A 
ATOM     41  C   UNL A   1      39.317  29.674  30.453  1.00  0.00     0.049 A 
ATOM     42  N   UNL A   1      41.234  29.287  32.735  1.00  0.00    -0.248 NA
ATOM     43  C   UNL A   1      42.064  27.388  31.660  1.00  0.00     0.031 C 
ATOM     44  C   UNL A   1      38.336  29.891  29.386  1.00  0.00     0.029 A 
ATOM     45  N   UNL A   1      39.082  30.707  31.327  1.00  0.00    -0.354 N 
ATOM     46  C   UNL A   1      42.222  28.710  33.524  1.00  0.00     0.074 A 
ATOM     47  C   UNL A   1      42.665  27.516  32.836  1.00  0.00     0.031 C 
ATOM     48  C   UNL A   1      37.627  30.997  29.655  1.00  0.00     0.029 A 
ATOM     49  C   UNL A   1      38.060  31.541  30.938  1.00  0.00     0.049 A 
ATOM     50  H   UNL A   1      39.599  30.839  32.156  1.00  0.00     0.167 HD
ATOM     51  C   UNL A   1      42.719  29.144  34.707  1.00  0.00     0.037 A 
ATOM     52  C   UNL A   1      37.519  32.613  31.549  1.00  0.00     0.037 A 
ATOM     53  C   UNL A   1      42.280  30.342  35.379  1.00  0.00     0.049 A 
ATOM     54  C   UNL A   1      38.062  33.049  32.883  1.00  0.00     0.074 A 
ATOM     55  C   UNL A   1      42.776  30.905  36.541  1.00  0.00     0.029 A 
ATOM     56  N   UNL A   1      41.233  31.150  34.961  1.00  0.00    -0.354 N 
ATOM     57  N   UNL A   1      39.052  32.538  33.576  1.00  0.00    -0.248 NA
ATOM     58  C   UNL A   1      37.413  34.202  33.522  1.00  0.00     0.031 C 
ATOM     59  C   UNL A   1      41.987  32.014  36.863  1.00  0.00     0.029 A 
ATOM     60  C   UNL A   1      41.038  32.180  35.868  1.00  0.00     0.049 A 
ATOM     61  H   UNL A   1      40.705  31.012  34.141  1.00  0.00     0.167 HD
ATOM     62  C   UNL A   1      39.157  33.320  34.720  1.00  0.00     0.074 A 
ATOM     63  C   UNL A   1      38.141  34.348  34.620  1.00  0.00     0.031 C 
ATOM     64  C   UNL A   1      40.019  33.196  35.760  1.00  0.00     0.037 A 
BRANCH  51  65
ATOM     65  C   UNL A   1      43.786  28.311  35.370  1.00  0.00     0.058 A 
ATOM     66  C   UNL A   1      43.473  27.308  36.301  1.00  0.00     0.135 A 
ATOM     67  C   UNL A   1      45.138  28.488  35.032  1.00  0.00     0.135 A 
ATOM     68  F   UNL A   1      42.199  27.100  36.671  1.00  0.00    -0.206 F 
ATOM     69  C   UNL A   1      44.463  26.532  36.896  1.00  0.00     0.059 A 
ATOM     70  C   UNL A   1      46.143  27.703  35.591  1.00  0.00     0.059 A 
ATOM     71  F   UNL A   1      45.495  29.430  34.145  1.00  0.00    -0.206 F 
ATOM     72  C   UNL A   1      45.796  26.738  36.534  1.00  0.00     0.060 A 
BRANCH  72  73
ATOM     73  S   UNL A   1      47.068  25.722  37.315  1.00  0.00     0.124 S 
ATOM     74  O   UNL A   1      48.250  26.561  37.152  1.00  0.00    -0.237 OA
ATOM     75  O   UNL A   1      46.567  25.593  38.680  1.00  0.00    -0.237 OA
ATOM     76  O   UNL A   1      47.057  24.494  36.527  1.00  0.00    -0.744 OA
ENDBRANCH  72  73
ENDBRANCH  51  65
BRANCH  52  77
ATOM     77  C   UNL A   1      36.406  33.357  30.899  1.00  0.00     0.058 A 
ATOM     78  C   UNL A   1      35.097  33.266  31.394  1.00  0.00     0.135 A 
ATOM     79  C   UNL A   1      36.627  34.185  29.786  1.00  0.00     0.135 A 
ATOM     80  F   UNL A   1      34.833  32.480  32.449  1.00  0.00    -0.206 F 
ATOM     81  C   UNL A   1      34.045  33.960  30.806  1.00  0.00     0.059 A 
ATOM     82  C   UNL A   1      35.597  34.909  29.198  1.00  0.00     0.059 A 
ATOM     83  F   UNL A   1      37.864  34.317  29.281  1.00  0.00    -0.206 F 
ATOM     84  C   UNL A   1      34.306  34.784  29.711  1.00  0.00     0.060 A 
BRANCH  84  85
ATOM     85  S   UNL A   1      32.941  35.723  28.990  1.00  0.00     0.124 S 
ATOM     86  O   UNL A   1      32.347  34.737  28.094  1.00  0.00    -0.237 OA
ATOM     87  O   UNL A   1      32.154  36.069  30.170  1.00  0.00    -0.237 OA
ATOM     88  O   UNL A   1      33.611  36.845  28.342  1.00  0.00    -0.744 OA
ENDBRANCH  84  85
ENDBRANCH  52  77
BRANCH  64  89
ATOM     89  C   UNL A   1      39.915  34.204  36.874  1.00  0.00     0.058 A 
ATOM     90  C   UNL A   1      40.500  35.477  36.772  1.00  0.00     0.135 A 
ATOM     91  C   UNL A   1      39.167  33.919  38.027  1.00  0.00     0.135 A 
ATOM     92  F   UNL A   1      41.235  35.797  35.696  1.00  0.00    -0.206 F 
ATOM     93  C   UNL A   1      40.356  36.425  37.778  1.00  0.00     0.059 A 
ATOM     94  C   UNL A   1      38.985  34.863  39.033  1.00  0.00     0.059 A 
ATOM     95  F   UNL A   1      38.581  32.719  38.175  1.00  0.00    -0.206 F 
ATOM     96  C   UNL A   1      39.589  36.112  38.903  1.00  0.00     0.060 A 
BRANCH  96  97
ATOM     97  S   UNL A   1      39.366  37.374  40.174  1.00  0.00     0.124 S 
ATOM     98  O   UNL A   1      38.681  36.622  41.220  1.00  0.00    -0.237 OA
ATOM     99  O   UNL A   1      40.742  37.762  40.471  1.00  0.00    -0.237 OA
ATOM    100  O   UNL A   1      38.564  38.394  39.505  1.00  0.00    -0.744 OA
ENDBRANCH  96  97
ENDBRANCH  64  89
ENDBRANCH  38  39
ENDBRANCH  30  33
ENDBRANCH  28  29
ENDBRANCH  27  28
ENDBRANCH   1  27
TORSDOF 17
ENDMDL
