MODEL 1
REMARK VINA RESULT:     -12.9      0.000      0.000
REMARK SMILES Cn1cc(-c2cc(C(F)(F)F)c3c(C4CC4)nn(CC(=O)NCCCCCCNC(=O)c4ccc(-c5c6nc(c(-c7c(F)cc(S(=O)(=O)[O-])cc7F)c7ccc([nH]7)c(-c7c(F)cc(S(=O)(=O)[O-])cc7F)c7nc(c(-c8c(F)cc(S(=O)(=O)[O-])cc8F)c8ccc5[nH]8)C=C7)C=C6)cc4)c3n2)cn1
REMARK SMILES IDX 26 1 25 2 24 3 23 4 22 5 20 6 21 7 19 9 18 10 5 11 6 12
REMARK SMILES IDX 99 13 7 14 98 15 12 16 13 17 17 18 4 19 1 20 2 21 3 22
REMARK SMILES IDX 101 23 100 24 8 25 9 26 10 27 11 28 14 29 15 30 16 31 27 32
REMARK SMILES IDX 28 33 29 34 30 35 31 37 32 38 33 39 97 40 34 41 96 42 35 43
REMARK SMILES IDX 36 44 37 45 90 46 38 47 95 48 89 49 91 50 39 51 94 52 88 53
REMARK SMILES IDX 87 54 40 56 74 57 53 58 73 59 54 60 57 61 72 62 92 63 55 64
REMARK SMILES IDX 56 65 71 67 93 68 58 69 41 70 42 71 51 72 43 73 44 74 50 75
REMARK SMILES IDX 52 76 45 77 46 78 47 79 48 80 49 81 75 82 76 83 85 84 77 85
REMARK SMILES IDX 78 86 84 87 86 88 79 89 80 90 81 91 82 92 83 93 59 94 60 95
REMARK SMILES IDX 69 96 61 97 62 98 68 99 70 100 63 101 64 102 65 103 66 104
REMARK SMILES IDX 67 105
REMARK H PARENT 22 8 29 36 91 55 57 66
REMARK Flexibility Score: inf
ROOT
ATOM      1  C   UNL A   1      36.797  21.044  25.312  1.00  0.00     0.002 C 
ENDROOT
BRANCH   1   2
ATOM      2  C   UNL A   1      35.433  21.252  24.639  1.00  0.00     0.002 C 
BRANCH   2   3
ATOM      3  C   UNL A   1      34.237  21.034  25.562  1.00  0.00     0.021 C 
BRANCH   3   4
ATOM      4  C   UNL A   1      32.900  21.179  24.844  1.00  0.00     0.116 C 
BRANCH   4   5
ATOM      5  N   UNL A   1      31.823  21.413  25.781  1.00  0.00    -0.354 N 
ATOM      6  C   UNL A   1      30.947  22.460  25.754  1.00  0.00     0.241 C 
ATOM      7  O   UNL A   1      30.070  22.547  26.614  1.00  0.00    -0.273 OA
ATOM      8  H   UNL A   1      31.711  20.756  26.505  1.00  0.00     0.163 HD
BRANCH   6   9
ATOM      9  C   UNL A   1      31.020  23.394  24.589  1.00  0.00     0.246 C 
BRANCH   9  10
ATOM     10  N   UNL A   1      30.788  24.787  24.929  1.00  0.00    -0.237 N 
ATOM     11  C   UNL A   1      33.837  26.065  25.511  1.00  0.00     0.077 A 
ATOM     12  C   UNL A   1      33.566  27.395  25.825  1.00  0.00     0.043 A 
ATOM     13  N   UNL A   1      32.956  25.115  25.900  1.00  0.00    -0.228 NA
ATOM     14  C   UNL A   1      32.223  27.769  26.090  1.00  0.00     0.071 A 
ATOM     15  C   UNL A   1      31.716  25.535  25.583  1.00  0.00     0.159 A 
ATOM     16  C   UNL A   1      31.304  26.855  25.543  1.00  0.00     0.055 A 
ATOM     17  C   UNL A   1      30.186  26.808  24.664  1.00  0.00     0.076 A 
ATOM     18  N   UNL A   1      29.825  25.544  24.361  1.00  0.00    -0.175 NA
BRANCH  11  19
ATOM     19  C   UNL A   1      34.301  25.676  24.152  1.00  0.00     0.038 A 
ATOM     20  C   UNL A   1      32.501  25.589  21.076  1.00  0.00     0.173 C 
ATOM     21  N   UNL A   1      33.532  25.436  22.087  1.00  0.00    -0.275 N 
ATOM     22  C   UNL A   1      33.857  26.376  23.032  1.00  0.00     0.118 A 
ATOM     23  N   UNL A   1      34.002  24.212  22.393  1.00  0.00    -0.181 NA
ATOM     24  C   UNL A   1      34.400  24.343  23.666  1.00  0.00     0.145 A 
ENDBRANCH  11  19
BRANCH  14  25
ATOM     25  C   UNL A   1      31.870  28.825  27.103  1.00  0.00     0.417 C 
ATOM     26  F   UNL A   1      30.978  28.456  28.047  1.00  0.00    -0.166 F 
ATOM     27  F   UNL A   1      32.981  29.233  27.785  1.00  0.00    -0.166 F 
ATOM     28  F   UNL A   1      31.367  29.952  26.528  1.00  0.00    -0.166 F 
ENDBRANCH  14  25
BRANCH  17  29
ATOM     29  C   UNL A   1      29.581  27.936  23.824  1.00  0.00     0.041 C 
ATOM     30  C   UNL A   1      30.219  29.275  23.574  1.00  0.00     0.011 C 
ATOM     31  C   UNL A   1      30.242  28.259  22.489  1.00  0.00     0.011 C 
ENDBRANCH  17  29
ENDBRANCH   9  10
ENDBRANCH   6   9
ENDBRANCH   4   5
ENDBRANCH   3   4
ENDBRANCH   2   3
ENDBRANCH   1   2
BRANCH   1  32
ATOM     32  C   UNL A   1      37.796  22.206  25.171  1.00  0.00     0.021 C 
BRANCH  32  33
ATOM     33  C   UNL A   1      38.606  22.429  26.428  1.00  0.00     0.116 C 
BRANCH  33  34
ATOM     34  N   UNL A   1      39.999  22.076  26.202  1.00  0.00    -0.352 N 
ATOM     35  C   UNL A   1      41.100  22.900  26.191  1.00  0.00     0.251 C 
ATOM     36  H   UNL A   1      40.177  21.123  26.033  1.00  0.00     0.163 HD
ATOM     37  O   UNL A   1      42.123  22.555  25.626  1.00  0.00    -0.269 OA
BRANCH  35  38
ATOM     38  C   UNL A   1      41.020  24.183  26.906  1.00  0.00     0.039 A 
ATOM     39  C   UNL A   1      40.220  25.221  26.420  1.00  0.00     0.014 A 
ATOM     40  C   UNL A   1      41.811  24.356  28.042  1.00  0.00     0.014 A 
ATOM     41  C   UNL A   1      40.232  26.436  27.091  1.00  0.00     0.010 A 
ATOM     42  C   UNL A   1      41.696  25.488  28.795  1.00  0.00     0.010 A 
ATOM     43  C   UNL A   1      40.991  26.554  28.261  1.00  0.00    -0.014 A 
BRANCH  43  44
ATOM     44  C   UNL A   1      41.055  27.793  29.006  1.00  0.00     0.031 A 
ATOM     45  C   UNL A   1      42.065  28.743  28.488  1.00  0.00     0.074 A 
ATOM     46  C   UNL A   1      40.099  28.126  29.897  1.00  0.00     0.049 A 
ATOM     47  N   UNL A   1      43.216  29.028  29.000  1.00  0.00    -0.248 NA
ATOM     48  C   UNL A   1      41.865  29.288  27.133  1.00  0.00     0.031 C 
ATOM     49  C   UNL A   1      38.854  27.418  30.223  1.00  0.00     0.029 A 
ATOM     50  N   UNL A   1      40.006  29.246  30.654  1.00  0.00    -0.354 N 
ATOM     51  C   UNL A   1      43.760  29.996  28.165  1.00  0.00     0.074 A 
ATOM     52  C   UNL A   1      43.027  29.914  26.930  1.00  0.00     0.031 C 
ATOM     53  C   UNL A   1      38.046  28.228  30.947  1.00  0.00     0.029 A 
ATOM     54  C   UNL A   1      38.774  29.441  31.272  1.00  0.00     0.049 A 
ATOM     55  H   UNL A   1      40.755  29.877  30.760  1.00  0.00     0.167 HD
ATOM     56  C   UNL A   1      44.561  30.981  28.659  1.00  0.00     0.037 A 
ATOM     57  C   UNL A   1      38.402  30.551  31.963  1.00  0.00     0.037 A 
ATOM     58  C   UNL A   1      45.005  30.658  29.996  1.00  0.00     0.049 A 
ATOM     59  C   UNL A   1      39.665  31.247  32.340  1.00  0.00     0.074 A 
ATOM     60  C   UNL A   1      45.724  29.619  30.557  1.00  0.00     0.029 A 
ATOM     61  N   UNL A   1      44.345  31.260  31.042  1.00  0.00    -0.354 N 
ATOM     62  N   UNL A   1      40.551  30.749  33.160  1.00  0.00    -0.248 NA
ATOM     63  C   UNL A   1      40.163  32.269  31.433  1.00  0.00     0.031 C 
ATOM     64  C   UNL A   1      45.083  29.355  31.805  1.00  0.00     0.029 A 
ATOM     65  C   UNL A   1      44.061  30.292  31.973  1.00  0.00     0.049 A 
ATOM     66  H   UNL A   1      44.118  32.215  31.112  1.00  0.00     0.167 HD
ATOM     67  C   UNL A   1      41.781  31.077  32.604  1.00  0.00     0.074 A 
ATOM     68  C   UNL A   1      41.476  32.073  31.577  1.00  0.00     0.031 C 
ATOM     69  C   UNL A   1      42.886  30.302  32.821  1.00  0.00     0.037 A 
BRANCH  56  70
ATOM     70  C   UNL A   1      44.629  32.384  28.101  1.00  0.00     0.058 A 
ATOM     71  C   UNL A   1      45.811  32.809  27.459  1.00  0.00     0.135 A 
ATOM     72  C   UNL A   1      43.696  33.407  28.388  1.00  0.00     0.135 A 
ATOM     73  F   UNL A   1      46.774  31.927  27.147  1.00  0.00    -0.206 F 
ATOM     74  C   UNL A   1      46.070  34.152  27.183  1.00  0.00     0.059 A 
ATOM     75  C   UNL A   1      43.908  34.742  28.068  1.00  0.00     0.059 A 
ATOM     76  F   UNL A   1      42.574  33.186  29.080  1.00  0.00    -0.206 F 
ATOM     77  C   UNL A   1      45.115  35.112  27.502  1.00  0.00     0.060 A 
BRANCH  77  78
ATOM     78  S   UNL A   1      45.484  36.853  27.231  1.00  0.00     0.124 S 
ATOM     79  O   UNL A   1      46.435  36.780  26.128  1.00  0.00    -0.237 OA
ATOM     80  O   UNL A   1      44.167  37.391  26.909  1.00  0.00    -0.237 OA
ATOM     81  O   UNL A   1      46.034  37.283  28.514  1.00  0.00    -0.744 OA
ENDBRANCH  77  78
ENDBRANCH  56  70
BRANCH  57  82
ATOM     82  C   UNL A   1      37.092  31.262  31.946  1.00  0.00     0.058 A 
ATOM     83  C   UNL A   1      36.569  31.817  33.131  1.00  0.00     0.135 A 
ATOM     84  C   UNL A   1      36.500  31.701  30.746  1.00  0.00     0.135 A 
ATOM     85  F   UNL A   1      37.069  31.452  34.323  1.00  0.00    -0.206 F 
ATOM     86  C   UNL A   1      35.590  32.817  33.123  1.00  0.00     0.059 A 
ATOM     87  C   UNL A   1      35.517  32.692  30.713  1.00  0.00     0.059 A 
ATOM     88  F   UNL A   1      36.930  31.255  29.556  1.00  0.00    -0.206 F 
ATOM     89  C   UNL A   1      35.096  33.275  31.903  1.00  0.00     0.060 A 
BRANCH  89  90
ATOM     90  S   UNL A   1      34.008  34.721  31.874  1.00  0.00     0.124 S 
ATOM     91  O   UNL A   1      34.883  35.771  32.383  1.00  0.00    -0.237 OA
ATOM     92  O   UNL A   1      33.657  34.811  30.461  1.00  0.00    -0.237 OA
ATOM     93  O   UNL A   1      32.912  34.337  32.761  1.00  0.00    -0.744 OA
ENDBRANCH  89  90
ENDBRANCH  57  82
BRANCH  69  94
ATOM     94  C   UNL A   1      42.807  29.238  33.893  1.00  0.00     0.058 A 
ATOM     95  C   UNL A   1      42.969  29.474  35.271  1.00  0.00     0.135 A 
ATOM     96  C   UNL A   1      42.409  27.949  33.514  1.00  0.00     0.135 A 
ATOM     97  F   UNL A   1      43.252  30.699  35.732  1.00  0.00    -0.206 F 
ATOM     98  C   UNL A   1      42.783  28.466  36.223  1.00  0.00     0.059 A 
ATOM     99  C   UNL A   1      42.189  26.936  34.446  1.00  0.00     0.059 A 
ATOM    100  F   UNL A   1      42.180  27.670  32.221  1.00  0.00    -0.206 F 
ATOM    101  C   UNL A   1      42.391  27.198  35.799  1.00  0.00     0.060 A 
BRANCH 101 102
ATOM    102  S   UNL A   1      42.096  25.908  37.029  1.00  0.00     0.124 S 
ATOM    103  O   UNL A   1      42.563  24.710  36.339  1.00  0.00    -0.237 OA
ATOM    104  O   UNL A   1      42.914  26.350  38.155  1.00  0.00    -0.237 OA
ATOM    105  O   UNL A   1      40.654  25.974  37.255  1.00  0.00    -0.744 OA
ENDBRANCH 101 102
ENDBRANCH  69  94
ENDBRANCH  43  44
ENDBRANCH  35  38
ENDBRANCH  33  34
ENDBRANCH  32  33
ENDBRANCH   1  32
TORSDOF 20
ENDMDL
MODEL 2
REMARK VINA RESULT:     -12.8      2.899      9.125
REMARK SMILES Cn1cc(-c2cc(C(F)(F)F)c3c(C4CC4)nn(CC(=O)NCCCCCCNC(=O)c4ccc(-c5c6nc(c(-c7c(F)cc(S(=O)(=O)[O-])cc7F)c7ccc([nH]7)c(-c7c(F)cc(S(=O)(=O)[O-])cc7F)c7nc(c(-c8c(F)cc(S(=O)(=O)[O-])cc8F)c8ccc5[nH]8)C=C7)C=C6)cc4)c3n2)cn1
REMARK SMILES IDX 26 1 25 2 24 3 23 4 22 5 20 6 21 7 19 9 18 10 5 11 6 12
REMARK SMILES IDX 99 13 7 14 98 15 12 16 13 17 17 18 4 19 1 20 2 21 3 22
REMARK SMILES IDX 101 23 100 24 8 25 9 26 10 27 11 28 14 29 15 30 16 31 27 32
REMARK SMILES IDX 28 33 29 34 30 35 31 37 32 38 33 39 97 40 34 41 96 42 35 43
REMARK SMILES IDX 36 44 37 45 90 46 38 47 95 48 89 49 91 50 39 51 94 52 88 53
REMARK SMILES IDX 87 54 40 56 74 57 53 58 73 59 54 60 57 61 72 62 92 63 55 64
REMARK SMILES IDX 56 65 71 67 93 68 58 69 41 70 42 71 51 72 43 73 44 74 50 75
REMARK SMILES IDX 52 76 45 77 46 78 47 79 48 80 49 81 75 82 76 83 85 84 77 85
REMARK SMILES IDX 78 86 84 87 86 88 79 89 80 90 81 91 82 92 83 93 59 94 60 95
REMARK SMILES IDX 69 96 61 97 62 98 68 99 70 100 63 101 64 102 65 103 66 104
REMARK SMILES IDX 67 105
REMARK H PARENT 22 8 29 36 91 55 57 66
REMARK Flexibility Score: inf
ROOT
ATOM      1  C   UNL A   1      35.873  32.947  28.255  1.00  0.00     0.002 C 
ENDROOT
BRANCH   1   2
ATOM      2  C   UNL A   1      34.907  31.767  28.075  1.00  0.00     0.002 C 
BRANCH   2   3
ATOM      3  C   UNL A   1      35.594  30.417  27.887  1.00  0.00     0.021 C 
BRANCH   3   4
ATOM      4  C   UNL A   1      34.756  29.435  27.077  1.00  0.00     0.116 C 
BRANCH   4   5
ATOM      5  N   UNL A   1      33.453  29.237  27.676  1.00  0.00    -0.354 N 
ATOM      6  C   UNL A   1      32.411  28.548  27.125  1.00  0.00     0.241 C 
ATOM      7  O   UNL A   1      31.348  28.451  27.738  1.00  0.00    -0.273 OA
ATOM      8  H   UNL A   1      33.305  29.636  28.563  1.00  0.00     0.163 HD
BRANCH   6   9
ATOM      9  C   UNL A   1      32.661  27.826  25.839  1.00  0.00     0.246 C 
BRANCH   9  10
ATOM     10  N   UNL A   1      33.286  26.526  25.999  1.00  0.00    -0.237 N 
ATOM     11  C   UNL A   1      30.744  24.333  26.049  1.00  0.00     0.077 A 
ATOM     12  C   UNL A   1      31.388  23.108  26.197  1.00  0.00     0.043 A 
ATOM     13  N   UNL A   1      31.266  25.419  26.666  1.00  0.00    -0.228 NA
ATOM     14  C   UNL A   1      32.762  23.103  26.553  1.00  0.00     0.071 A 
ATOM     15  C   UNL A   1      32.592  25.439  26.432  1.00  0.00     0.159 A 
ATOM     16  C   UNL A   1      33.390  24.324  26.249  1.00  0.00     0.055 A 
ATOM     17  C   UNL A   1      34.493  24.845  25.515  1.00  0.00     0.076 A 
ATOM     18  N   UNL A   1      34.468  26.191  25.439  1.00  0.00    -0.175 NA
BRANCH  11  19
ATOM     19  C   UNL A   1      30.269  24.796  24.718  1.00  0.00     0.038 A 
ATOM     20  C   UNL A   1      32.133  26.071  21.958  1.00  0.00     0.173 C 
ATOM     21  N   UNL A   1      31.047  25.671  22.835  1.00  0.00    -0.275 N 
ATOM     22  C   UNL A   1      31.011  24.515  23.572  1.00  0.00     0.118 A 
ATOM     23  N   UNL A   1      30.152  26.583  23.261  1.00  0.00    -0.181 NA
ATOM     24  C   UNL A   1      29.737  26.085  24.434  1.00  0.00     0.145 A 
ENDBRANCH  11  19
BRANCH  14  25
ATOM     25  C   UNL A   1      33.357  22.039  27.436  1.00  0.00     0.417 C 
ATOM     26  F   UNL A   1      34.581  22.312  27.939  1.00  0.00    -0.166 F 
ATOM     27  F   UNL A   1      32.558  21.805  28.519  1.00  0.00    -0.166 F 
ATOM     28  F   UNL A   1      33.467  20.837  26.805  1.00  0.00    -0.166 F 
ENDBRANCH  14  25
BRANCH  17  29
ATOM     29  C   UNL A   1      35.465  24.103  24.594  1.00  0.00     0.041 C 
ATOM     30  C   UNL A   1      35.444  22.625  24.313  1.00  0.00     0.011 C 
ATOM     31  C   UNL A   1      34.920  23.556  23.279  1.00  0.00     0.011 C 
ENDBRANCH  17  29
ENDBRANCH   9  10
ENDBRANCH   6   9
ENDBRANCH   4   5
ENDBRANCH   3   4
ENDBRANCH   2   3
ENDBRANCH   1   2
BRANCH   1  32
ATOM     32  C   UNL A   1      35.233  34.272  28.709  1.00  0.00     0.021 C 
BRANCH  32  33
ATOM     33  C   UNL A   1      34.330  34.096  29.909  1.00  0.00     0.116 C 
BRANCH  33  34
ATOM     34  N   UNL A   1      34.766  34.953  31.000  1.00  0.00    -0.352 N 
ATOM     35  C   UNL A   1      35.681  34.680  31.990  1.00  0.00     0.251 C 
ATOM     36  H   UNL A   1      34.353  35.845  31.035  1.00  0.00     0.163 HD
ATOM     37  O   UNL A   1      35.671  35.314  33.030  1.00  0.00    -0.269 OA
BRANCH  35  38
ATOM     38  C   UNL A   1      36.686  33.634  31.744  1.00  0.00     0.039 A 
ATOM     39  C   UNL A   1      36.372  32.285  31.936  1.00  0.00     0.014 A 
ATOM     40  C   UNL A   1      37.973  34.028  31.378  1.00  0.00     0.014 A 
ATOM     41  C   UNL A   1      37.374  31.341  31.759  1.00  0.00     0.010 A 
ATOM     42  C   UNL A   1      38.908  33.095  31.041  1.00  0.00     0.010 A 
ATOM     43  C   UNL A   1      38.637  31.768  31.333  1.00  0.00    -0.014 A 
BRANCH  43  44
ATOM     44  C   UNL A   1      39.729  30.839  31.136  1.00  0.00     0.031 A 
ATOM     45  C   UNL A   1      40.437  30.484  32.386  1.00  0.00     0.074 A 
ATOM     46  C   UNL A   1      39.884  30.176  29.971  1.00  0.00     0.049 A 
ATOM     47  N   UNL A   1      41.596  30.894  32.779  1.00  0.00    -0.248 NA
ATOM     48  C   UNL A   1      39.682  29.752  33.419  1.00  0.00     0.031 C 
ATOM     49  C   UNL A   1      39.020  30.181  28.784  1.00  0.00     0.029 A 
ATOM     50  N   UNL A   1      40.834  29.269  29.638  1.00  0.00    -0.354 N 
ATOM     51  C   UNL A   1      41.824  30.246  33.988  1.00  0.00     0.074 A 
ATOM     52  C   UNL A   1      40.539  29.788  34.443  1.00  0.00     0.031 C 
ATOM     53  C   UNL A   1      39.374  29.169  27.959  1.00  0.00     0.029 A 
ATOM     54  C   UNL A   1      40.581  28.549  28.475  1.00  0.00     0.049 A 
ATOM     55  H   UNL A   1      41.645  29.129  30.180  1.00  0.00     0.167 HD
ATOM     56  C   UNL A   1      43.082  29.880  34.362  1.00  0.00     0.037 A 
ATOM     57  C   UNL A   1      41.315  27.500  28.018  1.00  0.00     0.037 A 
ATOM     58  C   UNL A   1      44.073  30.546  33.549  1.00  0.00     0.049 A 
ATOM     59  C   UNL A   1      42.643  27.601  28.687  1.00  0.00     0.074 A 
ATOM     60  C   UNL A   1      44.398  31.866  33.299  1.00  0.00     0.029 A 
ATOM     61  N   UNL A   1      44.633  29.825  32.520  1.00  0.00    -0.354 N 
ATOM     62  N   UNL A   1      43.485  28.579  28.486  1.00  0.00    -0.248 NA
ATOM     63  C   UNL A   1      42.821  26.875  29.935  1.00  0.00     0.031 C 
ATOM     64  C   UNL A   1      44.703  31.916  31.905  1.00  0.00     0.029 A 
ATOM     65  C   UNL A   1      44.624  30.617  31.398  1.00  0.00     0.049 A 
ATOM     66  H   UNL A   1      44.978  28.905  32.576  1.00  0.00     0.167 HD
ATOM     67  C   UNL A   1      44.017  28.861  29.738  1.00  0.00     0.074 A 
ATOM     68  C   UNL A   1      43.619  27.731  30.578  1.00  0.00     0.031 C 
ATOM     69  C   UNL A   1      44.471  30.112  30.049  1.00  0.00     0.037 A 
BRANCH  56  70
ATOM     70  C   UNL A   1      43.402  28.653  35.185  1.00  0.00     0.058 A 
ATOM     71  C   UNL A   1      44.155  28.799  36.368  1.00  0.00     0.135 A 
ATOM     72  C   UNL A   1      43.227  27.321  34.741  1.00  0.00     0.135 A 
ATOM     73  F   UNL A   1      44.397  30.017  36.879  1.00  0.00    -0.206 F 
ATOM     74  C   UNL A   1      44.742  27.713  37.021  1.00  0.00     0.059 A 
ATOM     75  C   UNL A   1      43.752  26.222  35.408  1.00  0.00     0.059 A 
ATOM     76  F   UNL A   1      42.624  27.020  33.586  1.00  0.00    -0.206 F 
ATOM     77  C   UNL A   1      44.541  26.429  36.525  1.00  0.00     0.060 A 
BRANCH  77  78
ATOM     78  S   UNL A   1      45.370  25.037  37.310  1.00  0.00     0.124 S 
ATOM     79  O   UNL A   1      46.761  25.285  36.948  1.00  0.00    -0.237 OA
ATOM     80  O   UNL A   1      45.027  25.238  38.713  1.00  0.00    -0.237 OA
ATOM     81  O   UNL A   1      44.749  23.876  36.678  1.00  0.00    -0.744 OA
ENDBRANCH  77  78
ENDBRANCH  56  70
BRANCH  57  82
ATOM     82  C   UNL A   1      40.838  26.222  27.415  1.00  0.00     0.058 A 
ATOM     83  C   UNL A   1      41.557  25.621  26.363  1.00  0.00     0.135 A 
ATOM     84  C   UNL A   1      39.888  25.406  28.058  1.00  0.00     0.135 A 
ATOM     85  F   UNL A   1      42.480  26.326  25.689  1.00  0.00    -0.206 F 
ATOM     86  C   UNL A   1      41.415  24.268  26.035  1.00  0.00     0.059 A 
ATOM     87  C   UNL A   1      39.722  24.056  27.743  1.00  0.00     0.059 A 
ATOM     88  F   UNL A   1      39.159  25.867  29.086  1.00  0.00    -0.206 F 
ATOM     89  C   UNL A   1      40.519  23.484  26.758  1.00  0.00     0.060 A 
BRANCH  89  90
ATOM     90  S   UNL A   1      40.498  21.693  26.497  1.00  0.00     0.124 S 
ATOM     91  O   UNL A   1      41.636  21.502  25.605  1.00  0.00    -0.237 OA
ATOM     92  O   UNL A   1      40.658  21.184  27.855  1.00  0.00    -0.237 OA
ATOM     93  O   UNL A   1      39.188  21.454  25.896  1.00  0.00    -0.744 OA
ENDBRANCH  89  90
ENDBRANCH  57  82
BRANCH  69  94
ATOM     94  C   UNL A   1      44.635  31.108  28.923  1.00  0.00     0.058 A 
ATOM     95  C   UNL A   1      45.704  31.116  28.007  1.00  0.00     0.135 A 
ATOM     96  C   UNL A   1      43.585  32.004  28.677  1.00  0.00     0.135 A 
ATOM     97  F   UNL A   1      46.702  30.229  28.107  1.00  0.00    -0.206 F 
ATOM     98  C   UNL A   1      45.747  32.000  26.925  1.00  0.00     0.059 A 
ATOM     99  C   UNL A   1      43.591  32.874  27.589  1.00  0.00     0.059 A 
ATOM    100  F   UNL A   1      42.506  32.009  29.477  1.00  0.00    -0.206 F 
ATOM    101  C   UNL A   1      44.683  32.876  26.724  1.00  0.00     0.060 A 
BRANCH 101 102
ATOM    102  S   UNL A   1      44.708  33.981  25.294  1.00  0.00     0.124 S 
ATOM    103  O   UNL A   1      43.773  35.028  25.696  1.00  0.00    -0.237 OA
ATOM    104  O   UNL A   1      46.111  34.378  25.225  1.00  0.00    -0.237 OA
ATOM    105  O   UNL A   1      44.255  33.131  24.196  1.00  0.00    -0.744 OA
ENDBRANCH 101 102
ENDBRANCH  69  94
ENDBRANCH  43  44
ENDBRANCH  35  38
ENDBRANCH  33  34
ENDBRANCH  32  33
ENDBRANCH   1  32
TORSDOF 20
ENDMDL
MODEL 3
REMARK VINA RESULT:     -12.7      1.950      3.173
REMARK SMILES Cn1cc(-c2cc(C(F)(F)F)c3c(C4CC4)nn(CC(=O)NCCCCCCNC(=O)c4ccc(-c5c6nc(c(-c7c(F)cc(S(=O)(=O)[O-])cc7F)c7ccc([nH]7)c(-c7c(F)cc(S(=O)(=O)[O-])cc7F)c7nc(c(-c8c(F)cc(S(=O)(=O)[O-])cc8F)c8ccc5[nH]8)C=C7)C=C6)cc4)c3n2)cn1
REMARK SMILES IDX 26 1 25 2 24 3 23 4 22 5 20 6 21 7 19 9 18 10 5 11 6 12
REMARK SMILES IDX 99 13 7 14 98 15 12 16 13 17 17 18 4 19 1 20 2 21 3 22
REMARK SMILES IDX 101 23 100 24 8 25 9 26 10 27 11 28 14 29 15 30 16 31 27 32
REMARK SMILES IDX 28 33 29 34 30 35 31 37 32 38 33 39 97 40 34 41 96 42 35 43
REMARK SMILES IDX 36 44 37 45 90 46 38 47 95 48 89 49 91 50 39 51 94 52 88 53
REMARK SMILES IDX 87 54 40 56 74 57 53 58 73 59 54 60 57 61 72 62 92 63 55 64
REMARK SMILES IDX 56 65 71 67 93 68 58 69 41 70 42 71 51 72 43 73 44 74 50 75
REMARK SMILES IDX 52 76 45 77 46 78 47 79 48 80 49 81 75 82 76 83 85 84 77 85
REMARK SMILES IDX 78 86 84 87 86 88 79 89 80 90 81 91 82 92 83 93 59 94 60 95
REMARK SMILES IDX 69 96 61 97 62 98 68 99 70 100 63 101 64 102 65 103 66 104
REMARK SMILES IDX 67 105
REMARK H PARENT 22 8 29 36 91 55 57 66
REMARK Flexibility Score: inf
ROOT
ATOM      1  C   UNL A   1      40.035  23.036  27.784  1.00  0.00     0.002 C 
ENDROOT
BRANCH   1   2
ATOM      2  C   UNL A   1      39.623  24.368  27.141  1.00  0.00     0.002 C 
BRANCH   2   3
ATOM      3  C   UNL A   1      38.204  24.380  26.577  1.00  0.00     0.021 C 
BRANCH   3   4
ATOM      4  C   UNL A   1      37.755  23.013  26.075  1.00  0.00     0.116 C 
BRANCH   4   5
ATOM      5  N   UNL A   1      37.711  22.972  24.629  1.00  0.00    -0.354 N 
ATOM      6  C   UNL A   1      36.585  22.991  23.857  1.00  0.00     0.241 C 
ATOM      7  O   UNL A   1      36.683  22.950  22.631  1.00  0.00    -0.273 OA
ATOM      8  H   UNL A   1      38.575  22.927  24.158  1.00  0.00     0.163 HD
BRANCH   6   9
ATOM      9  C   UNL A   1      35.275  23.190  24.550  1.00  0.00     0.246 C 
BRANCH   9  10
ATOM     10  N   UNL A   1      34.827  24.570  24.589  1.00  0.00    -0.237 N 
ATOM     11  C   UNL A   1      32.427  24.781  22.252  1.00  0.00     0.077 A 
ATOM     12  C   UNL A   1      32.028  26.112  22.330  1.00  0.00     0.043 A 
ATOM     13  N   UNL A   1      33.731  24.482  22.459  1.00  0.00    -0.228 NA
ATOM     14  C   UNL A   1      32.832  27.020  23.066  1.00  0.00     0.071 A 
ATOM     15  C   UNL A   1      34.143  25.138  23.560  1.00  0.00     0.159 A 
ATOM     16  C   UNL A   1      33.658  26.360  23.994  1.00  0.00     0.055 A 
ATOM     17  C   UNL A   1      33.962  26.341  25.384  1.00  0.00     0.076 A 
ATOM     18  N   UNL A   1      34.743  25.296  25.725  1.00  0.00    -0.175 NA
BRANCH  11  19
ATOM     19  C   UNL A   1      31.641  23.702  22.908  1.00  0.00     0.038 A 
ATOM     20  C   UNL A   1      31.190  23.010  26.377  1.00  0.00     0.173 C 
ATOM     21  N   UNL A   1      31.167  22.920  24.928  1.00  0.00    -0.275 N 
ATOM     22  C   UNL A   1      30.925  23.967  24.075  1.00  0.00     0.118 A 
ATOM     23  N   UNL A   1      31.735  21.868  24.307  1.00  0.00    -0.181 NA
ATOM     24  C   UNL A   1      32.085  22.366  23.113  1.00  0.00     0.145 A 
ENDBRANCH  11  19
BRANCH  14  25
ATOM     25  C   UNL A   1      32.998  28.459  22.656  1.00  0.00     0.417 C 
ATOM     26  F   UNL A   1      33.343  29.314  23.644  1.00  0.00    -0.166 F 
ATOM     27  F   UNL A   1      33.970  28.584  21.705  1.00  0.00    -0.166 F 
ATOM     28  F   UNL A   1      31.871  28.973  22.089  1.00  0.00    -0.166 F 
ENDBRANCH  14  25
BRANCH  17  29
ATOM     29  C   UNL A   1      33.297  27.126  26.519  1.00  0.00     0.041 C 
ATOM     30  C   UNL A   1      33.208  28.625  26.607  1.00  0.00     0.011 C 
ATOM     31  C   UNL A   1      31.997  27.859  26.207  1.00  0.00     0.011 C 
ENDBRANCH  17  29
ENDBRANCH   9  10
ENDBRANCH   6   9
ENDBRANCH   4   5
ENDBRANCH   3   4
ENDBRANCH   2   3
ENDBRANCH   1   2
BRANCH   1  32
ATOM     32  C   UNL A   1      41.336  22.411  27.250  1.00  0.00     0.021 C 
BRANCH  32  33
ATOM     33  C   UNL A   1      41.472  22.551  25.751  1.00  0.00     0.116 C 
BRANCH  33  34
ATOM     34  N   UNL A   1      42.868  22.728  25.384  1.00  0.00    -0.352 N 
ATOM     35  C   UNL A   1      43.578  23.898  25.249  1.00  0.00     0.251 C 
ATOM     36  H   UNL A   1      43.373  21.901  25.208  1.00  0.00     0.163 HD
ATOM     37  O   UNL A   1      44.598  23.928  24.584  1.00  0.00    -0.269 OA
BRANCH  35  38
ATOM     38  C   UNL A   1      43.092  25.094  25.955  1.00  0.00     0.039 A 
ATOM     39  C   UNL A   1      42.215  25.985  25.328  1.00  0.00     0.014 A 
ATOM     40  C   UNL A   1      43.579  25.347  27.237  1.00  0.00     0.014 A 
ATOM     41  C   UNL A   1      41.841  27.135  26.009  1.00  0.00     0.010 A 
ATOM     42  C   UNL A   1      43.082  26.386  27.969  1.00  0.00     0.010 A 
ATOM     43  C   UNL A   1      42.301  27.326  27.317  1.00  0.00    -0.014 A 
BRANCH  43  44
ATOM     44  C   UNL A   1      41.956  28.505  28.082  1.00  0.00     0.031 A 
ATOM     45  C   UNL A   1      42.922  29.615  27.924  1.00  0.00     0.074 A 
ATOM     46  C   UNL A   1      40.740  28.642  28.649  1.00  0.00     0.049 A 
ATOM     47  N   UNL A   1      43.812  30.013  28.770  1.00  0.00    -0.248 NA
ATOM     48  C   UNL A   1      43.054  30.226  26.589  1.00  0.00     0.031 C 
ATOM     49  C   UNL A   1      39.574  27.753  28.559  1.00  0.00     0.029 A 
ATOM     50  N   UNL A   1      40.261  29.681  29.374  1.00  0.00    -0.354 N 
ATOM     51  C   UNL A   1      44.429  31.103  28.168  1.00  0.00     0.074 A 
ATOM     52  C   UNL A   1      44.117  31.014  26.767  1.00  0.00     0.031 C 
ATOM     53  C   UNL A   1      38.477  28.393  29.026  1.00  0.00     0.029 A 
ATOM     54  C   UNL A   1      38.886  29.666  29.592  1.00  0.00     0.049 A 
ATOM     55  H   UNL A   1      40.842  30.397  29.720  1.00  0.00     0.167 HD
ATOM     56  C   UNL A   1      44.892  32.146  28.911  1.00  0.00     0.037 A 
ATOM     57  C   UNL A   1      38.165  30.663  30.169  1.00  0.00     0.037 A 
ATOM     58  C   UNL A   1      44.962  31.789  30.310  1.00  0.00     0.049 A 
ATOM     59  C   UNL A   1      39.141  31.492  30.933  1.00  0.00     0.074 A 
ATOM     60  C   UNL A   1      45.628  30.817  31.033  1.00  0.00     0.029 A 
ATOM     61  N   UNL A   1      43.939  32.221  31.123  1.00  0.00    -0.354 N 
ATOM     62  N   UNL A   1      39.808  31.057  31.969  1.00  0.00    -0.248 NA
ATOM     63  C   UNL A   1      39.729  32.634  30.251  1.00  0.00     0.031 C 
ATOM     64  C   UNL A   1      44.691  30.380  32.018  1.00  0.00     0.029 A 
ATOM     65  C   UNL A   1      43.538  31.158  31.895  1.00  0.00     0.049 A 
ATOM     66  H   UNL A   1      43.562  33.130  31.147  1.00  0.00     0.167 HD
ATOM     67  C   UNL A   1      41.084  31.585  31.824  1.00  0.00     0.074 A 
ATOM     68  C   UNL A   1      40.953  32.604  30.782  1.00  0.00     0.031 C 
ATOM     69  C   UNL A   1      42.177  30.950  32.344  1.00  0.00     0.037 A 
BRANCH  56  70
ATOM     70  C   UNL A   1      44.914  33.583  28.442  1.00  0.00     0.058 A 
ATOM     71  C   UNL A   1      46.147  34.264  28.376  1.00  0.00     0.135 A 
ATOM     72  C   UNL A   1      43.766  34.397  28.298  1.00  0.00     0.135 A 
ATOM     73  F   UNL A   1      47.304  33.597  28.511  1.00  0.00    -0.206 F 
ATOM     74  C   UNL A   1      46.230  35.651  28.244  1.00  0.00     0.059 A 
ATOM     75  C   UNL A   1      43.827  35.771  28.105  1.00  0.00     0.059 A 
ATOM     76  F   UNL A   1      42.524  33.922  28.435  1.00  0.00    -0.206 F 
ATOM     77  C   UNL A   1      45.061  36.396  28.119  1.00  0.00     0.060 A 
BRANCH  77  78
ATOM     78  S   UNL A   1      45.160  38.192  28.040  1.00  0.00     0.124 S 
ATOM     79  O   UNL A   1      44.078  38.502  27.113  1.00  0.00    -0.237 OA
ATOM     80  O   UNL A   1      44.939  38.565  29.433  1.00  0.00    -0.237 OA
ATOM     81  O   UNL A   1      46.511  38.432  27.539  1.00  0.00    -0.744 OA
ENDBRANCH  77  78
ENDBRANCH  56  70
BRANCH  57  82
ATOM     82  C   UNL A   1      36.829  31.193  29.775  1.00  0.00     0.058 A 
ATOM     83  C   UNL A   1      36.007  31.828  30.727  1.00  0.00     0.135 A 
ATOM     84  C   UNL A   1      36.476  31.392  28.426  1.00  0.00     0.135 A 
ATOM     85  F   UNL A   1      36.265  31.691  32.038  1.00  0.00    -0.206 F 
ATOM     86  C   UNL A   1      34.963  32.686  30.364  1.00  0.00     0.059 A 
ATOM     87  C   UNL A   1      35.434  32.237  28.039  1.00  0.00     0.059 A 
ATOM     88  F   UNL A   1      37.199  30.851  27.433  1.00  0.00    -0.206 F 
ATOM     89  C   UNL A   1      34.708  32.912  29.013  1.00  0.00     0.060 A 
BRANCH  89  90
ATOM     90  S   UNL A   1      33.518  34.191  28.538  1.00  0.00     0.124 S 
ATOM     91  O   UNL A   1      34.381  35.198  27.930  1.00  0.00    -0.237 OA
ATOM     92  O   UNL A   1      32.639  33.468  27.625  1.00  0.00    -0.237 OA
ATOM     93  O   UNL A   1      32.910  34.576  29.809  1.00  0.00    -0.744 OA
ENDBRANCH  89  90
ENDBRANCH  57  82
BRANCH  69  94
ATOM     94  C   UNL A   1      41.942  29.810  33.310  1.00  0.00     0.058 A 
ATOM     95  C   UNL A   1      41.783  28.462  32.936  1.00  0.00     0.135 A 
ATOM     96  C   UNL A   1      42.026  30.081  34.682  1.00  0.00     0.135 A 
ATOM     97  F   UNL A   1      41.791  28.099  31.647  1.00  0.00    -0.206 F 
ATOM     98  C   UNL A   1      41.670  27.439  33.882  1.00  0.00     0.059 A 
ATOM     99  C   UNL A   1      41.946  29.075  35.643  1.00  0.00     0.059 A 
ATOM    100  F   UNL A   1      42.236  31.337  35.108  1.00  0.00    -0.206 F 
ATOM    101  C   UNL A   1      41.755  27.756  35.236  1.00  0.00     0.060 A 
BRANCH 101 102
ATOM    102  S   UNL A   1      41.666  26.430  36.461  1.00  0.00     0.124 S 
ATOM    103  O   UNL A   1      41.321  25.274  35.639  1.00  0.00    -0.237 OA
ATOM    104  O   UNL A   1      43.014  26.428  37.023  1.00  0.00    -0.237 OA
ATOM    105  O   UNL A   1      40.620  26.879  37.376  1.00  0.00    -0.744 OA
ENDBRANCH 101 102
ENDBRANCH  69  94
ENDBRANCH  43  44
ENDBRANCH  35  38
ENDBRANCH  33  34
ENDBRANCH  32  33
ENDBRANCH   1  32
TORSDOF 20
ENDMDL
