MODEL 1
REMARK VINA RESULT:     -10.9      0.000      0.000
REMARK SMILES CCCC[C@H](C(=O)NCCCCCCNC(=O)c1ccc(-c2c3nc(c(-c4c(F)cc(S(=O)(=O)[O-])cc4F)c4ccc([nH]4)c(-c4c(F)cc(S(=O)(=O)[O-])cc4F)c4nc(c(-c5c(F)cc(S(=O)(=O)[O-])cc5F)c5ccc2[nH]5)C=C4)C=C3)cc1)[C@H](O)c1ccc(C(F)(F)F)cc1
REMARK SMILES IDX 11 1 10 2 9 3 8 4 6 5 7 6 5 8 4 9 3 10 2 11 1 12 84 13 86 14
REMARK SMILES IDX 87 15 95 16 88 17 94 18 89 19 90 20 91 21 92 22 93 23 85 24
REMARK SMILES IDX 12 26 13 27 14 28 15 29 16 30 17 32 18 33 19 34 83 35 20 36
REMARK SMILES IDX 82 37 21 38 22 39 23 40 76 41 24 42 81 43 75 44 77 45 25 46
REMARK SMILES IDX 80 47 74 48 73 49 26 51 60 52 39 53 59 54 40 55 43 56 58 57
REMARK SMILES IDX 78 58 41 59 42 60 57 62 79 63 44 64 27 65 28 66 37 67 29 68
REMARK SMILES IDX 30 69 36 70 38 71 31 72 32 73 33 74 34 75 35 76 61 77 62 78
REMARK SMILES IDX 71 79 63 80 64 81 70 82 72 83 65 84 66 85 67 86 68 87 69 88
REMARK SMILES IDX 45 89 46 90 55 91 47 92 48 93 54 94 56 95 49 96 50 97 51 98
REMARK SMILES IDX 52 99 53 100
REMARK H PARENT 8 7 85 25 15 31 77 50 43 61
REMARK Flexibility Score: inf
ROOT
ATOM      1  C   UNL A   1      36.449  23.421  26.044  1.00  0.00     0.002 C 
ENDROOT
BRANCH   1   2
ATOM      2  C   UNL A   1      36.100  22.209  25.178  1.00  0.00     0.021 C 
BRANCH   2   3
ATOM      3  C   UNL A   1      34.817  22.389  24.360  1.00  0.00     0.116 C 
BRANCH   3   4
ATOM      4  N   UNL A   1      33.804  21.443  24.773  1.00  0.00    -0.356 N 
ATOM      5  C   UNL A   1      32.469  21.546  24.964  1.00  0.00     0.226 C 
ATOM      6  O   UNL A   1      31.901  20.481  25.248  1.00  0.00    -0.275 OA
ATOM      7  H   UNL A   1      34.158  20.543  24.953  1.00  0.00     0.163 HD
BRANCH   5   8
ATOM      8  C   UNL A   1      31.642  22.831  24.845  1.00  0.00     0.111 C 
BRANCH   8   9
ATOM      9  C   UNL A   1      31.916  23.934  25.901  1.00  0.00     0.016 C 
BRANCH   9  10
ATOM     10  C   UNL A   1      33.209  24.753  25.935  1.00  0.00     0.001 C 
BRANCH  10  11
ATOM     11  C   UNL A   1      33.139  26.250  25.646  1.00  0.00    -0.003 C 
ATOM     12  C   UNL A   1      32.132  27.002  26.498  1.00  0.00     0.004 C 
ENDBRANCH  10  11
ENDBRANCH   9  10
ENDBRANCH   8   9
BRANCH   8  13
ATOM     13  C   UNL A   1      31.237  23.340  23.439  1.00  0.00     0.157 C 
BRANCH  13  14
ATOM     14  C   UNL A   1      30.927  24.805  23.218  1.00  0.00    -0.019 A 
ATOM     15  C   UNL A   1      29.858  25.403  23.903  1.00  0.00     0.007 A 
ATOM     16  C   UNL A   1      31.639  25.575  22.288  1.00  0.00     0.007 A 
ATOM     17  C   UNL A   1      29.559  26.754  23.720  1.00  0.00     0.013 A 
ATOM     18  C   UNL A   1      31.343  26.929  22.107  1.00  0.00     0.013 A 
ATOM     19  C   UNL A   1      30.310  27.536  22.835  1.00  0.00     0.056 A 
BRANCH  19  20
ATOM     20  C   UNL A   1      29.993  29.002  22.676  1.00  0.00     0.416 C 
ATOM     21  F   UNL A   1      29.756  29.618  23.865  1.00  0.00    -0.166 F 
ATOM     22  F   UNL A   1      31.012  29.693  22.091  1.00  0.00    -0.166 F 
ATOM     23  F   UNL A   1      28.894  29.242  21.906  1.00  0.00    -0.166 F 
ENDBRANCH  19  20
ENDBRANCH  13  14
BRANCH  13  24
ATOM     24  O   UNL A   1      32.271  22.981  22.501  1.00  0.00    -0.388 OA
ATOM     25  H   UNL A   1      31.868  22.633  21.691  1.00  0.00     0.211 HD
ENDBRANCH  13  24
ENDBRANCH   8  13
ENDBRANCH   5   8
ENDBRANCH   3   4
ENDBRANCH   2   3
ENDBRANCH   1   2
BRANCH   1  26
ATOM     26  C   UNL A   1      37.939  23.776  26.058  1.00  0.00     0.002 C 
BRANCH  26  27
ATOM     27  C   UNL A   1      38.887  22.641  26.464  1.00  0.00     0.021 C 
BRANCH  27  28
ATOM     28  C   UNL A   1      40.165  23.083  27.174  1.00  0.00     0.116 C 
BRANCH  28  29
ATOM     29  N   UNL A   1      41.155  23.602  26.243  1.00  0.00    -0.352 N 
ATOM     30  C   UNL A   1      41.694  24.859  26.141  1.00  0.00     0.251 C 
ATOM     31  H   UNL A   1      41.490  22.949  25.586  1.00  0.00     0.163 HD
ATOM     32  O   UNL A   1      42.348  25.162  25.149  1.00  0.00    -0.269 OA
BRANCH  30  33
ATOM     33  C   UNL A   1      41.482  25.850  27.219  1.00  0.00     0.039 A 
ATOM     34  C   UNL A   1      40.448  25.642  28.136  1.00  0.00     0.014 A 
ATOM     35  C   UNL A   1      42.274  26.998  27.304  1.00  0.00     0.014 A 
ATOM     36  C   UNL A   1      40.243  26.557  29.170  1.00  0.00     0.010 A 
ATOM     37  C   UNL A   1      42.111  27.876  28.373  1.00  0.00     0.010 A 
ATOM     38  C   UNL A   1      41.091  27.668  29.314  1.00  0.00    -0.014 A 
BRANCH  38  39
ATOM     39  C   UNL A   1      40.925  28.624  30.438  1.00  0.00     0.031 A 
ATOM     40  C   UNL A   1      41.777  28.497  31.671  1.00  0.00     0.074 A 
ATOM     41  C   UNL A   1      39.960  29.563  30.374  1.00  0.00     0.049 A 
ATOM     42  N   UNL A   1      41.730  29.185  32.783  1.00  0.00    -0.248 NA
ATOM     43  C   UNL A   1      42.803  27.442  31.663  1.00  0.00     0.031 C 
ATOM     44  C   UNL A   1      39.039  29.754  29.251  1.00  0.00     0.029 A 
ATOM     45  N   UNL A   1      39.584  30.525  31.277  1.00  0.00    -0.354 N 
ATOM     46  C   UNL A   1      42.702  28.639  33.611  1.00  0.00     0.074 A 
ATOM     47  C   UNL A   1      43.293  27.530  32.892  1.00  0.00     0.031 C 
ATOM     48  C   UNL A   1      38.218  30.779  29.524  1.00  0.00     0.029 A 
ATOM     49  C   UNL A   1      38.527  31.296  30.855  1.00  0.00     0.049 A 
ATOM     50  H   UNL A   1      40.029  30.651  32.146  1.00  0.00     0.167 HD
ATOM     51  C   UNL A   1      43.084  29.038  34.848  1.00  0.00     0.037 A 
ATOM     52  C   UNL A   1      37.875  32.301  31.472  1.00  0.00     0.037 A 
ATOM     53  C   UNL A   1      42.510  30.159  35.545  1.00  0.00     0.049 A 
ATOM     54  C   UNL A   1      38.322  32.731  32.842  1.00  0.00     0.074 A 
ATOM     55  C   UNL A   1      42.866  30.680  36.777  1.00  0.00     0.029 A 
ATOM     56  N   UNL A   1      41.460  30.933  35.073  1.00  0.00    -0.354 N 
ATOM     57  N   UNL A   1      39.284  32.241  33.586  1.00  0.00    -0.248 NA
ATOM     58  C   UNL A   1      37.600  33.855  33.455  1.00  0.00     0.031 C 
ATOM     59  C   UNL A   1      42.005  31.745  37.066  1.00  0.00     0.029 A 
ATOM     60  C   UNL A   1      41.143  31.917  35.994  1.00  0.00     0.049 A 
ATOM     61  H   UNL A   1      41.007  30.803  34.208  1.00  0.00     0.167 HD
ATOM     62  C   UNL A   1      39.302  33.012  34.742  1.00  0.00     0.074 A 
ATOM     63  C   UNL A   1      38.261  34.008  34.595  1.00  0.00     0.031 C 
ATOM     64  C   UNL A   1      40.108  32.906  35.827  1.00  0.00     0.037 A 
BRANCH  51  65
ATOM     65  C   UNL A   1      44.178  28.258  35.526  1.00  0.00     0.058 A 
ATOM     66  C   UNL A   1      45.533  28.593  35.360  1.00  0.00     0.135 A 
ATOM     67  C   UNL A   1      43.870  27.185  36.378  1.00  0.00     0.135 A 
ATOM     68  F   UNL A   1      45.885  29.599  34.546  1.00  0.00    -0.206 F 
ATOM     69  C   UNL A   1      46.542  27.872  35.989  1.00  0.00     0.059 A 
ATOM     70  C   UNL A   1      44.863  26.468  37.040  1.00  0.00     0.059 A 
ATOM     71  F   UNL A   1      42.592  26.823  36.573  1.00  0.00    -0.206 F 
ATOM     72  C   UNL A   1      46.197  26.810  36.826  1.00  0.00     0.060 A 
BRANCH  72  73
ATOM     73  S   UNL A   1      47.520  25.885  37.636  1.00  0.00     0.124 S 
ATOM     74  O   UNL A   1      48.658  26.189  36.773  1.00  0.00    -0.237 OA
ATOM     75  O   UNL A   1      47.555  26.488  38.965  1.00  0.00    -0.237 OA
ATOM     76  O   UNL A   1      47.047  24.505  37.589  1.00  0.00    -0.744 OA
ENDBRANCH  72  73
ENDBRANCH  51  65
BRANCH  52  77
ATOM     77  C   UNL A   1      36.746  32.983  30.786  1.00  0.00     0.058 A 
ATOM     78  C   UNL A   1      35.417  32.717  31.145  1.00  0.00     0.135 A 
ATOM     79  C   UNL A   1      36.973  33.927  29.772  1.00  0.00     0.135 A 
ATOM     80  F   UNL A   1      35.149  31.819  32.105  1.00  0.00    -0.206 F 
ATOM     81  C   UNL A   1      34.350  33.350  30.515  1.00  0.00     0.059 A 
ATOM     82  C   UNL A   1      35.923  34.591  29.144  1.00  0.00     0.059 A 
ATOM     83  F   UNL A   1      38.227  34.231  29.404  1.00  0.00    -0.206 F 
ATOM     84  C   UNL A   1      34.614  34.288  29.516  1.00  0.00     0.060 A 
BRANCH  84  85
ATOM     85  S   UNL A   1      33.225  35.143  28.739  1.00  0.00     0.124 S 
ATOM     86  O   UNL A   1      32.466  35.586  29.903  1.00  0.00    -0.237 OA
ATOM     87  O   UNL A   1      33.898  36.191  27.978  1.00  0.00    -0.237 OA
ATOM     88  O   UNL A   1      32.598  34.099  27.934  1.00  0.00    -0.744 OA
ENDBRANCH  84  85
ENDBRANCH  52  77
BRANCH  64  89
ATOM     89  C   UNL A   1      39.922  33.914  36.928  1.00  0.00     0.058 A 
ATOM     90  C   UNL A   1      40.516  35.184  36.874  1.00  0.00     0.135 A 
ATOM     91  C   UNL A   1      39.094  33.621  38.024  1.00  0.00     0.135 A 
ATOM     92  F   UNL A   1      41.322  35.510  35.851  1.00  0.00    -0.206 F 
ATOM     93  C   UNL A   1      40.313  36.123  37.880  1.00  0.00     0.059 A 
ATOM     94  C   UNL A   1      38.856  34.554  39.028  1.00  0.00     0.059 A 
ATOM     95  F   UNL A   1      38.494  32.424  38.118  1.00  0.00    -0.206 F 
ATOM     96  C   UNL A   1      39.480  35.799  38.952  1.00  0.00     0.060 A 
BRANCH  96  97
ATOM     97  S   UNL A   1      39.195  37.040  40.233  1.00  0.00     0.124 S 
ATOM     98  O   UNL A   1      38.540  38.100  39.474  1.00  0.00    -0.237 OA
ATOM     99  O   UNL A   1      38.350  36.322  41.181  1.00  0.00    -0.237 OA
ATOM    100  O   UNL A   1      40.540  37.349  40.711  1.00  0.00    -0.744 OA
ENDBRANCH  96  97
ENDBRANCH  64  89
ENDBRANCH  38  39
ENDBRANCH  30  33
ENDBRANCH  28  29
ENDBRANCH  27  28
ENDBRANCH  26  27
ENDBRANCH   1  26
TORSDOF 23
ENDMDL
MODEL 2
REMARK VINA RESULT:     -10.6      5.737     12.051
REMARK SMILES CCCC[C@H](C(=O)NCCCCCCNC(=O)c1ccc(-c2c3nc(c(-c4c(F)cc(S(=O)(=O)[O-])cc4F)c4ccc([nH]4)c(-c4c(F)cc(S(=O)(=O)[O-])cc4F)c4nc(c(-c5c(F)cc(S(=O)(=O)[O-])cc5F)c5ccc2[nH]5)C=C4)C=C3)cc1)[C@H](O)c1ccc(C(F)(F)F)cc1
REMARK SMILES IDX 11 1 10 2 9 3 8 4 6 5 7 6 5 8 4 9 3 10 2 11 1 12 84 13 86 14
REMARK SMILES IDX 87 15 95 16 88 17 94 18 89 19 90 20 91 21 92 22 93 23 85 24
REMARK SMILES IDX 12 26 13 27 14 28 15 29 16 30 17 32 18 33 19 34 83 35 20 36
REMARK SMILES IDX 82 37 21 38 22 39 23 40 76 41 24 42 81 43 75 44 77 45 25 46
REMARK SMILES IDX 80 47 74 48 73 49 26 51 60 52 39 53 59 54 40 55 43 56 58 57
REMARK SMILES IDX 78 58 41 59 42 60 57 62 79 63 44 64 27 65 28 66 37 67 29 68
REMARK SMILES IDX 30 69 36 70 38 71 31 72 32 73 33 74 34 75 35 76 61 77 62 78
REMARK SMILES IDX 71 79 63 80 64 81 70 82 72 83 65 84 66 85 67 86 68 87 69 88
REMARK SMILES IDX 45 89 46 90 55 91 47 92 48 93 54 94 56 95 49 96 50 97 51 98
REMARK SMILES IDX 52 99 53 100
REMARK H PARENT 8 7 85 25 15 31 77 50 43 61
REMARK Flexibility Score: inf
ROOT
ATOM      1  C   UNL A   1      38.089  31.795  31.380  1.00  0.00     0.002 C 
ENDROOT
BRANCH   1   2
ATOM      2  C   UNL A   1      37.532  31.116  32.632  1.00  0.00     0.021 C 
BRANCH   2   3
ATOM      3  C   UNL A   1      38.484  30.083  33.245  1.00  0.00     0.116 C 
BRANCH   3   4
ATOM      4  N   UNL A   1      38.249  29.942  34.664  1.00  0.00    -0.356 N 
ATOM      5  C   UNL A   1      38.552  30.717  35.731  1.00  0.00     0.226 C 
ATOM      6  O   UNL A   1      38.110  30.306  36.814  1.00  0.00    -0.275 OA
ATOM      7  H   UNL A   1      37.772  29.115  34.903  1.00  0.00     0.163 HD
BRANCH   5   8
ATOM      8  C   UNL A   1      39.358  32.020  35.693  1.00  0.00     0.111 C 
BRANCH   8   9
ATOM      9  C   UNL A   1      40.487  32.109  34.632  1.00  0.00     0.016 C 
BRANCH   9  10
ATOM     10  C   UNL A   1      41.630  33.123  34.714  1.00  0.00     0.001 C 
BRANCH  10  11
ATOM     11  C   UNL A   1      41.505  34.437  33.946  1.00  0.00    -0.003 C 
ATOM     12  C   UNL A   1      41.072  34.272  32.500  1.00  0.00     0.004 C 
ENDBRANCH  10  11
ENDBRANCH   9  10
ENDBRANCH   8   9
BRANCH   8  13
ATOM     13  C   UNL A   1      38.647  33.357  36.023  1.00  0.00     0.157 C 
BRANCH  13  14
ATOM     14  C   UNL A   1      37.515  33.854  35.152  1.00  0.00    -0.019 A 
ATOM     15  C   UNL A   1      37.799  34.519  33.949  1.00  0.00     0.007 A 
ATOM     16  C   UNL A   1      36.175  33.730  35.545  1.00  0.00     0.007 A 
ATOM     17  C   UNL A   1      36.770  34.979  33.126  1.00  0.00     0.013 A 
ATOM     18  C   UNL A   1      35.143  34.186  34.720  1.00  0.00     0.013 A 
ATOM     19  C   UNL A   1      35.431  34.800  33.494  1.00  0.00     0.056 A 
BRANCH  19  20
ATOM     20  C   UNL A   1      34.332  35.274  32.575  1.00  0.00     0.416 C 
ATOM     21  F   UNL A   1      34.645  35.117  31.261  1.00  0.00    -0.166 F 
ATOM     22  F   UNL A   1      33.167  34.596  32.768  1.00  0.00    -0.166 F 
ATOM     23  F   UNL A   1      34.023  36.593  32.730  1.00  0.00    -0.166 F 
ENDBRANCH  19  20
ENDBRANCH  13  14
BRANCH  13  24
ATOM     24  O   UNL A   1      38.146  33.293  37.373  1.00  0.00    -0.388 OA
ATOM     25  H   UNL A   1      38.716  33.818  37.956  1.00  0.00     0.211 HD
ENDBRANCH  13  24
ENDBRANCH   8  13
ENDBRANCH   5   8
ENDBRANCH   3   4
ENDBRANCH   2   3
ENDBRANCH   1   2
BRANCH   1  26
ATOM     26  C   UNL A   1      37.138  32.810  30.737  1.00  0.00     0.002 C 
BRANCH  26  27
ATOM     27  C   UNL A   1      35.708  32.312  30.490  1.00  0.00     0.021 C 
BRANCH  27  28
ATOM     28  C   UNL A   1      35.243  32.368  29.036  1.00  0.00     0.116 C 
BRANCH  28  29
ATOM     29  N   UNL A   1      34.531  31.162  28.644  1.00  0.00    -0.352 N 
ATOM     30  C   UNL A   1      35.016  29.953  28.214  1.00  0.00     0.251 C 
ATOM     31  H   UNL A   1      33.549  31.223  28.697  1.00  0.00     0.163 HD
ATOM     32  O   UNL A   1      34.251  29.134  27.715  1.00  0.00    -0.269 OA
BRANCH  30  33
ATOM     33  C   UNL A   1      36.456  29.640  28.342  1.00  0.00     0.039 A 
ATOM     34  C   UNL A   1      37.311  29.942  27.279  1.00  0.00     0.014 A 
ATOM     35  C   UNL A   1      36.956  29.020  29.490  1.00  0.00     0.014 A 
ATOM     36  C   UNL A   1      38.676  29.670  27.388  1.00  0.00     0.010 A 
ATOM     37  C   UNL A   1      38.326  28.808  29.624  1.00  0.00     0.010 A 
ATOM     38  C   UNL A   1      39.200  29.126  28.573  1.00  0.00    -0.014 A 
BRANCH  38  39
ATOM     39  C   UNL A   1      40.656  28.880  28.730  1.00  0.00     0.031 A 
ATOM     40  C   UNL A   1      41.239  27.540  28.374  1.00  0.00     0.074 A 
ATOM     41  C   UNL A   1      41.439  29.842  29.256  1.00  0.00     0.049 A 
ATOM     42  N   UNL A   1      42.467  27.110  28.512  1.00  0.00    -0.248 NA
ATOM     43  C   UNL A   1      40.315  26.542  27.811  1.00  0.00     0.031 C 
ATOM     44  C   UNL A   1      40.980  31.166  29.684  1.00  0.00     0.029 A 
ATOM     45  N   UNL A   1      42.783  29.852  29.533  1.00  0.00    -0.354 N 
ATOM     46  C   UNL A   1      42.461  25.792  28.071  1.00  0.00     0.074 A 
ATOM     47  C   UNL A   1      41.096  25.476  27.706  1.00  0.00     0.031 C 
ATOM     48  C   UNL A   1      42.026  31.864  30.152  1.00  0.00     0.029 A 
ATOM     49  C   UNL A   1      43.222  31.029  30.093  1.00  0.00     0.049 A 
ATOM     50  H   UNL A   1      43.376  29.090  29.349  1.00  0.00     0.167 HD
ATOM     51  C   UNL A   1      43.501  24.932  27.959  1.00  0.00     0.037 A 
ATOM     52  C   UNL A   1      44.449  31.391  30.519  1.00  0.00     0.037 A 
ATOM     53  C   UNL A   1      44.860  25.262  28.298  1.00  0.00     0.049 A 
ATOM     54  C   UNL A   1      45.589  30.421  30.377  1.00  0.00     0.074 A 
ATOM     55  C   UNL A   1      45.995  24.480  28.167  1.00  0.00     0.029 A 
ATOM     56  N   UNL A   1      45.270  26.473  28.836  1.00  0.00    -0.354 N 
ATOM     57  N   UNL A   1      45.576  29.198  29.902  1.00  0.00    -0.248 NA
ATOM     58  C   UNL A   1      46.912  30.879  30.823  1.00  0.00     0.031 C 
ATOM     59  C   UNL A   1      47.085  25.205  28.663  1.00  0.00     0.029 A 
ATOM     60  C   UNL A   1      46.637  26.455  29.059  1.00  0.00     0.049 A 
ATOM     61  H   UNL A   1      44.677  27.235  29.031  1.00  0.00     0.167 HD
ATOM     62  C   UNL A   1      46.890  28.751  29.966  1.00  0.00     0.074 A 
ATOM     63  C   UNL A   1      47.674  29.838  30.516  1.00  0.00     0.031 C 
ATOM     64  C   UNL A   1      47.403  27.550  29.601  1.00  0.00     0.037 A 
BRANCH  51  65
ATOM     65  C   UNL A   1      43.209  23.548  27.444  1.00  0.00     0.058 A 
ATOM     66  C   UNL A   1      42.850  22.500  28.309  1.00  0.00     0.135 A 
ATOM     67  C   UNL A   1      43.254  23.272  26.068  1.00  0.00     0.135 A 
ATOM     68  F   UNL A   1      42.805  22.704  29.635  1.00  0.00    -0.206 F 
ATOM     69  C   UNL A   1      42.578  21.223  27.831  1.00  0.00     0.059 A 
ATOM     70  C   UNL A   1      42.959  22.008  25.565  1.00  0.00     0.059 A 
ATOM     71  F   UNL A   1      43.591  24.236  25.196  1.00  0.00    -0.206 F 
ATOM     72  C   UNL A   1      42.637  20.986  26.457  1.00  0.00     0.060 A 
BRANCH  72  73
ATOM     73  S   UNL A   1      42.280  19.322  25.853  1.00  0.00     0.124 S 
ATOM     74  O   UNL A   1      43.206  19.217  24.728  1.00  0.00    -0.237 OA
ATOM     75  O   UNL A   1      42.597  18.494  27.012  1.00  0.00    -0.237 OA
ATOM     76  O   UNL A   1      40.866  19.385  25.498  1.00  0.00    -0.744 OA
ENDBRANCH  72  73
ENDBRANCH  51  65
BRANCH  52  77
ATOM     77  C   UNL A   1      44.663  32.745  31.095  1.00  0.00     0.058 A 
ATOM     78  C   UNL A   1      44.643  32.949  32.483  1.00  0.00     0.135 A 
ATOM     79  C   UNL A   1      44.909  33.856  30.274  1.00  0.00     0.135 A 
ATOM     80  F   UNL A   1      44.405  31.919  33.309  1.00  0.00    -0.206 F 
ATOM     81  C   UNL A   1      44.845  34.209  33.037  1.00  0.00     0.059 A 
ATOM     82  C   UNL A   1      45.139  35.121  30.806  1.00  0.00     0.059 A 
ATOM     83  F   UNL A   1      44.958  33.710  28.941  1.00  0.00    -0.206 F 
ATOM     84  C   UNL A   1      45.094  35.290  32.189  1.00  0.00     0.060 A 
BRANCH  84  85
ATOM     85  S   UNL A   1      45.408  36.912  32.920  1.00  0.00     0.124 S 
ATOM     86  O   UNL A   1      46.542  36.627  33.790  1.00  0.00    -0.237 OA
ATOM     87  O   UNL A   1      45.692  37.727  31.744  1.00  0.00    -0.237 OA
ATOM     88  O   UNL A   1      44.152  37.221  33.598  1.00  0.00    -0.744 OA
ENDBRANCH  84  85
ENDBRANCH  52  77
BRANCH  64  89
ATOM     89  C   UNL A   1      48.886  27.357  29.751  1.00  0.00     0.058 A 
ATOM     90  C   UNL A   1      49.442  26.775  30.901  1.00  0.00     0.135 A 
ATOM     91  C   UNL A   1      49.756  27.709  28.706  1.00  0.00     0.135 A 
ATOM     92  F   UNL A   1      48.654  26.427  31.930  1.00  0.00    -0.206 F 
ATOM     93  C   UNL A   1      50.812  26.568  31.019  1.00  0.00     0.059 A 
ATOM     94  C   UNL A   1      51.127  27.488  28.794  1.00  0.00     0.059 A 
ATOM     95  F   UNL A   1      49.275  28.260  27.581  1.00  0.00    -0.206 F 
ATOM     96  C   UNL A   1      51.647  26.927  29.960  1.00  0.00     0.060 A 
BRANCH  96  97
ATOM     97  S   UNL A   1      53.420  26.620  30.111  1.00  0.00     0.124 S 
ATOM     98  O   UNL A   1      53.455  25.618  31.172  1.00  0.00    -0.237 OA
ATOM     99  O   UNL A   1      53.770  26.145  28.777  1.00  0.00    -0.237 OA
ATOM    100  O   UNL A   1      53.962  27.929  30.467  1.00  0.00    -0.744 OA
ENDBRANCH  96  97
ENDBRANCH  64  89
ENDBRANCH  38  39
ENDBRANCH  30  33
ENDBRANCH  28  29
ENDBRANCH  27  28
ENDBRANCH  26  27
ENDBRANCH   1  26
TORSDOF 23
ENDMDL
MODEL 3
REMARK VINA RESULT:     -10.6      1.382      2.038
REMARK SMILES CCCC[C@H](C(=O)NCCCCCCNC(=O)c1ccc(-c2c3nc(c(-c4c(F)cc(S(=O)(=O)[O-])cc4F)c4ccc([nH]4)c(-c4c(F)cc(S(=O)(=O)[O-])cc4F)c4nc(c(-c5c(F)cc(S(=O)(=O)[O-])cc5F)c5ccc2[nH]5)C=C4)C=C3)cc1)[C@H](O)c1ccc(C(F)(F)F)cc1
REMARK SMILES IDX 11 1 10 2 9 3 8 4 6 5 7 6 5 8 4 9 3 10 2 11 1 12 84 13 86 14
REMARK SMILES IDX 87 15 95 16 88 17 94 18 89 19 90 20 91 21 92 22 93 23 85 24
REMARK SMILES IDX 12 26 13 27 14 28 15 29 16 30 17 32 18 33 19 34 83 35 20 36
REMARK SMILES IDX 82 37 21 38 22 39 23 40 76 41 24 42 81 43 75 44 77 45 25 46
REMARK SMILES IDX 80 47 74 48 73 49 26 51 60 52 39 53 59 54 40 55 43 56 58 57
REMARK SMILES IDX 78 58 41 59 42 60 57 62 79 63 44 64 27 65 28 66 37 67 29 68
REMARK SMILES IDX 30 69 36 70 38 71 31 72 32 73 33 74 34 75 35 76 61 77 62 78
REMARK SMILES IDX 71 79 63 80 64 81 70 82 72 83 65 84 66 85 67 86 68 87 69 88
REMARK SMILES IDX 45 89 46 90 55 91 47 92 48 93 54 94 56 95 49 96 50 97 51 98
REMARK SMILES IDX 52 99 53 100
REMARK H PARENT 8 7 85 25 15 31 77 50 43 61
REMARK Flexibility Score: inf
ROOT
ATOM      1  C   UNL A   1      37.081  23.755  25.564  1.00  0.00     0.002 C 
ENDROOT
BRANCH   1   2
ATOM      2  C   UNL A   1      35.623  23.833  25.108  1.00  0.00     0.021 C 
BRANCH   2   3
ATOM      3  C   UNL A   1      34.767  24.786  25.949  1.00  0.00     0.116 C 
BRANCH   3   4
ATOM      4  N   UNL A   1      33.401  24.806  25.476  1.00  0.00    -0.356 N 
ATOM      5  C   UNL A   1      32.573  25.804  25.091  1.00  0.00     0.226 C 
ATOM      6  O   UNL A   1      31.472  25.429  24.659  1.00  0.00    -0.275 OA
ATOM      7  H   UNL A   1      32.990  23.913  25.424  1.00  0.00     0.163 HD
BRANCH   5   8
ATOM      8  C   UNL A   1      32.891  27.303  25.137  1.00  0.00     0.111 C 
BRANCH   8   9
ATOM      9  C   UNL A   1      34.021  27.744  26.103  1.00  0.00     0.016 C 
BRANCH   9  10
ATOM     10  C   UNL A   1      33.791  28.707  27.271  1.00  0.00     0.001 C 
BRANCH  10  11
ATOM     11  C   UNL A   1      34.986  29.467  27.843  1.00  0.00    -0.003 C 
ATOM     12  C   UNL A   1      35.006  30.945  27.497  1.00  0.00     0.004 C 
ENDBRANCH  10  11
ENDBRANCH   9  10
ENDBRANCH   8   9
BRANCH   8  13
ATOM     13  C   UNL A   1      32.756  28.142  23.841  1.00  0.00     0.157 C 
BRANCH  13  14
ATOM     14  C   UNL A   1      31.532  29.001  23.613  1.00  0.00    -0.019 A 
ATOM     15  C   UNL A   1      30.877  28.968  22.372  1.00  0.00     0.007 A 
ATOM     16  C   UNL A   1      31.065  29.891  24.590  1.00  0.00     0.007 A 
ATOM     17  C   UNL A   1      29.742  29.747  22.142  1.00  0.00     0.013 A 
ATOM     18  C   UNL A   1      29.926  30.668  24.363  1.00  0.00     0.013 A 
ATOM     19  C   UNL A   1      29.243  30.590  23.142  1.00  0.00     0.056 A 
BRANCH  19  20
ATOM     20  C   UNL A   1      27.995  31.399  22.886  1.00  0.00     0.416 C 
ATOM     21  F   UNL A   1      28.265  32.702  22.605  1.00  0.00    -0.166 F 
ATOM     22  F   UNL A   1      27.279  30.926  21.828  1.00  0.00    -0.166 F 
ATOM     23  F   UNL A   1      27.131  31.415  23.940  1.00  0.00    -0.166 F 
ENDBRANCH  19  20
ENDBRANCH  13  14
BRANCH  13  24
ATOM     24  O   UNL A   1      33.906  29.004  23.726  1.00  0.00    -0.388 OA
ATOM     25  H   UNL A   1      34.243  29.215  24.611  1.00  0.00     0.211 HD
ENDBRANCH  13  24
ENDBRANCH   8  13
ENDBRANCH   5   8
ENDBRANCH   3   4
ENDBRANCH   2   3
ENDBRANCH   1   2
BRANCH   1  26
ATOM     26  C   UNL A   1      37.782  22.439  25.211  1.00  0.00     0.002 C 
BRANCH  26  27
ATOM     27  C   UNL A   1      38.920  22.023  26.151  1.00  0.00     0.021 C 
BRANCH  27  28
ATOM     28  C   UNL A   1      39.677  23.176  26.806  1.00  0.00     0.116 C 
BRANCH  28  29
ATOM     29  N   UNL A   1      40.932  23.459  26.130  1.00  0.00    -0.352 N 
ATOM     30  C   UNL A   1      41.748  24.560  26.210  1.00  0.00     0.251 C 
ATOM     31  H   UNL A   1      41.246  22.751  25.521  1.00  0.00     0.163 HD
ATOM     32  O   UNL A   1      42.649  24.710  25.392  1.00  0.00    -0.269 OA
BRANCH  30  33
ATOM     33  C   UNL A   1      41.537  25.566  27.273  1.00  0.00     0.039 A 
ATOM     34  C   UNL A   1      40.459  25.411  28.149  1.00  0.00     0.014 A 
ATOM     35  C   UNL A   1      42.376  26.679  27.385  1.00  0.00     0.014 A 
ATOM     36  C   UNL A   1      40.254  26.342  29.169  1.00  0.00     0.010 A 
ATOM     37  C   UNL A   1      42.209  27.571  28.441  1.00  0.00     0.010 A 
ATOM     38  C   UNL A   1      41.144  27.414  29.341  1.00  0.00    -0.014 A 
BRANCH  38  39
ATOM     39  C   UNL A   1      40.976  28.384  30.453  1.00  0.00     0.031 A 
ATOM     40  C   UNL A   1      41.827  28.275  31.688  1.00  0.00     0.074 A 
ATOM     41  C   UNL A   1      40.010  29.321  30.376  1.00  0.00     0.049 A 
ATOM     42  N   UNL A   1      41.778  28.977  32.791  1.00  0.00    -0.248 NA
ATOM     43  C   UNL A   1      42.854  27.221  31.695  1.00  0.00     0.031 C 
ATOM     44  C   UNL A   1      39.090  29.497  29.250  1.00  0.00     0.029 A 
ATOM     45  N   UNL A   1      39.632  30.295  31.267  1.00  0.00    -0.354 N 
ATOM     46  C   UNL A   1      42.751  28.443  33.627  1.00  0.00     0.074 A 
ATOM     47  C   UNL A   1      43.343  27.325  32.923  1.00  0.00     0.031 C 
ATOM     48  C   UNL A   1      38.266  30.525  29.509  1.00  0.00     0.029 A 
ATOM     49  C   UNL A   1      38.574  31.059  30.833  1.00  0.00     0.049 A 
ATOM     50  H   UNL A   1      40.076  30.433  32.134  1.00  0.00     0.167 HD
ATOM     51  C   UNL A   1      43.130  28.859  34.859  1.00  0.00     0.037 A 
ATOM     52  C   UNL A   1      37.920  32.071  31.437  1.00  0.00     0.037 A 
ATOM     53  C   UNL A   1      42.555  29.988  35.541  1.00  0.00     0.049 A 
ATOM     54  C   UNL A   1      38.366  32.519  32.801  1.00  0.00     0.074 A 
ATOM     55  C   UNL A   1      42.909  30.525  36.766  1.00  0.00     0.029 A 
ATOM     56  N   UNL A   1      41.504  30.754  35.058  1.00  0.00    -0.354 N 
ATOM     57  N   UNL A   1      39.328  32.040  33.553  1.00  0.00    -0.248 NA
ATOM     58  C   UNL A   1      37.642  33.650  33.399  1.00  0.00     0.031 C 
ATOM     59  C   UNL A   1      42.046  31.592  37.041  1.00  0.00     0.029 A 
ATOM     60  C   UNL A   1      41.185  31.749  35.967  1.00  0.00     0.049 A 
ATOM     61  H   UNL A   1      41.052  30.612  34.194  1.00  0.00     0.167 HD
ATOM     62  C   UNL A   1      39.344  32.826  34.699  1.00  0.00     0.074 A 
ATOM     63  C   UNL A   1      38.302  33.819  34.538  1.00  0.00     0.031 C 
ATOM     64  C   UNL A   1      40.149  32.735  35.786  1.00  0.00     0.037 A 
BRANCH  51  65
ATOM     65  C   UNL A   1      44.225  28.089  35.547  1.00  0.00     0.058 A 
ATOM     66  C   UNL A   1      45.580  28.416  35.370  1.00  0.00     0.135 A 
ATOM     67  C   UNL A   1      43.917  27.034  36.422  1.00  0.00     0.135 A 
ATOM     68  F   UNL A   1      45.932  29.405  34.535  1.00  0.00    -0.206 F 
ATOM     69  C   UNL A   1      46.590  27.705  36.009  1.00  0.00     0.059 A 
ATOM     70  C   UNL A   1      44.910  26.327  37.094  1.00  0.00     0.059 A 
ATOM     71  F   UNL A   1      42.639  26.679  36.629  1.00  0.00    -0.206 F 
ATOM     72  C   UNL A   1      46.245  26.660  36.868  1.00  0.00     0.060 A 
BRANCH  72  73
ATOM     73  S   UNL A   1      47.568  25.747  37.691  1.00  0.00     0.124 S 
ATOM     74  O   UNL A   1      48.740  26.202  36.948  1.00  0.00    -0.237 OA
ATOM     75  O   UNL A   1      47.468  26.223  39.067  1.00  0.00    -0.237 OA
ATOM     76  O   UNL A   1      47.197  24.351  37.485  1.00  0.00    -0.744 OA
ENDBRANCH  72  73
ENDBRANCH  51  65
BRANCH  52  77
ATOM     77  C   UNL A   1      36.791  32.743  30.741  1.00  0.00     0.058 A 
ATOM     78  C   UNL A   1      35.464  32.524  31.141  1.00  0.00     0.135 A 
ATOM     79  C   UNL A   1      37.015  33.630  29.677  1.00  0.00     0.135 A 
ATOM     80  F   UNL A   1      35.199  31.680  32.150  1.00  0.00    -0.206 F 
ATOM     81  C   UNL A   1      34.398  33.148  30.502  1.00  0.00     0.059 A 
ATOM     82  C   UNL A   1      35.966  34.285  29.038  1.00  0.00     0.059 A 
ATOM     83  F   UNL A   1      38.267  33.889  29.269  1.00  0.00    -0.206 F 
ATOM     84  C   UNL A   1      34.659  34.029  29.452  1.00  0.00     0.060 A 
BRANCH  84  85
ATOM     85  S   UNL A   1      33.272  34.875  28.663  1.00  0.00     0.124 S 
ATOM     86  O   UNL A   1      32.460  35.246  29.816  1.00  0.00    -0.237 OA
ATOM     87  O   UNL A   1      33.938  35.973  27.969  1.00  0.00    -0.237 OA
ATOM     88  O   UNL A   1      32.705  33.848  27.794  1.00  0.00    -0.744 OA
ENDBRANCH  84  85
ENDBRANCH  52  77
BRANCH  64  89
ATOM     89  C   UNL A   1      39.961  33.756  36.873  1.00  0.00     0.058 A 
ATOM     90  C   UNL A   1      40.546  35.030  36.799  1.00  0.00     0.135 A 
ATOM     91  C   UNL A   1      39.139  33.473  37.977  1.00  0.00     0.135 A 
ATOM     92  F   UNL A   1      41.345  35.347  35.769  1.00  0.00    -0.206 F 
ATOM     93  C   UNL A   1      40.340  35.981  37.793  1.00  0.00     0.059 A 
ATOM     94  C   UNL A   1      38.899  34.419  38.969  1.00  0.00     0.059 A 
ATOM     95  F   UNL A   1      38.547  32.274  38.090  1.00  0.00    -0.206 F 
ATOM     96  C   UNL A   1      39.514  35.667  38.873  1.00  0.00     0.060 A 
BRANCH  96  97
ATOM     97  S   UNL A   1      39.227  36.923  40.138  1.00  0.00     0.124 S 
ATOM     98  O   UNL A   1      38.862  38.079  39.326  1.00  0.00    -0.237 OA
ATOM     99  O   UNL A   1      38.148  36.334  40.924  1.00  0.00    -0.237 OA
ATOM    100  O   UNL A   1      40.513  37.018  40.822  1.00  0.00    -0.744 OA
ENDBRANCH  96  97
ENDBRANCH  64  89
ENDBRANCH  38  39
ENDBRANCH  30  33
ENDBRANCH  28  29
ENDBRANCH  27  28
ENDBRANCH  26  27
ENDBRANCH   1  26
TORSDOF 23
ENDMDL
