MODEL 1
REMARK VINA RESULT:     -11.7      0.000      0.000
REMARK SMILES CN(C)c1ccc(NC(=O)[C@H]2CC=CC[C@@H]2C(=O)NCCCCCCNC(=O)c2ccc(-c3c4nc(c(-c5c(F)cc(S(=O)(=O)[O-])cc5F)c5ccc([nH]5)c(-c5c(F)cc(S(=O)(=O)[O-])cc5F)c5nc(c(-c6c(F)cc(S(=O)(=O)[O-])cc6F)c6ccc3[nH]6)C=C5)C=C4)cc2)cc1
REMARK SMILES IDX 22 1 21 2 20 3 19 4 17 5 18 6 16 8 11 9 12 10 13 11 15 12
REMARK SMILES IDX 14 13 9 14 8 15 10 17 7 18 4 19 5 20 96 21 6 22 95 23 2 24
REMARK SMILES IDX 1 25 3 26 23 27 24 28 25 29 26 30 27 31 28 33 29 34 30 35
REMARK SMILES IDX 94 36 31 37 93 38 32 39 33 40 34 41 87 42 35 43 92 44 86 45
REMARK SMILES IDX 88 46 36 47 91 48 85 49 84 50 37 52 71 53 50 54 70 55 51 56
REMARK SMILES IDX 54 57 69 58 89 59 52 60 53 61 68 63 90 64 55 65 38 66 39 67
REMARK SMILES IDX 48 68 40 69 41 70 47 71 49 72 42 73 43 74 44 75 45 76 46 77
REMARK SMILES IDX 72 78 73 79 82 80 74 81 75 82 81 83 83 84 76 85 77 86 78 87
REMARK SMILES IDX 79 88 80 89 56 90 57 91 66 92 58 93 59 94 65 95 67 96 60 97
REMARK SMILES IDX 61 98 62 99 63 100 64 101
REMARK H PARENT 19 7 8 16 26 32 88 51 54 62
REMARK Flexibility Score: inf
ROOT
ATOM      1  C   UNL A   1      31.790  28.732  27.310  1.00  0.00     0.002 C 
ENDROOT
BRANCH   1   2
ATOM      2  C   UNL A   1      32.205  27.280  27.036  1.00  0.00     0.021 C 
BRANCH   2   3
ATOM      3  C   UNL A   1      31.123  26.389  26.435  1.00  0.00     0.116 C 
BRANCH   3   4
ATOM      4  N   UNL A   1      31.227  25.016  26.874  1.00  0.00    -0.356 N 
ATOM      5  C   UNL A   1      32.124  24.053  26.528  1.00  0.00     0.224 C 
ATOM      6  O   UNL A   1      31.954  22.942  27.036  1.00  0.00    -0.275 OA
ATOM      7  H   UNL A   1      30.544  24.732  27.525  1.00  0.00     0.163 HD
BRANCH   5   8
ATOM      8  C   UNL A   1      33.218  24.324  25.488  1.00  0.00     0.095 C 
ATOM      9  C   UNL A   1      32.722  23.865  24.078  1.00  0.00     0.095 C 
ATOM     10  C   UNL A   1      32.675  22.315  24.018  1.00  0.00     0.041 C 
ATOM     11  C   UNL A   1      33.781  21.598  24.725  1.00  0.00    -0.030 C 
ATOM     12  C   UNL A   1      34.586  23.681  25.808  1.00  0.00     0.041 C 
ATOM     13  C   UNL A   1      34.665  22.218  25.510  1.00  0.00    -0.030 C 
BRANCH   9  14
ATOM     14  C   UNL A   1      33.553  24.550  22.978  1.00  0.00     0.228 C 
ATOM     15  N   UNL A   1      33.249  25.784  22.476  1.00  0.00    -0.326 N 
ATOM     16  H   UNL A   1      33.801  26.059  21.708  1.00  0.00     0.169 HD
ATOM     17  O   UNL A   1      34.550  24.000  22.494  1.00  0.00    -0.274 OA
BRANCH  15  18
ATOM     18  C   UNL A   1      32.292  26.725  22.865  1.00  0.00     0.041 A 
ATOM     19  C   UNL A   1      30.501  28.897  23.245  1.00  0.00     0.036 A 
ATOM     20  C   UNL A   1      30.046  27.617  22.889  1.00  0.00     0.028 A 
ATOM     21  C   UNL A   1      31.869  29.005  23.544  1.00  0.00     0.028 A 
ATOM     22  C   UNL A   1      30.924  26.542  22.699  1.00  0.00     0.028 A 
ATOM     23  C   UNL A   1      32.754  27.932  23.378  1.00  0.00     0.028 A 
BRANCH  19  24
ATOM     24  N   UNL A   1      29.652  30.003  23.290  1.00  0.00    -0.378 N 
ATOM     25  C   UNL A   1      28.288  29.866  22.784  1.00  0.00     0.143 C 
ATOM     26  C   UNL A   1      29.900  31.088  24.230  1.00  0.00     0.143 C 
ENDBRANCH  19  24
ENDBRANCH  15  18
ENDBRANCH   9  14
ENDBRANCH   5   8
ENDBRANCH   3   4
ENDBRANCH   2   3
ENDBRANCH   1   2
BRANCH   1  27
ATOM     27  C   UNL A   1      32.896  29.786  27.203  1.00  0.00     0.002 C 
BRANCH  27  28
ATOM     28  C   UNL A   1      34.219  29.309  26.605  1.00  0.00     0.021 C 
BRANCH  28  29
ATOM     29  C   UNL A   1      35.405  29.311  27.561  1.00  0.00     0.116 C 
BRANCH  29  30
ATOM     30  N   UNL A   1      35.155  30.066  28.776  1.00  0.00    -0.352 N 
ATOM     31  C   UNL A   1      36.059  30.463  29.736  1.00  0.00     0.251 C 
ATOM     32  H   UNL A   1      34.219  30.328  28.934  1.00  0.00     0.163 HD
ATOM     33  O   UNL A   1      35.681  30.994  30.768  1.00  0.00    -0.269 OA
BRANCH  31  34
ATOM     34  C   UNL A   1      37.498  30.202  29.508  1.00  0.00     0.039 A 
ATOM     35  C   UNL A   1      38.316  29.905  30.601  1.00  0.00     0.014 A 
ATOM     36  C   UNL A   1      38.019  30.202  28.211  1.00  0.00     0.014 A 
ATOM     37  C   UNL A   1      39.647  29.541  30.387  1.00  0.00     0.010 A 
ATOM     38  C   UNL A   1      39.323  29.773  27.996  1.00  0.00     0.010 A 
ATOM     39  C   UNL A   1      40.150  29.438  29.081  1.00  0.00    -0.014 A 
BRANCH  39  40
ATOM     40  C   UNL A   1      41.542  28.998  28.804  1.00  0.00     0.031 A 
ATOM     41  C   UNL A   1      42.644  30.019  28.761  1.00  0.00     0.074 A 
ATOM     42  C   UNL A   1      41.792  27.715  28.479  1.00  0.00     0.049 A 
ATOM     43  N   UNL A   1      43.882  29.885  28.365  1.00  0.00    -0.248 NA
ATOM     44  C   UNL A   1      42.291  31.383  29.186  1.00  0.00     0.031 C 
ATOM     45  C   UNL A   1      40.799  26.640  28.447  1.00  0.00     0.029 A 
ATOM     46  N   UNL A   1      42.955  27.105  28.078  1.00  0.00    -0.354 N 
ATOM     47  C   UNL A   1      44.445  31.152  28.455  1.00  0.00     0.074 A 
ATOM     48  C   UNL A   1      43.403  32.047  28.909  1.00  0.00     0.031 C 
ATOM     49  C   UNL A   1      41.394  25.505  28.045  1.00  0.00     0.029 A 
ATOM     50  C   UNL A   1      42.797  25.780  27.748  1.00  0.00     0.049 A 
ATOM     51  H   UNL A   1      43.821  27.572  28.033  1.00  0.00     0.167 HD
ATOM     52  C   UNL A   1      45.719  31.531  28.193  1.00  0.00     0.037 A 
ATOM     53  C   UNL A   1      43.674  24.891  27.238  1.00  0.00     0.037 A 
ATOM     54  C   UNL A   1      46.756  30.625  27.778  1.00  0.00     0.049 A 
ATOM     55  C   UNL A   1      45.090  25.324  26.975  1.00  0.00     0.074 A 
ATOM     56  C   UNL A   1      48.095  30.893  27.560  1.00  0.00     0.029 A 
ATOM     57  N   UNL A   1      46.567  29.275  27.512  1.00  0.00    -0.354 N 
ATOM     58  N   UNL A   1      45.626  26.513  27.123  1.00  0.00    -0.248 NA
ATOM     59  C   UNL A   1      46.023  24.303  26.482  1.00  0.00     0.031 C 
ATOM     60  C   UNL A   1      48.709  29.715  27.123  1.00  0.00     0.029 A 
ATOM     61  C   UNL A   1      47.763  28.702  27.115  1.00  0.00     0.049 A 
ATOM     62  H   UNL A   1      45.711  28.798  27.595  1.00  0.00     0.167 HD
ATOM     63  C   UNL A   1      46.964  26.376  26.771  1.00  0.00     0.074 A 
ATOM     64  C   UNL A   1      47.157  24.989  26.399  1.00  0.00     0.031 C 
ATOM     65  C   UNL A   1      47.944  27.313  26.767  1.00  0.00     0.037 A 
BRANCH  52  66
ATOM     66  C   UNL A   1      46.049  32.991  28.334  1.00  0.00     0.058 A 
ATOM     67  C   UNL A   1      46.071  33.857  27.228  1.00  0.00     0.135 A 
ATOM     68  C   UNL A   1      46.351  33.533  29.594  1.00  0.00     0.135 A 
ATOM     69  F   UNL A   1      45.803  33.390  25.998  1.00  0.00    -0.206 F 
ATOM     70  C   UNL A   1      46.430  35.195  27.358  1.00  0.00     0.059 A 
ATOM     71  C   UNL A   1      46.682  34.876  29.752  1.00  0.00     0.059 A 
ATOM     72  F   UNL A   1      46.340  32.753  30.686  1.00  0.00    -0.206 F 
ATOM     73  C   UNL A   1      46.743  35.692  28.624  1.00  0.00     0.060 A 
BRANCH  73  74
ATOM     74  S   UNL A   1      47.241  37.420  28.775  1.00  0.00     0.124 S 
ATOM     75  O   UNL A   1      46.643  37.783  30.056  1.00  0.00    -0.237 OA
ATOM     76  O   UNL A   1      48.698  37.331  28.760  1.00  0.00    -0.237 OA
ATOM     77  O   UNL A   1      46.643  38.050  27.603  1.00  0.00    -0.744 OA
ENDBRANCH  73  74
ENDBRANCH  52  66
BRANCH  53  78
ATOM     78  C   UNL A   1      43.226  23.501  26.962  1.00  0.00     0.058 A 
ATOM     79  C   UNL A   1      42.958  23.076  25.653  1.00  0.00     0.135 A 
ATOM     80  C   UNL A   1      43.120  22.553  27.992  1.00  0.00     0.135 A 
ATOM     81  F   UNL A   1      43.038  23.948  24.636  1.00  0.00    -0.206 F 
ATOM     82  C   UNL A   1      42.609  21.759  25.372  1.00  0.00     0.059 A 
ATOM     83  C   UNL A   1      42.793  21.225  27.734  1.00  0.00     0.059 A 
ATOM     84  F   UNL A   1      43.381  22.906  29.261  1.00  0.00    -0.206 F 
ATOM     85  C   UNL A   1      42.539  20.838  26.418  1.00  0.00     0.060 A 
BRANCH  85  86
ATOM     86  S   UNL A   1      42.178  19.112  26.029  1.00  0.00     0.124 S 
ATOM     87  O   UNL A   1      40.731  19.146  25.851  1.00  0.00    -0.237 OA
ATOM     88  O   UNL A   1      42.966  18.900  24.818  1.00  0.00    -0.237 OA
ATOM     89  O   UNL A   1      42.654  18.395  27.209  1.00  0.00    -0.744 OA
ENDBRANCH  85  86
ENDBRANCH  53  78
BRANCH  65  90
ATOM     90  C   UNL A   1      49.333  26.880  26.395  1.00  0.00     0.058 A 
ATOM     91  C   UNL A   1      50.130  26.126  27.268  1.00  0.00     0.135 A 
ATOM     92  C   UNL A   1      49.822  27.122  25.100  1.00  0.00     0.135 A 
ATOM     93  F   UNL A   1      49.712  25.877  28.519  1.00  0.00    -0.206 F 
ATOM     94  C   UNL A   1      51.362  25.619  26.868  1.00  0.00     0.059 A 
ATOM     95  C   UNL A   1      51.039  26.605  24.671  1.00  0.00     0.059 A 
ATOM     96  F   UNL A   1      49.093  27.833  24.225  1.00  0.00    -0.206 F 
ATOM     97  C   UNL A   1      51.803  25.852  25.563  1.00  0.00     0.060 A 
BRANCH  97  98
ATOM     98  S   UNL A   1      53.359  25.109  25.027  1.00  0.00     0.124 S 
ATOM     99  O   UNL A   1      54.328  25.839  25.838  1.00  0.00    -0.237 OA
ATOM    100  O   UNL A   1      53.170  23.705  25.374  1.00  0.00    -0.237 OA
ATOM    101  O   UNL A   1      53.396  25.394  23.595  1.00  0.00    -0.744 OA
ENDBRANCH  97  98
ENDBRANCH  65  90
ENDBRANCH  39  40
ENDBRANCH  31  34
ENDBRANCH  29  30
ENDBRANCH  28  29
ENDBRANCH  27  28
ENDBRANCH   1  27
TORSDOF 19
ENDMDL
MODEL 2
REMARK VINA RESULT:     -11.5      0.768      2.089
REMARK SMILES CN(C)c1ccc(NC(=O)[C@H]2CC=CC[C@@H]2C(=O)NCCCCCCNC(=O)c2ccc(-c3c4nc(c(-c5c(F)cc(S(=O)(=O)[O-])cc5F)c5ccc([nH]5)c(-c5c(F)cc(S(=O)(=O)[O-])cc5F)c5nc(c(-c6c(F)cc(S(=O)(=O)[O-])cc6F)c6ccc3[nH]6)C=C5)C=C4)cc2)cc1
REMARK SMILES IDX 22 1 21 2 20 3 19 4 17 5 18 6 16 8 11 9 12 10 13 11 15 12
REMARK SMILES IDX 14 13 9 14 8 15 10 17 7 18 4 19 5 20 96 21 6 22 95 23 2 24
REMARK SMILES IDX 1 25 3 26 23 27 24 28 25 29 26 30 27 31 28 33 29 34 30 35
REMARK SMILES IDX 94 36 31 37 93 38 32 39 33 40 34 41 87 42 35 43 92 44 86 45
REMARK SMILES IDX 88 46 36 47 91 48 85 49 84 50 37 52 71 53 50 54 70 55 51 56
REMARK SMILES IDX 54 57 69 58 89 59 52 60 53 61 68 63 90 64 55 65 38 66 39 67
REMARK SMILES IDX 48 68 40 69 41 70 47 71 49 72 42 73 43 74 44 75 45 76 46 77
REMARK SMILES IDX 72 78 73 79 82 80 74 81 75 82 81 83 83 84 76 85 77 86 78 87
REMARK SMILES IDX 79 88 80 89 56 90 57 91 66 92 58 93 59 94 65 95 67 96 60 97
REMARK SMILES IDX 61 98 62 99 63 100 64 101
REMARK H PARENT 19 7 8 16 26 32 88 51 54 62
REMARK Flexibility Score: inf
ROOT
ATOM      1  C   UNL A   1      33.916  28.738  24.634  1.00  0.00     0.002 C 
ENDROOT
BRANCH   1   2
ATOM      2  C   UNL A   1      33.881  27.576  23.631  1.00  0.00     0.021 C 
BRANCH   2   3
ATOM      3  C   UNL A   1      33.784  26.183  24.243  1.00  0.00     0.116 C 
BRANCH   3   4
ATOM      4  N   UNL A   1      34.179  25.143  23.320  1.00  0.00    -0.356 N 
ATOM      5  C   UNL A   1      33.897  23.812  23.329  1.00  0.00     0.224 C 
ATOM      6  O   UNL A   1      34.400  23.141  22.425  1.00  0.00    -0.275 OA
ATOM      7  H   UNL A   1      34.738  25.443  22.567  1.00  0.00     0.163 HD
BRANCH   5   8
ATOM      8  C   UNL A   1      33.079  23.182  24.464  1.00  0.00     0.095 C 
ATOM      9  C   UNL A   1      33.522  23.800  25.830  1.00  0.00     0.095 C 
ATOM     10  C   UNL A   1      34.938  23.286  26.205  1.00  0.00     0.041 C 
ATOM     11  C   UNL A   1      35.226  21.858  25.866  1.00  0.00    -0.030 C 
ATOM     12  C   UNL A   1      33.147  21.640  24.528  1.00  0.00     0.041 C 
ATOM     13  C   UNL A   1      34.403  21.102  25.135  1.00  0.00    -0.030 C 
BRANCH   9  14
ATOM     14  C   UNL A   1      32.429  23.573  26.890  1.00  0.00     0.228 C 
ATOM     15  N   UNL A   1      31.243  24.252  26.893  1.00  0.00    -0.326 N 
ATOM     16  H   UNL A   1      30.679  24.084  27.683  1.00  0.00     0.169 HD
ATOM     17  O   UNL A   1      32.582  22.749  27.800  1.00  0.00    -0.274 OA
BRANCH  15  18
ATOM     18  C   UNL A   1      30.692  25.144  25.970  1.00  0.00     0.041 A 
ATOM     19  C   UNL A   1      30.055  27.088  23.998  1.00  0.00     0.036 A 
ATOM     20  C   UNL A   1      29.850  25.716  23.777  1.00  0.00     0.028 A 
ATOM     21  C   UNL A   1      30.454  27.452  25.295  1.00  0.00     0.028 A 
ATOM     22  C   UNL A   1      30.163  24.753  24.746  1.00  0.00     0.028 A 
ATOM     23  C   UNL A   1      30.749  26.499  26.278  1.00  0.00     0.028 A 
BRANCH  19  24
ATOM     24  N   UNL A   1      29.887  28.037  22.990  1.00  0.00    -0.378 N 
ATOM     25  C   UNL A   1      28.571  28.646  22.806  1.00  0.00     0.143 C 
ATOM     26  C   UNL A   1      31.031  28.771  22.467  1.00  0.00     0.143 C 
ENDBRANCH  19  24
ENDBRANCH  15  18
ENDBRANCH   9  14
ENDBRANCH   5   8
ENDBRANCH   3   4
ENDBRANCH   2   3
ENDBRANCH   1   2
BRANCH   1  27
ATOM     27  C   UNL A   1      33.837  28.357  26.115  1.00  0.00     0.002 C 
BRANCH  27  28
ATOM     28  C   UNL A   1      33.905  29.517  27.108  1.00  0.00     0.021 C 
BRANCH  28  29
ATOM     29  C   UNL A   1      35.289  29.818  27.667  1.00  0.00     0.116 C 
BRANCH  29  30
ATOM     30  N   UNL A   1      35.249  30.484  28.958  1.00  0.00    -0.352 N 
ATOM     31  C   UNL A   1      36.237  30.548  29.915  1.00  0.00     0.251 C 
ATOM     32  H   UNL A   1      34.409  30.948  29.176  1.00  0.00     0.163 HD
ATOM     33  O   UNL A   1      36.015  31.047  31.007  1.00  0.00    -0.269 OA
BRANCH  31  34
ATOM     34  C   UNL A   1      37.563  29.969  29.608  1.00  0.00     0.039 A 
ATOM     35  C   UNL A   1      37.995  29.925  28.280  1.00  0.00     0.014 A 
ATOM     36  C   UNL A   1      38.394  29.520  30.638  1.00  0.00     0.014 A 
ATOM     37  C   UNL A   1      39.290  29.492  27.989  1.00  0.00     0.010 A 
ATOM     38  C   UNL A   1      39.705  29.155  30.353  1.00  0.00     0.010 A 
ATOM     39  C   UNL A   1      40.166  29.137  29.027  1.00  0.00    -0.014 A 
BRANCH  39  40
ATOM     40  C   UNL A   1      41.570  28.726  28.768  1.00  0.00     0.031 A 
ATOM     41  C   UNL A   1      42.651  29.770  28.737  1.00  0.00     0.074 A 
ATOM     42  C   UNL A   1      41.851  27.448  28.448  1.00  0.00     0.049 A 
ATOM     43  N   UNL A   1      43.896  29.661  28.357  1.00  0.00    -0.248 NA
ATOM     44  C   UNL A   1      42.264  31.127  29.155  1.00  0.00     0.031 C 
ATOM     45  C   UNL A   1      40.881  26.352  28.406  1.00  0.00     0.029 A 
ATOM     46  N   UNL A   1      43.032  26.862  28.064  1.00  0.00    -0.354 N 
ATOM     47  C   UNL A   1      44.431  30.940  28.452  1.00  0.00     0.074 A 
ATOM     48  C   UNL A   1      43.365  31.813  28.891  1.00  0.00     0.031 C 
ATOM     49  C   UNL A   1      41.504  25.230  28.013  1.00  0.00     0.029 A 
ATOM     50  C   UNL A   1      42.905  25.533  27.733  1.00  0.00     0.049 A 
ATOM     51  H   UNL A   1      43.888  27.346  28.029  1.00  0.00     0.167 HD
ATOM     52  C   UNL A   1      45.700  31.345  28.205  1.00  0.00     0.037 A 
ATOM     53  C   UNL A   1      43.807  24.662  27.237  1.00  0.00     0.037 A 
ATOM     54  C   UNL A   1      46.761  30.460  27.804  1.00  0.00     0.049 A 
ATOM     55  C   UNL A   1      45.217  25.125  26.990  1.00  0.00     0.074 A 
ATOM     56  C   UNL A   1      48.097  30.756  27.603  1.00  0.00     0.029 A 
ATOM     57  N   UNL A   1      46.604  29.107  27.539  1.00  0.00    -0.354 N 
ATOM     58  N   UNL A   1      45.726  26.325  27.143  1.00  0.00    -0.248 NA
ATOM     59  C   UNL A   1      46.177  24.122  26.511  1.00  0.00     0.031 C 
ATOM     60  C   UNL A   1      48.741  29.591  27.176  1.00  0.00     0.029 A 
ATOM     61  C   UNL A   1      47.816  28.558  27.158  1.00  0.00     0.049 A 
ATOM     62  H   UNL A   1      45.757  28.612  27.611  1.00  0.00     0.167 HD
ATOM     63  C   UNL A   1      47.071  26.215  26.808  1.00  0.00     0.074 A 
ATOM     64  C   UNL A   1      47.297  24.831  26.441  1.00  0.00     0.031 C 
ATOM     65  C   UNL A   1      48.030  27.172  26.814  1.00  0.00     0.037 A 
BRANCH  52  66
ATOM     66  C   UNL A   1      45.998  32.812  28.347  1.00  0.00     0.058 A 
ATOM     67  C   UNL A   1      46.395  33.375  29.571  1.00  0.00     0.135 A 
ATOM     68  C   UNL A   1      45.881  33.670  27.242  1.00  0.00     0.135 A 
ATOM     69  F   UNL A   1      46.511  32.603  30.664  1.00  0.00    -0.206 F 
ATOM     70  C   UNL A   1      46.616  34.741  29.707  1.00  0.00     0.059 A 
ATOM     71  C   UNL A   1      46.128  35.036  27.347  1.00  0.00     0.059 A 
ATOM     72  F   UNL A   1      45.509  33.187  26.046  1.00  0.00    -0.206 F 
ATOM     73  C   UNL A   1      46.471  35.565  28.589  1.00  0.00     0.060 A 
BRANCH  73  74
ATOM     74  S   UNL A   1      46.727  37.341  28.786  1.00  0.00     0.124 S 
ATOM     75  O   UNL A   1      47.875  37.566  27.912  1.00  0.00    -0.237 OA
ATOM     76  O   UNL A   1      45.459  37.895  28.321  1.00  0.00    -0.237 OA
ATOM     77  O   UNL A   1      46.987  37.491  30.214  1.00  0.00    -0.744 OA
ENDBRANCH  73  74
ENDBRANCH  52  66
BRANCH  53  78
ATOM     78  C   UNL A   1      43.391  23.263  26.958  1.00  0.00     0.058 A 
ATOM     79  C   UNL A   1      43.286  22.791  25.641  1.00  0.00     0.135 A 
ATOM     80  C   UNL A   1      43.156  22.352  28.001  1.00  0.00     0.135 A 
ATOM     81  F   UNL A   1      43.495  23.625  24.612  1.00  0.00    -0.206 F 
ATOM     82  C   UNL A   1      42.970  21.464  25.367  1.00  0.00     0.059 A 
ATOM     83  C   UNL A   1      42.859  21.016  27.751  1.00  0.00     0.059 A 
ATOM     84  F   UNL A   1      43.259  22.752  29.278  1.00  0.00    -0.206 F 
ATOM     85  C   UNL A   1      42.768  20.581  26.429  1.00  0.00     0.060 A 
BRANCH  85  86
ATOM     86  S   UNL A   1      42.452  18.841  26.061  1.00  0.00     0.124 S 
ATOM     87  O   UNL A   1      42.762  18.209  27.337  1.00  0.00    -0.237 OA
ATOM     88  O   UNL A   1      41.041  18.861  25.683  1.00  0.00    -0.237 OA
ATOM     89  O   UNL A   1      43.379  18.555  24.970  1.00  0.00    -0.744 OA
ENDBRANCH  85  86
ENDBRANCH  53  78
BRANCH  65  90
ATOM     90  C   UNL A   1      49.433  26.768  26.461  1.00  0.00     0.058 A 
ATOM     91  C   UNL A   1      50.276  26.139  27.388  1.00  0.00     0.135 A 
ATOM     92  C   UNL A   1      49.893  26.905  25.140  1.00  0.00     0.135 A 
ATOM     93  F   UNL A   1      49.887  25.993  28.665  1.00  0.00    -0.206 F 
ATOM     94  C   UNL A   1      51.525  25.650  27.016  1.00  0.00     0.059 A 
ATOM     95  C   UNL A   1      51.126  26.404  24.741  1.00  0.00     0.059 A 
ATOM     96  F   UNL A   1      49.119  27.495  24.214  1.00  0.00    -0.206 F 
ATOM     97  C   UNL A   1      51.936  25.776  25.687  1.00  0.00     0.060 A 
BRANCH  97  98
ATOM     98  S   UNL A   1      53.517  25.055  25.196  1.00  0.00     0.124 S 
ATOM     99  O   UNL A   1      54.416  25.603  26.207  1.00  0.00    -0.237 OA
ATOM    100  O   UNL A   1      53.251  23.623  25.293  1.00  0.00    -0.237 OA
ATOM    101  O   UNL A   1      53.714  25.559  23.841  1.00  0.00    -0.744 OA
ENDBRANCH  97  98
ENDBRANCH  65  90
ENDBRANCH  39  40
ENDBRANCH  31  34
ENDBRANCH  29  30
ENDBRANCH  28  29
ENDBRANCH  27  28
ENDBRANCH   1  27
TORSDOF 19
ENDMDL
MODEL 3
REMARK VINA RESULT:     -11.5      1.972      3.004
REMARK SMILES CN(C)c1ccc(NC(=O)[C@H]2CC=CC[C@@H]2C(=O)NCCCCCCNC(=O)c2ccc(-c3c4nc(c(-c5c(F)cc(S(=O)(=O)[O-])cc5F)c5ccc([nH]5)c(-c5c(F)cc(S(=O)(=O)[O-])cc5F)c5nc(c(-c6c(F)cc(S(=O)(=O)[O-])cc6F)c6ccc3[nH]6)C=C5)C=C4)cc2)cc1
REMARK SMILES IDX 22 1 21 2 20 3 19 4 17 5 18 6 16 8 11 9 12 10 13 11 15 12
REMARK SMILES IDX 14 13 9 14 8 15 10 17 7 18 4 19 5 20 96 21 6 22 95 23 2 24
REMARK SMILES IDX 1 25 3 26 23 27 24 28 25 29 26 30 27 31 28 33 29 34 30 35
REMARK SMILES IDX 94 36 31 37 93 38 32 39 33 40 34 41 87 42 35 43 92 44 86 45
REMARK SMILES IDX 88 46 36 47 91 48 85 49 84 50 37 52 71 53 50 54 70 55 51 56
REMARK SMILES IDX 54 57 69 58 89 59 52 60 53 61 68 63 90 64 55 65 38 66 39 67
REMARK SMILES IDX 48 68 40 69 41 70 47 71 49 72 42 73 43 74 44 75 45 76 46 77
REMARK SMILES IDX 72 78 73 79 82 80 74 81 75 82 81 83 83 84 76 85 77 86 78 87
REMARK SMILES IDX 79 88 80 89 56 90 57 91 66 92 58 93 59 94 65 95 67 96 60 97
REMARK SMILES IDX 61 98 62 99 63 100 64 101
REMARK H PARENT 19 7 8 16 26 32 88 51 54 62
REMARK Flexibility Score: inf
ROOT
ATOM      1  C   UNL A   1      33.974  28.464  23.151  1.00  0.00     0.002 C 
ENDROOT
BRANCH   1   2
ATOM      2  C   UNL A   1      33.616  27.191  22.372  1.00  0.00     0.021 C 
BRANCH   2   3
ATOM      3  C   UNL A   1      33.049  26.048  23.206  1.00  0.00     0.116 C 
BRANCH   3   4
ATOM      4  N   UNL A   1      33.527  24.754  22.774  1.00  0.00    -0.356 N 
ATOM      5  C   UNL A   1      33.211  23.510  23.224  1.00  0.00     0.224 C 
ATOM      6  O   UNL A   1      33.805  22.570  22.690  1.00  0.00    -0.275 OA
ATOM      7  H   UNL A   1      34.182  24.776  22.039  1.00  0.00     0.163 HD
BRANCH   5   8
ATOM      8  C   UNL A   1      32.243  23.313  24.398  1.00  0.00     0.095 C 
ATOM      9  C   UNL A   1      32.709  24.184  25.609  1.00  0.00     0.095 C 
ATOM     10  C   UNL A   1      34.000  23.581  26.224  1.00  0.00     0.041 C 
ATOM     11  C   UNL A   1      34.069  22.088  26.267  1.00  0.00    -0.030 C 
ATOM     12  C   UNL A   1      32.055  21.844  24.838  1.00  0.00     0.041 C 
ATOM     13  C   UNL A   1      33.173  21.300  25.668  1.00  0.00    -0.030 C 
BRANCH   9  14
ATOM     14  C   UNL A   1      31.540  24.393  26.589  1.00  0.00     0.228 C 
ATOM     15  N   UNL A   1      30.602  25.375  26.429  1.00  0.00    -0.326 N 
ATOM     16  H   UNL A   1      29.971  25.461  27.180  1.00  0.00     0.169 HD
ATOM     17  O   UNL A   1      31.398  23.666  27.579  1.00  0.00    -0.274 OA
BRANCH  15  18
ATOM     18  C   UNL A   1      30.384  26.277  25.385  1.00  0.00     0.041 A 
ATOM     19  C   UNL A   1      29.473  28.156  23.458  1.00  0.00     0.036 A 
ATOM     20  C   UNL A   1      30.453  28.487  24.408  1.00  0.00     0.028 A 
ATOM     21  C   UNL A   1      29.078  26.808  23.423  1.00  0.00     0.028 A 
ATOM     22  C   UNL A   1      30.906  27.565  25.361  1.00  0.00     0.028 A 
ATOM     23  C   UNL A   1      29.539  25.872  24.357  1.00  0.00     0.028 A 
BRANCH  19  24
ATOM     24  N   UNL A   1      28.912  29.107  22.606  1.00  0.00    -0.378 N 
ATOM     25  C   UNL A   1      27.543  29.555  22.852  1.00  0.00     0.143 C 
ATOM     26  C   UNL A   1      29.763  29.991  21.821  1.00  0.00     0.143 C 
ENDBRANCH  19  24
ENDBRANCH  15  18
ENDBRANCH   9  14
ENDBRANCH   5   8
ENDBRANCH   3   4
ENDBRANCH   2   3
ENDBRANCH   1   2
BRANCH   1  27
ATOM     27  C   UNL A   1      34.330  28.278  24.630  1.00  0.00     0.002 C 
BRANCH  27  28
ATOM     28  C   UNL A   1      33.651  29.236  25.608  1.00  0.00     0.021 C 
BRANCH  28  29
ATOM     29  C   UNL A   1      34.023  29.045  27.072  1.00  0.00     0.116 C 
BRANCH  29  30
ATOM     30  N   UNL A   1      33.859  30.254  27.862  1.00  0.00    -0.352 N 
ATOM     31  C   UNL A   1      34.765  30.845  28.715  1.00  0.00     0.251 C 
ATOM     32  H   UNL A   1      32.989  30.708  27.777  1.00  0.00     0.163 HD
ATOM     33  O   UNL A   1      34.440  31.799  29.404  1.00  0.00    -0.269 OA
BRANCH  31  34
ATOM     34  C   UNL A   1      36.129  30.281  28.805  1.00  0.00     0.039 A 
ATOM     35  C   UNL A   1      36.960  30.327  27.682  1.00  0.00     0.014 A 
ATOM     36  C   UNL A   1      36.598  29.755  30.012  1.00  0.00     0.014 A 
ATOM     37  C   UNL A   1      38.287  29.906  27.788  1.00  0.00     0.010 A 
ATOM     38  C   UNL A   1      37.937  29.403  30.133  1.00  0.00     0.010 A 
ATOM     39  C   UNL A   1      38.795  29.474  29.024  1.00  0.00    -0.014 A 
BRANCH  39  40
ATOM     40  C   UNL A   1      40.214  29.073  29.196  1.00  0.00     0.031 A 
ATOM     41  C   UNL A   1      41.230  30.106  29.597  1.00  0.00     0.074 A 
ATOM     42  C   UNL A   1      40.606  27.823  28.881  1.00  0.00     0.049 A 
ATOM     43  N   UNL A   1      42.533  30.018  29.629  1.00  0.00    -0.248 NA
ATOM     44  C   UNL A   1      40.706  31.428  29.977  1.00  0.00     0.031 C 
ATOM     45  C   UNL A   1      39.720  26.743  28.442  1.00  0.00     0.029 A 
ATOM     46  N   UNL A   1      41.858  27.260  28.849  1.00  0.00    -0.354 N 
ATOM     47  C   UNL A   1      42.987  31.279  29.992  1.00  0.00     0.074 A 
ATOM     48  C   UNL A   1      41.821  32.124  30.136  1.00  0.00     0.031 C 
ATOM     49  C   UNL A   1      40.456  25.651  28.181  1.00  0.00     0.029 A 
ATOM     50  C   UNL A   1      41.867  25.964  28.390  1.00  0.00     0.049 A 
ATOM     51  H   UNL A   1      42.671  27.738  29.129  1.00  0.00     0.167 HD
ATOM     52  C   UNL A   1      44.260  31.692  30.199  1.00  0.00     0.037 A 
ATOM     53  C   UNL A   1      42.896  25.129  28.140  1.00  0.00     0.037 A 
ATOM     54  C   UNL A   1      45.409  30.833  30.088  1.00  0.00     0.049 A 
ATOM     55  C   UNL A   1      44.302  25.597  28.396  1.00  0.00     0.074 A 
ATOM     56  C   UNL A   1      46.734  31.133  30.350  1.00  0.00     0.029 A 
ATOM     57  N   UNL A   1      45.370  29.508  29.679  1.00  0.00    -0.354 N 
ATOM     58  N   UNL A   1      44.714  26.776  28.800  1.00  0.00    -0.248 NA
ATOM     59  C   UNL A   1      45.383  24.628  28.171  1.00  0.00     0.031 C 
ATOM     60  C   UNL A   1      47.502  30.001  30.059  1.00  0.00     0.029 A 
ATOM     61  C   UNL A   1      46.650  28.981  29.663  1.00  0.00     0.049 A 
ATOM     62  H   UNL A   1      44.553  29.016  29.436  1.00  0.00     0.167 HD
ATOM     63  C   UNL A   1      46.097  26.681  28.906  1.00  0.00     0.074 A 
ATOM     64  C   UNL A   1      46.453  25.331  28.521  1.00  0.00     0.031 C 
ATOM     65  C   UNL A   1      46.987  27.626  29.296  1.00  0.00     0.037 A 
BRANCH  52  66
ATOM     66  C   UNL A   1      44.471  33.140  30.546  1.00  0.00     0.058 A 
ATOM     67  C   UNL A   1      44.657  34.121  29.558  1.00  0.00     0.135 A 
ATOM     68  C   UNL A   1      44.490  33.553  31.888  1.00  0.00     0.135 A 
ATOM     69  F   UNL A   1      44.660  33.781  28.259  1.00  0.00    -0.206 F 
ATOM     70  C   UNL A   1      44.905  35.449  29.889  1.00  0.00     0.059 A 
ATOM     71  C   UNL A   1      44.706  34.881  32.241  1.00  0.00     0.059 A 
ATOM     72  F   UNL A   1      44.314  32.658  32.873  1.00  0.00    -0.206 F 
ATOM     73  C   UNL A   1      44.936  35.818  31.235  1.00  0.00     0.060 A 
BRANCH  73  74
ATOM     74  S   UNL A   1      45.294  37.537  31.652  1.00  0.00     0.124 S 
ATOM     75  O   UNL A   1      44.188  37.852  32.552  1.00  0.00    -0.237 OA
ATOM     76  O   UNL A   1      46.610  37.442  32.277  1.00  0.00    -0.237 OA
ATOM     77  O   UNL A   1      45.264  38.214  30.360  1.00  0.00    -0.744 OA
ENDBRANCH  73  74
ENDBRANCH  52  66
BRANCH  53  78
ATOM     78  C   UNL A   1      42.616  23.760  27.631  1.00  0.00     0.058 A 
ATOM     79  C   UNL A   1      42.573  23.498  26.254  1.00  0.00     0.135 A 
ATOM     80  C   UNL A   1      42.453  22.677  28.509  1.00  0.00     0.135 A 
ATOM     81  F   UNL A   1      42.716  24.503  25.376  1.00  0.00    -0.206 F 
ATOM     82  C   UNL A   1      42.385  22.210  25.764  1.00  0.00     0.059 A 
ATOM     83  C   UNL A   1      42.285  21.377  28.042  1.00  0.00     0.059 A 
ATOM     84  F   UNL A   1      42.501  22.873  29.836  1.00  0.00    -0.206 F 
ATOM     85  C   UNL A   1      42.252  21.154  26.666  1.00  0.00     0.060 A 
BRANCH  85  86
ATOM     86  S   UNL A   1      42.104  19.474  26.017  1.00  0.00     0.124 S 
ATOM     87  O   UNL A   1      42.934  19.545  24.821  1.00  0.00    -0.237 OA
ATOM     88  O   UNL A   1      42.635  18.674  27.118  1.00  0.00    -0.237 OA
ATOM     89  O   UNL A   1      40.670  19.330  25.784  1.00  0.00    -0.744 OA
ENDBRANCH  85  86
ENDBRANCH  53  78
BRANCH  65  90
ATOM     90  C   UNL A   1      48.436  27.240  29.379  1.00  0.00     0.058 A 
ATOM     91  C   UNL A   1      49.304  27.390  28.288  1.00  0.00     0.135 A 
ATOM     92  C   UNL A   1      48.985  26.829  30.606  1.00  0.00     0.135 A 
ATOM     93  F   UNL A   1      48.827  27.771  27.092  1.00  0.00    -0.206 F 
ATOM     94  C   UNL A   1      50.670  27.154  28.412  1.00  0.00     0.059 A 
ATOM     95  C   UNL A   1      50.349  26.610  30.758  1.00  0.00     0.059 A 
ATOM     96  F   UNL A   1      48.196  26.678  31.681  1.00  0.00    -0.206 F 
ATOM     97  C   UNL A   1      51.185  26.777  29.654  1.00  0.00     0.060 A 
BRANCH  97  98
ATOM     98  S   UNL A   1      52.971  26.565  29.825  1.00  0.00     0.124 S 
ATOM     99  O   UNL A   1      53.404  27.931  30.101  1.00  0.00    -0.237 OA
ATOM    100  O   UNL A   1      53.068  25.630  30.940  1.00  0.00    -0.237 OA
ATOM    101  O   UNL A   1      53.374  26.028  28.528  1.00  0.00    -0.744 OA
ENDBRANCH  97  98
ENDBRANCH  65  90
ENDBRANCH  39  40
ENDBRANCH  31  34
ENDBRANCH  29  30
ENDBRANCH  28  29
ENDBRANCH  27  28
ENDBRANCH   1  27
TORSDOF 19
ENDMDL
