MODEL 1
REMARK VINA RESULT:     -12.6      0.000      0.000
REMARK SMILES Cc1ccccc1-c1nc(CC(=O)NCCCCCCNC(=O)c2ccc(-c3c4nc(c(-c5c(F)cc(S(=O)(=O)[O-])cc5F)c5ccc([nH]5)c(-c5c(F)cc(S(=O)(=O)[O-])cc5F)c5nc(c(-c6c(F)cc(S(=O)(=O)[O-])cc6F)c6ccc3[nH]6)C=C5)C=C4)cc2)cs1
REMARK SMILES IDX 18 1 17 2 16 3 15 4 14 5 12 6 13 7 11 9 10 10 8 11 9 12
REMARK SMILES IDX 91 13 90 14 7 15 1 16 2 17 3 18 4 19 6 20 5 21 19 22 20 23
REMARK SMILES IDX 21 24 22 25 23 27 24 28 25 29 89 30 26 31 88 32 27 33 28 34
REMARK SMILES IDX 29 35 82 36 30 37 87 38 81 39 83 40 31 41 86 42 80 43 79 44
REMARK SMILES IDX 32 46 66 47 45 48 65 49 46 50 49 51 64 52 84 53 47 54 48 55
REMARK SMILES IDX 63 57 85 58 50 59 33 60 34 61 43 62 35 63 36 64 42 65 44 66
REMARK SMILES IDX 37 67 38 68 39 69 40 70 41 71 67 72 68 73 77 74 69 75 70 76
REMARK SMILES IDX 76 77 78 78 71 79 72 80 73 81 74 82 75 83 51 84 52 85 61 86
REMARK SMILES IDX 53 87 54 88 60 89 62 90 55 91 56 92 57 93 58 94 59 95
REMARK H PARENT 14 8 21 26 83 45 49 56
REMARK Flexibility Score: inf
ROOT
ATOM      1  C   UNL A   1      32.414  28.805  26.257  1.00  0.00     0.002 C 
ENDROOT
BRANCH   1   2
ATOM      2  C   UNL A   1      31.665  28.666  24.924  1.00  0.00     0.002 C 
BRANCH   2   3
ATOM      3  C   UNL A   1      32.527  28.583  23.657  1.00  0.00     0.021 C 
BRANCH   3   4
ATOM      4  C   UNL A   1      33.531  27.430  23.625  1.00  0.00     0.116 C 
BRANCH   4   5
ATOM      5  N   UNL A   1      33.602  26.801  22.316  1.00  0.00    -0.356 N 
ATOM      6  C   UNL A   1      32.905  25.726  21.842  1.00  0.00     0.226 C 
ATOM      7  O   UNL A   1      33.133  25.331  20.696  1.00  0.00    -0.275 OA
ATOM      8  H   UNL A   1      34.238  27.205  21.684  1.00  0.00     0.163 HD
BRANCH   6   9
ATOM      9  C   UNL A   1      31.838  25.069  22.696  1.00  0.00     0.157 C 
BRANCH   9  10
ATOM     10  C   UNL A   1      32.414  24.273  23.818  1.00  0.00     0.061 A 
ATOM     11  C   UNL A   1      34.115  23.257  24.827  1.00  0.00     0.123 A 
ATOM     12  N   UNL A   1      33.777  24.015  23.803  1.00  0.00    -0.241 NA
ATOM     13  S   UNL A   1      32.825  22.877  25.903  1.00  0.00    -0.122 S 
ATOM     14  C   UNL A   1      31.741  23.748  24.903  1.00  0.00     0.091 A 
BRANCH  11  15
ATOM     15  C   UNL A   1      35.473  22.763  25.089  1.00  0.00     0.013 A 
ATOM     16  C   UNL A   1      34.792  20.329  24.651  1.00  0.00     0.045 C 
ATOM     17  C   UNL A   1      35.795  21.390  25.018  1.00  0.00    -0.041 A 
ATOM     18  C   UNL A   1      37.102  20.974  25.331  1.00  0.00     0.004 A 
ATOM     19  C   UNL A   1      38.082  21.899  25.690  1.00  0.00     0.000 A 
ATOM     20  C   UNL A   1      36.475  23.680  25.459  1.00  0.00     0.011 A 
ATOM     21  C   UNL A   1      37.770  23.251  25.752  1.00  0.00     0.001 A 
ENDBRANCH  11  15
ENDBRANCH   9  10
ENDBRANCH   6   9
ENDBRANCH   4   5
ENDBRANCH   3   4
ENDBRANCH   2   3
ENDBRANCH   1   2
BRANCH   1  22
ATOM     22  C   UNL A   1      33.313  30.035  26.407  1.00  0.00     0.021 C 
BRANCH  22  23
ATOM     23  C   UNL A   1      34.633  29.749  27.117  1.00  0.00     0.116 C 
BRANCH  23  24
ATOM     24  N   UNL A   1      35.281  30.958  27.613  1.00  0.00    -0.352 N 
ATOM     25  C   UNL A   1      36.496  31.077  28.263  1.00  0.00     0.251 C 
ATOM     26  H   UNL A   1      34.789  31.798  27.467  1.00  0.00     0.163 HD
ATOM     27  O   UNL A   1      36.867  32.140  28.734  1.00  0.00    -0.269 OA
BRANCH  25  28
ATOM     28  C   UNL A   1      37.375  29.890  28.296  1.00  0.00     0.039 A 
ATOM     29  C   UNL A   1      37.389  29.121  29.464  1.00  0.00     0.014 A 
ATOM     30  C   UNL A   1      38.314  29.683  27.288  1.00  0.00     0.014 A 
ATOM     31  C   UNL A   1      38.458  28.260  29.704  1.00  0.00     0.010 A 
ATOM     32  C   UNL A   1      39.407  28.882  27.558  1.00  0.00     0.010 A 
ATOM     33  C   UNL A   1      39.506  28.211  28.787  1.00  0.00    -0.014 A 
BRANCH  33  34
ATOM     34  C   UNL A   1      40.796  27.586  29.063  1.00  0.00     0.031 A 
ATOM     35  C   UNL A   1      41.036  26.161  28.734  1.00  0.00     0.074 A 
ATOM     36  C   UNL A   1      41.823  28.344  29.509  1.00  0.00     0.049 A 
ATOM     37  N   UNL A   1      42.071  25.492  29.123  1.00  0.00    -0.248 NA
ATOM     38  C   UNL A   1      40.072  25.339  28.007  1.00  0.00     0.031 C 
ATOM     39  C   UNL A   1      43.247  28.035  29.421  1.00  0.00     0.029 A 
ATOM     40  N   UNL A   1      41.768  29.467  30.331  1.00  0.00    -0.354 N 
ATOM     41  C   UNL A   1      42.076  24.298  28.442  1.00  0.00     0.074 A 
ATOM     42  C   UNL A   1      40.748  24.188  27.900  1.00  0.00     0.031 C 
ATOM     43  C   UNL A   1      43.915  28.783  30.310  1.00  0.00     0.029 A 
ATOM     44  C   UNL A   1      42.930  29.476  31.120  1.00  0.00     0.049 A 
ATOM     45  H   UNL A   1      41.045  30.134  30.355  1.00  0.00     0.167 HD
ATOM     46  C   UNL A   1      43.260  23.638  28.287  1.00  0.00     0.037 A 
ATOM     47  C   UNL A   1      42.869  29.397  32.484  1.00  0.00     0.037 A 
ATOM     48  C   UNL A   1      44.267  24.148  29.224  1.00  0.00     0.049 A 
ATOM     49  C   UNL A   1      43.546  28.181  33.076  1.00  0.00     0.074 A 
ATOM     50  C   UNL A   1      45.410  24.915  29.079  1.00  0.00     0.029 A 
ATOM     51  N   UNL A   1      44.024  24.064  30.595  1.00  0.00    -0.354 N 
ATOM     52  N   UNL A   1      43.927  27.145  32.380  1.00  0.00    -0.248 NA
ATOM     53  C   UNL A   1      43.827  28.022  34.500  1.00  0.00     0.031 C 
ATOM     54  C   UNL A   1      45.796  25.372  30.369  1.00  0.00     0.029 A 
ATOM     55  C   UNL A   1      44.914  24.848  31.301  1.00  0.00     0.049 A 
ATOM     56  H   UNL A   1      43.313  23.518  31.004  1.00  0.00     0.167 HD
ATOM     57  C   UNL A   1      44.430  26.183  33.216  1.00  0.00     0.074 A 
ATOM     58  C   UNL A   1      44.384  26.797  34.531  1.00  0.00     0.031 C 
ATOM     59  C   UNL A   1      44.820  24.958  32.753  1.00  0.00     0.037 A 
BRANCH  46  60
ATOM     60  C   UNL A   1      43.598  22.696  27.133  1.00  0.00     0.058 A 
ATOM     61  C   UNL A   1      42.962  21.434  27.031  1.00  0.00     0.135 A 
ATOM     62  C   UNL A   1      44.629  22.891  26.185  1.00  0.00     0.135 A 
ATOM     63  F   UNL A   1      41.952  21.097  27.847  1.00  0.00    -0.206 F 
ATOM     64  C   UNL A   1      43.352  20.445  26.117  1.00  0.00     0.059 A 
ATOM     65  C   UNL A   1      45.007  21.936  25.238  1.00  0.00     0.059 A 
ATOM     66  F   UNL A   1      45.381  23.993  26.149  1.00  0.00    -0.206 F 
ATOM     67  C   UNL A   1      44.389  20.701  25.231  1.00  0.00     0.060 A 
BRANCH  67  68
ATOM     68  S   UNL A   1      44.945  19.417  24.094  1.00  0.00     0.124 S 
ATOM     69  O   UNL A   1      44.526  19.956  22.805  1.00  0.00    -0.237 OA
ATOM     70  O   UNL A   1      46.382  19.383  24.337  1.00  0.00    -0.237 OA
ATOM     71  O   UNL A   1      44.214  18.232  24.539  1.00  0.00    -0.744 OA
ENDBRANCH  67  68
ENDBRANCH  46  60
BRANCH  47  72
ATOM     72  C   UNL A   1      41.684  30.090  33.056  1.00  0.00     0.058 A 
ATOM     73  C   UNL A   1      41.705  31.498  33.067  1.00  0.00     0.135 A 
ATOM     74  C   UNL A   1      40.438  29.454  33.128  1.00  0.00     0.135 A 
ATOM     75  F   UNL A   1      42.876  32.152  33.020  1.00  0.00    -0.206 F 
ATOM     76  C   UNL A   1      40.536  32.242  32.965  1.00  0.00     0.059 A 
ATOM     77  C   UNL A   1      39.250  30.184  33.037  1.00  0.00     0.059 A 
ATOM     78  F   UNL A   1      40.360  28.114  33.127  1.00  0.00    -0.206 F 
ATOM     79  C   UNL A   1      39.320  31.569  32.877  1.00  0.00     0.060 A 
BRANCH  79  80
ATOM     80  S   UNL A   1      37.875  32.514  32.340  1.00  0.00     0.124 S 
ATOM     81  O   UNL A   1      37.536  33.263  33.545  1.00  0.00    -0.237 OA
ATOM     82  O   UNL A   1      38.438  33.300  31.243  1.00  0.00    -0.237 OA
ATOM     83  O   UNL A   1      36.924  31.481  31.947  1.00  0.00    -0.744 OA
ENDBRANCH  79  80
ENDBRANCH  47  72
BRANCH  59  84
ATOM     84  C   UNL A   1      45.214  23.773  33.607  1.00  0.00     0.058 A 
ATOM     85  C   UNL A   1      46.418  23.679  34.328  1.00  0.00     0.135 A 
ATOM     86  C   UNL A   1      44.293  22.718  33.828  1.00  0.00     0.135 A 
ATOM     87  F   UNL A   1      47.325  24.665  34.302  1.00  0.00    -0.206 F 
ATOM     88  C   UNL A   1      46.719  22.588  35.150  1.00  0.00     0.059 A 
ATOM     89  C   UNL A   1      44.551  21.648  34.684  1.00  0.00     0.059 A 
ATOM     90  F   UNL A   1      43.098  22.699  33.222  1.00  0.00    -0.206 F 
ATOM     91  C   UNL A   1      45.781  21.575  35.321  1.00  0.00     0.060 A 
BRANCH  91  92
ATOM     92  S   UNL A   1      46.129  20.191  36.423  1.00  0.00     0.124 S 
ATOM     93  O   UNL A   1      45.763  20.752  37.720  1.00  0.00    -0.237 OA
ATOM     94  O   UNL A   1      45.247  19.142  35.922  1.00  0.00    -0.237 OA
ATOM     95  O   UNL A   1      47.553  19.954  36.214  1.00  0.00    -0.744 OA
ENDBRANCH  91  92
ENDBRANCH  59  84
ENDBRANCH  33  34
ENDBRANCH  25  28
ENDBRANCH  23  24
ENDBRANCH  22  23
ENDBRANCH   1  22
TORSDOF 18
ENDMDL
MODEL 2
REMARK VINA RESULT:     -12.6      1.088      1.931
REMARK SMILES Cc1ccccc1-c1nc(CC(=O)NCCCCCCNC(=O)c2ccc(-c3c4nc(c(-c5c(F)cc(S(=O)(=O)[O-])cc5F)c5ccc([nH]5)c(-c5c(F)cc(S(=O)(=O)[O-])cc5F)c5nc(c(-c6c(F)cc(S(=O)(=O)[O-])cc6F)c6ccc3[nH]6)C=C5)C=C4)cc2)cs1
REMARK SMILES IDX 18 1 17 2 16 3 15 4 14 5 12 6 13 7 11 9 10 10 8 11 9 12
REMARK SMILES IDX 91 13 90 14 7 15 1 16 2 17 3 18 4 19 6 20 5 21 19 22 20 23
REMARK SMILES IDX 21 24 22 25 23 27 24 28 25 29 89 30 26 31 88 32 27 33 28 34
REMARK SMILES IDX 29 35 82 36 30 37 87 38 81 39 83 40 31 41 86 42 80 43 79 44
REMARK SMILES IDX 32 46 66 47 45 48 65 49 46 50 49 51 64 52 84 53 47 54 48 55
REMARK SMILES IDX 63 57 85 58 50 59 33 60 34 61 43 62 35 63 36 64 42 65 44 66
REMARK SMILES IDX 37 67 38 68 39 69 40 70 41 71 67 72 68 73 77 74 69 75 70 76
REMARK SMILES IDX 76 77 78 78 71 79 72 80 73 81 74 82 75 83 51 84 52 85 61 86
REMARK SMILES IDX 53 87 54 88 60 89 62 90 55 91 56 92 57 93 58 94 59 95
REMARK H PARENT 14 8 21 26 83 45 49 56
REMARK Flexibility Score: inf
ROOT
ATOM      1  C   UNL A   1      32.259  28.464  26.955  1.00  0.00     0.002 C 
ENDROOT
BRANCH   1   2
ATOM      2  C   UNL A   1      31.502  28.267  25.634  1.00  0.00     0.002 C 
BRANCH   2   3
ATOM      3  C   UNL A   1      32.333  28.347  24.347  1.00  0.00     0.021 C 
BRANCH   3   4
ATOM      4  C   UNL A   1      31.540  28.192  23.048  1.00  0.00     0.116 C 
BRANCH   4   5
ATOM      5  N   UNL A   1      32.330  27.576  21.994  1.00  0.00    -0.356 N 
ATOM      6  C   UNL A   1      32.515  26.249  21.726  1.00  0.00     0.226 C 
ATOM      7  O   UNL A   1      33.251  25.932  20.788  1.00  0.00    -0.275 OA
ATOM      8  H   UNL A   1      32.795  28.199  21.392  1.00  0.00     0.163 HD
BRANCH   6   9
ATOM      9  C   UNL A   1      31.785  25.196  22.536  1.00  0.00     0.157 C 
BRANCH   9  10
ATOM     10  C   UNL A   1      32.696  24.123  23.031  1.00  0.00     0.061 A 
ATOM     11  C   UNL A   1      33.084  22.038  23.700  1.00  0.00     0.123 A 
ATOM     12  N   UNL A   1      32.170  22.850  23.207  1.00  0.00    -0.241 NA
ATOM     13  S   UNL A   1      34.642  22.742  23.908  1.00  0.00    -0.122 S 
ATOM     14  C   UNL A   1      34.035  24.240  23.343  1.00  0.00     0.091 A 
BRANCH  11  15
ATOM     15  C   UNL A   1      32.851  20.630  24.044  1.00  0.00     0.013 A 
ATOM     16  C   UNL A   1      33.459  21.015  26.507  1.00  0.00     0.045 C 
ATOM     17  C   UNL A   1      33.035  20.142  25.356  1.00  0.00    -0.041 A 
ATOM     18  C   UNL A   1      32.846  18.771  25.612  1.00  0.00     0.004 A 
ATOM     19  C   UNL A   1      32.463  17.897  24.594  1.00  0.00     0.000 A 
ATOM     20  C   UNL A   1      32.469  19.731  23.029  1.00  0.00     0.011 A 
ATOM     21  C   UNL A   1      32.272  18.377  23.304  1.00  0.00     0.001 A 
ENDBRANCH  11  15
ENDBRANCH   9  10
ENDBRANCH   6   9
ENDBRANCH   4   5
ENDBRANCH   3   4
ENDBRANCH   2   3
ENDBRANCH   1   2
BRANCH   1  22
ATOM     22  C   UNL A   1      32.965  29.808  27.141  1.00  0.00     0.021 C 
BRANCH  22  23
ATOM     23  C   UNL A   1      34.486  29.722  27.059  1.00  0.00     0.116 C 
BRANCH  23  24
ATOM     24  N   UNL A   1      35.145  30.954  27.477  1.00  0.00    -0.352 N 
ATOM     25  C   UNL A   1      36.380  31.106  28.082  1.00  0.00     0.251 C 
ATOM     26  H   UNL A   1      34.647  31.786  27.306  1.00  0.00     0.163 HD
ATOM     27  O   UNL A   1      36.762  32.190  28.490  1.00  0.00    -0.269 OA
BRANCH  25  28
ATOM     28  C   UNL A   1      37.262  29.922  28.144  1.00  0.00     0.039 A 
ATOM     29  C   UNL A   1      37.263  29.169  29.323  1.00  0.00     0.014 A 
ATOM     30  C   UNL A   1      38.217  29.705  27.153  1.00  0.00     0.014 A 
ATOM     31  C   UNL A   1      38.331  28.316  29.590  1.00  0.00     0.010 A 
ATOM     32  C   UNL A   1      39.309  28.911  27.450  1.00  0.00     0.010 A 
ATOM     33  C   UNL A   1      39.392  28.258  28.689  1.00  0.00    -0.014 A 
BRANCH  33  34
ATOM     34  C   UNL A   1      40.681  27.643  28.992  1.00  0.00     0.031 A 
ATOM     35  C   UNL A   1      40.937  26.219  28.671  1.00  0.00     0.074 A 
ATOM     36  C   UNL A   1      41.693  28.408  29.459  1.00  0.00     0.049 A 
ATOM     37  N   UNL A   1      41.968  25.557  29.082  1.00  0.00    -0.248 NA
ATOM     38  C   UNL A   1      39.994  25.389  27.925  1.00  0.00     0.031 C 
ATOM     39  C   UNL A   1      43.120  28.108  29.401  1.00  0.00     0.029 A 
ATOM     40  N   UNL A   1      41.614  29.531  30.278  1.00  0.00    -0.354 N 
ATOM     41  C   UNL A   1      41.995  24.363  28.402  1.00  0.00     0.074 A 
ATOM     42  C   UNL A   1      40.679  24.243  27.833  1.00  0.00     0.031 C 
ATOM     43  C   UNL A   1      43.765  28.861  30.303  1.00  0.00     0.029 A 
ATOM     44  C   UNL A   1      42.759  29.549  31.091  1.00  0.00     0.049 A 
ATOM     45  H   UNL A   1      40.886  30.193  30.287  1.00  0.00     0.167 HD
ATOM     46  C   UNL A   1      43.187  23.710  28.272  1.00  0.00     0.037 A 
ATOM     47  C   UNL A   1      42.670  29.471  32.453  1.00  0.00     0.037 A 
ATOM     48  C   UNL A   1      44.170  24.228  29.229  1.00  0.00     0.049 A 
ATOM     49  C   UNL A   1      43.343  28.260  33.061  1.00  0.00     0.074 A 
ATOM     50  C   UNL A   1      45.311  25.002  29.107  1.00  0.00     0.029 A 
ATOM     51  N   UNL A   1      43.900  24.143  30.595  1.00  0.00    -0.354 N 
ATOM     52  N   UNL A   1      43.745  27.226  32.374  1.00  0.00    -0.248 NA
ATOM     53  C   UNL A   1      43.596  28.104  34.491  1.00  0.00     0.031 C 
ATOM     54  C   UNL A   1      45.668  25.463  30.404  1.00  0.00     0.029 A 
ATOM     55  C   UNL A   1      44.769  24.935  31.318  1.00  0.00     0.049 A 
ATOM     56  H   UNL A   1      43.184  23.593  30.990  1.00  0.00     0.167 HD
ATOM     57  C   UNL A   1      44.237  26.268  33.222  1.00  0.00     0.074 A 
ATOM     58  C   UNL A   1      44.160  26.883  34.534  1.00  0.00     0.031 C 
ATOM     59  C   UNL A   1      44.645  25.045  32.768  1.00  0.00     0.037 A 
BRANCH  46  60
ATOM     60  C   UNL A   1      43.554  22.769  27.126  1.00  0.00     0.058 A 
ATOM     61  C   UNL A   1      42.944  21.495  27.025  1.00  0.00     0.135 A 
ATOM     62  C   UNL A   1      44.591  22.979  26.188  1.00  0.00     0.135 A 
ATOM     63  F   UNL A   1      41.932  21.143  27.832  1.00  0.00    -0.206 F 
ATOM     64  C   UNL A   1      43.363  20.509  26.119  1.00  0.00     0.059 A 
ATOM     65  C   UNL A   1      44.997  22.028  25.250  1.00  0.00     0.059 A 
ATOM     66  F   UNL A   1      45.321  24.096  26.154  1.00  0.00    -0.206 F 
ATOM     67  C   UNL A   1      44.403  20.781  25.242  1.00  0.00     0.060 A 
BRANCH  67  68
ATOM     68  S   UNL A   1      44.996  19.502  24.118  1.00  0.00     0.124 S 
ATOM     69  O   UNL A   1      44.507  19.985  22.831  1.00  0.00    -0.237 OA
ATOM     70  O   UNL A   1      46.440  19.555  24.316  1.00  0.00    -0.237 OA
ATOM     71  O   UNL A   1      44.347  18.289  24.613  1.00  0.00    -0.744 OA
ENDBRANCH  67  68
ENDBRANCH  46  60
BRANCH  47  72
ATOM     72  C   UNL A   1      41.469  30.157  33.000  1.00  0.00     0.058 A 
ATOM     73  C   UNL A   1      41.519  31.560  33.100  1.00  0.00     0.135 A 
ATOM     74  C   UNL A   1      40.208  29.548  32.962  1.00  0.00     0.135 A 
ATOM     75  F   UNL A   1      42.705  32.187  33.160  1.00  0.00    -0.206 F 
ATOM     76  C   UNL A   1      40.374  32.338  32.980  1.00  0.00     0.059 A 
ATOM     77  C   UNL A   1      39.043  30.311  32.850  1.00  0.00     0.059 A 
ATOM     78  F   UNL A   1      40.102  28.213  32.873  1.00  0.00    -0.206 F 
ATOM     79  C   UNL A   1      39.151  31.701  32.781  1.00  0.00     0.060 A 
BRANCH  79  80
ATOM     80  S   UNL A   1      37.761  32.713  32.224  1.00  0.00     0.124 S 
ATOM     81  O   UNL A   1      36.805  31.703  31.781  1.00  0.00    -0.237 OA
ATOM     82  O   UNL A   1      37.409  33.420  33.454  1.00  0.00    -0.237 OA
ATOM     83  O   UNL A   1      38.344  33.537  31.172  1.00  0.00    -0.744 OA
ENDBRANCH  79  80
ENDBRANCH  47  72
BRANCH  59  84
ATOM     84  C   UNL A   1      45.030  23.863  33.631  1.00  0.00     0.058 A 
ATOM     85  C   UNL A   1      44.154  22.824  33.991  1.00  0.00     0.135 A 
ATOM     86  C   UNL A   1      46.378  23.681  34.026  1.00  0.00     0.135 A 
ATOM     87  F   UNL A   1      42.878  22.814  33.580  1.00  0.00    -0.206 F 
ATOM     88  C   UNL A   1      44.564  21.722  34.748  1.00  0.00     0.059 A 
ATOM     89  C   UNL A   1      46.821  22.564  34.734  1.00  0.00     0.059 A 
ATOM     90  F   UNL A   1      47.321  24.585  33.724  1.00  0.00    -0.206 F 
ATOM     91  C   UNL A   1      45.900  21.600  35.116  1.00  0.00     0.060 A 
BRANCH  91  92
ATOM     92  S   UNL A   1      46.459  20.156  36.040  1.00  0.00     0.124 S 
ATOM     93  O   UNL A   1      47.889  20.157  35.747  1.00  0.00    -0.237 OA
ATOM     94  O   UNL A   1      46.100  20.485  37.416  1.00  0.00    -0.237 OA
ATOM     95  O   UNL A   1      45.691  19.067  35.444  1.00  0.00    -0.744 OA
ENDBRANCH  91  92
ENDBRANCH  59  84
ENDBRANCH  33  34
ENDBRANCH  25  28
ENDBRANCH  23  24
ENDBRANCH  22  23
ENDBRANCH   1  22
TORSDOF 18
ENDMDL
MODEL 3
REMARK VINA RESULT:     -12.4      1.164      1.848
REMARK SMILES Cc1ccccc1-c1nc(CC(=O)NCCCCCCNC(=O)c2ccc(-c3c4nc(c(-c5c(F)cc(S(=O)(=O)[O-])cc5F)c5ccc([nH]5)c(-c5c(F)cc(S(=O)(=O)[O-])cc5F)c5nc(c(-c6c(F)cc(S(=O)(=O)[O-])cc6F)c6ccc3[nH]6)C=C5)C=C4)cc2)cs1
REMARK SMILES IDX 18 1 17 2 16 3 15 4 14 5 12 6 13 7 11 9 10 10 8 11 9 12
REMARK SMILES IDX 91 13 90 14 7 15 1 16 2 17 3 18 4 19 6 20 5 21 19 22 20 23
REMARK SMILES IDX 21 24 22 25 23 27 24 28 25 29 89 30 26 31 88 32 27 33 28 34
REMARK SMILES IDX 29 35 82 36 30 37 87 38 81 39 83 40 31 41 86 42 80 43 79 44
REMARK SMILES IDX 32 46 66 47 45 48 65 49 46 50 49 51 64 52 84 53 47 54 48 55
REMARK SMILES IDX 63 57 85 58 50 59 33 60 34 61 43 62 35 63 36 64 42 65 44 66
REMARK SMILES IDX 37 67 38 68 39 69 40 70 41 71 67 72 68 73 77 74 69 75 70 76
REMARK SMILES IDX 76 77 78 78 71 79 72 80 73 81 74 82 75 83 51 84 52 85 61 86
REMARK SMILES IDX 53 87 54 88 60 89 62 90 55 91 56 92 57 93 58 94 59 95
REMARK H PARENT 14 8 21 26 83 45 49 56
REMARK Flexibility Score: inf
ROOT
ATOM      1  C   UNL A   1      31.728  29.818  25.992  1.00  0.00     0.002 C 
ENDROOT
BRANCH   1   2
ATOM      2  C   UNL A   1      31.461  28.670  25.009  1.00  0.00     0.002 C 
BRANCH   2   3
ATOM      3  C   UNL A   1      32.082  28.802  23.613  1.00  0.00     0.021 C 
BRANCH   3   4
ATOM      4  C   UNL A   1      33.454  28.148  23.444  1.00  0.00     0.116 C 
BRANCH   4   5
ATOM      5  N   UNL A   1      33.566  27.427  22.187  1.00  0.00    -0.356 N 
ATOM      6  C   UNL A   1      32.945  26.273  21.801  1.00  0.00     0.226 C 
ATOM      7  O   UNL A   1      33.198  25.808  20.687  1.00  0.00    -0.275 OA
ATOM      8  H   UNL A   1      34.172  27.824  21.521  1.00  0.00     0.163 HD
BRANCH   6   9
ATOM      9  C   UNL A   1      31.927  25.612  22.710  1.00  0.00     0.157 C 
BRANCH   9  10
ATOM     10  C   UNL A   1      32.551  25.002  23.919  1.00  0.00     0.061 A 
ATOM     11  C   UNL A   1      34.200  23.904  24.929  1.00  0.00     0.123 A 
ATOM     12  N   UNL A   1      33.818  24.448  23.791  1.00  0.00    -0.241 NA
ATOM     13  S   UNL A   1      33.091  24.096  26.233  1.00  0.00    -0.122 S 
ATOM     14  C   UNL A   1      32.013  24.920  25.188  1.00  0.00     0.091 A 
BRANCH  11  15
ATOM     15  C   UNL A   1      35.471  23.195  25.131  1.00  0.00     0.013 A 
ATOM     16  C   UNL A   1      34.425  20.925  24.551  1.00  0.00     0.045 C 
ATOM     17  C   UNL A   1      35.581  21.798  24.965  1.00  0.00    -0.041 A 
ATOM     18  C   UNL A   1      36.813  21.170  25.223  1.00  0.00     0.004 A 
ATOM     19  C   UNL A   1      37.926  21.911  25.621  1.00  0.00     0.000 A 
ATOM     20  C   UNL A   1      36.604  23.925  25.538  1.00  0.00     0.011 A 
ATOM     21  C   UNL A   1      37.823  23.288  25.776  1.00  0.00     0.001 A 
ENDBRANCH  11  15
ENDBRANCH   9  10
ENDBRANCH   6   9
ENDBRANCH   4   5
ENDBRANCH   3   4
ENDBRANCH   2   3
ENDBRANCH   1   2
BRANCH   1  22
ATOM     22  C   UNL A   1      32.707  29.526  27.131  1.00  0.00     0.021 C 
BRANCH  22  23
ATOM     23  C   UNL A   1      34.168  29.775  26.766  1.00  0.00     0.116 C 
BRANCH  23  24
ATOM     24  N   UNL A   1      34.693  31.006  27.345  1.00  0.00    -0.352 N 
ATOM     25  C   UNL A   1      35.845  31.182  28.091  1.00  0.00     0.251 C 
ATOM     26  H   UNL A   1      34.158  31.817  27.185  1.00  0.00     0.163 HD
ATOM     27  O   UNL A   1      36.106  32.250  28.620  1.00  0.00    -0.269 OA
BRANCH  25  28
ATOM     28  C   UNL A   1      36.797  30.054  28.158  1.00  0.00     0.039 A 
ATOM     29  C   UNL A   1      36.859  29.322  29.349  1.00  0.00     0.014 A 
ATOM     30  C   UNL A   1      37.747  29.876  27.155  1.00  0.00     0.014 A 
ATOM     31  C   UNL A   1      37.979  28.538  29.613  1.00  0.00     0.010 A 
ATOM     32  C   UNL A   1      38.889  29.153  27.448  1.00  0.00     0.010 A 
ATOM     33  C   UNL A   1      39.029  28.527  28.696  1.00  0.00    -0.014 A 
BRANCH  33  34
ATOM     34  C   UNL A   1      40.356  27.993  28.989  1.00  0.00     0.031 A 
ATOM     35  C   UNL A   1      40.681  26.574  28.714  1.00  0.00     0.074 A 
ATOM     36  C   UNL A   1      41.335  28.829  29.400  1.00  0.00     0.049 A 
ATOM     37  N   UNL A   1      41.756  25.985  29.123  1.00  0.00    -0.248 NA
ATOM     38  C   UNL A   1      39.767  25.667  28.024  1.00  0.00     0.031 C 
ATOM     39  C   UNL A   1      42.775  28.604  29.317  1.00  0.00     0.029 A 
ATOM     40  N   UNL A   1      41.215  29.977  30.179  1.00  0.00    -0.354 N 
ATOM     41  C   UNL A   1      41.833  24.768  28.487  1.00  0.00     0.074 A 
ATOM     42  C   UNL A   1      40.512  24.557  27.957  1.00  0.00     0.031 C 
ATOM     43  C   UNL A   1      43.399  29.425  30.173  1.00  0.00     0.029 A 
ATOM     44  C   UNL A   1      42.376  30.088  30.962  1.00  0.00     0.049 A 
ATOM     45  H   UNL A   1      40.452  30.599  30.182  1.00  0.00     0.167 HD
ATOM     46  C   UNL A   1      43.054  24.176  28.351  1.00  0.00     0.037 A 
ATOM     47  C   UNL A   1      42.324  30.058  32.327  1.00  0.00     0.037 A 
ATOM     48  C   UNL A   1      44.031  24.782  29.263  1.00  0.00     0.049 A 
ATOM     49  C   UNL A   1      43.076  28.909  32.962  1.00  0.00     0.074 A 
ATOM     50  C   UNL A   1      45.124  25.611  29.083  1.00  0.00     0.029 A 
ATOM     51  N   UNL A   1      43.797  24.736  30.637  1.00  0.00    -0.354 N 
ATOM     52  N   UNL A   1      43.517  27.872  32.304  1.00  0.00    -0.248 NA
ATOM     53  C   UNL A   1      43.370  28.821  34.390  1.00  0.00     0.031 C 
ATOM     54  C   UNL A   1      45.486  26.140  30.353  1.00  0.00     0.029 A 
ATOM     55  C   UNL A   1      44.639  25.600  31.308  1.00  0.00     0.049 A 
ATOM     56  H   UNL A   1      43.122  24.164  31.071  1.00  0.00     0.167 HD
ATOM     57  C   UNL A   1      44.080  26.975  33.174  1.00  0.00     0.074 A 
ATOM     58  C   UNL A   1      44.001  27.635  34.464  1.00  0.00     0.031 C 
ATOM     59  C   UNL A   1      44.543  25.759  32.755  1.00  0.00     0.037 A 
BRANCH  46  60
ATOM     60  C   UNL A   1      43.445  23.213  27.232  1.00  0.00     0.058 A 
ATOM     61  C   UNL A   1      42.896  21.907  27.189  1.00  0.00     0.135 A 
ATOM     62  C   UNL A   1      44.453  23.438  26.266  1.00  0.00     0.135 A 
ATOM     63  F   UNL A   1      41.918  21.537  28.029  1.00  0.00    -0.206 F 
ATOM     64  C   UNL A   1      43.345  20.910  26.311  1.00  0.00     0.059 A 
ATOM     65  C   UNL A   1      44.887  22.474  25.354  1.00  0.00     0.059 A 
ATOM     66  F   UNL A   1      45.127  24.587  26.177  1.00  0.00    -0.206 F 
ATOM     67  C   UNL A   1      44.354  21.200  25.403  1.00  0.00     0.060 A 
BRANCH  67  68
ATOM     68  S   UNL A   1      44.987  19.911  24.313  1.00  0.00     0.124 S 
ATOM     69  O   UNL A   1      44.275  18.733  24.797  1.00  0.00    -0.237 OA
ATOM     70  O   UNL A   1      44.599  20.397  22.994  1.00  0.00    -0.237 OA
ATOM     71  O   UNL A   1      46.424  19.920  24.577  1.00  0.00    -0.744 OA
ENDBRANCH  67  68
ENDBRANCH  46  60
BRANCH  47  72
ATOM     72  C   UNL A   1      41.101  30.699  32.879  1.00  0.00     0.058 A 
ATOM     73  C   UNL A   1      40.022  29.854  33.202  1.00  0.00     0.135 A 
ATOM     74  C   UNL A   1      41.157  31.954  33.499  1.00  0.00     0.135 A 
ATOM     75  F   UNL A   1      39.913  28.650  32.619  1.00  0.00    -0.206 F 
ATOM     76  C   UNL A   1      39.141  30.163  34.231  1.00  0.00     0.059 A 
ATOM     77  C   UNL A   1      40.276  32.288  34.530  1.00  0.00     0.059 A 
ATOM     78  F   UNL A   1      42.160  32.801  33.223  1.00  0.00    -0.206 F 
ATOM     79  C   UNL A   1      39.326  31.351  34.936  1.00  0.00     0.060 A 
BRANCH  79  80
ATOM     80  S   UNL A   1      38.448  31.539  36.505  1.00  0.00     0.124 S 
ATOM     81  O   UNL A   1      38.047  30.166  36.798  1.00  0.00    -0.237 OA
ATOM     82  O   UNL A   1      39.500  32.087  37.359  1.00  0.00    -0.237 OA
ATOM     83  O   UNL A   1      37.365  32.458  36.177  1.00  0.00    -0.744 OA
ENDBRANCH  79  80
ENDBRANCH  47  72
BRANCH  59  84
ATOM     84  C   UNL A   1      45.012  24.634  33.652  1.00  0.00     0.058 A 
ATOM     85  C   UNL A   1      44.155  23.738  34.316  1.00  0.00     0.135 A 
ATOM     86  C   UNL A   1      46.395  24.344  33.765  1.00  0.00     0.135 A 
ATOM     87  F   UNL A   1      42.823  23.828  34.195  1.00  0.00    -0.206 F 
ATOM     88  C   UNL A   1      44.632  22.678  35.094  1.00  0.00     0.059 A 
ATOM     89  C   UNL A   1      46.889  23.261  34.490  1.00  0.00     0.059 A 
ATOM     90  F   UNL A   1      47.318  25.105  33.159  1.00  0.00    -0.206 F 
ATOM     91  C   UNL A   1      46.001  22.447  35.177  1.00  0.00     0.060 A 
BRANCH  91  92
ATOM     92  S   UNL A   1      46.630  21.048  36.126  1.00  0.00     0.124 S 
ATOM     93  O   UNL A   1      47.828  21.621  36.731  1.00  0.00    -0.237 OA
ATOM     94  O   UNL A   1      45.537  20.759  37.049  1.00  0.00    -0.237 OA
ATOM     95  O   UNL A   1      46.860  20.034  35.103  1.00  0.00    -0.744 OA
ENDBRANCH  91  92
ENDBRANCH  59  84
ENDBRANCH  33  34
ENDBRANCH  25  28
ENDBRANCH  23  24
ENDBRANCH  22  23
ENDBRANCH   1  22
TORSDOF 18
ENDMDL
