MODEL 1
REMARK VINA RESULT:     -13.9      0.000      0.000
REMARK SMILES Cc1ccccc1/[NH+]=C1\S[C@@H](CC(=O)Nc2ccc(C(=O)NCCCCCCNC(=O)c3ccc(-c4c5nc(c(-c6c(F)cc(S(=O)(=O)[O-])cc6F)c6ccc([nH]6)c(-c6c(F)cc(S(=O)(=O)[O-])cc6F)c6nc(c(-c7c(F)cc(S(=O)(=O)[O-])cc7F)c7ccc4[nH]7)C=C6)C=C5)cc3)cc2)C(=O)N1C
REMARK SMILES IDX 25 1 24 2 23 3 22 4 20 5 21 6 19 8 16 9 17 10 99 11 18 12
REMARK SMILES IDX 98 13 15 14 13 15 14 16 12 18 11 19 8 20 9 21 10 23 102 24
REMARK SMILES IDX 100 25 103 26 101 27 7 28 1 29 2 30 3 31 4 32 6 33 5 34
REMARK SMILES IDX 26 35 27 36 28 37 29 38 30 39 31 41 32 42 33 43 97 44 34 45
REMARK SMILES IDX 96 46 35 47 36 48 37 49 90 50 38 51 95 52 89 53 91 54 39 55
REMARK SMILES IDX 94 56 88 57 87 58 40 60 74 61 53 62 73 63 54 64 57 65 72 66
REMARK SMILES IDX 92 67 55 68 56 69 71 71 93 72 58 73 41 74 42 75 51 76 43 77
REMARK SMILES IDX 44 78 50 79 52 80 45 81 46 82 47 83 48 84 49 85 75 86 76 87
REMARK SMILES IDX 85 88 77 89 78 90 84 91 86 92 79 93 80 94 81 95 82 96 83 97
REMARK SMILES IDX 59 98 60 99 69 100 61 101 62 102 68 103 70 104 63 105 64 106
REMARK SMILES IDX 65 107 66 108 67 109
REMARK H PARENT 22 7 15 17 8 22 29 40 91 59 57 70
REMARK Flexibility Score: inf
ROOT
ATOM      1  C   UNL A   1      32.174  27.969  26.826  1.00  0.00     0.002 C 
ENDROOT
BRANCH   1   2
ATOM      2  C   UNL A   1      31.058  28.391  25.856  1.00  0.00     0.021 C 
BRANCH   2   3
ATOM      3  C   UNL A   1      31.298  29.712  25.118  1.00  0.00     0.116 C 
BRANCH   3   4
ATOM      4  N   UNL A   1      30.713  29.710  23.783  1.00  0.00    -0.352 N 
ATOM      5  C   UNL A   1      30.782  28.802  22.752  1.00  0.00     0.251 C 
ATOM      6  O   UNL A   1      30.016  28.924  21.797  1.00  0.00    -0.269 OA
ATOM      7  H   UNL A   1      30.169  30.506  23.581  1.00  0.00     0.163 HD
BRANCH   5   8
ATOM      8  C   UNL A   1      31.721  27.651  22.766  1.00  0.00     0.039 A 
ATOM      9  C   UNL A   1      33.553  25.540  22.641  1.00  0.00     0.041 A 
ATOM     10  C   UNL A   1      32.203  25.297  22.894  1.00  0.00     0.027 A 
ATOM     11  C   UNL A   1      34.023  26.848  22.610  1.00  0.00     0.027 A 
ATOM     12  C   UNL A   1      31.286  26.343  22.961  1.00  0.00     0.016 A 
ATOM     13  C   UNL A   1      33.101  27.902  22.658  1.00  0.00     0.016 A 
BRANCH   9  14
ATOM     14  N   UNL A   1      34.418  24.475  22.366  1.00  0.00    -0.326 N 
ATOM     15  C   UNL A   1      35.249  23.865  23.282  1.00  0.00     0.226 C 
ATOM     16  O   UNL A   1      36.115  23.070  22.915  1.00  0.00    -0.275 OA
ATOM     17  H   UNL A   1      34.434  24.133  21.443  1.00  0.00     0.169 HD
BRANCH  15  18
ATOM     18  C   UNL A   1      34.931  24.048  24.758  1.00  0.00     0.128 C 
BRANCH  18  19
ATOM     19  C   UNL A   1      34.211  22.895  25.422  1.00  0.00     0.183 C 
ATOM     20  N   UNL A   1      31.922  19.959  25.241  1.00  0.00    -0.234 N 
ATOM     21  C   UNL A   1      32.454  21.112  25.055  1.00  0.00     0.319 C 
ATOM     22  H   UNL A   1      31.066  19.964  25.725  1.00  0.00     0.313 HD
ATOM     23  S   UNL A   1      33.878  21.581  24.186  1.00  0.00    -0.022 SA
ATOM     24  N   UNL A   1      31.924  22.223  25.642  1.00  0.00    -0.193 N 
ATOM     25  C   UNL A   1      32.842  23.184  26.008  1.00  0.00     0.324 C 
ATOM     26  C   UNL A   1      30.543  22.316  26.073  1.00  0.00     0.301 C 
ATOM     27  O   UNL A   1      32.620  24.087  26.803  1.00  0.00    -0.245 OA
BRANCH  20  28
ATOM     28  C   UNL A   1      32.385  18.692  24.855  1.00  0.00     0.128 A 
ATOM     29  C   UNL A   1      32.226  18.951  22.286  1.00  0.00     0.049 C 
ATOM     30  C   UNL A   1      32.616  18.227  23.542  1.00  0.00    -0.004 A 
ATOM     31  C   UNL A   1      33.277  16.993  23.352  1.00  0.00     0.008 A 
ATOM     32  C   UNL A   1      33.786  16.270  24.427  1.00  0.00     0.001 A 
ATOM     33  C   UNL A   1      32.899  17.932  25.921  1.00  0.00     0.052 A 
ATOM     34  C   UNL A   1      33.604  16.744  25.715  1.00  0.00     0.004 A 
ENDBRANCH  20  28
ENDBRANCH  18  19
ENDBRANCH  15  18
ENDBRANCH   9  14
ENDBRANCH   5   8
ENDBRANCH   3   4
ENDBRANCH   2   3
ENDBRANCH   1   2
BRANCH   1  35
ATOM     35  C   UNL A   1      33.575  27.766  26.224  1.00  0.00     0.002 C 
BRANCH  35  36
ATOM     36  C   UNL A   1      34.606  28.853  26.543  1.00  0.00     0.021 C 
BRANCH  36  37
ATOM     37  C   UNL A   1      34.249  29.710  27.756  1.00  0.00     0.116 C 
BRANCH  37  38
ATOM     38  N   UNL A   1      34.991  30.961  27.819  1.00  0.00    -0.352 N 
ATOM     39  C   UNL A   1      36.297  31.187  28.233  1.00  0.00     0.251 C 
ATOM     40  H   UNL A   1      34.498  31.761  27.526  1.00  0.00     0.163 HD
ATOM     41  O   UNL A   1      36.704  32.311  28.426  1.00  0.00    -0.269 OA
BRANCH  39  42
ATOM     42  C   UNL A   1      37.202  30.018  28.356  1.00  0.00     0.039 A 
ATOM     43  C   UNL A   1      37.247  29.349  29.586  1.00  0.00     0.014 A 
ATOM     44  C   UNL A   1      38.117  29.714  27.355  1.00  0.00     0.014 A 
ATOM     45  C   UNL A   1      38.330  28.520  29.884  1.00  0.00     0.010 A 
ATOM     46  C   UNL A   1      39.226  28.957  27.676  1.00  0.00     0.010 A 
ATOM     47  C   UNL A   1      39.363  28.401  28.957  1.00  0.00    -0.014 A 
BRANCH  47  48
ATOM     48  C   UNL A   1      40.670  27.808  29.226  1.00  0.00     0.031 A 
ATOM     49  C   UNL A   1      40.975  26.422  28.779  1.00  0.00     0.074 A 
ATOM     50  C   UNL A   1      41.671  28.555  29.744  1.00  0.00     0.049 A 
ATOM     51  N   UNL A   1      42.065  25.793  29.070  1.00  0.00    -0.248 NA
ATOM     52  C   UNL A   1      40.034  25.594  28.030  1.00  0.00     0.031 C 
ATOM     53  C   UNL A   1      43.105  28.298  29.611  1.00  0.00     0.029 A 
ATOM     54  N   UNL A   1      41.640  29.643  30.595  1.00  0.00    -0.354 N 
ATOM     55  C   UNL A   1      42.105  24.631  28.340  1.00  0.00     0.074 A 
ATOM     56  C   UNL A   1      40.768  24.493  27.820  1.00  0.00     0.031 C 
ATOM     57  C   UNL A   1      43.768  29.008  30.534  1.00  0.00     0.029 A 
ATOM     58  C   UNL A   1      42.781  29.609  31.407  1.00  0.00     0.049 A 
ATOM     59  H   UNL A   1      40.934  30.328  30.627  1.00  0.00     0.167 HD
ATOM     60  C   UNL A   1      43.305  23.997  28.186  1.00  0.00     0.037 A 
ATOM     61  C   UNL A   1      42.742  29.426  32.764  1.00  0.00     0.037 A 
ATOM     62  C   UNL A   1      44.311  24.542  29.103  1.00  0.00     0.049 A 
ATOM     63  C   UNL A   1      43.451  28.176  33.266  1.00  0.00     0.074 A 
ATOM     64  C   UNL A   1      45.437  25.338  28.983  1.00  0.00     0.029 A 
ATOM     65  N   UNL A   1      44.092  24.398  30.460  1.00  0.00    -0.354 N 
ATOM     66  N   UNL A   1      44.079  27.326  32.502  1.00  0.00    -0.248 NA
ATOM     67  C   UNL A   1      43.425  27.736  34.665  1.00  0.00     0.031 C 
ATOM     68  C   UNL A   1      45.875  25.684  30.299  1.00  0.00     0.029 A 
ATOM     69  C   UNL A   1      45.025  25.084  31.209  1.00  0.00     0.049 A 
ATOM     70  H   UNL A   1      43.357  23.870  30.847  1.00  0.00     0.167 HD
ATOM     71  C   UNL A   1      44.405  26.212  33.230  1.00  0.00     0.074 A 
ATOM     72  C   UNL A   1      44.022  26.533  34.591  1.00  0.00     0.031 C 
ATOM     73  C   UNL A   1      44.888  25.074  32.657  1.00  0.00     0.037 A 
BRANCH  60  74
ATOM     74  C   UNL A   1      43.658  22.957  27.131  1.00  0.00     0.058 A 
ATOM     75  C   UNL A   1      42.942  21.735  27.074  1.00  0.00     0.135 A 
ATOM     76  C   UNL A   1      44.743  23.028  26.231  1.00  0.00     0.135 A 
ATOM     77  F   UNL A   1      41.866  21.518  27.845  1.00  0.00    -0.206 F 
ATOM     78  C   UNL A   1      43.312  20.665  26.253  1.00  0.00     0.059 A 
ATOM     79  C   UNL A   1      45.106  21.987  25.375  1.00  0.00     0.059 A 
ATOM     80  F   UNL A   1      45.551  24.087  26.158  1.00  0.00    -0.206 F 
ATOM     81  C   UNL A   1      44.409  20.793  25.417  1.00  0.00     0.060 A 
BRANCH  81  82
ATOM     82  S   UNL A   1      44.944  19.391  24.424  1.00  0.00     0.124 S 
ATOM     83  O   UNL A   1      44.450  19.758  23.100  1.00  0.00    -0.237 OA
ATOM     84  O   UNL A   1      46.392  19.419  24.595  1.00  0.00    -0.237 OA
ATOM     85  O   UNL A   1      44.267  18.256  25.047  1.00  0.00    -0.744 OA
ENDBRANCH  81  82
ENDBRANCH  60  74
BRANCH  61  86
ATOM     86  C   UNL A   1      41.537  30.023  33.394  1.00  0.00     0.058 A 
ATOM     87  C   UNL A   1      41.553  31.408  33.634  1.00  0.00     0.135 A 
ATOM     88  C   UNL A   1      40.293  29.382  33.302  1.00  0.00     0.135 A 
ATOM     89  F   UNL A   1      42.723  32.057  33.756  1.00  0.00    -0.206 F 
ATOM     90  C   UNL A   1      40.390  32.161  33.578  1.00  0.00     0.059 A 
ATOM     91  C   UNL A   1      39.112  30.118  33.255  1.00  0.00     0.059 A 
ATOM     92  F   UNL A   1      40.225  28.060  33.091  1.00  0.00    -0.206 F 
ATOM     93  C   UNL A   1      39.186  31.511  33.309  1.00  0.00     0.060 A 
BRANCH  93  94
ATOM     94  S   UNL A   1      37.782  32.527  32.796  1.00  0.00     0.124 S 
ATOM     95  O   UNL A   1      36.663  31.846  33.436  1.00  0.00    -0.237 OA
ATOM     96  O   UNL A   1      38.151  33.821  33.366  1.00  0.00    -0.237 OA
ATOM     97  O   UNL A   1      37.827  32.448  31.341  1.00  0.00    -0.744 OA
ENDBRANCH  93  94
ENDBRANCH  61  86
BRANCH  73  98
ATOM     98  C   UNL A   1      45.224  23.831  33.429  1.00  0.00     0.058 A 
ATOM     99  C   UNL A   1      44.299  22.791  33.607  1.00  0.00     0.135 A 
ATOM    100  C   UNL A   1      46.443  23.713  34.133  1.00  0.00     0.135 A 
ATOM    101  F   UNL A   1      43.107  22.826  32.992  1.00  0.00    -0.206 F 
ATOM    102  C   UNL A   1      44.566  21.697  34.434  1.00  0.00     0.059 A 
ATOM    103  C   UNL A   1      46.712  22.655  34.997  1.00  0.00     0.059 A 
ATOM    104  F   UNL A   1      47.425  24.614  33.977  1.00  0.00    -0.206 F 
ATOM    105  C   UNL A   1      45.772  21.643  35.133  1.00  0.00     0.060 A 
BRANCH 105 106
ATOM    106  S   UNL A   1      46.096  20.262  36.248  1.00  0.00     0.124 S 
ATOM    107  O   UNL A   1      45.860  20.849  37.564  1.00  0.00    -0.237 OA
ATOM    108  O   UNL A   1      45.103  19.290  35.802  1.00  0.00    -0.237 OA
ATOM    109  O   UNL A   1      47.486  19.917  35.963  1.00  0.00    -0.744 OA
ENDBRANCH 105 106
ENDBRANCH  73  98
ENDBRANCH  47  48
ENDBRANCH  39  42
ENDBRANCH  37  38
ENDBRANCH  36  37
ENDBRANCH  35  36
ENDBRANCH   1  35
TORSDOF 20
ENDMDL
MODEL 2
REMARK VINA RESULT:     -12.9      1.355      2.056
REMARK SMILES Cc1ccccc1/[NH+]=C1\S[C@@H](CC(=O)Nc2ccc(C(=O)NCCCCCCNC(=O)c3ccc(-c4c5nc(c(-c6c(F)cc(S(=O)(=O)[O-])cc6F)c6ccc([nH]6)c(-c6c(F)cc(S(=O)(=O)[O-])cc6F)c6nc(c(-c7c(F)cc(S(=O)(=O)[O-])cc7F)c7ccc4[nH]7)C=C6)C=C5)cc3)cc2)C(=O)N1C
REMARK SMILES IDX 25 1 24 2 23 3 22 4 20 5 21 6 19 8 16 9 17 10 99 11 18 12
REMARK SMILES IDX 98 13 15 14 13 15 14 16 12 18 11 19 8 20 9 21 10 23 102 24
REMARK SMILES IDX 100 25 103 26 101 27 7 28 1 29 2 30 3 31 4 32 6 33 5 34
REMARK SMILES IDX 26 35 27 36 28 37 29 38 30 39 31 41 32 42 33 43 97 44 34 45
REMARK SMILES IDX 96 46 35 47 36 48 37 49 90 50 38 51 95 52 89 53 91 54 39 55
REMARK SMILES IDX 94 56 88 57 87 58 40 60 74 61 53 62 73 63 54 64 57 65 72 66
REMARK SMILES IDX 92 67 55 68 56 69 71 71 93 72 58 73 41 74 42 75 51 76 43 77
REMARK SMILES IDX 44 78 50 79 52 80 45 81 46 82 47 83 48 84 49 85 75 86 76 87
REMARK SMILES IDX 85 88 77 89 78 90 84 91 86 92 79 93 80 94 81 95 82 96 83 97
REMARK SMILES IDX 59 98 60 99 69 100 61 101 62 102 68 103 70 104 63 105 64 106
REMARK SMILES IDX 65 107 66 108 67 109
REMARK H PARENT 22 7 15 17 8 22 29 40 91 59 57 70
REMARK Flexibility Score: inf
ROOT
ATOM      1  C   UNL A   1      32.346  28.125  26.449  1.00  0.00     0.002 C 
ENDROOT
BRANCH   1   2
ATOM      2  C   UNL A   1      31.195  29.145  26.412  1.00  0.00     0.021 C 
BRANCH   2   3
ATOM      3  C   UNL A   1      31.528  30.484  25.746  1.00  0.00     0.116 C 
BRANCH   3   4
ATOM      4  N   UNL A   1      30.560  30.843  24.718  1.00  0.00    -0.352 N 
ATOM      5  C   UNL A   1      30.091  30.159  23.620  1.00  0.00     0.251 C 
ATOM      6  O   UNL A   1      29.105  30.591  23.024  1.00  0.00    -0.269 OA
ATOM      7  H   UNL A   1      30.170  31.740  24.829  1.00  0.00     0.163 HD
BRANCH   5   8
ATOM      8  C   UNL A   1      30.705  28.891  23.150  1.00  0.00     0.039 A 
ATOM      9  C   UNL A   1      31.904  26.585  22.115  1.00  0.00     0.041 A 
ATOM     10  C   UNL A   1      30.623  26.535  22.665  1.00  0.00     0.027 A 
ATOM     11  C   UNL A   1      32.656  27.748  22.224  1.00  0.00     0.027 A 
ATOM     12  C   UNL A   1      30.022  27.679  23.185  1.00  0.00     0.016 A 
ATOM     13  C   UNL A   1      32.048  28.905  22.729  1.00  0.00     0.016 A 
BRANCH   9  14
ATOM     14  N   UNL A   1      32.406  25.486  21.409  1.00  0.00    -0.326 N 
ATOM     15  C   UNL A   1      32.828  24.300  21.973  1.00  0.00     0.226 C 
ATOM     16  O   UNL A   1      33.435  23.464  21.303  1.00  0.00    -0.275 OA
ATOM     17  H   UNL A   1      32.462  25.565  20.430  1.00  0.00     0.169 HD
BRANCH  15  18
ATOM     18  C   UNL A   1      32.347  23.974  23.379  1.00  0.00     0.128 C 
BRANCH  18  19
ATOM     19  C   UNL A   1      33.173  22.958  24.135  1.00  0.00     0.183 C 
ATOM     20  N   UNL A   1      33.437  19.794  26.088  1.00  0.00    -0.234 N 
ATOM     21  C   UNL A   1      33.023  20.915  25.621  1.00  0.00     0.319 C 
ATOM     22  H   UNL A   1      33.726  19.811  27.029  1.00  0.00     0.313 HD
ATOM     23  S   UNL A   1      32.342  21.323  24.080  1.00  0.00    -0.022 SA
ATOM     24  N   UNL A   1      33.142  22.059  26.354  1.00  0.00    -0.193 N 
ATOM     25  C   UNL A   1      33.374  23.201  25.619  1.00  0.00     0.324 C 
ATOM     26  C   UNL A   1      33.254  22.072  27.799  1.00  0.00     0.301 C 
ATOM     27  O   UNL A   1      33.809  24.248  26.083  1.00  0.00    -0.245 OA
BRANCH  20  28
ATOM     28  C   UNL A   1      33.539  18.548  25.453  1.00  0.00     0.128 A 
ATOM     29  C   UNL A   1      35.962  18.726  24.563  1.00  0.00     0.049 C 
ATOM     30  C   UNL A   1      34.679  17.994  24.829  1.00  0.00    -0.004 A 
ATOM     31  C   UNL A   1      34.655  16.641  24.423  1.00  0.00     0.008 A 
ATOM     32  C   UNL A   1      33.569  15.817  24.704  1.00  0.00     0.001 A 
ATOM     33  C   UNL A   1      32.452  17.693  25.711  1.00  0.00     0.052 A 
ATOM     34  C   UNL A   1      32.466  16.342  25.358  1.00  0.00     0.004 A 
ENDBRANCH  20  28
ENDBRANCH  18  19
ENDBRANCH  15  18
ENDBRANCH   9  14
ENDBRANCH   5   8
ENDBRANCH   3   4
ENDBRANCH   2   3
ENDBRANCH   1   2
BRANCH   1  35
ATOM     35  C   UNL A   1      33.672  28.554  25.797  1.00  0.00     0.002 C 
BRANCH  35  36
ATOM     36  C   UNL A   1      34.754  29.067  26.750  1.00  0.00     0.021 C 
BRANCH  36  37
ATOM     37  C   UNL A   1      34.246  30.076  27.778  1.00  0.00     0.116 C 
BRANCH  37  38
ATOM     38  N   UNL A   1      35.037  31.298  27.829  1.00  0.00    -0.352 N 
ATOM     39  C   UNL A   1      36.366  31.469  28.193  1.00  0.00     0.251 C 
ATOM     40  H   UNL A   1      34.562  32.120  27.568  1.00  0.00     0.163 HD
ATOM     41  O   UNL A   1      36.823  32.574  28.385  1.00  0.00    -0.269 OA
BRANCH  39  42
ATOM     42  C   UNL A   1      37.231  30.265  28.261  1.00  0.00     0.039 A 
ATOM     43  C   UNL A   1      37.230  29.523  29.449  1.00  0.00     0.014 A 
ATOM     44  C   UNL A   1      38.155  29.992  27.259  1.00  0.00     0.014 A 
ATOM     45  C   UNL A   1      38.280  28.642  29.716  1.00  0.00     0.010 A 
ATOM     46  C   UNL A   1      39.233  29.181  27.554  1.00  0.00     0.010 A 
ATOM     47  C   UNL A   1      39.327  28.545  28.802  1.00  0.00    -0.014 A 
BRANCH  47  48
ATOM     48  C   UNL A   1      40.609  27.894  29.057  1.00  0.00     0.031 A 
ATOM     49  C   UNL A   1      40.793  26.448  28.760  1.00  0.00     0.074 A 
ATOM     50  C   UNL A   1      41.689  28.622  29.419  1.00  0.00     0.049 A 
ATOM     51  N   UNL A   1      41.858  25.780  29.056  1.00  0.00    -0.248 NA
ATOM     52  C   UNL A   1      39.750  25.609  28.175  1.00  0.00     0.031 C 
ATOM     53  C   UNL A   1      43.091  28.249  29.229  1.00  0.00     0.029 A 
ATOM     54  N   UNL A   1      41.788  29.800  30.135  1.00  0.00    -0.354 N 
ATOM     55  C   UNL A   1      41.772  24.542  28.468  1.00  0.00     0.074 A 
ATOM     56  C   UNL A   1      40.395  24.442  28.053  1.00  0.00     0.031 C 
ATOM     57  C   UNL A   1      43.862  29.010  30.017  1.00  0.00     0.029 A 
ATOM     58  C   UNL A   1      42.979  29.777  30.872  1.00  0.00     0.049 A 
ATOM     59  H   UNL A   1      41.131  30.532  30.129  1.00  0.00     0.167 HD
ATOM     60  C   UNL A   1      42.914  23.810  28.316  1.00  0.00     0.037 A 
ATOM     61  C   UNL A   1      43.023  29.754  32.241  1.00  0.00     0.037 A 
ATOM     62  C   UNL A   1      44.016  24.383  29.097  1.00  0.00     0.049 A 
ATOM     63  C   UNL A   1      43.684  28.522  32.844  1.00  0.00     0.074 A 
ATOM     64  C   UNL A   1      45.178  25.077  28.814  1.00  0.00     0.029 A 
ATOM     65  N   UNL A   1      43.883  24.411  30.473  1.00  0.00    -0.354 N 
ATOM     66  N   UNL A   1      44.202  27.547  32.149  1.00  0.00    -0.248 NA
ATOM     67  C   UNL A   1      43.728  28.248  34.284  1.00  0.00     0.031 C 
ATOM     68  C   UNL A   1      45.730  25.539  30.049  1.00  0.00     0.029 A 
ATOM     69  C   UNL A   1      44.908  25.109  31.075  1.00  0.00     0.049 A 
ATOM     70  H   UNL A   1      43.145  23.985  30.965  1.00  0.00     0.167 HD
ATOM     71  C   UNL A   1      44.506  26.503  32.982  1.00  0.00     0.074 A 
ATOM     72  C   UNL A   1      44.241  27.005  34.316  1.00  0.00     0.031 C 
ATOM     73  C   UNL A   1      44.874  25.275  32.520  1.00  0.00     0.037 A 
BRANCH  60  74
ATOM     74  C   UNL A   1      43.125  22.633  27.372  1.00  0.00     0.058 A 
ATOM     75  C   UNL A   1      42.349  21.457  27.524  1.00  0.00     0.135 A 
ATOM     76  C   UNL A   1      44.131  22.534  26.387  1.00  0.00     0.135 A 
ATOM     77  F   UNL A   1      41.335  21.396  28.399  1.00  0.00    -0.206 F 
ATOM     78  C   UNL A   1      42.595  20.277  26.815  1.00  0.00     0.059 A 
ATOM     79  C   UNL A   1      44.369  21.379  25.639  1.00  0.00     0.059 A 
ATOM     80  F   UNL A   1      44.980  23.528  26.121  1.00  0.00    -0.206 F 
ATOM     81  C   UNL A   1      43.622  20.242  25.884  1.00  0.00     0.060 A 
BRANCH  81  82
ATOM     82  S   UNL A   1      44.001  18.702  25.032  1.00  0.00     0.124 S 
ATOM     83  O   UNL A   1      42.864  17.867  25.407  1.00  0.00    -0.237 OA
ATOM     84  O   UNL A   1      44.053  19.121  23.635  1.00  0.00    -0.237 OA
ATOM     85  O   UNL A   1      45.282  18.302  25.607  1.00  0.00    -0.744 OA
ENDBRANCH  81  82
ENDBRANCH  60  74
BRANCH  61  86
ATOM     86  C   UNL A   1      41.906  30.504  32.870  1.00  0.00     0.058 A 
ATOM     87  C   UNL A   1      40.954  29.760  33.588  1.00  0.00     0.135 A 
ATOM     88  C   UNL A   1      42.042  31.867  33.166  1.00  0.00     0.135 A 
ATOM     89  F   UNL A   1      40.772  28.457  33.317  1.00  0.00    -0.206 F 
ATOM     90  C   UNL A   1      40.309  30.294  34.695  1.00  0.00     0.059 A 
ATOM     91  C   UNL A   1      41.395  32.426  34.266  1.00  0.00     0.059 A 
ATOM     92  F   UNL A   1      42.925  32.622  32.498  1.00  0.00    -0.206 F 
ATOM     93  C   UNL A   1      40.601  31.606  35.068  1.00  0.00     0.060 A 
BRANCH  93  94
ATOM     94  S   UNL A   1      40.120  32.129  36.729  1.00  0.00     0.124 S 
ATOM     95  O   UNL A   1      40.037  33.578  36.581  1.00  0.00    -0.237 OA
ATOM     96  O   UNL A   1      38.847  31.430  36.885  1.00  0.00    -0.237 OA
ATOM     97  O   UNL A   1      41.211  31.636  37.562  1.00  0.00    -0.744 OA
ENDBRANCH  93  94
ENDBRANCH  61  86
BRANCH  73  98
ATOM     98  C   UNL A   1      45.183  24.108  33.412  1.00  0.00     0.058 A 
ATOM     99  C   UNL A   1      46.481  23.850  33.879  1.00  0.00     0.135 A 
ATOM    100  C   UNL A   1      44.205  23.134  33.710  1.00  0.00     0.135 A 
ATOM    101  F   UNL A   1      47.479  24.712  33.630  1.00  0.00    -0.206 F 
ATOM    102  C   UNL A   1      46.791  22.695  34.600  1.00  0.00     0.059 A 
ATOM    103  C   UNL A   1      44.502  21.953  34.386  1.00  0.00     0.059 A 
ATOM    104  F   UNL A   1      42.919  23.316  33.373  1.00  0.00    -0.206 F 
ATOM    105  C   UNL A   1      45.797  21.747  34.839  1.00  0.00     0.060 A 
BRANCH 105 106
ATOM    106  S   UNL A   1      46.207  20.225  35.718  1.00  0.00     0.124 S 
ATOM    107  O   UNL A   1      47.619  20.040  35.397  1.00  0.00    -0.237 OA
ATOM    108  O   UNL A   1      45.918  20.600  37.099  1.00  0.00    -0.237 OA
ATOM    109  O   UNL A   1      45.303  19.241  35.130  1.00  0.00    -0.744 OA
ENDBRANCH 105 106
ENDBRANCH  73  98
ENDBRANCH  47  48
ENDBRANCH  39  42
ENDBRANCH  37  38
ENDBRANCH  36  37
ENDBRANCH  35  36
ENDBRANCH   1  35
TORSDOF 20
ENDMDL
MODEL 3
REMARK VINA RESULT:     -12.7      3.984     10.692
REMARK SMILES Cc1ccccc1/[NH+]=C1\S[C@@H](CC(=O)Nc2ccc(C(=O)NCCCCCCNC(=O)c3ccc(-c4c5nc(c(-c6c(F)cc(S(=O)(=O)[O-])cc6F)c6ccc([nH]6)c(-c6c(F)cc(S(=O)(=O)[O-])cc6F)c6nc(c(-c7c(F)cc(S(=O)(=O)[O-])cc7F)c7ccc4[nH]7)C=C6)C=C5)cc3)cc2)C(=O)N1C
REMARK SMILES IDX 25 1 24 2 23 3 22 4 20 5 21 6 19 8 16 9 17 10 99 11 18 12
REMARK SMILES IDX 98 13 15 14 13 15 14 16 12 18 11 19 8 20 9 21 10 23 102 24
REMARK SMILES IDX 100 25 103 26 101 27 7 28 1 29 2 30 3 31 4 32 6 33 5 34
REMARK SMILES IDX 26 35 27 36 28 37 29 38 30 39 31 41 32 42 33 43 97 44 34 45
REMARK SMILES IDX 96 46 35 47 36 48 37 49 90 50 38 51 95 52 89 53 91 54 39 55
REMARK SMILES IDX 94 56 88 57 87 58 40 60 74 61 53 62 73 63 54 64 57 65 72 66
REMARK SMILES IDX 92 67 55 68 56 69 71 71 93 72 58 73 41 74 42 75 51 76 43 77
REMARK SMILES IDX 44 78 50 79 52 80 45 81 46 82 47 83 48 84 49 85 75 86 76 87
REMARK SMILES IDX 85 88 77 89 78 90 84 91 86 92 79 93 80 94 81 95 82 96 83 97
REMARK SMILES IDX 59 98 60 99 69 100 61 101 62 102 68 103 70 104 63 105 64 106
REMARK SMILES IDX 65 107 66 108 67 109
REMARK H PARENT 22 7 15 17 8 22 29 40 91 59 57 70
REMARK Flexibility Score: inf
ROOT
ATOM      1  C   UNL A   1      40.635  22.033  27.064  1.00  0.00     0.002 C 
ENDROOT
BRANCH   1   2
ATOM      2  C   UNL A   1      39.571  21.532  26.072  1.00  0.00     0.021 C 
BRANCH   2   3
ATOM      3  C   UNL A   1      38.308  22.394  25.977  1.00  0.00     0.116 C 
BRANCH   3   4
ATOM      4  N   UNL A   1      37.808  22.488  24.611  1.00  0.00    -0.352 N 
ATOM      5  C   UNL A   1      36.535  22.628  24.108  1.00  0.00     0.251 C 
ATOM      6  O   UNL A   1      36.391  22.907  22.918  1.00  0.00    -0.269 OA
ATOM      7  H   UNL A   1      38.509  22.442  23.922  1.00  0.00     0.163 HD
BRANCH   5   8
ATOM      8  C   UNL A   1      35.324  22.497  24.958  1.00  0.00     0.039 A 
ATOM      9  C   UNL A   1      32.946  22.280  26.416  1.00  0.00     0.041 A 
ATOM     10  C   UNL A   1      33.985  23.094  26.866  1.00  0.00     0.027 A 
ATOM     11  C   UNL A   1      33.149  21.445  25.324  1.00  0.00     0.027 A 
ATOM     12  C   UNL A   1      35.173  23.204  26.147  1.00  0.00     0.016 A 
ATOM     13  C   UNL A   1      34.335  21.567  24.587  1.00  0.00     0.016 A 
BRANCH   9  14
ATOM     14  N   UNL A   1      31.690  22.344  27.029  1.00  0.00    -0.326 N 
ATOM     15  C   UNL A   1      30.690  23.238  26.710  1.00  0.00     0.226 C 
ATOM     16  O   UNL A   1      29.695  23.354  27.426  1.00  0.00    -0.275 OA
ATOM     17  H   UNL A   1      31.505  21.697  27.748  1.00  0.00     0.169 HD
BRANCH  15  18
ATOM     18  C   UNL A   1      30.759  23.922  25.352  1.00  0.00     0.128 C 
BRANCH  18  19
ATOM     19  C   UNL A   1      31.764  25.046  25.236  1.00  0.00     0.183 C 
ATOM     20  N   UNL A   1      32.565  28.636  24.630  1.00  0.00    -0.234 N 
ATOM     21  C   UNL A   1      32.036  27.469  24.558  1.00  0.00     0.319 C 
ATOM     22  H   UNL A   1      33.105  28.902  23.851  1.00  0.00     0.313 HD
ATOM     23  S   UNL A   1      30.953  26.643  25.629  1.00  0.00    -0.022 SA
ATOM     24  N   UNL A   1      32.354  26.625  23.535  1.00  0.00    -0.193 N 
ATOM     25  C   UNL A   1      32.371  25.287  23.867  1.00  0.00     0.324 C 
ATOM     26  C   UNL A   1      32.865  27.078  22.256  1.00  0.00     0.301 C 
ATOM     27  O   UNL A   1      32.917  24.415  23.202  1.00  0.00    -0.245 OA
BRANCH  20  28
ATOM     28  C   UNL A   1      32.487  29.587  25.658  1.00  0.00     0.128 A 
ATOM     29  C   UNL A   1      34.705  29.066  26.883  1.00  0.00     0.049 C 
ATOM     30  C   UNL A   1      33.462  29.871  26.639  1.00  0.00    -0.004 A 
ATOM     31  C   UNL A   1      33.298  31.003  27.468  1.00  0.00     0.008 A 
ATOM     32  C   UNL A   1      32.246  31.895  27.280  1.00  0.00     0.001 A 
ATOM     33  C   UNL A   1      31.428  30.500  25.501  1.00  0.00     0.052 A 
ATOM     34  C   UNL A   1      31.311  31.648  26.288  1.00  0.00     0.004 A 
ENDBRANCH  20  28
ENDBRANCH  18  19
ENDBRANCH  15  18
ENDBRANCH   9  14
ENDBRANCH   5   8
ENDBRANCH   3   4
ENDBRANCH   2   3
ENDBRANCH   1   2
BRANCH   1  35
ATOM     35  C   UNL A   1      41.564  23.157  26.575  1.00  0.00     0.002 C 
BRANCH  35  36
ATOM     36  C   UNL A   1      41.133  24.584  26.925  1.00  0.00     0.021 C 
BRANCH  36  37
ATOM     37  C   UNL A   1      42.298  25.549  27.138  1.00  0.00     0.116 C 
BRANCH  37  38
ATOM     38  N   UNL A   1      42.678  26.272  25.932  1.00  0.00    -0.352 N 
ATOM     39  C   UNL A   1      42.323  27.551  25.527  1.00  0.00     0.251 C 
ATOM     40  H   UNL A   1      43.271  25.785  25.317  1.00  0.00     0.163 HD
ATOM     41  O   UNL A   1      42.550  27.935  24.401  1.00  0.00    -0.269 OA
BRANCH  39  42
ATOM     42  C   UNL A   1      41.730  28.463  26.538  1.00  0.00     0.039 A 
ATOM     43  C   UNL A   1      42.584  29.357  27.196  1.00  0.00     0.014 A 
ATOM     44  C   UNL A   1      40.414  28.306  26.958  1.00  0.00     0.014 A 
ATOM     45  C   UNL A   1      42.180  29.943  28.398  1.00  0.00     0.010 A 
ATOM     46  C   UNL A   1      40.042  28.822  28.183  1.00  0.00     0.010 A 
ATOM     47  C   UNL A   1      40.940  29.599  28.932  1.00  0.00    -0.014 A 
BRANCH  47  48
ATOM     48  C   UNL A   1      40.496  29.901  30.290  1.00  0.00     0.031 A 
ATOM     49  C   UNL A   1      39.649  31.093  30.558  1.00  0.00     0.074 A 
ATOM     50  C   UNL A   1      40.716  29.024  31.296  1.00  0.00     0.049 A 
ATOM     51  N   UNL A   1      39.306  31.484  31.740  1.00  0.00    -0.248 NA
ATOM     52  C   UNL A   1      39.182  31.999  29.511  1.00  0.00     0.031 C 
ATOM     53  C   UNL A   1      39.946  28.914  32.535  1.00  0.00     0.029 A 
ATOM     54  N   UNL A   1      41.735  28.113  31.495  1.00  0.00    -0.354 N 
ATOM     55  C   UNL A   1      38.371  32.482  31.614  1.00  0.00     0.074 A 
ATOM     56  C   UNL A   1      38.434  32.852  30.223  1.00  0.00     0.031 C 
ATOM     57  C   UNL A   1      40.652  28.213  33.432  1.00  0.00     0.029 A 
ATOM     58  C   UNL A   1      41.969  27.997  32.871  1.00  0.00     0.049 A 
ATOM     59  H   UNL A   1      42.216  27.626  30.789  1.00  0.00     0.167 HD
ATOM     60  C   UNL A   1      37.590  32.787  32.693  1.00  0.00     0.037 A 
ATOM     61  C   UNL A   1      43.136  28.384  33.477  1.00  0.00     0.037 A 
ATOM     62  C   UNL A   1      38.111  32.162  33.914  1.00  0.00     0.049 A 
ATOM     63  C   UNL A   1      42.988  29.493  34.510  1.00  0.00     0.074 A 
ATOM     64  C   UNL A   1      37.730  31.115  34.733  1.00  0.00     0.029 A 
ATOM     65  N   UNL A   1      39.361  32.554  34.355  1.00  0.00    -0.354 N 
ATOM     66  N   UNL A   1      41.856  30.047  34.841  1.00  0.00    -0.248 NA
ATOM     67  C   UNL A   1      44.126  30.129  35.184  1.00  0.00     0.031 C 
ATOM     68  C   UNL A   1      38.787  30.875  35.664  1.00  0.00     0.029 A 
ATOM     69  C   UNL A   1      39.796  31.787  35.415  1.00  0.00     0.049 A 
ATOM     70  H   UNL A   1      39.879  33.291  33.961  1.00  0.00     0.167 HD
ATOM     71  C   UNL A   1      42.097  31.149  35.619  1.00  0.00     0.074 A 
ATOM     72  C   UNL A   1      43.528  31.133  35.851  1.00  0.00     0.031 C 
ATOM     73  C   UNL A   1      41.124  32.043  35.951  1.00  0.00     0.037 A 
BRANCH  60  74
ATOM     74  C   UNL A   1      36.270  33.546  32.677  1.00  0.00     0.058 A 
ATOM     75  C   UNL A   1      35.316  33.285  31.663  1.00  0.00     0.135 A 
ATOM     76  C   UNL A   1      35.919  34.609  33.536  1.00  0.00     0.135 A 
ATOM     77  F   UNL A   1      35.486  32.288  30.782  1.00  0.00    -0.206 F 
ATOM     78  C   UNL A   1      34.161  34.052  31.478  1.00  0.00     0.059 A 
ATOM     79  C   UNL A   1      34.752  35.363  33.394  1.00  0.00     0.059 A 
ATOM     80  F   UNL A   1      36.704  35.021  34.533  1.00  0.00    -0.206 F 
ATOM     81  C   UNL A   1      33.895  35.104  32.341  1.00  0.00     0.060 A 
BRANCH  81  82
ATOM     82  S   UNL A   1      32.458  36.150  32.056  1.00  0.00     0.124 S 
ATOM     83  O   UNL A   1      32.471  36.284  30.603  1.00  0.00    -0.237 OA
ATOM     84  O   UNL A   1      31.373  35.351  32.615  1.00  0.00    -0.237 OA
ATOM     85  O   UNL A   1      32.774  37.370  32.795  1.00  0.00    -0.744 OA
ENDBRANCH  81  82
ENDBRANCH  60  74
BRANCH  61  86
ATOM     86  C   UNL A   1      44.329  28.188  32.615  1.00  0.00     0.058 A 
ATOM     87  C   UNL A   1      44.891  26.900  32.575  1.00  0.00     0.135 A 
ATOM     88  C   UNL A   1      44.584  29.055  31.543  1.00  0.00     0.135 A 
ATOM     89  F   UNL A   1      44.695  26.047  33.594  1.00  0.00    -0.206 F 
ATOM     90  C   UNL A   1      45.506  26.419  31.428  1.00  0.00     0.059 A 
ATOM     91  C   UNL A   1      45.209  28.595  30.386  1.00  0.00     0.059 A 
ATOM     92  F   UNL A   1      44.083  30.298  31.543  1.00  0.00    -0.206 F 
ATOM     93  C   UNL A   1      45.586  27.254  30.314  1.00  0.00     0.060 A 
BRANCH  93  94
ATOM     94  S   UNL A   1      45.965  26.489  28.721  1.00  0.00     0.124 S 
ATOM     95  O   UNL A   1      47.416  26.620  28.657  1.00  0.00    -0.237 OA
ATOM     96  O   UNL A   1      45.456  25.136  28.933  1.00  0.00    -0.237 OA
ATOM     97  O   UNL A   1      45.210  27.301  27.774  1.00  0.00    -0.744 OA
ENDBRANCH  93  94
ENDBRANCH  61  86
BRANCH  73  98
ATOM     98  C   UNL A   1      41.370  33.273  36.777  1.00  0.00     0.058 A 
ATOM     99  C   UNL A   1      41.600  33.208  38.160  1.00  0.00     0.135 A 
ATOM    100  C   UNL A   1      41.241  34.565  36.224  1.00  0.00     0.135 A 
ATOM    101  F   UNL A   1      41.719  32.021  38.776  1.00  0.00    -0.206 F 
ATOM    102  C   UNL A   1      41.698  34.357  38.948  1.00  0.00     0.059 A 
ATOM    103  C   UNL A   1      41.289  35.722  36.997  1.00  0.00     0.059 A 
ATOM    104  F   UNL A   1      41.092  34.743  34.902  1.00  0.00    -0.206 F 
ATOM    105  C   UNL A   1      41.531  35.610  38.359  1.00  0.00     0.060 A 
BRANCH 105 106
ATOM    106  S   UNL A   1      41.599  37.094  39.383  1.00  0.00     0.124 S 
ATOM    107  O   UNL A   1      41.702  36.547  40.733  1.00  0.00    -0.237 OA
ATOM    108  O   UNL A   1      42.800  37.745  38.872  1.00  0.00    -0.237 OA
ATOM    109  O   UNL A   1      40.340  37.769  39.083  1.00  0.00    -0.744 OA
ENDBRANCH 105 106
ENDBRANCH  73  98
ENDBRANCH  47  48
ENDBRANCH  39  42
ENDBRANCH  37  38
ENDBRANCH  36  37
ENDBRANCH  35  36
ENDBRANCH   1  35
TORSDOF 20
ENDMDL
