MODEL 1
REMARK VINA RESULT:     -10.6      0.000      0.000
REMARK SMILES CCC[NH2+][C@@]1(C(=O)NCCCCCCNC(=O)c2ccc(-c3c4nc(c(-c5c(F)cc(S(=O)(=O)[O-])cc5F)c5ccc([nH]5)c(-c5c(F)cc(S(=O)(=O)[O-])cc5F)c5nc(c(-c6c(F)cc(S(=O)(=O)[O-])cc6F)c6ccc3[nH]6)C=C5)C=C4)cc2)CC[C@@H]([NH+]2CC[NH+](C)CC2)C1
REMARK SMILES IDX 11 1 10 2 9 3 8 4 6 5 7 6 5 8 84 9 94 10 85 11 86 12 4 13
REMARK SMILES IDX 3 16 2 17 1 18 87 19 88 20 93 21 89 23 92 24 90 25 91 26
REMARK SMILES IDX 12 28 13 29 14 30 15 31 16 32 17 34 18 35 19 36 83 37 20 38
REMARK SMILES IDX 82 39 21 40 22 41 23 42 76 43 24 44 81 45 75 46 77 47 25 48
REMARK SMILES IDX 80 49 74 50 73 51 26 53 60 54 39 55 59 56 40 57 43 58 58 59
REMARK SMILES IDX 78 60 41 61 42 62 57 64 79 65 44 66 27 67 28 68 37 69 29 70
REMARK SMILES IDX 30 71 36 72 38 73 31 74 32 75 33 76 34 77 35 78 61 79 62 80
REMARK SMILES IDX 71 81 63 82 64 83 70 84 72 85 65 86 66 87 67 88 68 89 69 90
REMARK SMILES IDX 45 91 46 92 55 93 47 94 48 95 54 96 56 97 49 98 50 99 51 100
REMARK SMILES IDX 52 101 53 102
REMARK H PARENT 8 7 4 14 4 15 87 22 90 27 15 33 77 52 43 63
REMARK Flexibility Score: inf
ROOT
ATOM      1  C   UNL A   1      33.215  28.219  23.274  1.00  0.00     0.002 C 
ENDROOT
BRANCH   1   2
ATOM      2  C   UNL A   1      31.689  28.120  23.276  1.00  0.00     0.021 C 
BRANCH   2   3
ATOM      3  C   UNL A   1      31.154  26.933  22.486  1.00  0.00     0.116 C 
BRANCH   3   4
ATOM      4  N   UNL A   1      32.109  26.388  21.559  1.00  0.00    -0.351 N 
ATOM      5  C   UNL A   1      32.666  25.154  21.487  1.00  0.00     0.281 C 
ATOM      6  O   UNL A   1      33.214  24.892  20.405  1.00  0.00    -0.268 OA
ATOM      7  H   UNL A   1      32.406  27.016  20.861  1.00  0.00     0.163 HD
BRANCH   5   8
ATOM      8  C   UNL A   1      32.619  24.076  22.644  1.00  0.00     0.181 C 
ATOM      9  C   UNL A   1      31.300  24.152  23.435  1.00  0.00     0.085 C 
ATOM     10  C   UNL A   1      33.726  24.147  23.706  1.00  0.00     0.144 C 
ATOM     11  C   UNL A   1      31.601  24.747  24.807  1.00  0.00     0.072 C 
ATOM     12  C   UNL A   1      33.108  24.568  25.056  1.00  0.00     0.191 C 
BRANCH   8  13
ATOM     13  N   UNL A   1      32.605  22.729  21.968  1.00  0.00    -0.333 N 
ATOM     14  H   UNL A   1      32.097  22.823  21.088  1.00  0.00     0.347 HD
ATOM     15  H   UNL A   1      33.582  22.462  21.849  1.00  0.00     0.347 HD
BRANCH  13  16
ATOM     16  C   UNL A   1      31.978  21.648  22.739  1.00  0.00     0.261 C 
BRANCH  16  17
ATOM     17  C   UNL A   1      32.043  20.322  21.971  1.00  0.00     0.058 C 
ATOM     18  C   UNL A   1      32.236  19.105  22.865  1.00  0.00     0.010 C 
ENDBRANCH  16  17
ENDBRANCH  13  16
ENDBRANCH   8  13
BRANCH  12  19
ATOM     19  N   UNL A   1      33.452  23.826  26.277  1.00  0.00    -0.323 N 
ATOM     20  C   UNL A   1      34.896  23.617  26.493  1.00  0.00     0.324 C 
ATOM     21  C   UNL A   1      32.748  22.562  26.527  1.00  0.00     0.324 C 
ATOM     22  H   UNL A   1      33.097  24.491  26.963  1.00  0.00     0.348 HD
ATOM     23  C   UNL A   1      35.520  22.374  25.807  1.00  0.00     0.324 C 
ATOM     24  C   UNL A   1      33.278  21.355  25.738  1.00  0.00     0.324 C 
ATOM     25  N   UNL A   1      34.727  21.132  25.889  1.00  0.00    -0.328 N 
ATOM     26  C   UNL A   1      35.187  20.159  24.900  1.00  0.00     0.333 C 
ATOM     27  H   UNL A   1      34.875  20.764  26.830  1.00  0.00     0.348 HD
ENDBRANCH  12  19
ENDBRANCH   5   8
ENDBRANCH   3   4
ENDBRANCH   2   3
ENDBRANCH   1   2
BRANCH   1  28
ATOM     28  C   UNL A   1      33.851  28.427  24.654  1.00  0.00     0.002 C 
BRANCH  28  29
ATOM     29  C   UNL A   1      33.001  27.964  25.842  1.00  0.00     0.021 C 
BRANCH  29  30
ATOM     30  C   UNL A   1      33.582  28.319  27.208  1.00  0.00     0.116 C 
BRANCH  30  31
ATOM     31  N   UNL A   1      33.486  29.747  27.473  1.00  0.00    -0.352 N 
ATOM     32  C   UNL A   1      34.374  30.573  28.107  1.00  0.00     0.251 C 
ATOM     33  H   UNL A   1      32.664  30.182  27.150  1.00  0.00     0.163 HD
ATOM     34  O   UNL A   1      34.012  31.690  28.485  1.00  0.00    -0.269 OA
BRANCH  32  35
ATOM     35  C   UNL A   1      35.760  30.124  28.335  1.00  0.00     0.039 A 
ATOM     36  C   UNL A   1      36.669  30.147  27.276  1.00  0.00     0.014 A 
ATOM     37  C   UNL A   1      36.154  29.664  29.596  1.00  0.00     0.014 A 
ATOM     38  C   UNL A   1      37.992  29.762  27.495  1.00  0.00     0.010 A 
ATOM     39  C   UNL A   1      37.487  29.346  29.829  1.00  0.00     0.010 A 
ATOM     40  C   UNL A   1      38.419  29.389  28.781  1.00  0.00    -0.014 A 
BRANCH  40  41
ATOM     41  C   UNL A   1      39.837  29.047  29.055  1.00  0.00     0.031 A 
ATOM     42  C   UNL A   1      40.767  30.086  29.617  1.00  0.00     0.074 A 
ATOM     43  C   UNL A   1      40.297  27.823  28.731  1.00  0.00     0.049 A 
ATOM     44  N   UNL A   1      42.052  30.006  29.845  1.00  0.00    -0.248 NA
ATOM     45  C   UNL A   1      40.181  31.398  29.939  1.00  0.00     0.031 C 
ATOM     46  C   UNL A   1      39.496  26.748  28.140  1.00  0.00     0.029 A 
ATOM     47  N   UNL A   1      41.552  27.280  28.839  1.00  0.00    -0.354 N 
ATOM     48  C   UNL A   1      42.431  31.253  30.327  1.00  0.00     0.074 A 
ATOM     49  C   UNL A   1      41.250  32.090  30.307  1.00  0.00     0.031 C 
ATOM     50  C   UNL A   1      40.273  25.670  27.956  1.00  0.00     0.029 A 
ATOM     51  C   UNL A   1      41.635  25.988  28.375  1.00  0.00     0.049 A 
ATOM     52  H   UNL A   1      42.320  27.768  29.213  1.00  0.00     0.167 HD
ATOM     53  C   UNL A   1      43.647  31.656  30.765  1.00  0.00     0.037 A 
ATOM     54  C   UNL A   1      42.693  25.158  28.287  1.00  0.00     0.037 A 
ATOM     55  C   UNL A   1      44.811  30.809  30.798  1.00  0.00     0.049 A 
ATOM     56  C   UNL A   1      44.037  25.634  28.765  1.00  0.00     0.074 A 
ATOM     57  C   UNL A   1      46.076  31.103  31.273  1.00  0.00     0.029 A 
ATOM     58  N   UNL A   1      44.853  29.502  30.331  1.00  0.00    -0.354 N 
ATOM     59  N   UNL A   1      44.364  26.798  29.276  1.00  0.00    -0.248 NA
ATOM     60  C   UNL A   1      45.154  24.686  28.660  1.00  0.00     0.031 C 
ATOM     61  C   UNL A   1      46.896  29.992  31.053  1.00  0.00     0.029 A 
ATOM     62  C   UNL A   1      46.129  28.985  30.488  1.00  0.00     0.049 A 
ATOM     63  H   UNL A   1      44.089  29.014  29.948  1.00  0.00     0.167 HD
ATOM     64  C   UNL A   1      45.718  26.712  29.577  1.00  0.00     0.074 A 
ATOM     65  C   UNL A   1      46.146  25.380  29.203  1.00  0.00     0.031 C 
ATOM     66  C   UNL A   1      46.535  27.652  30.115  1.00  0.00     0.037 A 
BRANCH  53  67
ATOM     67  C   UNL A   1      43.781  33.075  31.250  1.00  0.00     0.058 A 
ATOM     68  C   UNL A   1      43.568  33.416  32.596  1.00  0.00     0.135 A 
ATOM     69  C   UNL A   1      44.164  34.099  30.370  1.00  0.00     0.135 A 
ATOM     70  F   UNL A   1      43.187  32.480  33.479  1.00  0.00    -0.206 F 
ATOM     71  C   UNL A   1      43.701  34.726  33.045  1.00  0.00     0.059 A 
ATOM     72  C   UNL A   1      44.331  35.412  30.802  1.00  0.00     0.059 A 
ATOM     73  F   UNL A   1      44.379  33.830  29.072  1.00  0.00    -0.206 F 
ATOM     74  C   UNL A   1      44.084  35.717  32.140  1.00  0.00     0.060 A 
BRANCH  74  75
ATOM     75  S   UNL A   1      44.259  37.410  32.741  1.00  0.00     0.124 S 
ATOM     76  O   UNL A   1      44.069  38.176  31.512  1.00  0.00    -0.237 OA
ATOM     77  O   UNL A   1      43.181  37.507  33.720  1.00  0.00    -0.237 OA
ATOM     78  O   UNL A   1      45.609  37.438  33.294  1.00  0.00    -0.744 OA
ENDBRANCH  74  75
ENDBRANCH  53  67
BRANCH  54  79
ATOM     79  C   UNL A   1      42.516  23.786  27.738  1.00  0.00     0.058 A 
ATOM     80  C   UNL A   1      42.425  22.677  28.590  1.00  0.00     0.135 A 
ATOM     81  C   UNL A   1      42.418  23.560  26.356  1.00  0.00     0.135 A 
ATOM     82  F   UNL A   1      42.518  22.842  29.918  1.00  0.00    -0.206 F 
ATOM     83  C   UNL A   1      42.261  21.388  28.094  1.00  0.00     0.059 A 
ATOM     84  C   UNL A   1      42.227  22.283  25.836  1.00  0.00     0.059 A 
ATOM     85  F   UNL A   1      42.481  24.590  25.498  1.00  0.00    -0.206 F 
ATOM     86  C   UNL A   1      42.159  21.201  26.714  1.00  0.00     0.060 A 
BRANCH  86  87
ATOM     87  S   UNL A   1      41.899  19.530  26.083  1.00  0.00     0.124 S 
ATOM     88  O   UNL A   1      42.367  18.718  27.200  1.00  0.00    -0.237 OA
ATOM     89  O   UNL A   1      40.459  19.515  25.841  1.00  0.00    -0.237 OA
ATOM     90  O   UNL A   1      42.729  19.491  24.882  1.00  0.00    -0.744 OA
ENDBRANCH  86  87
ENDBRANCH  54  79
BRANCH  66  91
ATOM     91  C   UNL A   1      47.968  27.266  30.362  1.00  0.00     0.058 A 
ATOM     92  C   UNL A   1      48.972  27.514  29.413  1.00  0.00     0.135 A 
ATOM     93  C   UNL A   1      48.348  26.700  31.589  1.00  0.00     0.135 A 
ATOM     94  F   UNL A   1      48.660  28.046  28.221  1.00  0.00    -0.206 F 
ATOM     95  C   UNL A   1      50.302  27.195  29.667  1.00  0.00     0.059 A 
ATOM     96  C   UNL A   1      49.676  26.401  31.875  1.00  0.00     0.059 A 
ATOM     97  F   UNL A   1      47.427  26.452  32.535  1.00  0.00    -0.206 F 
ATOM     98  C   UNL A   1      50.645  26.642  30.902  1.00  0.00     0.060 A 
BRANCH  98  99
ATOM     99  S   UNL A   1      52.381  26.277  31.234  1.00  0.00     0.124 S 
ATOM    100  O   UNL A   1      52.286  24.983  31.903  1.00  0.00    -0.237 OA
ATOM    101  O   UNL A   1      52.958  26.257  29.893  1.00  0.00    -0.237 OA
ATOM    102  O   UNL A   1      52.808  27.390  32.077  1.00  0.00    -0.744 OA
ENDBRANCH  98  99
ENDBRANCH  66  91
ENDBRANCH  40  41
ENDBRANCH  32  35
ENDBRANCH  30  31
ENDBRANCH  29  30
ENDBRANCH  28  29
ENDBRANCH   1  28
TORSDOF 20
ENDMDL
MODEL 2
REMARK VINA RESULT:     -10.5      4.751     10.275
REMARK SMILES CCC[NH2+][C@@]1(C(=O)NCCCCCCNC(=O)c2ccc(-c3c4nc(c(-c5c(F)cc(S(=O)(=O)[O-])cc5F)c5ccc([nH]5)c(-c5c(F)cc(S(=O)(=O)[O-])cc5F)c5nc(c(-c6c(F)cc(S(=O)(=O)[O-])cc6F)c6ccc3[nH]6)C=C5)C=C4)cc2)CC[C@@H]([NH+]2CC[NH+](C)CC2)C1
REMARK SMILES IDX 11 1 10 2 9 3 8 4 6 5 7 6 5 8 84 9 94 10 85 11 86 12 4 13
REMARK SMILES IDX 3 16 2 17 1 18 87 19 88 20 93 21 89 23 92 24 90 25 91 26
REMARK SMILES IDX 12 28 13 29 14 30 15 31 16 32 17 34 18 35 19 36 83 37 20 38
REMARK SMILES IDX 82 39 21 40 22 41 23 42 76 43 24 44 81 45 75 46 77 47 25 48
REMARK SMILES IDX 80 49 74 50 73 51 26 53 60 54 39 55 59 56 40 57 43 58 58 59
REMARK SMILES IDX 78 60 41 61 42 62 57 64 79 65 44 66 27 67 28 68 37 69 29 70
REMARK SMILES IDX 30 71 36 72 38 73 31 74 32 75 33 76 34 77 35 78 61 79 62 80
REMARK SMILES IDX 71 81 63 82 64 83 70 84 72 85 65 86 66 87 67 88 68 89 69 90
REMARK SMILES IDX 45 91 46 92 55 93 47 94 48 95 54 96 56 97 49 98 50 99 51 100
REMARK SMILES IDX 52 101 53 102
REMARK H PARENT 8 7 4 14 4 15 87 22 90 27 15 33 77 52 43 63
REMARK Flexibility Score: inf
ROOT
ATOM      1  C   UNL A   1      38.283  22.680  26.132  1.00  0.00     0.002 C 
ENDROOT
BRANCH   1   2
ATOM      2  C   UNL A   1      37.434  22.125  24.989  1.00  0.00     0.021 C 
BRANCH   2   3
ATOM      3  C   UNL A   1      36.350  21.158  25.446  1.00  0.00     0.116 C 
BRANCH   3   4
ATOM      4  N   UNL A   1      35.511  21.694  26.485  1.00  0.00    -0.351 N 
ATOM      5  C   UNL A   1      34.175  21.920  26.513  1.00  0.00     0.281 C 
ATOM      6  O   UNL A   1      33.699  22.098  27.646  1.00  0.00    -0.268 OA
ATOM      7  H   UNL A   1      35.988  21.936  27.313  1.00  0.00     0.163 HD
BRANCH   5   8
ATOM      8  C   UNL A   1      33.236  21.929  25.240  1.00  0.00     0.181 C 
ATOM      9  C   UNL A   1      34.052  21.999  23.936  1.00  0.00     0.085 C 
ATOM     10  C   UNL A   1      32.217  23.074  25.135  1.00  0.00     0.144 C 
ATOM     11  C   UNL A   1      33.881  23.393  23.341  1.00  0.00     0.072 C 
ATOM     12  C   UNL A   1      32.608  23.995  23.961  1.00  0.00     0.191 C 
BRANCH   8  13
ATOM     13  N   UNL A   1      32.546  20.589  25.211  1.00  0.00    -0.333 N 
ATOM     14  H   UNL A   1      32.853  20.060  26.029  1.00  0.00     0.347 HD
ATOM     15  H   UNL A   1      31.546  20.786  25.205  1.00  0.00     0.347 HD
BRANCH  13  16
ATOM     16  C   UNL A   1      32.811  19.774  24.019  1.00  0.00     0.261 C 
BRANCH  16  17
ATOM     17  C   UNL A   1      33.508  18.462  24.399  1.00  0.00     0.058 C 
ATOM     18  C   UNL A   1      33.398  17.379  23.335  1.00  0.00     0.010 C 
ENDBRANCH  16  17
ENDBRANCH  13  16
ENDBRANCH   8  13
BRANCH  12  19
ATOM     19  N   UNL A   1      31.585  24.415  22.993  1.00  0.00    -0.323 N 
ATOM     20  C   UNL A   1      32.036  25.411  22.003  1.00  0.00     0.324 C 
ATOM     21  C   UNL A   1      30.278  24.828  23.520  1.00  0.00     0.324 C 
ATOM     22  H   UNL A   1      31.436  23.518  22.532  1.00  0.00     0.348 HD
ATOM     23  C   UNL A   1      31.944  26.898  22.434  1.00  0.00     0.324 C 
ATOM     24  C   UNL A   1      30.225  26.258  24.078  1.00  0.00     0.324 C 
ATOM     25  N   UNL A   1      30.706  27.285  23.138  1.00  0.00    -0.328 N 
ATOM     26  C   UNL A   1      30.885  28.556  23.838  1.00  0.00     0.333 C 
ATOM     27  H   UNL A   1      29.992  27.387  22.416  1.00  0.00     0.348 HD
ENDBRANCH  12  19
ENDBRANCH   5   8
ENDBRANCH   3   4
ENDBRANCH   2   3
ENDBRANCH   1   2
BRANCH   1  28
ATOM     28  C   UNL A   1      39.667  22.037  26.282  1.00  0.00     0.002 C 
BRANCH  28  29
ATOM     29  C   UNL A   1      40.367  22.296  27.621  1.00  0.00     0.021 C 
BRANCH  29  30
ATOM     30  C   UNL A   1      41.722  22.988  27.499  1.00  0.00     0.116 C 
BRANCH  30  31
ATOM     31  N   UNL A   1      41.798  23.801  26.294  1.00  0.00    -0.352 N 
ATOM     32  C   UNL A   1      41.533  25.133  26.130  1.00  0.00     0.251 C 
ATOM     33  H   UNL A   1      42.080  23.325  25.481  1.00  0.00     0.163 HD
ATOM     34  O   UNL A   1      41.383  25.595  24.996  1.00  0.00    -0.269 OA
BRANCH  32  35
ATOM     35  C   UNL A   1      41.428  26.013  27.309  1.00  0.00     0.039 A 
ATOM     36  C   UNL A   1      42.476  26.886  27.606  1.00  0.00     0.014 A 
ATOM     37  C   UNL A   1      40.298  25.958  28.131  1.00  0.00     0.014 A 
ATOM     38  C   UNL A   1      42.366  27.749  28.697  1.00  0.00     0.010 A 
ATOM     39  C   UNL A   1      40.160  26.866  29.176  1.00  0.00     0.010 A 
ATOM     40  C   UNL A   1      41.193  27.768  29.471  1.00  0.00    -0.014 A 
BRANCH  40  41
ATOM     41  C   UNL A   1      41.022  28.728  30.589  1.00  0.00     0.031 A 
ATOM     42  C   UNL A   1      41.872  28.607  31.824  1.00  0.00     0.074 A 
ATOM     43  C   UNL A   1      40.052  29.660  30.518  1.00  0.00     0.049 A 
ATOM     44  N   UNL A   1      41.815  29.295  32.935  1.00  0.00    -0.248 NA
ATOM     45  C   UNL A   1      42.905  27.558  31.819  1.00  0.00     0.031 C 
ATOM     46  C   UNL A   1      39.138  29.844  29.388  1.00  0.00     0.029 A 
ATOM     47  N   UNL A   1      39.664  30.621  31.416  1.00  0.00    -0.354 N 
ATOM     48  C   UNL A   1      42.793  28.758  33.763  1.00  0.00     0.074 A 
ATOM     49  C   UNL A   1      43.393  27.652  33.048  1.00  0.00     0.031 C 
ATOM     50  C   UNL A   1      38.309  30.865  29.653  1.00  0.00     0.029 A 
ATOM     51  C   UNL A   1      38.603  31.383  30.985  1.00  0.00     0.049 A 
ATOM     52  H   UNL A   1      40.103  30.753  32.287  1.00  0.00     0.167 HD
ATOM     53  C   UNL A   1      43.171  29.164  34.999  1.00  0.00     0.037 A 
ATOM     54  C   UNL A   1      37.936  32.378  31.601  1.00  0.00     0.037 A 
ATOM     55  C   UNL A   1      42.580  30.278  35.693  1.00  0.00     0.049 A 
ATOM     56  C   UNL A   1      38.364  32.801  32.980  1.00  0.00     0.074 A 
ATOM     57  C   UNL A   1      42.926  30.805  36.925  1.00  0.00     0.029 A 
ATOM     58  N   UNL A   1      41.516  31.034  35.220  1.00  0.00    -0.354 N 
ATOM     59  N   UNL A   1      39.333  32.323  33.724  1.00  0.00    -0.248 NA
ATOM     60  C   UNL A   1      37.612  33.900  33.602  1.00  0.00     0.031 C 
ATOM     61  C   UNL A   1      42.043  31.849  37.217  1.00  0.00     0.029 A 
ATOM     62  C   UNL A   1      41.179  32.008  36.145  1.00  0.00     0.049 A 
ATOM     63  H   UNL A   1      41.069  30.898  34.354  1.00  0.00     0.167 HD
ATOM     64  C   UNL A   1      39.323  33.079  34.891  1.00  0.00     0.074 A 
ATOM     65  C   UNL A   1      38.262  34.054  34.747  1.00  0.00     0.031 C 
ATOM     66  C   UNL A   1      40.122  32.976  35.982  1.00  0.00     0.037 A 
BRANCH  53  67
ATOM     67  C   UNL A   1      44.279  28.404  35.677  1.00  0.00     0.058 A 
ATOM     68  C   UNL A   1      44.014  27.315  36.523  1.00  0.00     0.135 A 
ATOM     69  C   UNL A   1      45.622  28.743  35.451  1.00  0.00     0.135 A 
ATOM     70  F   UNL A   1      42.748  26.955  36.788  1.00  0.00    -0.206 F 
ATOM     71  C   UNL A   1      45.040  26.608  37.143  1.00  0.00     0.059 A 
ATOM     72  C   UNL A   1      46.666  28.032  36.036  1.00  0.00     0.059 A 
ATOM     73  F   UNL A   1      45.934  29.776  34.652  1.00  0.00    -0.206 F 
ATOM     74  C   UNL A   1      46.363  26.974  36.892  1.00  0.00     0.060 A 
BRANCH  74  75
ATOM     75  S   UNL A   1      47.681  26.041  37.698  1.00  0.00     0.124 S 
ATOM     76  O   UNL A   1      47.492  24.712  37.122  1.00  0.00    -0.237 OA
ATOM     77  O   UNL A   1      48.879  26.754  37.265  1.00  0.00    -0.237 OA
ATOM     78  O   UNL A   1      47.363  26.158  39.118  1.00  0.00    -0.744 OA
ENDBRANCH  74  75
ENDBRANCH  53  67
BRANCH  54  79
ATOM     79  C   UNL A   1      36.805  33.053  30.909  1.00  0.00     0.058 A 
ATOM     80  C   UNL A   1      35.476  32.736  31.223  1.00  0.00     0.135 A 
ATOM     81  C   UNL A   1      37.030  34.037  29.932  1.00  0.00     0.135 A 
ATOM     82  F   UNL A   1      35.211  31.798  32.145  1.00  0.00    -0.206 F 
ATOM     83  C   UNL A   1      34.408  33.356  30.584  1.00  0.00     0.059 A 
ATOM     84  C   UNL A   1      35.978  34.691  29.298  1.00  0.00     0.059 A 
ATOM     85  F   UNL A   1      38.283  34.390  29.608  1.00  0.00    -0.206 F 
ATOM     86  C   UNL A   1      34.669  34.336  29.624  1.00  0.00     0.060 A 
BRANCH  86  87
ATOM     87  S   UNL A   1      33.275  35.168  28.835  1.00  0.00     0.124 S 
ATOM     88  O   UNL A   1      32.480  35.569  29.990  1.00  0.00    -0.237 OA
ATOM     89  O   UNL A   1      33.934  36.247  28.107  1.00  0.00    -0.237 OA
ATOM     90  O   UNL A   1      32.690  34.123  27.998  1.00  0.00    -0.744 OA
ENDBRANCH  86  87
ENDBRANCH  54  79
BRANCH  66  91
ATOM     91  C   UNL A   1      39.903  33.961  37.097  1.00  0.00     0.058 A 
ATOM     92  C   UNL A   1      40.457  35.250  37.062  1.00  0.00     0.135 A 
ATOM     93  C   UNL A   1      39.074  33.631  38.182  1.00  0.00     0.135 A 
ATOM     94  F   UNL A   1      41.263  35.612  36.052  1.00  0.00    -0.206 F 
ATOM     95  C   UNL A   1      40.214  36.171  38.076  1.00  0.00     0.059 A 
ATOM     96  C   UNL A   1      38.793  34.547  39.190  1.00  0.00     0.059 A 
ATOM     97  F   UNL A   1      38.511  32.415  38.258  1.00  0.00    -0.206 F 
ATOM     98  C   UNL A   1      39.376  35.812  39.134  1.00  0.00     0.060 A 
BRANCH  98  99
ATOM     99  S   UNL A   1      39.032  37.034  40.417  1.00  0.00     0.124 S 
ATOM    100  O   UNL A   1      38.407  38.103  39.644  1.00  0.00    -0.237 OA
ATOM    101  O   UNL A   1      38.147  36.300  41.316  1.00  0.00    -0.237 OA
ATOM    102  O   UNL A   1      40.352  37.340  40.958  1.00  0.00    -0.744 OA
ENDBRANCH  98  99
ENDBRANCH  66  91
ENDBRANCH  40  41
ENDBRANCH  32  35
ENDBRANCH  30  31
ENDBRANCH  29  30
ENDBRANCH  28  29
ENDBRANCH   1  28
TORSDOF 20
ENDMDL
MODEL 3
REMARK VINA RESULT:     -10.3      4.667     10.314
REMARK SMILES CCC[NH2+][C@@]1(C(=O)NCCCCCCNC(=O)c2ccc(-c3c4nc(c(-c5c(F)cc(S(=O)(=O)[O-])cc5F)c5ccc([nH]5)c(-c5c(F)cc(S(=O)(=O)[O-])cc5F)c5nc(c(-c6c(F)cc(S(=O)(=O)[O-])cc6F)c6ccc3[nH]6)C=C5)C=C4)cc2)CC[C@@H]([NH+]2CC[NH+](C)CC2)C1
REMARK SMILES IDX 11 1 10 2 9 3 8 4 6 5 7 6 5 8 84 9 94 10 85 11 86 12 4 13
REMARK SMILES IDX 3 16 2 17 1 18 87 19 88 20 93 21 89 23 92 24 90 25 91 26
REMARK SMILES IDX 12 28 13 29 14 30 15 31 16 32 17 34 18 35 19 36 83 37 20 38
REMARK SMILES IDX 82 39 21 40 22 41 23 42 76 43 24 44 81 45 75 46 77 47 25 48
REMARK SMILES IDX 80 49 74 50 73 51 26 53 60 54 39 55 59 56 40 57 43 58 58 59
REMARK SMILES IDX 78 60 41 61 42 62 57 64 79 65 44 66 27 67 28 68 37 69 29 70
REMARK SMILES IDX 30 71 36 72 38 73 31 74 32 75 33 76 34 77 35 78 61 79 62 80
REMARK SMILES IDX 71 81 63 82 64 83 70 84 72 85 65 86 66 87 67 88 68 89 69 90
REMARK SMILES IDX 45 91 46 92 55 93 47 94 48 95 54 96 56 97 49 98 50 99 51 100
REMARK SMILES IDX 52 101 53 102
REMARK H PARENT 8 7 4 14 4 15 87 22 90 27 15 33 77 52 43 63
REMARK Flexibility Score: inf
ROOT
ATOM      1  C   UNL A   1      36.636  21.506  25.143  1.00  0.00     0.002 C 
ENDROOT
BRANCH   1   2
ATOM      2  C   UNL A   1      35.346  21.563  25.962  1.00  0.00     0.021 C 
BRANCH   2   3
ATOM      3  C   UNL A   1      34.963  22.970  26.400  1.00  0.00     0.116 C 
BRANCH   3   4
ATOM      4  N   UNL A   1      33.694  23.031  27.073  1.00  0.00    -0.351 N 
ATOM      5  C   UNL A   1      32.562  23.711  26.765  1.00  0.00     0.281 C 
ATOM      6  O   UNL A   1      31.542  23.325  27.359  1.00  0.00    -0.268 OA
ATOM      7  H   UNL A   1      33.637  22.488  27.893  1.00  0.00     0.163 HD
BRANCH   5   8
ATOM      8  C   UNL A   1      32.477  24.887  25.711  1.00  0.00     0.181 C 
ATOM      9  C   UNL A   1      31.085  25.547  25.710  1.00  0.00     0.085 C 
ATOM     10  C   UNL A   1      32.748  24.527  24.242  1.00  0.00     0.144 C 
ATOM     11  C   UNL A   1      30.365  25.140  24.429  1.00  0.00     0.072 C 
ATOM     12  C   UNL A   1      31.442  24.674  23.434  1.00  0.00     0.191 C 
BRANCH   8  13
ATOM     13  N   UNL A   1      33.427  25.955  26.189  1.00  0.00    -0.333 N 
ATOM     14  H   UNL A   1      33.517  25.866  27.202  1.00  0.00     0.347 HD
ATOM     15  H   UNL A   1      34.301  25.801  25.687  1.00  0.00     0.347 HD
BRANCH  13  16
ATOM     16  C   UNL A   1      33.022  27.334  25.889  1.00  0.00     0.261 C 
BRANCH  16  17
ATOM     17  C   UNL A   1      33.508  28.294  26.983  1.00  0.00     0.058 C 
ATOM     18  C   UNL A   1      32.563  29.459  27.239  1.00  0.00     0.010 C 
ENDBRANCH  16  17
ENDBRANCH  13  16
ENDBRANCH   8  13
BRANCH  12  19
ATOM     19  N   UNL A   1      31.456  25.395  22.153  1.00  0.00    -0.323 N 
ATOM     20  C   UNL A   1      32.782  25.508  21.517  1.00  0.00     0.324 C 
ATOM     21  C   UNL A   1      30.792  26.703  22.100  1.00  0.00     0.324 C 
ATOM     22  H   UNL A   1      30.872  24.757  21.614  1.00  0.00     0.348 HD
ATOM     23  C   UNL A   1      33.659  26.706  21.966  1.00  0.00     0.324 C 
ATOM     24  C   UNL A   1      31.607  27.871  22.676  1.00  0.00     0.324 C 
ATOM     25  N   UNL A   1      32.957  27.998  22.100  1.00  0.00    -0.328 N 
ATOM     26  C   UNL A   1      33.750  28.936  22.893  1.00  0.00     0.333 C 
ATOM     27  H   UNL A   1      32.844  28.357  21.151  1.00  0.00     0.348 HD
ENDBRANCH  12  19
ENDBRANCH   5   8
ENDBRANCH   3   4
ENDBRANCH   2   3
ENDBRANCH   1   2
BRANCH   1  28
ATOM     28  C   UNL A   1      37.653  22.611  25.459  1.00  0.00     0.002 C 
BRANCH  28  29
ATOM     29  C   UNL A   1      38.896  22.154  26.230  1.00  0.00     0.021 C 
BRANCH  29  30
ATOM     30  C   UNL A   1      39.669  23.284  26.904  1.00  0.00     0.116 C 
BRANCH  30  31
ATOM     31  N   UNL A   1      40.890  23.600  26.178  1.00  0.00    -0.352 N 
ATOM     32  C   UNL A   1      41.623  24.756  26.175  1.00  0.00     0.251 C 
ATOM     33  H   UNL A   1      41.239  22.879  25.606  1.00  0.00     0.163 HD
ATOM     34  O   UNL A   1      42.468  24.946  25.298  1.00  0.00    -0.269 OA
BRANCH  32  35
ATOM     35  C   UNL A   1      41.398  25.770  27.223  1.00  0.00     0.039 A 
ATOM     36  C   UNL A   1      40.350  25.596  28.129  1.00  0.00     0.014 A 
ATOM     37  C   UNL A   1      42.216  26.902  27.295  1.00  0.00     0.014 A 
ATOM     38  C   UNL A   1      40.158  26.531  29.147  1.00  0.00     0.010 A 
ATOM     39  C   UNL A   1      42.065  27.796  28.349  1.00  0.00     0.010 A 
ATOM     40  C   UNL A   1      41.033  27.621  29.283  1.00  0.00    -0.014 A 
BRANCH  40  41
ATOM     41  C   UNL A   1      40.894  28.587  30.401  1.00  0.00     0.031 A 
ATOM     42  C   UNL A   1      41.763  28.459  31.621  1.00  0.00     0.074 A 
ATOM     43  C   UNL A   1      39.936  29.533  30.343  1.00  0.00     0.049 A 
ATOM     44  N   UNL A   1      41.735  29.150  32.731  1.00  0.00    -0.248 NA
ATOM     45  C   UNL A   1      42.780  27.394  31.603  1.00  0.00     0.031 C 
ATOM     46  C   UNL A   1      39.006  29.726  29.228  1.00  0.00     0.029 A 
ATOM     47  N   UNL A   1      39.577  30.502  31.245  1.00  0.00    -0.354 N 
ATOM     48  C   UNL A   1      42.719  28.602  33.545  1.00  0.00     0.074 A 
ATOM     49  C   UNL A   1      43.291  27.485  32.823  1.00  0.00     0.031 C 
ATOM     50  C   UNL A   1      38.196  30.759  29.504  1.00  0.00     0.029 A 
ATOM     51  C   UNL A   1      38.520  31.278  30.829  1.00  0.00     0.049 A 
ATOM     52  H   UNL A   1      40.032  30.630  32.108  1.00  0.00     0.167 HD
ATOM     53  C   UNL A   1      43.123  29.006  34.772  1.00  0.00     0.037 A 
ATOM     54  C   UNL A   1      37.876  32.284  31.453  1.00  0.00     0.037 A 
ATOM     55  C   UNL A   1      42.559  30.131  35.473  1.00  0.00     0.049 A 
ATOM     56  C   UNL A   1      38.334  32.705  32.823  1.00  0.00     0.074 A 
ATOM     57  C   UNL A   1      42.934  30.657  36.697  1.00  0.00     0.029 A 
ATOM     58  N   UNL A   1      41.498  30.900  35.015  1.00  0.00    -0.354 N 
ATOM     59  N   UNL A   1      39.308  32.215  33.553  1.00  0.00    -0.248 NA
ATOM     60  C   UNL A   1      37.608  33.816  33.453  1.00  0.00     0.031 C 
ATOM     61  C   UNL A   1      42.070  31.714  37.001  1.00  0.00     0.029 A 
ATOM     62  C   UNL A   1      41.190  31.882  35.942  1.00  0.00     0.049 A 
ATOM     63  H   UNL A   1      41.034  30.768  34.157  1.00  0.00     0.167 HD
ATOM     64  C   UNL A   1      39.329  32.975  34.717  1.00  0.00     0.074 A 
ATOM     65  C   UNL A   1      38.279  33.964  34.588  1.00  0.00     0.031 C 
ATOM     66  C   UNL A   1      40.145  32.864  35.795  1.00  0.00     0.037 A 
BRANCH  53  67
ATOM     67  C   UNL A   1      44.231  28.233  35.435  1.00  0.00     0.058 A 
ATOM     68  C   UNL A   1      45.582  28.532  35.196  1.00  0.00     0.135 A 
ATOM     69  C   UNL A   1      43.941  27.206  36.347  1.00  0.00     0.135 A 
ATOM     70  F   UNL A   1      45.919  29.494  34.322  1.00  0.00    -0.206 F 
ATOM     71  C   UNL A   1      46.606  27.821  35.816  1.00  0.00     0.059 A 
ATOM     72  C   UNL A   1      44.948  26.501  37.001  1.00  0.00     0.059 A 
ATOM     73  F   UNL A   1      42.666  26.877  36.612  1.00  0.00    -0.206 F 
ATOM     74  C   UNL A   1      46.278  26.808  36.718  1.00  0.00     0.060 A 
BRANCH  74  75
ATOM     75  S   UNL A   1      47.618  25.902  37.518  1.00  0.00     0.124 S 
ATOM     76  O   UNL A   1      47.555  24.617  36.826  1.00  0.00    -0.237 OA
ATOM     77  O   UNL A   1      48.781  26.729  37.212  1.00  0.00    -0.237 OA
ATOM     78  O   UNL A   1      47.221  25.876  38.923  1.00  0.00    -0.744 OA
ENDBRANCH  74  75
ENDBRANCH  53  67
BRANCH  54  79
ATOM     79  C   UNL A   1      36.744  32.972  30.777  1.00  0.00     0.058 A 
ATOM     80  C   UNL A   1      35.422  32.764  31.195  1.00  0.00     0.135 A 
ATOM     81  C   UNL A   1      36.961  33.862  29.713  1.00  0.00     0.135 A 
ATOM     82  F   UNL A   1      35.164  31.918  32.205  1.00  0.00    -0.206 F 
ATOM     83  C   UNL A   1      34.352  33.398  30.574  1.00  0.00     0.059 A 
ATOM     84  C   UNL A   1      35.909  34.529  29.093  1.00  0.00     0.059 A 
ATOM     85  F   UNL A   1      38.209  34.110  29.286  1.00  0.00    -0.206 F 
ATOM     86  C   UNL A   1      34.606  34.283  29.524  1.00  0.00     0.060 A 
BRANCH  86  87
ATOM     87  S   UNL A   1      33.214  35.137  28.756  1.00  0.00     0.124 S 
ATOM     88  O   UNL A   1      33.885  36.234  28.069  1.00  0.00    -0.237 OA
ATOM     89  O   UNL A   1      32.650  34.096  27.901  1.00  0.00    -0.237 OA
ATOM     90  O   UNL A   1      32.384  35.519  29.896  1.00  0.00    -0.744 OA
ENDBRANCH  86  87
ENDBRANCH  54  79
BRANCH  66  91
ATOM     91  C   UNL A   1      39.958  33.856  36.910  1.00  0.00     0.058 A 
ATOM     92  C   UNL A   1      40.588  35.110  36.895  1.00  0.00     0.135 A 
ATOM     93  C   UNL A   1      39.087  33.570  37.974  1.00  0.00     0.135 A 
ATOM     94  F   UNL A   1      41.436  35.428  35.905  1.00  0.00    -0.206 F 
ATOM     95  C   UNL A   1      40.375  36.039  37.907  1.00  0.00     0.059 A 
ATOM     96  C   UNL A   1      38.837  34.497  38.981  1.00  0.00     0.059 A 
ATOM     97  F   UNL A   1      38.451  32.389  38.030  1.00  0.00    -0.206 F 
ATOM     98  C   UNL A   1      39.495  35.725  38.944  1.00  0.00     0.060 A 
BRANCH  98  99
ATOM     99  S   UNL A   1      39.193  36.960  40.226  1.00  0.00     0.124 S 
ATOM    100  O   UNL A   1      40.549  37.243  40.686  1.00  0.00    -0.237 OA
ATOM    101  O   UNL A   1      38.540  38.031  39.480  1.00  0.00    -0.237 OA
ATOM    102  O   UNL A   1      38.340  36.258  41.180  1.00  0.00    -0.744 OA
ENDBRANCH  98  99
ENDBRANCH  66  91
ENDBRANCH  40  41
ENDBRANCH  32  35
ENDBRANCH  30  31
ENDBRANCH  29  30
ENDBRANCH  28  29
ENDBRANCH   1  28
TORSDOF 20
ENDMDL
