MODEL 1
REMARK VINA RESULT:      -8.9      0.000      0.000
REMARK SMILES CC(=O)Oc1ccccc1SCCCCCC(=O)NCCCCCCNC(=O)c1ccc(-c2c3nc(c(-c4c(F)cc(S(=O)(=O)[O-])cc4F)c4ccc([nH]4)c(-c4c(F)cc(S(=O)(=O)[O-])cc4F)c4nc(c(-c5c(F)cc(S(=O)(=O)[O-])cc5F)c5ccc2[nH]5)C=C4)C=C3)cc1
REMARK SMILES IDX 20 1 19 2 17 3 18 4 16 6 15 7 14 8 13 9 12 10 11 11 10 12
REMARK SMILES IDX 5 13 6 14 7 15 9 16 8 17 4 18 2 19 1 20 3 21 21 22 22 23
REMARK SMILES IDX 23 24 24 25 25 26 26 27 27 28 28 30 29 31 30 32 94 33 31 34
REMARK SMILES IDX 93 35 32 36 33 37 34 38 87 39 35 40 92 41 86 42 88 43 36 44
REMARK SMILES IDX 91 45 85 46 84 47 37 49 71 50 50 51 70 52 51 53 54 54 69 55
REMARK SMILES IDX 89 56 52 57 53 58 68 60 90 61 55 62 38 63 39 64 48 65 40 66
REMARK SMILES IDX 41 67 47 68 49 69 42 70 43 71 44 72 45 73 46 74 72 75 73 76
REMARK SMILES IDX 82 77 74 78 75 79 81 80 83 81 76 82 77 83 78 84 79 85 80 86
REMARK SMILES IDX 56 87 57 88 66 89 58 90 59 91 65 92 67 93 60 94 61 95 62 96
REMARK SMILES IDX 63 97 64 98
REMARK H PARENT 19 5 26 29 88 48 54 59
REMARK Flexibility Score: inf
ROOT
ATOM      1  C   UNL A   1      43.291  20.011  25.456  1.00  0.00     0.116 C 
ENDROOT
BRANCH   1   2
ATOM      2  N   UNL A   1      44.086  19.253  24.514  1.00  0.00    -0.356 N 
ATOM      3  C   UNL A   1      45.401  19.403  24.205  1.00  0.00     0.219 C 
ATOM      4  O   UNL A   1      45.877  18.738  23.286  1.00  0.00    -0.275 OA
ATOM      5  H   UNL A   1      43.612  18.535  24.035  1.00  0.00     0.163 HD
BRANCH   3   6
ATOM      6  C   UNL A   1      46.253  20.374  24.996  1.00  0.00     0.100 C 
BRANCH   6   7
ATOM      7  C   UNL A   1      46.476  21.699  24.274  1.00  0.00     0.010 C 
BRANCH   7   8
ATOM      8  C   UNL A   1      45.250  22.567  23.940  1.00  0.00     0.001 C 
BRANCH   8   9
ATOM      9  C   UNL A   1      44.882  23.652  24.961  1.00  0.00     0.011 C 
BRANCH   9  10
ATOM     10  C   UNL A   1      45.841  24.853  25.051  1.00  0.00     0.075 C 
BRANCH  10  11
ATOM     11  S   UNL A   1      47.058  24.898  26.425  1.00  0.00    -0.122 SA
BRANCH  11  12
ATOM     12  C   UNL A   1      46.657  26.426  27.220  1.00  0.00     0.050 A 
ATOM     13  C   UNL A   1      45.958  26.559  28.425  1.00  0.00     0.144 A 
ATOM     14  C   UNL A   1      45.797  27.820  29.024  1.00  0.00     0.048 A 
ATOM     15  C   UNL A   1      46.321  28.961  28.421  1.00  0.00     0.004 A 
ATOM     16  C   UNL A   1      47.132  27.599  26.601  1.00  0.00     0.019 A 
ATOM     17  C   UNL A   1      46.978  28.852  27.200  1.00  0.00     0.001 A 
BRANCH  13  18
ATOM     18  O   UNL A   1      45.458  25.498  29.265  1.00  0.00    -0.426 OA
BRANCH  18  19
ATOM     19  C   UNL A   1      44.495  24.470  29.245  1.00  0.00     0.308 C 
ATOM     20  C   UNL A   1      44.151  24.116  30.660  1.00  0.00     0.139 C 
ATOM     21  O   UNL A   1      44.051  23.866  28.283  1.00  0.00    -0.252 OA
ENDBRANCH  18  19
ENDBRANCH  13  18
ENDBRANCH  11  12
ENDBRANCH  10  11
ENDBRANCH   9  10
ENDBRANCH   8   9
ENDBRANCH   7   8
ENDBRANCH   6   7
ENDBRANCH   3   6
ENDBRANCH   1   2
BRANCH   1  22
ATOM     22  C   UNL A   1      42.232  19.117  26.095  1.00  0.00     0.021 C 
BRANCH  22  23
ATOM     23  C   UNL A   1      40.896  19.816  26.312  1.00  0.00     0.002 C 
BRANCH  23  24
ATOM     24  C   UNL A   1      40.773  20.512  27.672  1.00  0.00     0.002 C 
BRANCH  24  25
ATOM     25  C   UNL A   1      41.553  21.826  27.817  1.00  0.00     0.021 C 
BRANCH  25  26
ATOM     26  C   UNL A   1      40.792  23.081  27.391  1.00  0.00     0.116 C 
BRANCH  26  27
ATOM     27  N   UNL A   1      41.459  23.763  26.296  1.00  0.00    -0.352 N 
ATOM     28  C   UNL A   1      41.664  25.102  26.093  1.00  0.00     0.251 C 
ATOM     29  H   UNL A   1      41.818  23.174  25.593  1.00  0.00     0.163 HD
ATOM     30  O   UNL A   1      41.991  25.505  24.980  1.00  0.00    -0.269 OA
BRANCH  28  31
ATOM     31  C   UNL A   1      41.495  26.055  27.207  1.00  0.00     0.039 A 
ATOM     32  C   UNL A   1      40.433  25.872  28.097  1.00  0.00     0.014 A 
ATOM     33  C   UNL A   1      42.347  27.155  27.345  1.00  0.00     0.014 A 
ATOM     34  C   UNL A   1      40.250  26.770  29.150  1.00  0.00     0.010 A 
ATOM     35  C   UNL A   1      42.200  28.016  28.429  1.00  0.00     0.010 A 
ATOM     36  C   UNL A   1      41.144  27.837  29.334  1.00  0.00    -0.014 A 
BRANCH  36  37
ATOM     37  C   UNL A   1      40.978  28.787  30.462  1.00  0.00     0.031 A 
ATOM     38  C   UNL A   1      41.840  28.655  31.688  1.00  0.00     0.074 A 
ATOM     39  C   UNL A   1      40.016  29.727  30.403  1.00  0.00     0.049 A 
ATOM     40  N   UNL A   1      41.796  29.336  32.805  1.00  0.00    -0.248 NA
ATOM     41  C   UNL A   1      42.870  27.604  31.666  1.00  0.00     0.031 C 
ATOM     42  C   UNL A   1      39.090  29.920  29.284  1.00  0.00     0.029 A 
ATOM     43  N   UNL A   1      39.646  30.687  31.309  1.00  0.00    -0.354 N 
ATOM     44  C   UNL A   1      42.779  28.790  33.621  1.00  0.00     0.074 A 
ATOM     45  C   UNL A   1      43.372  27.691  32.890  1.00  0.00     0.031 C 
ATOM     46  C   UNL A   1      38.266  30.942  29.567  1.00  0.00     0.029 A 
ATOM     47  C   UNL A   1      38.583  31.455  30.895  1.00  0.00     0.049 A 
ATOM     48  H   UNL A   1      40.098  30.814  32.174  1.00  0.00     0.167 HD
ATOM     49  C   UNL A   1      43.167  29.184  34.858  1.00  0.00     0.037 A 
ATOM     50  C   UNL A   1      37.933  32.455  31.521  1.00  0.00     0.037 A 
ATOM     51  C   UNL A   1      42.590  30.295  35.567  1.00  0.00     0.049 A 
ATOM     52  C   UNL A   1      38.392  32.883  32.888  1.00  0.00     0.074 A 
ATOM     53  C   UNL A   1      42.942  30.805  36.805  1.00  0.00     0.029 A 
ATOM     54  N   UNL A   1      41.540  31.073  35.099  1.00  0.00    -0.354 N 
ATOM     55  N   UNL A   1      39.357  32.389  33.625  1.00  0.00    -0.248 NA
ATOM     56  C   UNL A   1      37.679  34.010  33.506  1.00  0.00     0.031 C 
ATOM     57  C   UNL A   1      42.086  31.871  37.098  1.00  0.00     0.029 A 
ATOM     58  C   UNL A   1      41.226  32.052  36.027  1.00  0.00     0.049 A 
ATOM     59  H   UNL A   1      41.086  30.947  34.235  1.00  0.00     0.167 HD
ATOM     60  C   UNL A   1      39.384  33.157  34.783  1.00  0.00     0.074 A 
ATOM     61  C   UNL A   1      38.346  34.158  34.643  1.00  0.00     0.031 C 
ATOM     62  C   UNL A   1      40.194  33.044  35.864  1.00  0.00     0.037 A 
BRANCH  49  63
ATOM     63  C   UNL A   1      44.278  28.414  35.517  1.00  0.00     0.058 A 
ATOM     64  C   UNL A   1      44.014  27.311  36.343  1.00  0.00     0.135 A 
ATOM     65  C   UNL A   1      45.620  28.758  35.292  1.00  0.00     0.135 A 
ATOM     66  F   UNL A   1      42.748  26.948  36.605  1.00  0.00    -0.206 F 
ATOM     67  C   UNL A   1      45.040  26.591  36.946  1.00  0.00     0.059 A 
ATOM     68  C   UNL A   1      46.665  28.035  35.865  1.00  0.00     0.059 A 
ATOM     69  F   UNL A   1      45.929  29.804  34.511  1.00  0.00    -0.206 F 
ATOM     70  C   UNL A   1      46.363  26.962  36.703  1.00  0.00     0.060 A 
BRANCH  70  71
ATOM     71  S   UNL A   1      47.684  26.014  37.487  1.00  0.00     0.124 S 
ATOM     72  O   UNL A   1      48.622  27.070  37.851  1.00  0.00    -0.237 OA
ATOM     73  O   UNL A   1      46.992  25.371  38.600  1.00  0.00    -0.237 OA
ATOM     74  O   UNL A   1      48.132  25.115  36.427  1.00  0.00    -0.744 OA
ENDBRANCH  70  71
ENDBRANCH  49  63
BRANCH  50  75
ATOM     75  C   UNL A   1      36.791  33.130  30.852  1.00  0.00     0.058 A 
ATOM     76  C   UNL A   1      35.467  32.825  31.203  1.00  0.00     0.135 A 
ATOM     77  C   UNL A   1      36.998  34.100  29.859  1.00  0.00     0.135 A 
ATOM     78  F   UNL A   1      35.218  31.902  32.144  1.00  0.00    -0.206 F 
ATOM     79  C   UNL A   1      34.388  33.446  30.582  1.00  0.00     0.059 A 
ATOM     80  C   UNL A   1      35.936  34.751  29.240  1.00  0.00     0.059 A 
ATOM     81  F   UNL A   1      38.246  34.440  29.502  1.00  0.00    -0.206 F 
ATOM     82  C   UNL A   1      34.633  34.408  29.601  1.00  0.00     0.060 A 
BRANCH  82  83
ATOM     83  S   UNL A   1      33.227  35.242  28.834  1.00  0.00     0.124 S 
ATOM     84  O   UNL A   1      32.611  34.151  28.086  1.00  0.00    -0.237 OA
ATOM     85  O   UNL A   1      32.482  35.722  29.994  1.00  0.00    -0.237 OA
ATOM     86  O   UNL A   1      33.856  36.285  28.029  1.00  0.00    -0.744 OA
ENDBRANCH  82  83
ENDBRANCH  50  75
BRANCH  62  87
ATOM     87  C   UNL A   1      40.012  34.047  36.969  1.00  0.00     0.058 A 
ATOM     88  C   UNL A   1      39.146  33.805  38.046  1.00  0.00     0.135 A 
ATOM     89  C   UNL A   1      40.751  35.241  36.972  1.00  0.00     0.135 A 
ATOM     90  F   UNL A   1      38.413  32.681  38.084  1.00  0.00    -0.206 F 
ATOM     91  C   UNL A   1      39.003  34.723  39.081  1.00  0.00     0.059 A 
ATOM     92  C   UNL A   1      40.641  36.161  38.009  1.00  0.00     0.059 A 
ATOM     93  F   UNL A   1      41.600  35.515  35.969  1.00  0.00    -0.206 F 
ATOM     94  C   UNL A   1      39.757  35.899  39.055  1.00  0.00     0.060 A 
BRANCH  94  95
ATOM     95  S   UNL A   1      39.591  37.066  40.421  1.00  0.00     0.124 S 
ATOM     96  O   UNL A   1      40.633  38.037  40.108  1.00  0.00    -0.237 OA
ATOM     97  O   UNL A   1      38.218  37.539  40.266  1.00  0.00    -0.237 OA
ATOM     98  O   UNL A   1      39.832  36.243  41.602  1.00  0.00    -0.744 OA
ENDBRANCH  94  95
ENDBRANCH  62  87
ENDBRANCH  36  37
ENDBRANCH  28  31
ENDBRANCH  26  27
ENDBRANCH  25  26
ENDBRANCH  24  25
ENDBRANCH  23  24
ENDBRANCH  22  23
ENDBRANCH   1  22
TORSDOF 24
ENDMDL
MODEL 2
REMARK VINA RESULT:      -7.9      6.775     15.834
REMARK SMILES CC(=O)Oc1ccccc1SCCCCCC(=O)NCCCCCCNC(=O)c1ccc(-c2c3nc(c(-c4c(F)cc(S(=O)(=O)[O-])cc4F)c4ccc([nH]4)c(-c4c(F)cc(S(=O)(=O)[O-])cc4F)c4nc(c(-c5c(F)cc(S(=O)(=O)[O-])cc5F)c5ccc2[nH]5)C=C4)C=C3)cc1
REMARK SMILES IDX 20 1 19 2 17 3 18 4 16 6 15 7 14 8 13 9 12 10 11 11 10 12
REMARK SMILES IDX 5 13 6 14 7 15 9 16 8 17 4 18 2 19 1 20 3 21 21 22 22 23
REMARK SMILES IDX 23 24 24 25 25 26 26 27 27 28 28 30 29 31 30 32 94 33 31 34
REMARK SMILES IDX 93 35 32 36 33 37 34 38 87 39 35 40 92 41 86 42 88 43 36 44
REMARK SMILES IDX 91 45 85 46 84 47 37 49 71 50 50 51 70 52 51 53 54 54 69 55
REMARK SMILES IDX 89 56 52 57 53 58 68 60 90 61 55 62 38 63 39 64 48 65 40 66
REMARK SMILES IDX 41 67 47 68 49 69 42 70 43 71 44 72 45 73 46 74 72 75 73 76
REMARK SMILES IDX 82 77 74 78 75 79 81 80 83 81 76 82 77 83 78 84 79 85 80 86
REMARK SMILES IDX 56 87 57 88 66 89 58 90 59 91 65 92 67 93 60 94 61 95 62 96
REMARK SMILES IDX 63 97 64 98
REMARK H PARENT 19 5 26 29 88 48 54 59
REMARK Flexibility Score: inf
ROOT
ATOM      1  C   UNL A   1      45.233  42.311  34.819  1.00  0.00     0.116 C 
ENDROOT
BRANCH   1   2
ATOM      2  N   UNL A   1      43.952  42.757  35.321  1.00  0.00    -0.356 N 
ATOM      3  C   UNL A   1      42.766  42.837  34.661  1.00  0.00     0.219 C 
ATOM      4  O   UNL A   1      41.803  43.356  35.225  1.00  0.00    -0.275 OA
ATOM      5  H   UNL A   1      43.937  43.039  36.264  1.00  0.00     0.163 HD
BRANCH   3   6
ATOM      6  C   UNL A   1      42.650  42.283  33.256  1.00  0.00     0.100 C 
BRANCH   6   7
ATOM      7  C   UNL A   1      42.717  43.363  32.180  1.00  0.00     0.010 C 
BRANCH   7   8
ATOM      8  C   UNL A   1      44.097  43.758  31.625  1.00  0.00     0.001 C 
BRANCH   8   9
ATOM      9  C   UNL A   1      44.416  43.297  30.197  1.00  0.00     0.011 C 
BRANCH   9  10
ATOM     10  C   UNL A   1      44.532  41.777  29.984  1.00  0.00     0.075 C 
BRANCH  10  11
ATOM     11  S   UNL A   1      45.181  41.165  28.379  1.00  0.00    -0.122 SA
BRANCH  11  12
ATOM     12  C   UNL A   1      43.693  40.790  27.501  1.00  0.00     0.050 A 
ATOM     13  C   UNL A   1      43.212  41.477  26.381  1.00  0.00     0.144 A 
ATOM     14  C   UNL A   1      42.076  41.018  25.693  1.00  0.00     0.048 A 
ATOM     15  C   UNL A   1      41.403  39.876  26.122  1.00  0.00     0.004 A 
ATOM     16  C   UNL A   1      42.966  39.670  27.949  1.00  0.00     0.019 A 
ATOM     17  C   UNL A   1      41.841  39.208  27.260  1.00  0.00     0.001 A 
BRANCH  13  18
ATOM     18  O   UNL A   1      43.834  42.591  25.707  1.00  0.00    -0.426 OA
BRANCH  18  19
ATOM     19  C   UNL A   1      44.876  42.856  24.797  1.00  0.00     0.308 C 
ATOM     20  C   UNL A   1      45.687  41.608  24.630  1.00  0.00     0.139 C 
ATOM     21  O   UNL A   1      45.175  43.917  24.276  1.00  0.00    -0.252 OA
ENDBRANCH  18  19
ENDBRANCH  13  18
ENDBRANCH  11  12
ENDBRANCH  10  11
ENDBRANCH   9  10
ENDBRANCH   8   9
ENDBRANCH   7   8
ENDBRANCH   6   7
ENDBRANCH   3   6
ENDBRANCH   1   2
BRANCH   1  22
ATOM     22  C   UNL A   1      45.221  40.800  34.602  1.00  0.00     0.021 C 
BRANCH  22  23
ATOM     23  C   UNL A   1      45.803  40.373  33.261  1.00  0.00     0.002 C 
BRANCH  23  24
ATOM     24  C   UNL A   1      45.350  38.982  32.803  1.00  0.00     0.002 C 
BRANCH  24  25
ATOM     25  C   UNL A   1      46.453  38.080  32.233  1.00  0.00     0.021 C 
BRANCH  25  26
ATOM     26  C   UNL A   1      46.155  37.482  30.859  1.00  0.00     0.116 C 
BRANCH  26  27
ATOM     27  N   UNL A   1      47.216  37.769  29.910  1.00  0.00    -0.352 N 
ATOM     28  C   UNL A   1      47.932  36.917  29.110  1.00  0.00     0.251 C 
ATOM     29  H   UNL A   1      47.458  38.720  29.828  1.00  0.00     0.163 HD
ATOM     30  O   UNL A   1      48.974  37.304  28.590  1.00  0.00    -0.269 OA
BRANCH  28  31
ATOM     31  C   UNL A   1      47.450  35.542  28.875  1.00  0.00     0.039 A 
ATOM     32  C   UNL A   1      47.673  34.571  29.855  1.00  0.00     0.014 A 
ATOM     33  C   UNL A   1      46.827  35.198  27.672  1.00  0.00     0.014 A 
ATOM     34  C   UNL A   1      47.235  33.263  29.644  1.00  0.00     0.010 A 
ATOM     35  C   UNL A   1      46.337  33.908  27.488  1.00  0.00     0.010 A 
ATOM     36  C   UNL A   1      46.547  32.927  28.468  1.00  0.00    -0.014 A 
BRANCH  36  37
ATOM     37  C   UNL A   1      46.053  31.546  28.238  1.00  0.00     0.031 A 
ATOM     38  C   UNL A   1      44.639  31.184  28.601  1.00  0.00     0.074 A 
ATOM     39  C   UNL A   1      46.895  30.611  27.759  1.00  0.00     0.049 A 
ATOM     40  N   UNL A   1      44.046  30.018  28.549  1.00  0.00    -0.248 NA
ATOM     41  C   UNL A   1      43.786  32.269  29.114  1.00  0.00     0.031 C 
ATOM     42  C   UNL A   1      48.300  30.835  27.415  1.00  0.00     0.029 A 
ATOM     43  N   UNL A   1      46.696  29.281  27.491  1.00  0.00    -0.354 N 
ATOM     44  C   UNL A   1      42.759  30.226  29.032  1.00  0.00     0.074 A 
ATOM     45  C   UNL A   1      42.672  31.617  29.416  1.00  0.00     0.031 C 
ATOM     46  C   UNL A   1      48.834  29.685  26.973  1.00  0.00     0.029 A 
ATOM     47  C   UNL A   1      47.821  28.637  27.031  1.00  0.00     0.049 A 
ATOM     48  H   UNL A   1      45.830  28.830  27.618  1.00  0.00     0.167 HD
ATOM     49  C   UNL A   1      41.738  29.341  29.124  1.00  0.00     0.037 A 
ATOM     50  C   UNL A   1      48.013  27.345  26.701  1.00  0.00     0.037 A 
ATOM     51  C   UNL A   1      41.826  27.964  28.714  1.00  0.00     0.049 A 
ATOM     52  C   UNL A   1      46.859  26.385  26.799  1.00  0.00     0.074 A 
ATOM     53  C   UNL A   1      40.836  26.997  28.724  1.00  0.00     0.029 A 
ATOM     54  N   UNL A   1      42.971  27.358  28.217  1.00  0.00    -0.354 N 
ATOM     55  N   UNL A   1      45.634  26.610  27.210  1.00  0.00    -0.248 NA
ATOM     56  C   UNL A   1      47.111  24.999  26.382  1.00  0.00     0.031 C 
ATOM     57  C   UNL A   1      41.390  25.799  28.260  1.00  0.00     0.029 A 
ATOM     58  C   UNL A   1      42.714  26.029  27.925  1.00  0.00     0.049 A 
ATOM     59  H   UNL A   1      43.837  27.807  28.091  1.00  0.00     0.167 HD
ATOM     60  C   UNL A   1      44.962  25.400  27.079  1.00  0.00     0.074 A 
ATOM     61  C   UNL A   1      45.913  24.450  26.540  1.00  0.00     0.031 C 
ATOM     62  C   UNL A   1      43.674  25.102  27.380  1.00  0.00     0.037 A 
BRANCH  49  63
ATOM     63  C   UNL A   1      40.433  29.840  29.679  1.00  0.00     0.058 A 
ATOM     64  C   UNL A   1      39.310  30.026  28.858  1.00  0.00     0.135 A 
ATOM     65  C   UNL A   1      40.290  30.100  31.052  1.00  0.00     0.135 A 
ATOM     66  F   UNL A   1      39.395  29.807  27.536  1.00  0.00    -0.206 F 
ATOM     67  C   UNL A   1      38.099  30.478  29.372  1.00  0.00     0.059 A 
ATOM     68  C   UNL A   1      39.080  30.529  31.592  1.00  0.00     0.059 A 
ATOM     69  F   UNL A   1      41.332  29.940  31.882  1.00  0.00    -0.206 F 
ATOM     70  C   UNL A   1      37.994  30.729  30.741  1.00  0.00     0.060 A 
BRANCH  70  71
ATOM     71  S   UNL A   1      36.414  31.308  31.393  1.00  0.00     0.124 S 
ATOM     72  O   UNL A   1      35.621  31.423  30.173  1.00  0.00    -0.237 OA
ATOM     73  O   UNL A   1      36.032  30.228  32.297  1.00  0.00    -0.237 OA
ATOM     74  O   UNL A   1      36.756  32.572  32.040  1.00  0.00    -0.744 OA
ENDBRANCH  70  71
ENDBRANCH  49  63
BRANCH  50  75
ATOM     75  C   UNL A   1      49.348  26.892  26.231  1.00  0.00     0.058 A 
ATOM     76  C   UNL A   1      49.711  27.000  24.880  1.00  0.00     0.135 A 
ATOM     77  C   UNL A   1      50.290  26.357  27.122  1.00  0.00     0.135 A 
ATOM     78  F   UNL A   1      48.842  27.502  23.990  1.00  0.00    -0.206 F 
ATOM     79  C   UNL A   1      50.956  26.576  24.425  1.00  0.00     0.059 A 
ATOM     80  C   UNL A   1      51.550  25.947  26.695  1.00  0.00     0.059 A 
ATOM     81  F   UNL A   1      49.997  26.251  28.427  1.00  0.00    -0.206 F 
ATOM     82  C   UNL A   1      51.869  26.050  25.341  1.00  0.00     0.060 A 
BRANCH  82  83
ATOM     83  S   UNL A   1      53.499  25.547  24.750  1.00  0.00     0.124 S 
ATOM     84  O   UNL A   1      53.478  24.113  25.020  1.00  0.00    -0.237 OA
ATOM     85  O   UNL A   1      53.449  25.931  23.343  1.00  0.00    -0.237 OA
ATOM     86  O   UNL A   1      54.411  26.333  25.574  1.00  0.00    -0.744 OA
ENDBRANCH  82  83
ENDBRANCH  50  75
BRANCH  62  87
ATOM     87  C   UNL A   1      43.209  23.700  27.102  1.00  0.00     0.058 A 
ATOM     88  C   UNL A   1      42.936  23.262  25.797  1.00  0.00     0.135 A 
ATOM     89  C   UNL A   1      43.083  22.773  28.148  1.00  0.00     0.135 A 
ATOM     90  F   UNL A   1      43.035  24.112  24.764  1.00  0.00    -0.206 F 
ATOM     91  C   UNL A   1      42.535  21.955  25.541  1.00  0.00     0.059 A 
ATOM     92  C   UNL A   1      42.707  21.455  27.913  1.00  0.00     0.059 A 
ATOM     93  F   UNL A   1      43.342  23.141  29.413  1.00  0.00    -0.206 F 
ATOM     94  C   UNL A   1      42.424  21.057  26.607  1.00  0.00     0.060 A 
BRANCH  94  95
ATOM     95  S   UNL A   1      41.938  19.354  26.259  1.00  0.00     0.124 S 
ATOM     96  O   UNL A   1      40.491  19.482  26.132  1.00  0.00    -0.237 OA
ATOM     97  O   UNL A   1      42.660  19.067  25.023  1.00  0.00    -0.237 OA
ATOM     98  O   UNL A   1      42.405  18.622  27.433  1.00  0.00    -0.744 OA
ENDBRANCH  94  95
ENDBRANCH  62  87
ENDBRANCH  36  37
ENDBRANCH  28  31
ENDBRANCH  26  27
ENDBRANCH  25  26
ENDBRANCH  24  25
ENDBRANCH  23  24
ENDBRANCH  22  23
ENDBRANCH   1  22
TORSDOF 24
ENDMDL
MODEL 3
REMARK VINA RESULT:      -7.7      5.164     12.786
REMARK SMILES CC(=O)Oc1ccccc1SCCCCCC(=O)NCCCCCCNC(=O)c1ccc(-c2c3nc(c(-c4c(F)cc(S(=O)(=O)[O-])cc4F)c4ccc([nH]4)c(-c4c(F)cc(S(=O)(=O)[O-])cc4F)c4nc(c(-c5c(F)cc(S(=O)(=O)[O-])cc5F)c5ccc2[nH]5)C=C4)C=C3)cc1
REMARK SMILES IDX 20 1 19 2 17 3 18 4 16 6 15 7 14 8 13 9 12 10 11 11 10 12
REMARK SMILES IDX 5 13 6 14 7 15 9 16 8 17 4 18 2 19 1 20 3 21 21 22 22 23
REMARK SMILES IDX 23 24 24 25 25 26 26 27 27 28 28 30 29 31 30 32 94 33 31 34
REMARK SMILES IDX 93 35 32 36 33 37 34 38 87 39 35 40 92 41 86 42 88 43 36 44
REMARK SMILES IDX 91 45 85 46 84 47 37 49 71 50 50 51 70 52 51 53 54 54 69 55
REMARK SMILES IDX 89 56 52 57 53 58 68 60 90 61 55 62 38 63 39 64 48 65 40 66
REMARK SMILES IDX 41 67 47 68 49 69 42 70 43 71 44 72 45 73 46 74 72 75 73 76
REMARK SMILES IDX 82 77 74 78 75 79 81 80 83 81 76 82 77 83 78 84 79 85 80 86
REMARK SMILES IDX 56 87 57 88 66 89 58 90 59 91 65 92 67 93 60 94 61 95 62 96
REMARK SMILES IDX 63 97 64 98
REMARK H PARENT 19 5 26 29 88 48 54 59
REMARK Flexibility Score: inf
ROOT
ATOM      1  C   UNL A   1      39.704  33.497  31.263  1.00  0.00     0.116 C 
ENDROOT
BRANCH   1   2
ATOM      2  N   UNL A   1      40.721  34.315  30.637  1.00  0.00    -0.356 N 
ATOM      3  C   UNL A   1      42.047  34.384  30.926  1.00  0.00     0.219 C 
ATOM      4  O   UNL A   1      42.738  35.232  30.361  1.00  0.00    -0.275 OA
ATOM      5  H   UNL A   1      40.411  34.896  29.905  1.00  0.00     0.163 HD
BRANCH   3   6
ATOM      6  C   UNL A   1      42.648  33.420  31.927  1.00  0.00     0.100 C 
BRANCH   6   7
ATOM      7  C   UNL A   1      44.168  33.326  31.828  1.00  0.00     0.010 C 
BRANCH   7   8
ATOM      8  C   UNL A   1      44.936  32.644  32.975  1.00  0.00     0.001 C 
BRANCH   8   9
ATOM      9  C   UNL A   1      44.883  31.111  33.017  1.00  0.00     0.011 C 
BRANCH   9  10
ATOM     10  C   UNL A   1      44.513  30.408  31.699  1.00  0.00     0.075 C 
BRANCH  10  11
ATOM     11  S   UNL A   1      43.767  28.732  31.781  1.00  0.00    -0.122 SA
BRANCH  11  12
ATOM     12  C   UNL A   1      45.193  27.692  31.680  1.00  0.00     0.050 A 
ATOM     13  C   UNL A   1      45.601  26.771  32.652  1.00  0.00     0.144 A 
ATOM     14  C   UNL A   1      46.688  25.912  32.414  1.00  0.00     0.048 A 
ATOM     15  C   UNL A   1      47.384  25.971  31.209  1.00  0.00     0.004 A 
ATOM     16  C   UNL A   1      45.944  27.770  30.491  1.00  0.00     0.019 A 
ATOM     17  C   UNL A   1      47.020  26.911  30.251  1.00  0.00     0.001 A 
BRANCH  13  18
ATOM     18  O   UNL A   1      44.940  26.467  33.898  1.00  0.00    -0.426 OA
BRANCH  18  19
ATOM     19  C   UNL A   1      43.741  25.901  34.373  1.00  0.00     0.308 C 
ATOM     20  C   UNL A   1      44.036  24.523  34.880  1.00  0.00     0.139 C 
ATOM     21  O   UNL A   1      42.613  26.362  34.321  1.00  0.00    -0.252 OA
ENDBRANCH  18  19
ENDBRANCH  13  18
ENDBRANCH  11  12
ENDBRANCH  10  11
ENDBRANCH   9  10
ENDBRANCH   8   9
ENDBRANCH   7   8
ENDBRANCH   6   7
ENDBRANCH   3   6
ENDBRANCH   1   2
BRANCH   1  22
ATOM     22  C   UNL A   1      39.702  33.719  32.773  1.00  0.00     0.021 C 
BRANCH  22  23
ATOM     23  C   UNL A   1      38.688  32.855  33.513  1.00  0.00     0.002 C 
BRANCH  23  24
ATOM     24  C   UNL A   1      37.230  33.167  33.158  1.00  0.00     0.002 C 
BRANCH  24  25
ATOM     25  C   UNL A   1      36.276  31.965  33.163  1.00  0.00     0.021 C 
BRANCH  25  26
ATOM     26  C   UNL A   1      36.709  30.790  32.287  1.00  0.00     0.116 C 
BRANCH  26  27
ATOM     27  N   UNL A   1      35.891  30.686  31.091  1.00  0.00    -0.352 N 
ATOM     28  C   UNL A   1      36.267  30.543  29.781  1.00  0.00     0.251 C 
ATOM     29  H   UNL A   1      34.919  30.722  31.245  1.00  0.00     0.163 HD
ATOM     30  O   UNL A   1      35.453  30.758  28.888  1.00  0.00    -0.269 OA
BRANCH  28  31
ATOM     31  C   UNL A   1      37.644  30.131  29.447  1.00  0.00     0.039 A 
ATOM     32  C   UNL A   1      37.974  29.898  28.110  1.00  0.00     0.014 A 
ATOM     33  C   UNL A   1      38.593  29.923  30.453  1.00  0.00     0.014 A 
ATOM     34  C   UNL A   1      39.268  29.496  27.776  1.00  0.00     0.010 A 
ATOM     35  C   UNL A   1      39.899  29.580  30.115  1.00  0.00     0.010 A 
ATOM     36  C   UNL A   1      40.245  29.353  28.774  1.00  0.00    -0.014 A 
BRANCH  36  37
ATOM     37  C   UNL A   1      41.632  28.950  28.435  1.00  0.00     0.031 A 
ATOM     38  C   UNL A   1      42.722  29.984  28.374  1.00  0.00     0.074 A 
ATOM     39  C   UNL A   1      41.894  27.665  28.127  1.00  0.00     0.049 A 
ATOM     40  N   UNL A   1      43.975  29.844  28.023  1.00  0.00    -0.248 NA
ATOM     41  C   UNL A   1      42.350  31.364  28.730  1.00  0.00     0.031 C 
ATOM     42  C   UNL A   1      40.908  26.582  28.109  1.00  0.00     0.029 A 
ATOM     43  N   UNL A   1      43.064  27.054  27.758  1.00  0.00    -0.354 N 
ATOM     44  C   UNL A   1      44.536  31.113  28.103  1.00  0.00     0.074 A 
ATOM     45  C   UNL A   1      43.477  32.019  28.490  1.00  0.00     0.031 C 
ATOM     46  C   UNL A   1      41.517  25.439  27.756  1.00  0.00     0.029 A 
ATOM     47  C   UNL A   1      42.926  25.711  27.495  1.00  0.00     0.049 A 
ATOM     48  H   UNL A   1      43.922  27.531  27.687  1.00  0.00     0.167 HD
ATOM     49  C   UNL A   1      45.822  31.484  27.895  1.00  0.00     0.037 A 
ATOM     50  C   UNL A   1      43.832  24.805  27.080  1.00  0.00     0.037 A 
ATOM     51  C   UNL A   1      46.875  30.572  27.535  1.00  0.00     0.049 A 
ATOM     52  C   UNL A   1      45.257  25.240  26.869  1.00  0.00     0.074 A 
ATOM     53  C   UNL A   1      48.220  30.839  27.346  1.00  0.00     0.029 A 
ATOM     54  N   UNL A   1      46.704  29.213  27.314  1.00  0.00    -0.354 N 
ATOM     55  N   UNL A   1      45.781  26.434  26.999  1.00  0.00    -0.248 NA
ATOM     56  C   UNL A   1      46.215  24.202  26.464  1.00  0.00     0.031 C 
ATOM     57  C   UNL A   1      48.856  29.647  26.982  1.00  0.00     0.029 A 
ATOM     58  C   UNL A   1      47.915  28.630  26.982  1.00  0.00     0.049 A 
ATOM     59  H   UNL A   1      45.847  28.734  27.383  1.00  0.00     0.167 HD
ATOM     60  C   UNL A   1      47.134  26.289  26.714  1.00  0.00     0.074 A 
ATOM     61  C   UNL A   1      47.349  24.888  26.417  1.00  0.00     0.031 C 
ATOM     62  C   UNL A   1      48.109  27.231  26.698  1.00  0.00     0.037 A 
BRANCH  49  63
ATOM     63  C   UNL A   1      46.162  32.939  28.062  1.00  0.00     0.058 A 
ATOM     64  C   UNL A   1      46.743  33.425  29.244  1.00  0.00     0.135 A 
ATOM     65  C   UNL A   1      45.941  33.852  27.019  1.00  0.00     0.135 A 
ATOM     66  F   UNL A   1      46.961  32.598  30.280  1.00  0.00    -0.206 F 
ATOM     67  C   UNL A   1      47.067  34.769  29.398  1.00  0.00     0.059 A 
ATOM     68  C   UNL A   1      46.282  35.197  27.141  1.00  0.00     0.059 A 
ATOM     69  F   UNL A   1      45.388  33.442  25.867  1.00  0.00    -0.206 F 
ATOM     70  C   UNL A   1      46.831  35.648  28.341  1.00  0.00     0.060 A 
BRANCH  70  71
ATOM     71  S   UNL A   1      47.264  37.388  28.552  1.00  0.00     0.124 S 
ATOM     72  O   UNL A   1      48.722  37.323  28.569  1.00  0.00    -0.237 OA
ATOM     73  O   UNL A   1      46.672  38.006  27.371  1.00  0.00    -0.237 OA
ATOM     74  O   UNL A   1      46.638  37.742  29.823  1.00  0.00    -0.744 OA
ENDBRANCH  70  71
ENDBRANCH  49  63
BRANCH  50  75
ATOM     75  C   UNL A   1      43.421  23.395  26.856  1.00  0.00     0.058 A 
ATOM     76  C   UNL A   1      43.131  22.549  27.936  1.00  0.00     0.135 A 
ATOM     77  C   UNL A   1      43.296  22.871  25.561  1.00  0.00     0.135 A 
ATOM     78  F   UNL A   1      43.239  23.004  29.193  1.00  0.00    -0.206 F 
ATOM     79  C   UNL A   1      42.748  21.225  27.741  1.00  0.00     0.059 A 
ATOM     80  C   UNL A   1      42.893  21.557  25.340  1.00  0.00     0.059 A 
ATOM     81  F   UNL A   1      43.544  23.647  24.494  1.00  0.00    -0.206 F 
ATOM     82  C   UNL A   1      42.632  20.738  26.438  1.00  0.00     0.060 A 
BRANCH  82  83
ATOM     83  S   UNL A   1      42.090  19.034  26.193  1.00  0.00     0.124 S 
ATOM     84  O   UNL A   1      43.026  18.572  25.174  1.00  0.00    -0.237 OA
ATOM     85  O   UNL A   1      42.263  18.461  27.524  1.00  0.00    -0.237 OA
ATOM     86  O   UNL A   1      40.705  19.183  25.759  1.00  0.00    -0.744 OA
ENDBRANCH  82  83
ENDBRANCH  50  75
BRANCH  62  87
ATOM     87  C   UNL A   1      49.505  26.771  26.380  1.00  0.00     0.058 A 
ATOM     88  C   UNL A   1      50.389  26.355  27.387  1.00  0.00     0.135 A 
ATOM     89  C   UNL A   1      49.942  26.701  25.048  1.00  0.00     0.135 A 
ATOM     90  F   UNL A   1      50.019  26.410  28.676  1.00  0.00    -0.206 F 
ATOM     91  C   UNL A   1      51.668  25.901  27.085  1.00  0.00     0.059 A 
ATOM     92  C   UNL A   1      51.209  26.228  24.722  1.00  0.00     0.059 A 
ATOM     93  F   UNL A   1      49.131  27.079  24.048  1.00  0.00    -0.206 F 
ATOM     94  C   UNL A   1      52.070  25.840  25.748  1.00  0.00     0.060 A 
BRANCH  94  95
ATOM     95  S   UNL A   1      53.720  25.217  25.366  1.00  0.00     0.124 S 
ATOM     96  O   UNL A   1      54.545  25.978  26.298  1.00  0.00    -0.237 OA
ATOM     97  O   UNL A   1      53.591  23.791  25.651  1.00  0.00    -0.237 OA
ATOM     98  O   UNL A   1      53.891  25.553  23.955  1.00  0.00    -0.744 OA
ENDBRANCH  94  95
ENDBRANCH  62  87
ENDBRANCH  36  37
ENDBRANCH  28  31
ENDBRANCH  26  27
ENDBRANCH  25  26
ENDBRANCH  24  25
ENDBRANCH  23  24
ENDBRANCH  22  23
ENDBRANCH   1  22
TORSDOF 24
ENDMDL
