MODEL 1
REMARK VINA RESULT:     -11.7      0.000      0.000
REMARK SMILES N#Cc1ccccc1S(=O)(=O)N1CCC(C(=O)NCCCCCCNC(=O)c2ccc(-c3c4nc(c(-c5c(F)cc(S(=O)(=O)[O-])cc5F)c5ccc([nH]5)c(-c5c(F)cc(S(=O)(=O)[O-])cc5F)c5nc(c(-c6c(F)cc(S(=O)(=O)[O-])cc6F)c6ccc3[nH]6)C=C5)C=C4)cc2)CC1
REMARK SMILES IDX 21 1 20 2 19 3 18 4 16 5 17 6 15 8 12 9 13 10 95 11 14 12
REMARK SMILES IDX 94 13 9 14 10 15 11 16 8 17 3 18 4 19 5 20 7 21 6 22 2 23
REMARK SMILES IDX 1 24 22 25 23 26 24 27 25 28 26 29 27 31 28 32 29 33 93 34
REMARK SMILES IDX 30 35 92 36 31 37 32 38 33 39 86 40 34 41 91 42 85 43 87 44
REMARK SMILES IDX 35 45 90 46 84 47 83 48 36 50 70 51 49 52 69 53 50 54 53 55
REMARK SMILES IDX 68 56 88 57 51 58 52 59 67 61 89 62 54 63 37 64 38 65 47 66
REMARK SMILES IDX 39 67 40 68 46 69 48 70 41 71 42 72 43 73 44 74 45 75 71 76
REMARK SMILES IDX 72 77 81 78 73 79 74 80 80 81 82 82 75 83 76 84 77 85 78 86
REMARK SMILES IDX 79 87 55 88 56 89 65 90 57 91 58 92 64 93 66 94 59 95 60 96
REMARK SMILES IDX 61 97 62 98 63 99
REMARK H PARENT 18 7 25 30 87 49 53 60
REMARK Flexibility Score: inf
ROOT
ATOM      1  C   UNL A   1      37.753  21.631  25.429  1.00  0.00     0.002 C 
ENDROOT
BRANCH   1   2
ATOM      2  C   UNL A   1      36.546  20.746  25.113  1.00  0.00     0.021 C 
BRANCH   2   3
ATOM      3  C   UNL A   1      35.215  21.397  25.467  1.00  0.00     0.116 C 
BRANCH   3   4
ATOM      4  N   UNL A   1      34.148  20.412  25.482  1.00  0.00    -0.356 N 
ATOM      5  C   UNL A   1      32.872  20.484  25.019  1.00  0.00     0.223 C 
ATOM      6  O   UNL A   1      32.119  19.532  25.234  1.00  0.00    -0.275 OA
ATOM      7  H   UNL A   1      34.388  19.551  25.895  1.00  0.00     0.163 HD
BRANCH   5   8
ATOM      8  C   UNL A   1      32.400  21.695  24.232  1.00  0.00     0.081 C 
ATOM      9  N   UNL A   1      32.779  24.373  23.155  1.00  0.00    -0.198 NA
ATOM     10  C   UNL A   1      32.128  24.257  24.471  1.00  0.00     0.103 C 
ATOM     11  C   UNL A   1      33.052  23.214  22.295  1.00  0.00     0.103 C 
ATOM     12  C   UNL A   1      32.182  22.899  25.139  1.00  0.00     0.030 C 
ATOM     13  C   UNL A   1      33.318  21.931  23.042  1.00  0.00     0.030 C 
BRANCH   9  14
ATOM     14  S   UNL A   1      32.650  25.878  22.391  1.00  0.00     0.244 S 
ATOM     15  O   UNL A   1      31.430  25.849  21.609  1.00  0.00    -0.207 OA
ATOM     16  O   UNL A   1      33.927  26.169  21.774  1.00  0.00    -0.207 OA
BRANCH  14  17
ATOM     17  C   UNL A   1      32.400  27.179  23.588  1.00  0.00     0.100 A 
ATOM     18  C   UNL A   1      31.195  27.659  24.106  1.00  0.00     0.072 A 
ATOM     19  C   UNL A   1      31.220  28.735  25.018  1.00  0.00     0.021 A 
ATOM     20  C   UNL A   1      32.416  29.311  25.431  1.00  0.00     0.001 A 
ATOM     21  C   UNL A   1      33.608  27.768  24.021  1.00  0.00     0.023 A 
ATOM     22  C   UNL A   1      33.616  28.819  24.938  1.00  0.00     0.001 A 
BRANCH  18  23
ATOM     23  C   UNL A   1      29.884  27.165  23.841  1.00  0.00     0.101 C 
ATOM     24  N   UNL A   1      28.778  26.866  23.681  1.00  0.00    -0.192 NA
ENDBRANCH  18  23
ENDBRANCH  14  17
ENDBRANCH   9  14
ENDBRANCH   5   8
ENDBRANCH   3   4
ENDBRANCH   2   3
ENDBRANCH   1   2
BRANCH   1  25
ATOM     25  C   UNL A   1      37.509  23.129  25.218  1.00  0.00     0.002 C 
BRANCH  25  26
ATOM     26  C   UNL A   1      37.867  24.006  26.420  1.00  0.00     0.021 C 
BRANCH  26  27
ATOM     27  C   UNL A   1      39.286  23.805  26.932  1.00  0.00     0.116 C 
BRANCH  27  28
ATOM     28  N   UNL A   1      40.268  24.346  26.008  1.00  0.00    -0.352 N 
ATOM     29  C   UNL A   1      40.938  25.541  26.068  1.00  0.00     0.251 C 
ATOM     30  H   UNL A   1      40.481  23.776  25.233  1.00  0.00     0.163 HD
ATOM     31  O   UNL A   1      41.553  25.953  25.091  1.00  0.00    -0.269 OA
BRANCH  29  32
ATOM     32  C   UNL A   1      40.894  26.327  27.316  1.00  0.00     0.039 A 
ATOM     33  C   UNL A   1      41.770  27.403  27.470  1.00  0.00     0.014 A 
ATOM     34  C   UNL A   1      39.979  26.008  28.325  1.00  0.00     0.014 A 
ATOM     35  C   UNL A   1      41.693  28.191  28.619  1.00  0.00     0.010 A 
ATOM     36  C   UNL A   1      39.849  26.843  29.428  1.00  0.00     0.010 A 
ATOM     37  C   UNL A   1      40.712  27.937  29.592  1.00  0.00    -0.014 A 
BRANCH  37  38
ATOM     38  C   UNL A   1      40.575  28.803  30.790  1.00  0.00     0.031 A 
ATOM     39  C   UNL A   1      39.538  29.891  30.821  1.00  0.00     0.074 A 
ATOM     40  C   UNL A   1      41.423  28.642  31.825  1.00  0.00     0.049 A 
ATOM     41  N   UNL A   1      39.298  30.777  31.753  1.00  0.00    -0.248 NA
ATOM     42  C   UNL A   1      38.674  30.021  29.636  1.00  0.00     0.031 C 
ATOM     43  C   UNL A   1      42.502  27.654  31.888  1.00  0.00     0.029 A 
ATOM     44  N   UNL A   1      41.519  29.314  33.017  1.00  0.00    -0.354 N 
ATOM     45  C   UNL A   1      38.269  31.573  31.264  1.00  0.00     0.074 A 
ATOM     46  C   UNL A   1      37.971  31.104  29.928  1.00  0.00     0.031 C 
ATOM     47  C   UNL A   1      43.132  27.766  33.068  1.00  0.00     0.029 A 
ATOM     48  C   UNL A   1      42.535  28.861  33.826  1.00  0.00     0.049 A 
ATOM     49  H   UNL A   1      40.917  30.050  33.271  1.00  0.00     0.167 HD
ATOM     50  C   UNL A   1      37.614  32.585  31.881  1.00  0.00     0.037 A 
ATOM     51  C   UNL A   1      42.947  29.285  35.036  1.00  0.00     0.037 A 
ATOM     52  C   UNL A   1      37.912  33.035  33.216  1.00  0.00     0.049 A 
ATOM     53  C   UNL A   1      42.215  30.420  35.699  1.00  0.00     0.074 A 
ATOM     54  C   UNL A   1      37.274  34.014  33.957  1.00  0.00     0.029 A 
ATOM     55  N   UNL A   1      38.942  32.544  34.009  1.00  0.00    -0.354 N 
ATOM     56  N   UNL A   1      41.195  31.116  35.254  1.00  0.00    -0.248 NA
ATOM     57  C   UNL A   1      42.682  30.825  37.031  1.00  0.00     0.031 C 
ATOM     58  C   UNL A   1      37.954  34.158  35.170  1.00  0.00     0.029 A 
ATOM     59  C   UNL A   1      38.974  33.221  35.218  1.00  0.00     0.049 A 
ATOM     60  H   UNL A   1      39.558  31.822  33.750  1.00  0.00     0.167 HD
ATOM     61  C   UNL A   1      40.881  32.021  36.261  1.00  0.00     0.074 A 
ATOM     62  C   UNL A   1      41.812  31.776  37.345  1.00  0.00     0.031 C 
ATOM     63  C   UNL A   1      39.907  32.965  36.289  1.00  0.00     0.037 A 
BRANCH  50  64
ATOM     64  C   UNL A   1      36.520  33.279  31.114  1.00  0.00     0.058 A 
ATOM     65  C   UNL A   1      36.799  34.154  30.051  1.00  0.00     0.135 A 
ATOM     66  C   UNL A   1      35.171  33.051  31.432  1.00  0.00     0.135 A 
ATOM     67  F   UNL A   1      38.071  34.421  29.710  1.00  0.00    -0.206 F 
ATOM     68  C   UNL A   1      35.786  34.811  29.361  1.00  0.00     0.059 A 
ATOM     69  C   UNL A   1      34.139  33.670  30.732  1.00  0.00     0.059 A 
ATOM     70  F   UNL A   1      34.842  32.223  32.436  1.00  0.00    -0.206 F 
ATOM     71  C   UNL A   1      34.458  34.563  29.710  1.00  0.00     0.060 A 
BRANCH  71  72
ATOM     72  S   UNL A   1      33.155  35.431  28.812  1.00  0.00     0.124 S 
ATOM     73  O   UNL A   1      33.932  36.359  27.996  1.00  0.00    -0.237 OA
ATOM     74  O   UNL A   1      32.500  34.347  28.088  1.00  0.00    -0.237 OA
ATOM     75  O   UNL A   1      32.359  36.045  29.871  1.00  0.00    -0.744 OA
ENDBRANCH  71  72
ENDBRANCH  50  64
BRANCH  51  76
ATOM     76  C   UNL A   1      44.094  28.614  35.703  1.00  0.00     0.058 A 
ATOM     77  C   UNL A   1      43.891  27.553  36.600  1.00  0.00     0.135 A 
ATOM     78  C   UNL A   1      45.417  28.994  35.431  1.00  0.00     0.135 A 
ATOM     79  F   UNL A   1      42.645  27.157  36.899  1.00  0.00    -0.206 F 
ATOM     80  C   UNL A   1      44.958  26.901  37.210  1.00  0.00     0.059 A 
ATOM     81  C   UNL A   1      46.501  28.338  36.005  1.00  0.00     0.059 A 
ATOM     82  F   UNL A   1      45.667  29.990  34.567  1.00  0.00    -0.206 F 
ATOM     83  C   UNL A   1      46.261  27.296  36.899  1.00  0.00     0.060 A 
BRANCH  83  84
ATOM     84  S   UNL A   1      47.637  26.396  37.646  1.00  0.00     0.124 S 
ATOM     85  O   UNL A   1      47.107  26.090  38.969  1.00  0.00    -0.237 OA
ATOM     86  O   UNL A   1      47.788  25.262  36.740  1.00  0.00    -0.237 OA
ATOM     87  O   UNL A   1      48.729  27.364  37.612  1.00  0.00    -0.744 OA
ENDBRANCH  83  84
ENDBRANCH  51  76
BRANCH  63  88
ATOM     88  C   UNL A   1      39.770  33.785  37.544  1.00  0.00     0.058 A 
ATOM     89  C   UNL A   1      40.451  35.001  37.716  1.00  0.00     0.135 A 
ATOM     90  C   UNL A   1      38.897  33.374  38.566  1.00  0.00     0.135 A 
ATOM     91  F   UNL A   1      41.302  35.438  36.775  1.00  0.00    -0.206 F 
ATOM     92  C   UNL A   1      40.290  35.767  38.866  1.00  0.00     0.059 A 
ATOM     93  C   UNL A   1      38.696  34.140  39.709  1.00  0.00     0.059 A 
ATOM     94  F   UNL A   1      38.213  32.225  38.449  1.00  0.00    -0.206 F 
ATOM     95  C   UNL A   1      39.407  35.330  39.856  1.00  0.00     0.060 A 
BRANCH  95  96
ATOM     96  S   UNL A   1      39.181  36.353  41.325  1.00  0.00     0.124 S 
ATOM     97  O   UNL A   1      38.985  37.674  40.738  1.00  0.00    -0.237 OA
ATOM     98  O   UNL A   1      38.004  35.753  41.945  1.00  0.00    -0.237 OA
ATOM     99  O   UNL A   1      40.429  36.174  42.061  1.00  0.00    -0.744 OA
ENDBRANCH  95  96
ENDBRANCH  63  88
ENDBRANCH  37  38
ENDBRANCH  29  32
ENDBRANCH  27  28
ENDBRANCH  26  27
ENDBRANCH  25  26
ENDBRANCH   1  25
TORSDOF 19
ENDMDL
MODEL 2
REMARK VINA RESULT:     -11.6      0.986      8.161
REMARK SMILES N#Cc1ccccc1S(=O)(=O)N1CCC(C(=O)NCCCCCCNC(=O)c2ccc(-c3c4nc(c(-c5c(F)cc(S(=O)(=O)[O-])cc5F)c5ccc([nH]5)c(-c5c(F)cc(S(=O)(=O)[O-])cc5F)c5nc(c(-c6c(F)cc(S(=O)(=O)[O-])cc6F)c6ccc3[nH]6)C=C5)C=C4)cc2)CC1
REMARK SMILES IDX 21 1 20 2 19 3 18 4 16 5 17 6 15 8 12 9 13 10 95 11 14 12
REMARK SMILES IDX 94 13 9 14 10 15 11 16 8 17 3 18 4 19 5 20 7 21 6 22 2 23
REMARK SMILES IDX 1 24 22 25 23 26 24 27 25 28 26 29 27 31 28 32 29 33 93 34
REMARK SMILES IDX 30 35 92 36 31 37 32 38 33 39 86 40 34 41 91 42 85 43 87 44
REMARK SMILES IDX 35 45 90 46 84 47 83 48 36 50 70 51 49 52 69 53 50 54 53 55
REMARK SMILES IDX 68 56 88 57 51 58 52 59 67 61 89 62 54 63 37 64 38 65 47 66
REMARK SMILES IDX 39 67 40 68 46 69 48 70 41 71 42 72 43 73 44 74 45 75 71 76
REMARK SMILES IDX 72 77 81 78 73 79 74 80 80 81 82 82 75 83 76 84 77 85 78 86
REMARK SMILES IDX 79 87 55 88 56 89 65 90 57 91 58 92 64 93 66 94 59 95 60 96
REMARK SMILES IDX 61 97 62 98 63 99
REMARK H PARENT 18 7 25 30 87 49 53 60
REMARK Flexibility Score: inf
ROOT
ATOM      1  C   UNL A   1      38.115  21.214  25.540  1.00  0.00     0.002 C 
ENDROOT
BRANCH   1   2
ATOM      2  C   UNL A   1      37.100  20.181  25.047  1.00  0.00     0.021 C 
BRANCH   2   3
ATOM      3  C   UNL A   1      35.742  20.786  24.711  1.00  0.00     0.116 C 
BRANCH   3   4
ATOM      4  N   UNL A   1      34.670  19.874  25.069  1.00  0.00    -0.356 N 
ATOM      5  C   UNL A   1      33.357  20.112  25.328  1.00  0.00     0.223 C 
ATOM      6  O   UNL A   1      32.657  19.170  25.704  1.00  0.00    -0.275 OA
ATOM      7  H   UNL A   1      34.938  18.929  25.134  1.00  0.00     0.163 HD
BRANCH   5   8
ATOM      8  C   UNL A   1      32.766  21.498  25.131  1.00  0.00     0.081 C 
ATOM      9  N   UNL A   1      32.858  24.208  24.073  1.00  0.00    -0.198 NA
ATOM     10  C   UNL A   1      33.369  23.995  25.437  1.00  0.00     0.103 C 
ATOM     11  C   UNL A   1      32.134  23.174  23.321  1.00  0.00     0.103 C 
ATOM     12  C   UNL A   1      33.570  22.558  25.871  1.00  0.00     0.030 C 
ATOM     13  C   UNL A   1      32.547  21.761  23.647  1.00  0.00     0.030 C 
BRANCH   9  14
ATOM     14  S   UNL A   1      32.573  25.816  23.627  1.00  0.00     0.244 S 
ATOM     15  O   UNL A   1      31.220  25.878  23.115  1.00  0.00    -0.207 OA
ATOM     16  O   UNL A   1      33.697  26.257  22.827  1.00  0.00    -0.207 OA
BRANCH  14  17
ATOM     17  C   UNL A   1      32.573  26.882  25.060  1.00  0.00     0.100 A 
ATOM     18  C   UNL A   1      31.630  26.950  26.088  1.00  0.00     0.072 A 
ATOM     19  C   UNL A   1      31.800  27.904  27.113  1.00  0.00     0.021 A 
ATOM     20  C   UNL A   1      32.895  28.760  27.137  1.00  0.00     0.001 A 
ATOM     21  C   UNL A   1      33.685  27.752  25.099  1.00  0.00     0.023 A 
ATOM     22  C   UNL A   1      33.847  28.677  26.131  1.00  0.00     0.001 A 
BRANCH  18  23
ATOM     23  C   UNL A   1      30.478  26.127  26.259  1.00  0.00     0.101 C 
ATOM     24  N   UNL A   1      29.546  25.493  26.516  1.00  0.00    -0.192 NA
ENDBRANCH  18  23
ENDBRANCH  14  17
ENDBRANCH   9  14
ENDBRANCH   5   8
ENDBRANCH   3   4
ENDBRANCH   2   3
ENDBRANCH   1   2
BRANCH   1  25
ATOM     25  C   UNL A   1      37.791  22.657  25.139  1.00  0.00     0.002 C 
BRANCH  25  26
ATOM     26  C   UNL A   1      38.283  23.716  26.128  1.00  0.00     0.021 C 
BRANCH  26  27
ATOM     27  C   UNL A   1      39.497  23.288  26.941  1.00  0.00     0.116 C 
BRANCH  27  28
ATOM     28  N   UNL A   1      40.735  23.539  26.223  1.00  0.00    -0.352 N 
ATOM     29  C   UNL A   1      41.530  24.655  26.246  1.00  0.00     0.251 C 
ATOM     30  H   UNL A   1      41.044  22.807  25.640  1.00  0.00     0.163 HD
ATOM     31  O   UNL A   1      42.410  24.803  25.405  1.00  0.00    -0.269 OA
BRANCH  29  32
ATOM     32  C   UNL A   1      41.303  25.679  27.285  1.00  0.00     0.039 A 
ATOM     33  C   UNL A   1      40.246  25.511  28.181  1.00  0.00     0.014 A 
ATOM     34  C   UNL A   1      42.143  26.793  27.379  1.00  0.00     0.014 A 
ATOM     35  C   UNL A   1      40.062  26.441  29.204  1.00  0.00     0.010 A 
ATOM     36  C   UNL A   1      42.009  27.670  28.449  1.00  0.00     0.010 A 
ATOM     37  C   UNL A   1      40.960  27.509  29.366  1.00  0.00    -0.014 A 
BRANCH  37  38
ATOM     38  C   UNL A   1      40.816  28.471  30.487  1.00  0.00     0.031 A 
ATOM     39  C   UNL A   1      41.679  28.339  31.711  1.00  0.00     0.074 A 
ATOM     40  C   UNL A   1      39.869  29.428  30.424  1.00  0.00     0.049 A 
ATOM     41  N   UNL A   1      41.669  29.050  32.810  1.00  0.00    -0.248 NA
ATOM     42  C   UNL A   1      42.665  27.246  31.716  1.00  0.00     0.031 C 
ATOM     43  C   UNL A   1      38.938  29.624  29.309  1.00  0.00     0.029 A 
ATOM     44  N   UNL A   1      39.525  30.409  31.318  1.00  0.00    -0.354 N 
ATOM     45  C   UNL A   1      42.634  28.485  33.636  1.00  0.00     0.074 A 
ATOM     46  C   UNL A   1      43.167  27.336  32.937  1.00  0.00     0.031 C 
ATOM     47  C   UNL A   1      38.149  30.676  29.575  1.00  0.00     0.029 A 
ATOM     48  C   UNL A   1      38.484  31.202  30.895  1.00  0.00     0.049 A 
ATOM     49  H   UNL A   1      39.980  30.535  32.182  1.00  0.00     0.167 HD
ATOM     50  C   UNL A   1      43.054  28.901  34.854  1.00  0.00     0.037 A 
ATOM     51  C   UNL A   1      37.861  32.230  31.504  1.00  0.00     0.037 A 
ATOM     52  C   UNL A   1      42.523  30.054  35.535  1.00  0.00     0.049 A 
ATOM     53  C   UNL A   1      38.335  32.667  32.863  1.00  0.00     0.074 A 
ATOM     54  C   UNL A   1      42.916  30.595  36.745  1.00  0.00     0.029 A 
ATOM     55  N   UNL A   1      41.476  30.839  35.069  1.00  0.00    -0.354 N 
ATOM     56  N   UNL A   1      39.298  32.168  33.601  1.00  0.00    -0.248 NA
ATOM     57  C   UNL A   1      37.644  33.811  33.471  1.00  0.00     0.031 C 
ATOM     58  C   UNL A   1      42.069  31.667  37.041  1.00  0.00     0.029 A 
ATOM     59  C   UNL A   1      41.191  31.840  35.983  1.00  0.00     0.049 A 
ATOM     60  H   UNL A   1      41.005  30.703  34.216  1.00  0.00     0.167 HD
ATOM     61  C   UNL A   1      39.348  32.953  34.747  1.00  0.00     0.074 A 
ATOM     62  C   UNL A   1      38.325  33.969  34.599  1.00  0.00     0.031 C 
ATOM     63  C   UNL A   1      40.169  32.847  35.822  1.00  0.00     0.037 A 
BRANCH  50  64
ATOM     64  C   UNL A   1      44.134  28.098  35.531  1.00  0.00     0.058 A 
ATOM     65  C   UNL A   1      43.834  27.036  36.400  1.00  0.00     0.135 A 
ATOM     66  C   UNL A   1      45.488  28.381  35.293  1.00  0.00     0.135 A 
ATOM     67  F   UNL A   1      42.556  26.727  36.676  1.00  0.00    -0.206 F 
ATOM     68  C   UNL A   1      44.834  26.312  37.041  1.00  0.00     0.059 A 
ATOM     69  C   UNL A   1      46.507  27.648  35.897  1.00  0.00     0.059 A 
ATOM     70  F   UNL A   1      45.837  29.383  34.471  1.00  0.00    -0.206 F 
ATOM     71  C   UNL A   1      46.169  26.627  36.784  1.00  0.00     0.060 A 
BRANCH  71  72
ATOM     72  S   UNL A   1      47.455  25.687  37.632  1.00  0.00     0.124 S 
ATOM     73  O   UNL A   1      47.586  26.432  38.879  1.00  0.00    -0.237 OA
ATOM     74  O   UNL A   1      46.849  24.364  37.745  1.00  0.00    -0.237 OA
ATOM     75  O   UNL A   1      48.596  25.774  36.726  1.00  0.00    -0.744 OA
ENDBRANCH  71  72
ENDBRANCH  50  64
BRANCH  51  76
ATOM     76  C   UNL A   1      36.740  32.924  30.818  1.00  0.00     0.058 A 
ATOM     77  C   UNL A   1      35.406  32.688  31.187  1.00  0.00     0.135 A 
ATOM     78  C   UNL A   1      36.979  33.866  29.804  1.00  0.00     0.135 A 
ATOM     79  F   UNL A   1      35.125  31.791  32.145  1.00  0.00    -0.206 F 
ATOM     80  C   UNL A   1      34.350  33.351  30.569  1.00  0.00     0.059 A 
ATOM     81  C   UNL A   1      35.942  34.564  29.193  1.00  0.00     0.059 A 
ATOM     82  F   UNL A   1      38.236  34.143  29.426  1.00  0.00    -0.206 F 
ATOM     83  C   UNL A   1      34.630  34.293  29.578  1.00  0.00     0.060 A 
BRANCH  83  84
ATOM     84  S   UNL A   1      33.254  35.196  28.833  1.00  0.00     0.124 S 
ATOM     85  O   UNL A   1      32.630  34.162  28.017  1.00  0.00    -0.237 OA
ATOM     86  O   UNL A   1      32.500  35.626  30.007  1.00  0.00    -0.237 OA
ATOM     87  O   UNL A   1      33.916  36.269  28.097  1.00  0.00    -0.744 OA
ENDBRANCH  83  84
ENDBRANCH  51  76
BRANCH  63  88
ATOM     88  C   UNL A   1      40.024  33.875  36.911  1.00  0.00     0.058 A 
ATOM     89  C   UNL A   1      40.843  35.014  36.973  1.00  0.00     0.135 A 
ATOM     90  C   UNL A   1      39.010  33.746  37.876  1.00  0.00     0.135 A 
ATOM     91  F   UNL A   1      41.832  35.185  36.082  1.00  0.00    -0.206 F 
ATOM     92  C   UNL A   1      40.678  35.975  37.965  1.00  0.00     0.059 A 
ATOM     93  C   UNL A   1      38.805  34.711  38.856  1.00  0.00     0.059 A 
ATOM     94  F   UNL A   1      38.191  32.682  37.857  1.00  0.00    -0.206 F 
ATOM     95  C   UNL A   1      39.652  35.816  38.900  1.00  0.00     0.060 A 
BRANCH  95  96
ATOM     96  S   UNL A   1      39.427  37.090  40.159  1.00  0.00     0.124 S 
ATOM     97  O   UNL A   1      38.724  38.125  39.409  1.00  0.00    -0.237 OA
ATOM     98  O   UNL A   1      38.638  36.393  41.170  1.00  0.00    -0.237 OA
ATOM     99  O   UNL A   1      40.791  37.422  40.557  1.00  0.00    -0.744 OA
ENDBRANCH  95  96
ENDBRANCH  63  88
ENDBRANCH  37  38
ENDBRANCH  29  32
ENDBRANCH  27  28
ENDBRANCH  26  27
ENDBRANCH  25  26
ENDBRANCH   1  25
TORSDOF 19
ENDMDL
MODEL 3
REMARK VINA RESULT:     -11.6      6.752     11.117
REMARK SMILES N#Cc1ccccc1S(=O)(=O)N1CCC(C(=O)NCCCCCCNC(=O)c2ccc(-c3c4nc(c(-c5c(F)cc(S(=O)(=O)[O-])cc5F)c5ccc([nH]5)c(-c5c(F)cc(S(=O)(=O)[O-])cc5F)c5nc(c(-c6c(F)cc(S(=O)(=O)[O-])cc6F)c6ccc3[nH]6)C=C5)C=C4)cc2)CC1
REMARK SMILES IDX 21 1 20 2 19 3 18 4 16 5 17 6 15 8 12 9 13 10 95 11 14 12
REMARK SMILES IDX 94 13 9 14 10 15 11 16 8 17 3 18 4 19 5 20 7 21 6 22 2 23
REMARK SMILES IDX 1 24 22 25 23 26 24 27 25 28 26 29 27 31 28 32 29 33 93 34
REMARK SMILES IDX 30 35 92 36 31 37 32 38 33 39 86 40 34 41 91 42 85 43 87 44
REMARK SMILES IDX 35 45 90 46 84 47 83 48 36 50 70 51 49 52 69 53 50 54 53 55
REMARK SMILES IDX 68 56 88 57 51 58 52 59 67 61 89 62 54 63 37 64 38 65 47 66
REMARK SMILES IDX 39 67 40 68 46 69 48 70 41 71 42 72 43 73 44 74 45 75 71 76
REMARK SMILES IDX 72 77 81 78 73 79 74 80 80 81 82 82 75 83 76 84 77 85 78 86
REMARK SMILES IDX 79 87 55 88 56 89 65 90 57 91 58 92 64 93 66 94 59 95 60 96
REMARK SMILES IDX 61 97 62 98 63 99
REMARK H PARENT 18 7 25 30 87 49 53 60
REMARK Flexibility Score: inf
ROOT
ATOM      1  C   UNL A   1      39.484  22.037  26.302  1.00  0.00     0.002 C 
ENDROOT
BRANCH   1   2
ATOM      2  C   UNL A   1      38.551  21.074  25.567  1.00  0.00     0.021 C 
BRANCH   2   3
ATOM      3  C   UNL A   1      37.193  21.685  25.241  1.00  0.00     0.116 C 
BRANCH   3   4
ATOM      4  N   UNL A   1      36.176  20.653  25.141  1.00  0.00    -0.356 N 
ATOM      5  C   UNL A   1      34.833  20.752  24.960  1.00  0.00     0.223 C 
ATOM      6  O   UNL A   1      34.161  19.719  25.000  1.00  0.00    -0.275 OA
ATOM      7  H   UNL A   1      36.514  19.732  25.217  1.00  0.00     0.163 HD
BRANCH   5   8
ATOM      8  C   UNL A   1      34.184  22.098  24.685  1.00  0.00     0.081 C 
ATOM      9  N   UNL A   1      31.947  23.955  24.833  1.00  0.00    -0.198 NA
ATOM     10  C   UNL A   1      32.053  23.116  23.628  1.00  0.00     0.103 C 
ATOM     11  C   UNL A   1      33.009  24.037  25.845  1.00  0.00     0.103 C 
ATOM     12  C   UNL A   1      33.047  21.975  23.679  1.00  0.00     0.030 C 
ATOM     13  C   UNL A   1      33.824  22.777  25.999  1.00  0.00     0.030 C 
BRANCH   9  14
ATOM     14  S   UNL A   1      30.882  25.268  24.735  1.00  0.00     0.244 S 
ATOM     15  O   UNL A   1      30.185  25.340  26.003  1.00  0.00    -0.207 OA
ATOM     16  O   UNL A   1      30.156  25.153  23.488  1.00  0.00    -0.207 OA
BRANCH  14  17
ATOM     17  C   UNL A   1      31.780  26.806  24.614  1.00  0.00     0.100 A 
ATOM     18  C   UNL A   1      32.763  27.165  23.688  1.00  0.00     0.072 A 
ATOM     19  C   UNL A   1      33.382  28.427  23.799  1.00  0.00     0.021 A 
ATOM     20  C   UNL A   1      33.021  29.331  24.792  1.00  0.00     0.001 A 
ATOM     21  C   UNL A   1      31.417  27.736  25.613  1.00  0.00     0.023 A 
ATOM     22  C   UNL A   1      32.027  28.987  25.698  1.00  0.00     0.001 A 
BRANCH  18  23
ATOM     23  C   UNL A   1      33.225  26.397  22.579  1.00  0.00     0.101 C 
ATOM     24  N   UNL A   1      33.651  25.878  21.637  1.00  0.00    -0.192 NA
ENDBRANCH  18  23
ENDBRANCH  14  17
ENDBRANCH   9  14
ENDBRANCH   5   8
ENDBRANCH   3   4
ENDBRANCH   2   3
ENDBRANCH   1   2
BRANCH   1  25
ATOM     25  C   UNL A   1      40.934  21.553  26.407  1.00  0.00     0.002 C 
BRANCH  25  26
ATOM     26  C   UNL A   1      41.122  20.053  26.167  1.00  0.00     0.021 C 
BRANCH  26  27
ATOM     27  C   UNL A   1      42.463  19.513  26.642  1.00  0.00     0.116 C 
BRANCH  27  28
ATOM     28  N   UNL A   1      43.258  19.011  25.534  1.00  0.00    -0.352 N 
ATOM     29  C   UNL A   1      44.075  19.705  24.679  1.00  0.00     0.251 C 
ATOM     30  H   UNL A   1      43.202  18.041  25.377  1.00  0.00     0.163 HD
ATOM     31  O   UNL A   1      44.488  19.175  23.653  1.00  0.00    -0.269 OA
BRANCH  29  32
ATOM     32  C   UNL A   1      44.437  21.099  25.003  1.00  0.00     0.039 A 
ATOM     33  C   UNL A   1      43.955  22.129  24.194  1.00  0.00     0.014 A 
ATOM     34  C   UNL A   1      45.238  21.385  26.113  1.00  0.00     0.014 A 
ATOM     35  C   UNL A   1      44.239  23.453  24.529  1.00  0.00     0.010 A 
ATOM     36  C   UNL A   1      45.449  22.706  26.491  1.00  0.00     0.010 A 
ATOM     37  C   UNL A   1      44.960  23.754  25.697  1.00  0.00    -0.014 A 
BRANCH  37  38
ATOM     38  C   UNL A   1      45.218  25.159  26.101  1.00  0.00     0.031 A 
ATOM     39  C   UNL A   1      46.610  25.722  26.031  1.00  0.00     0.074 A 
ATOM     40  C   UNL A   1      44.205  25.906  26.585  1.00  0.00     0.049 A 
ATOM     41  N   UNL A   1      47.040  26.906  26.384  1.00  0.00    -0.248 NA
ATOM     42  C   UNL A   1      47.664  24.829  25.524  1.00  0.00     0.031 C 
ATOM     43  C   UNL A   1      42.822  25.452  26.747  1.00  0.00     0.029 A 
ATOM     44  N   UNL A   1      44.185  27.200  27.037  1.00  0.00    -0.354 N 
ATOM     45  C   UNL A   1      48.411  26.895  26.154  1.00  0.00     0.074 A 
ATOM     46  C   UNL A   1      48.750  25.568  25.689  1.00  0.00     0.031 C 
ATOM     47  C   UNL A   1      42.084  26.460  27.237  1.00  0.00     0.029 A 
ATOM     48  C   UNL A   1      42.945  27.615  27.467  1.00  0.00     0.049 A 
ATOM     49  H   UNL A   1      44.981  27.779  27.054  1.00  0.00     0.167 HD
ATOM     50  C   UNL A   1      49.302  27.906  26.293  1.00  0.00     0.037 A 
ATOM     51  C   UNL A   1      42.549  28.789  27.995  1.00  0.00     0.037 A 
ATOM     52  C   UNL A   1      48.949  29.227  26.746  1.00  0.00     0.049 A 
ATOM     53  C   UNL A   1      43.557  29.895  28.154  1.00  0.00     0.074 A 
ATOM     54  C   UNL A   1      49.762  30.339  26.870  1.00  0.00     0.029 A 
ATOM     55  N   UNL A   1      47.681  29.613  27.162  1.00  0.00    -0.354 N 
ATOM     56  N   UNL A   1      44.836  29.893  27.863  1.00  0.00    -0.248 NA
ATOM     57  C   UNL A   1      43.068  31.165  28.706  1.00  0.00     0.031 C 
ATOM     58  C   UNL A   1      49.003  31.378  27.416  1.00  0.00     0.029 A 
ATOM     59  C   UNL A   1      47.698  30.937  27.569  1.00  0.00     0.049 A 
ATOM     60  H   UNL A   1      46.888  29.031  27.166  1.00  0.00     0.167 HD
ATOM     61  C   UNL A   1      45.300  31.167  28.169  1.00  0.00     0.074 A 
ATOM     62  C   UNL A   1      44.159  31.918  28.657  1.00  0.00     0.031 C 
ATOM     63  C   UNL A   1      46.554  31.672  28.052  1.00  0.00     0.037 A 
BRANCH  50  64
ATOM     64  C   UNL A   1      50.742  27.618  25.961  1.00  0.00     0.058 A 
ATOM     65  C   UNL A   1      51.652  27.169  26.932  1.00  0.00     0.135 A 
ATOM     66  C   UNL A   1      51.216  27.774  24.648  1.00  0.00     0.135 A 
ATOM     67  F   UNL A   1      51.259  27.013  28.207  1.00  0.00    -0.206 F 
ATOM     68  C   UNL A   1      52.987  26.927  26.625  1.00  0.00     0.059 A 
ATOM     69  C   UNL A   1      52.539  27.504  24.310  1.00  0.00     0.059 A 
ATOM     70  F   UNL A   1      50.392  28.198  23.676  1.00  0.00    -0.206 F 
ATOM     71  C   UNL A   1      53.422  27.099  25.310  1.00  0.00     0.060 A 
BRANCH  71  72
ATOM     72  S   UNL A   1      55.159  26.791  24.930  1.00  0.00     0.124 S 
ATOM     73  O   UNL A   1      55.143  25.362  24.631  1.00  0.00    -0.237 OA
ATOM     74  O   UNL A   1      55.390  27.673  23.791  1.00  0.00    -0.237 OA
ATOM     75  O   UNL A   1      55.850  27.166  26.160  1.00  0.00    -0.744 OA
ENDBRANCH  71  72
ENDBRANCH  50  64
BRANCH  51  76
ATOM     76  C   UNL A   1      41.127  28.980  28.387  1.00  0.00     0.058 A 
ATOM     77  C   UNL A   1      40.734  28.929  29.734  1.00  0.00     0.135 A 
ATOM     78  C   UNL A   1      40.138  29.252  27.429  1.00  0.00     0.135 A 
ATOM     79  F   UNL A   1      41.641  28.665  30.687  1.00  0.00    -0.206 F 
ATOM     80  C   UNL A   1      39.412  29.131  30.115  1.00  0.00     0.059 A 
ATOM     81  C   UNL A   1      38.815  29.487  27.788  1.00  0.00     0.059 A 
ATOM     82  F   UNL A   1      40.464  29.329  26.130  1.00  0.00    -0.206 F 
ATOM     83  C   UNL A   1      38.460  29.417  29.135  1.00  0.00     0.060 A 
BRANCH  83  84
ATOM     84  S   UNL A   1      36.760  29.744  29.650  1.00  0.00     0.124 S 
ATOM     85  O   UNL A   1      36.781  31.189  29.837  1.00  0.00    -0.237 OA
ATOM     86  O   UNL A   1      35.996  29.258  28.506  1.00  0.00    -0.237 OA
ATOM     87  O   UNL A   1      36.621  28.952  30.869  1.00  0.00    -0.744 OA
ENDBRANCH  83  84
ENDBRANCH  51  76
BRANCH  63  88
ATOM     88  C   UNL A   1      46.759  33.116  28.424  1.00  0.00     0.058 A 
ATOM     89  C   UNL A   1      46.623  34.152  27.486  1.00  0.00     0.135 A 
ATOM     90  C   UNL A   1      47.038  33.472  29.755  1.00  0.00     0.135 A 
ATOM     91  F   UNL A   1      46.364  33.870  26.200  1.00  0.00    -0.206 F 
ATOM     92  C   UNL A   1      46.781  35.486  27.849  1.00  0.00     0.059 A 
ATOM     93  C   UNL A   1      47.167  34.800  30.146  1.00  0.00     0.059 A 
ATOM     94  F   UNL A   1      47.167  32.522  30.695  1.00  0.00    -0.206 F 
ATOM     95  C   UNL A   1      47.049  35.800  29.183  1.00  0.00     0.060 A 
BRANCH  95  96
ATOM     96  S   UNL A   1      47.215  37.537  29.645  1.00  0.00     0.124 S 
ATOM     97  O   UNL A   1      47.553  38.151  28.366  1.00  0.00    -0.237 OA
ATOM     98  O   UNL A   1      45.889  37.848  30.168  1.00  0.00    -0.237 OA
ATOM     99  O   UNL A   1      48.287  37.525  30.637  1.00  0.00    -0.744 OA
ENDBRANCH  95  96
ENDBRANCH  63  88
ENDBRANCH  37  38
ENDBRANCH  29  32
ENDBRANCH  27  28
ENDBRANCH  26  27
ENDBRANCH  25  26
ENDBRANCH   1  25
TORSDOF 19
ENDMDL
