MODEL 1
REMARK VINA RESULT:      -9.0      0.000      0.000
REMARK SMILES COc1ccc(-c2sc(C(=O)NCCCCCCNC(=O)c3ccc(-c4c5nc(c(-c6c(F)cc(S(=O)(=O)[O-])cc6F)c6ccc([nH]6)c(-c6c(F)cc(S(=O)(=O)[O-])cc6F)c6nc(c(-c7c(F)cc(S(=O)(=O)[O-])cc7F)c7ccc4[nH]7)C=C6)C=C5)cc3)cc2C)c(OC)c1
REMARK SMILES IDX 16 1 15 2 14 3 13 4 12 5 10 6 11 7 9 9 7 10 8 11 89 12 88 13
REMARK SMILES IDX 90 14 6 15 3 16 4 17 94 18 5 19 91 20 2 21 1 22 92 23 93 24
REMARK SMILES IDX 17 25 18 26 19 27 20 28 21 30 22 31 23 32 87 33 24 34 86 35
REMARK SMILES IDX 25 36 26 37 27 38 80 39 28 40 85 41 79 42 81 43 29 44 84 45
REMARK SMILES IDX 78 46 77 47 30 49 64 50 43 51 63 52 44 53 47 54 62 55 82 56
REMARK SMILES IDX 45 57 46 58 61 60 83 61 48 62 31 63 32 64 41 65 33 66 34 67
REMARK SMILES IDX 40 68 42 69 35 70 36 71 37 72 38 73 39 74 65 75 66 76 75 77
REMARK SMILES IDX 67 78 68 79 74 80 76 81 69 82 70 83 71 84 72 85 73 86 49 87
REMARK SMILES IDX 50 88 59 89 51 90 52 91 58 92 60 93 53 94 54 95 55 96 56 97
REMARK SMILES IDX 57 98
REMARK H PARENT 12 8 19 29 81 48 47 59
REMARK Flexibility Score: inf
ROOT
ATOM      1  C   UNL A   1      34.695  32.658  30.733  1.00  0.00     0.002 C 
ENDROOT
BRANCH   1   2
ATOM      2  C   UNL A   1      34.380  33.863  31.629  1.00  0.00     0.002 C 
BRANCH   2   3
ATOM      3  C   UNL A   1      34.437  33.582  33.135  1.00  0.00     0.021 C 
BRANCH   3   4
ATOM      4  C   UNL A   1      35.603  34.271  33.840  1.00  0.00     0.116 C 
BRANCH   4   5
ATOM      5  N   UNL A   1      36.614  34.689  32.886  1.00  0.00    -0.351 N 
ATOM      6  C   UNL A   1      37.770  34.133  32.398  1.00  0.00     0.261 C 
ATOM      7  O   UNL A   1      38.363  34.845  31.578  1.00  0.00    -0.268 OA
ATOM      8  H   UNL A   1      36.427  35.575  32.500  1.00  0.00     0.163 HD
BRANCH   6   9
ATOM      9  C   UNL A   1      38.290  32.818  32.756  1.00  0.00     0.093 A 
ATOM     10  C   UNL A   1      39.541  30.819  33.551  1.00  0.00     0.042 A 
ATOM     11  S   UNL A   1      39.819  32.493  33.419  1.00  0.00    -0.130 S 
ATOM     12  C   UNL A   1      38.312  30.462  33.023  1.00  0.00    -0.031 A 
ATOM     13  C   UNL A   1      37.605  31.626  32.570  1.00  0.00     0.029 A 
ATOM     14  C   UNL A   1      37.770  29.077  32.910  1.00  0.00     0.046 C 
BRANCH  10  15
ATOM     15  C   UNL A   1      40.611  29.994  34.124  1.00  0.00     0.034 A 
ATOM     16  C   UNL A   1      42.616  28.335  35.181  1.00  0.00     0.122 A 
ATOM     17  C   UNL A   1      42.337  28.315  33.815  1.00  0.00     0.047 A 
ATOM     18  C   UNL A   1      41.903  29.195  36.022  1.00  0.00     0.093 A 
ATOM     19  C   UNL A   1      41.338  29.132  33.288  1.00  0.00     0.017 A 
ATOM     20  C   UNL A   1      40.904  30.031  35.502  1.00  0.00     0.131 A 
BRANCH  16  21
ATOM     21  O   UNL A   1      43.630  27.504  35.570  1.00  0.00    -0.497 OA
ATOM     22  C   UNL A   1      43.748  26.273  34.866  1.00  0.00     0.278 C 
ENDBRANCH  16  21
BRANCH  20  23
ATOM     23  O   UNL A   1      40.151  30.902  36.251  1.00  0.00    -0.496 OA
ATOM     24  C   UNL A   1      40.821  31.957  36.920  1.00  0.00     0.278 C 
ENDBRANCH  20  23
ENDBRANCH  10  15
ENDBRANCH   6   9
ENDBRANCH   4   5
ENDBRANCH   3   4
ENDBRANCH   2   3
ENDBRANCH   1   2
BRANCH   1  25
ATOM     25  C   UNL A   1      35.633  32.952  29.560  1.00  0.00     0.021 C 
BRANCH  25  26
ATOM     26  C   UNL A   1      34.960  32.913  28.193  1.00  0.00     0.116 C 
BRANCH  26  27
ATOM     27  N   UNL A   1      34.072  31.767  28.063  1.00  0.00    -0.352 N 
ATOM     28  C   UNL A   1      34.385  30.439  27.936  1.00  0.00     0.251 C 
ATOM     29  H   UNL A   1      33.110  31.976  28.068  1.00  0.00     0.163 HD
ATOM     30  O   UNL A   1      33.516  29.632  27.607  1.00  0.00    -0.269 OA
BRANCH  28  31
ATOM     31  C   UNL A   1      35.770  29.983  28.177  1.00  0.00     0.039 A 
ATOM     32  C   UNL A   1      36.706  30.078  27.145  1.00  0.00     0.014 A 
ATOM     33  C   UNL A   1      36.141  29.455  29.418  1.00  0.00     0.014 A 
ATOM     34  C   UNL A   1      38.029  29.696  27.376  1.00  0.00     0.010 A 
ATOM     35  C   UNL A   1      37.475  29.146  29.667  1.00  0.00     0.010 A 
ATOM     36  C   UNL A   1      38.432  29.258  28.648  1.00  0.00    -0.014 A 
BRANCH  36  37
ATOM     37  C   UNL A   1      39.848  28.908  28.929  1.00  0.00     0.031 A 
ATOM     38  C   UNL A   1      40.774  29.932  29.528  1.00  0.00     0.074 A 
ATOM     39  C   UNL A   1      40.311  27.685  28.598  1.00  0.00     0.049 A 
ATOM     40  N   UNL A   1      42.054  29.839  29.784  1.00  0.00    -0.248 NA
ATOM     41  C   UNL A   1      40.191  31.241  29.863  1.00  0.00     0.031 C 
ATOM     42  C   UNL A   1      39.519  26.619  27.978  1.00  0.00     0.029 A 
ATOM     43  N   UNL A   1      41.560  27.133  28.730  1.00  0.00    -0.354 N 
ATOM     44  C   UNL A   1      42.427  31.071  30.308  1.00  0.00     0.074 A 
ATOM     45  C   UNL A   1      41.254  31.917  30.273  1.00  0.00     0.031 C 
ATOM     46  C   UNL A   1      40.294  25.535  27.812  1.00  0.00     0.029 A 
ATOM     47  C   UNL A   1      41.646  25.840  28.268  1.00  0.00     0.049 A 
ATOM     48  H   UNL A   1      42.324  27.617  29.119  1.00  0.00     0.167 HD
ATOM     49  C   UNL A   1      43.628  31.453  30.803  1.00  0.00     0.037 A 
ATOM     50  C   UNL A   1      42.697  24.999  28.210  1.00  0.00     0.037 A 
ATOM     51  C   UNL A   1      44.789  30.602  30.846  1.00  0.00     0.049 A 
ATOM     52  C   UNL A   1      44.033  25.464  28.729  1.00  0.00     0.074 A 
ATOM     53  C   UNL A   1      46.046  30.885  31.349  1.00  0.00     0.029 A 
ATOM     54  N   UNL A   1      44.835  29.299  30.369  1.00  0.00    -0.354 N 
ATOM     55  N   UNL A   1      44.354  26.617  29.264  1.00  0.00    -0.248 NA
ATOM     56  C   UNL A   1      45.148  24.512  28.639  1.00  0.00     0.031 C 
ATOM     57  C   UNL A   1      46.864  29.771  31.137  1.00  0.00     0.029 A 
ATOM     58  C   UNL A   1      46.103  28.773  30.552  1.00  0.00     0.049 A 
ATOM     59  H   UNL A   1      44.078  28.820  29.961  1.00  0.00     0.167 HD
ATOM     60  C   UNL A   1      45.699  26.514  29.609  1.00  0.00     0.074 A 
ATOM     61  C   UNL A   1      46.125  25.183  29.232  1.00  0.00     0.031 C 
ATOM     62  C   UNL A   1      46.507  27.438  30.187  1.00  0.00     0.037 A 
BRANCH  49  63
ATOM     63  C   UNL A   1      43.745  32.849  31.354  1.00  0.00     0.058 A 
ATOM     64  C   UNL A   1      44.064  33.939  30.528  1.00  0.00     0.135 A 
ATOM     65  C   UNL A   1      43.493  33.111  32.711  1.00  0.00     0.135 A 
ATOM     66  F   UNL A   1      44.330  33.745  29.226  1.00  0.00    -0.206 F 
ATOM     67  C   UNL A   1      44.153  35.232  31.029  1.00  0.00     0.059 A 
ATOM     68  C   UNL A   1      43.548  34.402  33.229  1.00  0.00     0.059 A 
ATOM     69  F   UNL A   1      43.185  32.107  33.548  1.00  0.00    -0.206 F 
ATOM     70  C   UNL A   1      43.891  35.455  32.382  1.00  0.00     0.060 A 
BRANCH  70  71
ATOM     71  S   UNL A   1      43.996  37.143  33.012  1.00  0.00     0.124 S 
ATOM     72  O   UNL A   1      45.346  37.162  33.569  1.00  0.00    -0.237 OA
ATOM     73  O   UNL A   1      43.800  37.939  31.804  1.00  0.00    -0.237 OA
ATOM     74  O   UNL A   1      42.915  37.211  33.989  1.00  0.00    -0.744 OA
ENDBRANCH  70  71
ENDBRANCH  49  63
BRANCH  50  75
ATOM     75  C   UNL A   1      42.535  23.626  27.658  1.00  0.00     0.058 A 
ATOM     76  C   UNL A   1      42.345  22.526  28.508  1.00  0.00     0.135 A 
ATOM     77  C   UNL A   1      42.587  23.381  26.277  1.00  0.00     0.135 A 
ATOM     78  F   UNL A   1      42.292  22.705  29.836  1.00  0.00    -0.206 F 
ATOM     79  C   UNL A   1      42.249  21.229  28.013  1.00  0.00     0.059 A 
ATOM     80  C   UNL A   1      42.462  22.098  25.755  1.00  0.00     0.059 A 
ATOM     81  F   UNL A   1      42.748  24.401  25.418  1.00  0.00    -0.206 F 
ATOM     82  C   UNL A   1      42.312  21.025  26.634  1.00  0.00     0.060 A 
BRANCH  82  83
ATOM     83  S   UNL A   1      42.174  19.339  26.000  1.00  0.00     0.124 S 
ATOM     84  O   UNL A   1      42.673  18.562  27.127  1.00  0.00    -0.237 OA
ATOM     85  O   UNL A   1      40.744  19.230  25.730  1.00  0.00    -0.237 OA
ATOM     86  O   UNL A   1      43.028  19.356  24.816  1.00  0.00    -0.744 OA
ENDBRANCH  82  83
ENDBRANCH  50  75
BRANCH  62  87
ATOM     87  C   UNL A   1      47.922  27.027  30.493  1.00  0.00     0.058 A 
ATOM     88  C   UNL A   1      48.974  27.261  29.594  1.00  0.00     0.135 A 
ATOM     89  C   UNL A   1      48.235  26.434  31.728  1.00  0.00     0.135 A 
ATOM     90  F   UNL A   1      48.728  27.818  28.398  1.00  0.00    -0.206 F 
ATOM     91  C   UNL A   1      50.282  26.900  29.897  1.00  0.00     0.059 A 
ATOM     92  C   UNL A   1      49.541  26.093  32.065  1.00  0.00     0.059 A 
ATOM     93  F   UNL A   1      47.269  26.196  32.629  1.00  0.00    -0.206 F 
ATOM     94  C   UNL A   1      50.556  26.319  31.138  1.00  0.00     0.060 A 
BRANCH  94  95
ATOM     95  S   UNL A   1      52.265  25.890  31.532  1.00  0.00     0.124 S 
ATOM     96  O   UNL A   1      52.110  24.553  32.096  1.00  0.00    -0.237 OA
ATOM     97  O   UNL A   1      52.912  25.957  30.225  1.00  0.00    -0.237 OA
ATOM     98  O   UNL A   1      52.666  26.927  32.478  1.00  0.00    -0.744 OA
ENDBRANCH  94  95
ENDBRANCH  62  87
ENDBRANCH  36  37
ENDBRANCH  28  31
ENDBRANCH  26  27
ENDBRANCH  25  26
ENDBRANCH   1  25
TORSDOF 19
ENDMDL
MODEL 2
REMARK VINA RESULT:      -9.0      4.166      7.101
REMARK SMILES COc1ccc(-c2sc(C(=O)NCCCCCCNC(=O)c3ccc(-c4c5nc(c(-c6c(F)cc(S(=O)(=O)[O-])cc6F)c6ccc([nH]6)c(-c6c(F)cc(S(=O)(=O)[O-])cc6F)c6nc(c(-c7c(F)cc(S(=O)(=O)[O-])cc7F)c7ccc4[nH]7)C=C6)C=C5)cc3)cc2C)c(OC)c1
REMARK SMILES IDX 16 1 15 2 14 3 13 4 12 5 10 6 11 7 9 9 7 10 8 11 89 12 88 13
REMARK SMILES IDX 90 14 6 15 3 16 4 17 94 18 5 19 91 20 2 21 1 22 92 23 93 24
REMARK SMILES IDX 17 25 18 26 19 27 20 28 21 30 22 31 23 32 87 33 24 34 86 35
REMARK SMILES IDX 25 36 26 37 27 38 80 39 28 40 85 41 79 42 81 43 29 44 84 45
REMARK SMILES IDX 78 46 77 47 30 49 64 50 43 51 63 52 44 53 47 54 62 55 82 56
REMARK SMILES IDX 45 57 46 58 61 60 83 61 48 62 31 63 32 64 41 65 33 66 34 67
REMARK SMILES IDX 40 68 42 69 35 70 36 71 37 72 38 73 39 74 65 75 66 76 75 77
REMARK SMILES IDX 67 78 68 79 74 80 76 81 69 82 70 83 71 84 72 85 73 86 49 87
REMARK SMILES IDX 50 88 59 89 51 90 52 91 58 92 60 93 53 94 54 95 55 96 56 97
REMARK SMILES IDX 57 98
REMARK H PARENT 12 8 19 29 81 48 47 59
REMARK Flexibility Score: inf
ROOT
ATOM      1  C   UNL A   1      33.133  30.967  27.438  1.00  0.00     0.002 C 
ENDROOT
BRANCH   1   2
ATOM      2  C   UNL A   1      32.001  30.562  26.484  1.00  0.00     0.002 C 
BRANCH   2   3
ATOM      3  C   UNL A   1      32.419  29.622  25.347  1.00  0.00     0.021 C 
BRANCH   3   4
ATOM      4  C   UNL A   1      31.563  28.361  25.254  1.00  0.00     0.116 C 
BRANCH   4   5
ATOM      5  N   UNL A   1      31.117  28.135  23.891  1.00  0.00    -0.351 N 
ATOM      6  C   UNL A   1      31.278  27.124  22.978  1.00  0.00     0.261 C 
ATOM      7  O   UNL A   1      30.725  27.336  21.891  1.00  0.00    -0.268 OA
ATOM      8  H   UNL A   1      30.575  28.879  23.542  1.00  0.00     0.163 HD
BRANCH   6   9
ATOM      9  C   UNL A   1      32.001  25.880  23.215  1.00  0.00     0.093 A 
ATOM     10  C   UNL A   1      33.572  24.041  23.802  1.00  0.00     0.042 A 
ATOM     11  S   UNL A   1      33.599  25.743  23.772  1.00  0.00    -0.130 S 
ATOM     12  C   UNL A   1      32.376  23.541  23.316  1.00  0.00    -0.031 A 
ATOM     13  C   UNL A   1      31.483  24.614  22.982  1.00  0.00     0.029 A 
ATOM     14  C   UNL A   1      32.031  22.101  23.135  1.00  0.00     0.046 C 
BRANCH  10  15
ATOM     15  C   UNL A   1      34.783  23.348  24.258  1.00  0.00     0.034 A 
ATOM     16  C   UNL A   1      37.086  21.955  25.059  1.00  0.00     0.122 A 
ATOM     17  C   UNL A   1      36.958  22.401  23.744  1.00  0.00     0.047 A 
ATOM     18  C   UNL A   1      36.068  22.216  25.983  1.00  0.00     0.093 A 
ATOM     19  C   UNL A   1      35.813  23.086  23.342  1.00  0.00     0.017 A 
ATOM     20  C   UNL A   1      34.917  22.916  25.593  1.00  0.00     0.131 A 
BRANCH  16  21
ATOM     21  O   UNL A   1      38.263  21.314  25.334  1.00  0.00    -0.497 OA
ATOM     22  C   UNL A   1      39.181  22.004  26.173  1.00  0.00     0.278 C 
ENDBRANCH  16  21
BRANCH  20  23
ATOM     23  O   UNL A   1      33.868  23.213  26.428  1.00  0.00    -0.496 OA
ATOM     24  C   UNL A   1      33.640  22.365  27.540  1.00  0.00     0.278 C 
ENDBRANCH  20  23
ENDBRANCH  10  15
ENDBRANCH   6   9
ENDBRANCH   4   5
ENDBRANCH   3   4
ENDBRANCH   2   3
ENDBRANCH   1   2
BRANCH   1  25
ATOM     25  C   UNL A   1      34.436  30.182  27.267  1.00  0.00     0.021 C 
BRANCH  25  26
ATOM     26  C   UNL A   1      35.652  30.835  27.914  1.00  0.00     0.116 C 
BRANCH  26  27
ATOM     27  N   UNL A   1      35.556  30.831  29.366  1.00  0.00    -0.352 N 
ATOM     28  C   UNL A   1      36.407  30.281  30.288  1.00  0.00     0.251 C 
ATOM     29  H   UNL A   1      34.769  31.290  29.738  1.00  0.00     0.163 HD
ATOM     30  O   UNL A   1      36.054  30.174  31.462  1.00  0.00    -0.269 OA
BRANCH  28  31
ATOM     31  C   UNL A   1      37.741  29.803  29.865  1.00  0.00     0.039 A 
ATOM     32  C   UNL A   1      38.069  29.817  28.508  1.00  0.00     0.014 A 
ATOM     33  C   UNL A   1      38.662  29.334  30.808  1.00  0.00     0.014 A 
ATOM     34  C   UNL A   1      39.343  29.414  28.102  1.00  0.00     0.010 A 
ATOM     35  C   UNL A   1      39.954  29.005  30.409  1.00  0.00     0.010 A 
ATOM     36  C   UNL A   1      40.306  29.036  29.052  1.00  0.00    -0.014 A 
BRANCH  36  37
ATOM     37  C   UNL A   1      41.686  28.665  28.643  1.00  0.00     0.031 A 
ATOM     38  C   UNL A   1      42.763  29.715  28.582  1.00  0.00     0.074 A 
ATOM     39  C   UNL A   1      41.955  27.395  28.280  1.00  0.00     0.049 A 
ATOM     40  N   UNL A   1      44.005  29.602  28.187  1.00  0.00    -0.248 NA
ATOM     41  C   UNL A   1      42.389  31.077  28.997  1.00  0.00     0.031 C 
ATOM     42  C   UNL A   1      40.986  26.295  28.263  1.00  0.00     0.029 A 
ATOM     43  N   UNL A   1      43.120  26.812  27.849  1.00  0.00    -0.354 N 
ATOM     44  C   UNL A   1      44.558  30.871  28.306  1.00  0.00     0.074 A 
ATOM     45  C   UNL A   1      43.500  31.753  28.747  1.00  0.00     0.031 C 
ATOM     46  C   UNL A   1      41.604  25.169  27.872  1.00  0.00     0.029 A 
ATOM     47  C   UNL A   1      42.998  25.472  27.566  1.00  0.00     0.049 A 
ATOM     48  H   UNL A   1      43.965  27.308  27.752  1.00  0.00     0.167 HD
ATOM     49  C   UNL A   1      45.839  31.261  28.098  1.00  0.00     0.037 A 
ATOM     50  C   UNL A   1      43.905  24.589  27.104  1.00  0.00     0.037 A 
ATOM     51  C   UNL A   1      46.891  30.374  27.670  1.00  0.00     0.049 A 
ATOM     52  C   UNL A   1      45.312  25.058  26.840  1.00  0.00     0.074 A 
ATOM     53  C   UNL A   1      48.226  30.665  27.454  1.00  0.00     0.029 A 
ATOM     54  N   UNL A   1      46.727  29.025  27.395  1.00  0.00    -0.354 N 
ATOM     55  N   UNL A   1      45.828  26.252  27.005  1.00  0.00    -0.248 NA
ATOM     56  C   UNL A   1      46.261  24.058  26.333  1.00  0.00     0.031 C 
ATOM     57  C   UNL A   1      48.860  29.503  27.006  1.00  0.00     0.029 A 
ATOM     58  C   UNL A   1      47.933  28.473  26.996  1.00  0.00     0.049 A 
ATOM     59  H   UNL A   1      45.878  28.531  27.472  1.00  0.00     0.167 HD
ATOM     60  C   UNL A   1      47.171  26.137  26.656  1.00  0.00     0.074 A 
ATOM     61  C   UNL A   1      47.388  24.755  26.284  1.00  0.00     0.031 C 
ATOM     62  C   UNL A   1      48.137  27.089  26.646  1.00  0.00     0.037 A 
BRANCH  49  63
ATOM     63  C   UNL A   1      46.179  32.706  28.346  1.00  0.00     0.058 A 
ATOM     64  C   UNL A   1      46.628  33.150  29.600  1.00  0.00     0.135 A 
ATOM     65  C   UNL A   1      46.100  33.651  27.309  1.00  0.00     0.135 A 
ATOM     66  F   UNL A   1      46.707  32.293  30.631  1.00  0.00    -0.206 F 
ATOM     67  C   UNL A   1      46.962  34.480  29.826  1.00  0.00     0.059 A 
ATOM     68  C   UNL A   1      46.458  34.982  27.504  1.00  0.00     0.059 A 
ATOM     69  F   UNL A   1      45.676  33.284  26.089  1.00  0.00    -0.206 F 
ATOM     70  C   UNL A   1      46.876  35.390  28.770  1.00  0.00     0.060 A 
BRANCH  70  71
ATOM     71  S   UNL A   1      47.329  37.109  29.079  1.00  0.00     0.124 S 
ATOM     72  O   UNL A   1      47.220  37.183  30.533  1.00  0.00    -0.237 OA
ATOM     73  O   UNL A   1      48.685  37.176  28.542  1.00  0.00    -0.237 OA
ATOM     74  O   UNL A   1      46.325  37.865  28.337  1.00  0.00    -0.744 OA
ENDBRANCH  70  71
ENDBRANCH  49  63
BRANCH  50  75
ATOM     75  C   UNL A   1      43.525  23.168  26.874  1.00  0.00     0.058 A 
ATOM     76  C   UNL A   1      43.389  22.660  25.573  1.00  0.00     0.135 A 
ATOM     77  C   UNL A   1      43.269  22.296  27.943  1.00  0.00     0.135 A 
ATOM     78  F   UNL A   1      43.618  23.454  24.516  1.00  0.00    -0.206 F 
ATOM     79  C   UNL A   1      42.979  21.352  25.338  1.00  0.00     0.059 A 
ATOM     80  C   UNL A   1      42.889  20.974  27.735  1.00  0.00     0.059 A 
ATOM     81  F   UNL A   1      43.402  22.724  29.209  1.00  0.00    -0.206 F 
ATOM     82  C   UNL A   1      42.728  20.516  26.428  1.00  0.00     0.060 A 
BRANCH  82  83
ATOM     83  S   UNL A   1      42.208  18.815  26.114  1.00  0.00     0.124 S 
ATOM     84  O   UNL A   1      43.133  18.417  25.061  1.00  0.00    -0.237 OA
ATOM     85  O   UNL A   1      42.411  18.188  27.416  1.00  0.00    -0.237 OA
ATOM     86  O   UNL A   1      40.813  18.961  25.708  1.00  0.00    -0.744 OA
ENDBRANCH  82  83
ENDBRANCH  50  75
BRANCH  62  87
ATOM     87  C   UNL A   1      49.529  26.661  26.267  1.00  0.00     0.058 A 
ATOM     88  C   UNL A   1      50.030  26.832  24.968  1.00  0.00     0.135 A 
ATOM     89  C   UNL A   1      50.389  26.116  27.236  1.00  0.00     0.135 A 
ATOM     90  F   UNL A   1      49.247  27.342  24.004  1.00  0.00    -0.206 F 
ATOM     91  C   UNL A   1      51.327  26.456  24.634  1.00  0.00     0.059 A 
ATOM     92  C   UNL A   1      51.700  25.762  26.932  1.00  0.00     0.059 A 
ATOM     93  F   UNL A   1      49.965  25.940  28.497  1.00  0.00    -0.206 F 
ATOM     94  C   UNL A   1      52.156  25.924  25.625  1.00  0.00     0.060 A 
BRANCH  94  95
ATOM     95  S   UNL A   1      53.848  25.476  25.186  1.00  0.00     0.124 S 
ATOM     96  O   UNL A   1      54.545  25.682  26.451  1.00  0.00    -0.237 OA
ATOM     97  O   UNL A   1      53.702  24.088  24.761  1.00  0.00    -0.237 OA
ATOM     98  O   UNL A   1      54.186  26.419  24.124  1.00  0.00    -0.744 OA
ENDBRANCH  94  95
ENDBRANCH  62  87
ENDBRANCH  36  37
ENDBRANCH  28  31
ENDBRANCH  26  27
ENDBRANCH  25  26
ENDBRANCH   1  25
TORSDOF 19
ENDMDL
MODEL 3
REMARK VINA RESULT:      -9.0      4.936     12.443
REMARK SMILES COc1ccc(-c2sc(C(=O)NCCCCCCNC(=O)c3ccc(-c4c5nc(c(-c6c(F)cc(S(=O)(=O)[O-])cc6F)c6ccc([nH]6)c(-c6c(F)cc(S(=O)(=O)[O-])cc6F)c6nc(c(-c7c(F)cc(S(=O)(=O)[O-])cc7F)c7ccc4[nH]7)C=C6)C=C5)cc3)cc2C)c(OC)c1
REMARK SMILES IDX 16 1 15 2 14 3 13 4 12 5 10 6 11 7 9 9 7 10 8 11 89 12 88 13
REMARK SMILES IDX 90 14 6 15 3 16 4 17 94 18 5 19 91 20 2 21 1 22 92 23 93 24
REMARK SMILES IDX 17 25 18 26 19 27 20 28 21 30 22 31 23 32 87 33 24 34 86 35
REMARK SMILES IDX 25 36 26 37 27 38 80 39 28 40 85 41 79 42 81 43 29 44 84 45
REMARK SMILES IDX 78 46 77 47 30 49 64 50 43 51 63 52 44 53 47 54 62 55 82 56
REMARK SMILES IDX 45 57 46 58 61 60 83 61 48 62 31 63 32 64 41 65 33 66 34 67
REMARK SMILES IDX 40 68 42 69 35 70 36 71 37 72 38 73 39 74 65 75 66 76 75 77
REMARK SMILES IDX 67 78 68 79 74 80 76 81 69 82 70 83 71 84 72 85 73 86 49 87
REMARK SMILES IDX 50 88 59 89 51 90 52 91 58 92 60 93 53 94 54 95 55 96 56 97
REMARK SMILES IDX 57 98
REMARK H PARENT 12 8 19 29 81 48 47 59
REMARK Flexibility Score: inf
ROOT
ATOM      1  C   UNL A   1      37.053  24.007  26.015  1.00  0.00     0.002 C 
ENDROOT
BRANCH   1   2
ATOM      2  C   UNL A   1      36.068  23.921  24.841  1.00  0.00     0.002 C 
BRANCH   2   3
ATOM      3  C   UNL A   1      35.046  22.783  24.937  1.00  0.00     0.021 C 
BRANCH   3   4
ATOM      4  C   UNL A   1      34.305  22.739  26.271  1.00  0.00     0.116 C 
BRANCH   4   5
ATOM      5  N   UNL A   1      32.974  22.183  26.109  1.00  0.00    -0.351 N 
ATOM      6  C   UNL A   1      31.736  22.707  25.835  1.00  0.00     0.261 C 
ATOM      7  O   UNL A   1      30.832  21.863  25.790  1.00  0.00    -0.268 OA
ATOM      8  H   UNL A   1      32.955  21.205  26.222  1.00  0.00     0.163 HD
BRANCH   6   9
ATOM      9  C   UNL A   1      31.453  24.116  25.585  1.00  0.00     0.093 A 
ATOM     10  C   UNL A   1      30.780  26.363  24.753  1.00  0.00     0.042 A 
ATOM     11  S   UNL A   1      30.832  24.773  24.148  1.00  0.00    -0.130 S 
ATOM     12  C   UNL A   1      31.306  26.440  26.032  1.00  0.00    -0.031 A 
ATOM     13  C   UNL A   1      31.689  25.137  26.495  1.00  0.00     0.029 A 
ATOM     14  C   UNL A   1      31.480  27.682  26.839  1.00  0.00     0.046 C 
BRANCH  10  15
ATOM     15  C   UNL A   1      30.267  27.413  23.865  1.00  0.00     0.034 A 
ATOM     16  C   UNL A   1      29.243  29.353  22.111  1.00  0.00     0.122 A 
ATOM     17  C   UNL A   1      28.384  28.452  22.741  1.00  0.00     0.047 A 
ATOM     18  C   UNL A   1      30.617  29.295  22.367  1.00  0.00     0.093 A 
ATOM     19  C   UNL A   1      28.890  27.484  23.607  1.00  0.00     0.017 A 
ATOM     20  C   UNL A   1      31.137  28.334  23.246  1.00  0.00     0.131 A 
BRANCH  16  21
ATOM     21  O   UNL A   1      28.623  30.265  21.302  1.00  0.00    -0.497 OA
ATOM     22  C   UNL A   1      28.320  31.527  21.884  1.00  0.00     0.278 C 
ENDBRANCH  16  21
BRANCH  20  23
ATOM     23  O   UNL A   1      32.469  28.200  23.553  1.00  0.00    -0.496 OA
ATOM     24  C   UNL A   1      33.416  28.798  22.684  1.00  0.00     0.278 C 
ENDBRANCH  20  23
ENDBRANCH  10  15
ENDBRANCH   6   9
ENDBRANCH   4   5
ENDBRANCH   3   4
ENDBRANCH   2   3
ENDBRANCH   1   2
BRANCH   1  25
ATOM     25  C   UNL A   1      38.220  23.017  25.954  1.00  0.00     0.021 C 
BRANCH  25  26
ATOM     26  C   UNL A   1      39.368  23.343  26.902  1.00  0.00     0.116 C 
BRANCH  26  27
ATOM     27  N   UNL A   1      40.598  23.630  26.178  1.00  0.00    -0.352 N 
ATOM     28  C   UNL A   1      41.382  24.752  26.215  1.00  0.00     0.251 C 
ATOM     29  H   UNL A   1      40.911  22.915  25.579  1.00  0.00     0.163 HD
ATOM     30  O   UNL A   1      42.260  24.916  25.368  1.00  0.00    -0.269 OA
BRANCH  28  31
ATOM     31  C   UNL A   1      41.160  25.772  27.263  1.00  0.00     0.039 A 
ATOM     32  C   UNL A   1      40.124  25.587  28.180  1.00  0.00     0.014 A 
ATOM     33  C   UNL A   1      41.969  26.911  27.332  1.00  0.00     0.014 A 
ATOM     34  C   UNL A   1      39.936  26.518  29.204  1.00  0.00     0.010 A 
ATOM     35  C   UNL A   1      41.827  27.796  28.396  1.00  0.00     0.010 A 
ATOM     36  C   UNL A   1      40.805  27.613  29.340  1.00  0.00    -0.014 A 
BRANCH  36  37
ATOM     37  C   UNL A   1      40.659  28.578  30.460  1.00  0.00     0.031 A 
ATOM     38  C   UNL A   1      41.529  28.456  31.681  1.00  0.00     0.074 A 
ATOM     39  C   UNL A   1      39.709  29.533  30.397  1.00  0.00     0.049 A 
ATOM     40  N   UNL A   1      41.507  29.157  32.786  1.00  0.00    -0.248 NA
ATOM     41  C   UNL A   1      42.544  27.389  31.671  1.00  0.00     0.031 C 
ATOM     42  C   UNL A   1      38.779  29.731  29.281  1.00  0.00     0.029 A 
ATOM     43  N   UNL A   1      39.361  30.513  31.292  1.00  0.00    -0.354 N 
ATOM     44  C   UNL A   1      42.500  28.619  33.597  1.00  0.00     0.074 A 
ATOM     45  C   UNL A   1      43.061  27.492  32.886  1.00  0.00     0.031 C 
ATOM     46  C   UNL A   1      37.990  30.784  29.547  1.00  0.00     0.029 A 
ATOM     47  C   UNL A   1      38.322  31.309  30.867  1.00  0.00     0.049 A 
ATOM     48  H   UNL A   1      39.814  30.636  32.158  1.00  0.00     0.167 HD
ATOM     49  C   UNL A   1      42.927  29.045  34.810  1.00  0.00     0.037 A 
ATOM     50  C   UNL A   1      37.703  32.338  31.477  1.00  0.00     0.037 A 
ATOM     51  C   UNL A   1      42.370  30.176  35.507  1.00  0.00     0.049 A 
ATOM     52  C   UNL A   1      38.168  32.765  32.844  1.00  0.00     0.074 A 
ATOM     53  C   UNL A   1      42.748  30.704  36.729  1.00  0.00     0.029 A 
ATOM     54  N   UNL A   1      41.321  30.956  35.043  1.00  0.00    -0.354 N 
ATOM     55  N   UNL A   1      39.140  32.274  33.575  1.00  0.00    -0.248 NA
ATOM     56  C   UNL A   1      37.456  33.888  33.467  1.00  0.00     0.031 C 
ATOM     57  C   UNL A   1      41.898  31.774  37.025  1.00  0.00     0.029 A 
ATOM     58  C   UNL A   1      41.027  31.949  35.962  1.00  0.00     0.049 A 
ATOM     59  H   UNL A   1      40.853  30.822  34.187  1.00  0.00     0.167 HD
ATOM     60  C   UNL A   1      39.180  33.053  34.727  1.00  0.00     0.074 A 
ATOM     61  C   UNL A   1      38.142  34.054  34.590  1.00  0.00     0.031 C 
ATOM     62  C   UNL A   1      40.001  32.950  35.802  1.00  0.00     0.037 A 
BRANCH  49  63
ATOM     63  C   UNL A   1      44.060  28.295  35.455  1.00  0.00     0.058 A 
ATOM     64  C   UNL A   1      43.826  27.233  36.343  1.00  0.00     0.135 A 
ATOM     65  C   UNL A   1      45.396  28.608  35.151  1.00  0.00     0.135 A 
ATOM     66  F   UNL A   1      42.570  26.901  36.682  1.00  0.00    -0.206 F 
ATOM     67  C   UNL A   1      44.871  26.525  36.925  1.00  0.00     0.059 A 
ATOM     68  C   UNL A   1      46.457  27.893  35.698  1.00  0.00     0.059 A 
ATOM     69  F   UNL A   1      45.680  29.614  34.308  1.00  0.00    -0.206 F 
ATOM     70  C   UNL A   1      46.185  26.861  36.595  1.00  0.00     0.060 A 
BRANCH  70  71
ATOM     71  S   UNL A   1      47.528  25.920  37.349  1.00  0.00     0.124 S 
ATOM     72  O   UNL A   1      47.334  24.603  36.748  1.00  0.00    -0.237 OA
ATOM     73  O   UNL A   1      48.710  26.650  36.902  1.00  0.00    -0.237 OA
ATOM     74  O   UNL A   1      47.244  26.005  38.777  1.00  0.00    -0.744 OA
ENDBRANCH  70  71
ENDBRANCH  49  63
BRANCH  50  75
ATOM     75  C   UNL A   1      36.585  33.052  30.801  1.00  0.00     0.058 A 
ATOM     76  C   UNL A   1      36.831  33.929  29.732  1.00  0.00     0.135 A 
ATOM     77  C   UNL A   1      35.255  32.892  31.217  1.00  0.00     0.135 A 
ATOM     78  F   UNL A   1      38.086  34.120  29.298  1.00  0.00    -0.206 F 
ATOM     79  C   UNL A   1      35.806  34.648  29.126  1.00  0.00     0.059 A 
ATOM     80  C   UNL A   1      34.208  33.575  30.606  1.00  0.00     0.059 A 
ATOM     81  F   UNL A   1      34.960  32.052  32.222  1.00  0.00    -0.206 F 
ATOM     82  C   UNL A   1      34.497  34.466  29.573  1.00  0.00     0.060 A 
BRANCH  82  83
ATOM     83  S   UNL A   1      33.171  35.395  28.772  1.00  0.00     0.124 S 
ATOM     84  O   UNL A   1      33.926  36.372  27.997  1.00  0.00    -0.237 OA
ATOM     85  O   UNL A   1      32.492  34.357  28.004  1.00  0.00    -0.237 OA
ATOM     86  O   UNL A   1      32.410  35.931  29.896  1.00  0.00    -0.744 OA
ENDBRANCH  82  83
ENDBRANCH  50  75
BRANCH  62  87
ATOM     87  C   UNL A   1      39.847  33.975  36.893  1.00  0.00     0.058 A 
ATOM     88  C   UNL A   1      40.425  35.250  36.803  1.00  0.00     0.135 A 
ATOM     89  C   UNL A   1      39.064  33.689  38.026  1.00  0.00     0.135 A 
ATOM     90  F   UNL A   1      41.187  35.572  35.745  1.00  0.00    -0.206 F 
ATOM     91  C   UNL A   1      40.254  36.198  37.806  1.00  0.00     0.059 A 
ATOM     92  C   UNL A   1      38.855  34.632  39.026  1.00  0.00     0.059 A 
ATOM     93  F   UNL A   1      38.479  32.488  38.159  1.00  0.00    -0.206 F 
ATOM     94  C   UNL A   1      39.464  35.880  38.913  1.00  0.00     0.060 A 
BRANCH  94  95
ATOM     95  S   UNL A   1      39.222  37.134  40.189  1.00  0.00     0.124 S 
ATOM     96  O   UNL A   1      38.468  38.151  39.463  1.00  0.00    -0.237 OA
ATOM     97  O   UNL A   1      38.478  36.401  41.208  1.00  0.00    -0.237 OA
ATOM     98  O   UNL A   1      40.583  37.509  40.561  1.00  0.00    -0.744 OA
ENDBRANCH  94  95
ENDBRANCH  62  87
ENDBRANCH  36  37
ENDBRANCH  28  31
ENDBRANCH  26  27
ENDBRANCH  25  26
ENDBRANCH   1  25
TORSDOF 19
ENDMDL
