MODEL 1
REMARK VINA RESULT:     -12.1      0.000      0.000
REMARK SMILES CC1(C)[C@@](C)(C(=O)NCCCCCCNC(=O)c2ccc(-c3c4nc(c(-c5c(F)cc(S(=O)(=O)[O-])cc5F)c5ccc([nH]5)c(-c5c(F)cc(S(=O)(=O)[O-])cc5F)c5nc(c(-c6c(F)cc(S(=O)(=O)[O-])cc6F)c6ccc3[nH]6)C=C5)C=C4)cc2)CC[C@]1(C)C(=O)Nc1ccc(Cl)cc1Cl
REMARK SMILES IDX 12 1 11 2 10 3 9 4 8 5 6 6 7 7 4 9 1 10 2 11 3 12 86 13 5 14
REMARK SMILES IDX 84 15 85 16 87 17 88 18 89 19 90 20 91 22 92 23 97 24 93 25
REMARK SMILES IDX 96 26 98 27 94 28 95 29 13 30 14 31 15 32 16 33 17 35 18 36
REMARK SMILES IDX 19 37 83 38 20 39 82 40 21 41 22 42 23 43 76 44 24 45 81 46
REMARK SMILES IDX 75 47 77 48 25 49 80 50 74 51 73 52 26 54 60 55 39 56 59 57
REMARK SMILES IDX 40 58 43 59 58 60 78 61 41 62 42 63 57 65 79 66 44 67 27 68
REMARK SMILES IDX 28 69 37 70 29 71 30 72 36 73 38 74 31 75 32 76 33 77 34 78
REMARK SMILES IDX 35 79 61 80 62 81 71 82 63 83 64 84 70 85 72 86 65 87 66 88
REMARK SMILES IDX 67 89 68 90 69 91 45 92 46 93 55 94 47 95 48 96 54 97 56 98
REMARK SMILES IDX 49 99 50 100 51 101 52 102 53 103
REMARK H PARENT 8 8 90 21 15 34 77 53 43 64
REMARK Flexibility Score: inf
ROOT
ATOM      1  C   UNL A   1      40.691  22.158  27.644  1.00  0.00     0.002 C 
ENDROOT
BRANCH   1   2
ATOM      2  C   UNL A   1      39.776  22.607  26.509  1.00  0.00     0.002 C 
BRANCH   2   3
ATOM      3  C   UNL A   1      38.739  23.653  26.902  1.00  0.00     0.021 C 
BRANCH   3   4
ATOM      4  C   UNL A   1      37.526  23.771  25.956  1.00  0.00     0.116 C 
BRANCH   4   5
ATOM      5  N   UNL A   1      36.453  22.857  26.336  1.00  0.00    -0.356 N 
ATOM      6  C   UNL A   1      35.242  22.509  25.811  1.00  0.00     0.226 C 
ATOM      7  O   UNL A   1      34.586  21.738  26.525  1.00  0.00    -0.274 OA
ATOM      8  H   UNL A   1      36.650  22.376  27.172  1.00  0.00     0.163 HD
BRANCH   6   9
ATOM      9  C   UNL A   1      34.687  22.967  24.410  1.00  0.00     0.052 C 
ATOM     10  C   UNL A   1      34.579  25.395  25.143  1.00  0.00     0.013 C 
ATOM     11  C   UNL A   1      33.895  24.342  24.315  1.00  0.00    -0.007 C 
ATOM     12  C   UNL A   1      33.837  24.796  22.831  1.00  0.00     0.013 C 
ATOM     13  C   UNL A   1      32.436  24.072  24.859  1.00  0.00     0.053 C 
ATOM     14  C   UNL A   1      35.863  22.826  23.413  1.00  0.00     0.022 C 
ATOM     15  C   UNL A   1      33.566  21.985  23.969  1.00  0.00     0.018 C 
ATOM     16  C   UNL A   1      32.213  22.599  24.371  1.00  0.00     0.018 C 
ATOM     17  C   UNL A   1      32.283  24.047  26.395  1.00  0.00     0.022 C 
BRANCH  13  18
ATOM     18  C   UNL A   1      31.298  25.029  24.303  1.00  0.00     0.230 C 
ATOM     19  O   UNL A   1      30.340  24.536  23.687  1.00  0.00    -0.274 OA
ATOM     20  N   UNL A   1      31.230  26.400  24.430  1.00  0.00    -0.324 N 
ATOM     21  H   UNL A   1      30.539  26.807  23.859  1.00  0.00     0.170 HD
BRANCH  20  22
ATOM     22  C   UNL A   1      31.936  27.343  25.202  1.00  0.00     0.060 A 
ATOM     23  C   UNL A   1      31.653  27.440  26.567  1.00  0.00     0.029 A 
ATOM     24  C   UNL A   1      32.864  28.250  24.644  1.00  0.00     0.066 A 
ATOM     25  C   UNL A   1      32.421  28.276  27.390  1.00  0.00     0.023 A 
ATOM     26  C   UNL A   1      33.688  29.021  25.477  1.00  0.00     0.043 A 
ATOM     27  Cl  UNL A   1      33.119  28.397  22.944  1.00  0.00    -0.082 Cl
ATOM     28  C   UNL A   1      33.479  29.006  26.850  1.00  0.00     0.042 A 
ATOM     29  Cl  UNL A   1      34.538  29.879  27.887  1.00  0.00    -0.084 Cl
ENDBRANCH  20  22
ENDBRANCH  13  18
ENDBRANCH   6   9
ENDBRANCH   4   5
ENDBRANCH   3   4
ENDBRANCH   2   3
ENDBRANCH   1   2
BRANCH   1  30
ATOM     30  C   UNL A   1      42.156  21.938  27.255  1.00  0.00     0.021 C 
BRANCH  30  31
ATOM     31  C   UNL A   1      43.049  23.173  27.370  1.00  0.00     0.116 C 
BRANCH  31  32
ATOM     32  N   UNL A   1      42.989  23.994  26.172  1.00  0.00    -0.352 N 
ATOM     33  C   UNL A   1      42.533  25.281  26.019  1.00  0.00     0.251 C 
ATOM     34  H   UNL A   1      43.324  23.567  25.351  1.00  0.00     0.163 HD
ATOM     35  O   UNL A   1      42.316  25.724  24.899  1.00  0.00    -0.269 OA
BRANCH  33  36
ATOM     36  C   UNL A   1      42.298  26.122  27.212  1.00  0.00     0.039 A 
ATOM     37  C   UNL A   1      43.172  27.179  27.478  1.00  0.00     0.014 A 
ATOM     38  C   UNL A   1      41.231  25.856  28.075  1.00  0.00     0.014 A 
ATOM     39  C   UNL A   1      42.944  28.001  28.584  1.00  0.00     0.010 A 
ATOM     40  C   UNL A   1      40.965  26.720  29.134  1.00  0.00     0.010 A 
ATOM     41  C   UNL A   1      41.823  27.796  29.406  1.00  0.00    -0.014 A 
BRANCH  41  42
ATOM     42  C   UNL A   1      41.533  28.701  30.547  1.00  0.00     0.031 A 
ATOM     43  C   UNL A   1      42.313  28.584  31.828  1.00  0.00     0.074 A 
ATOM     44  C   UNL A   1      40.518  29.581  30.453  1.00  0.00     0.049 A 
ATOM     45  N   UNL A   1      42.171  29.249  32.946  1.00  0.00    -0.248 NA
ATOM     46  C   UNL A   1      43.374  27.566  31.867  1.00  0.00     0.031 C 
ATOM     47  C   UNL A   1      39.647  29.744  29.287  1.00  0.00     0.029 A 
ATOM     48  N   UNL A   1      40.033  30.493  31.358  1.00  0.00    -0.354 N 
ATOM     49  C   UNL A   1      43.106  28.717  33.826  1.00  0.00     0.074 A 
ATOM     50  C   UNL A   1      43.776  27.641  33.128  1.00  0.00     0.031 C 
ATOM     51  C   UNL A   1      38.744  30.703  29.542  1.00  0.00     0.029 A 
ATOM     52  C   UNL A   1      38.945  31.199  30.901  1.00  0.00     0.049 A 
ATOM     53  H   UNL A   1      40.427  30.629  32.250  1.00  0.00     0.167 HD
ATOM     54  C   UNL A   1      43.391  29.101  35.094  1.00  0.00     0.037 A 
ATOM     55  C   UNL A   1      38.184  32.129  31.509  1.00  0.00     0.037 A 
ATOM     56  C   UNL A   1      42.730  30.187  35.771  1.00  0.00     0.049 A 
ATOM     57  C   UNL A   1      38.530  32.558  32.908  1.00  0.00     0.074 A 
ATOM     58  C   UNL A   1      43.003  30.713  37.022  1.00  0.00     0.029 A 
ATOM     59  N   UNL A   1      41.656  30.904  35.262  1.00  0.00    -0.354 N 
ATOM     60  N   UNL A   1      39.480  32.110  33.695  1.00  0.00    -0.248 NA
ATOM     61  C   UNL A   1      37.712  33.625  33.499  1.00  0.00     0.031 C 
ATOM     62  C   UNL A   1      42.056  31.706  37.294  1.00  0.00     0.029 A 
ATOM     63  C   UNL A   1      41.231  31.844  36.189  1.00  0.00     0.049 A 
ATOM     64  H   UNL A   1      41.254  30.766  34.375  1.00  0.00     0.167 HD
ATOM     65  C   UNL A   1      39.387  32.852  34.867  1.00  0.00     0.074 A 
ATOM     66  C   UNL A   1      38.296  33.788  34.679  1.00  0.00     0.031 C 
ATOM     67  C   UNL A   1      40.137  32.766  35.994  1.00  0.00     0.037 A 
BRANCH  54  68
ATOM     68  C   UNL A   1      44.451  28.329  35.834  1.00  0.00     0.058 A 
ATOM     69  C   UNL A   1      44.139  27.227  36.648  1.00  0.00     0.135 A 
ATOM     70  C   UNL A   1      45.803  28.690  35.718  1.00  0.00     0.135 A 
ATOM     71  F   UNL A   1      42.862  26.842  36.805  1.00  0.00    -0.206 F 
ATOM     72  C   UNL A   1      45.121  26.544  37.358  1.00  0.00     0.059 A 
ATOM     73  C   UNL A   1      46.807  28.000  36.393  1.00  0.00     0.059 A 
ATOM     74  F   UNL A   1      46.163  29.731  34.951  1.00  0.00    -0.206 F 
ATOM     75  C   UNL A   1      46.453  26.942  37.228  1.00  0.00     0.060 A 
BRANCH  75  76
ATOM     76  S   UNL A   1      47.713  26.061  38.174  1.00  0.00     0.124 S 
ATOM     77  O   UNL A   1      47.401  26.483  39.536  1.00  0.00    -0.237 OA
ATOM     78  O   UNL A   1      47.422  24.666  37.861  1.00  0.00    -0.237 OA
ATOM     79  O   UNL A   1      48.967  26.574  37.630  1.00  0.00    -0.744 OA
ENDBRANCH  75  76
ENDBRANCH  54  68
BRANCH  55  80
ATOM     80  C   UNL A   1      37.031  32.718  30.779  1.00  0.00     0.058 A 
ATOM     81  C   UNL A   1      35.715  32.324  31.059  1.00  0.00     0.135 A 
ATOM     82  C   UNL A   1      37.221  33.733  29.829  1.00  0.00     0.135 A 
ATOM     83  F   UNL A   1      35.482  31.351  31.953  1.00  0.00    -0.206 F 
ATOM     84  C   UNL A   1      34.627  32.915  30.424  1.00  0.00     0.059 A 
ATOM     85  C   UNL A   1      36.148  34.358  29.200  1.00  0.00     0.059 A 
ATOM     86  F   UNL A   1      38.460  34.159  29.538  1.00  0.00    -0.206 F 
ATOM     87  C   UNL A   1      34.853  33.941  29.504  1.00  0.00     0.060 A 
BRANCH  87  88
ATOM     88  S   UNL A   1      33.432  34.764  28.755  1.00  0.00     0.124 S 
ATOM     89  O   UNL A   1      32.559  34.954  29.908  1.00  0.00    -0.237 OA
ATOM     90  O   UNL A   1      34.036  35.974  28.205  1.00  0.00    -0.237 OA
ATOM     91  O   UNL A   1      32.968  33.799  27.763  1.00  0.00    -0.744 OA
ENDBRANCH  87  88
ENDBRANCH  55  80
BRANCH  67  92
ATOM     92  C   UNL A   1      39.823  33.723  37.112  1.00  0.00     0.058 A 
ATOM     93  C   UNL A   1      38.925  33.392  38.138  1.00  0.00     0.135 A 
ATOM     94  C   UNL A   1      40.472  34.967  37.185  1.00  0.00     0.135 A 
ATOM     95  F   UNL A   1      38.272  32.219  38.114  1.00  0.00    -0.206 F 
ATOM     96  C   UNL A   1      38.664  34.270  39.187  1.00  0.00     0.059 A 
ATOM     97  C   UNL A   1      40.249  35.847  38.239  1.00  0.00     0.059 A 
ATOM     98  F   UNL A   1      41.348  35.331  36.235  1.00  0.00    -0.206 F 
ATOM     99  C   UNL A   1      39.335  35.494  39.230  1.00  0.00     0.060 A 
BRANCH  99 100
ATOM    100  S   UNL A   1      39.012  36.609  40.614  1.00  0.00     0.124 S 
ATOM    101  O   UNL A   1      38.515  37.795  39.926  1.00  0.00    -0.237 OA
ATOM    102  O   UNL A   1      38.026  35.864  41.390  1.00  0.00    -0.237 OA
ATOM    103  O   UNL A   1      40.321  36.752  41.246  1.00  0.00    -0.744 OA
ENDBRANCH  99 100
ENDBRANCH  67  92
ENDBRANCH  41  42
ENDBRANCH  33  36
ENDBRANCH  31  32
ENDBRANCH  30  31
ENDBRANCH   1  30
TORSDOF 18
ENDMDL
MODEL 2
REMARK VINA RESULT:     -11.8      6.247     11.786
REMARK SMILES CC1(C)[C@@](C)(C(=O)NCCCCCCNC(=O)c2ccc(-c3c4nc(c(-c5c(F)cc(S(=O)(=O)[O-])cc5F)c5ccc([nH]5)c(-c5c(F)cc(S(=O)(=O)[O-])cc5F)c5nc(c(-c6c(F)cc(S(=O)(=O)[O-])cc6F)c6ccc3[nH]6)C=C5)C=C4)cc2)CC[C@]1(C)C(=O)Nc1ccc(Cl)cc1Cl
REMARK SMILES IDX 12 1 11 2 10 3 9 4 8 5 6 6 7 7 4 9 1 10 2 11 3 12 86 13 5 14
REMARK SMILES IDX 84 15 85 16 87 17 88 18 89 19 90 20 91 22 92 23 97 24 93 25
REMARK SMILES IDX 96 26 98 27 94 28 95 29 13 30 14 31 15 32 16 33 17 35 18 36
REMARK SMILES IDX 19 37 83 38 20 39 82 40 21 41 22 42 23 43 76 44 24 45 81 46
REMARK SMILES IDX 75 47 77 48 25 49 80 50 74 51 73 52 26 54 60 55 39 56 59 57
REMARK SMILES IDX 40 58 43 59 58 60 78 61 41 62 42 63 57 65 79 66 44 67 27 68
REMARK SMILES IDX 28 69 37 70 29 71 30 72 36 73 38 74 31 75 32 76 33 77 34 78
REMARK SMILES IDX 35 79 61 80 62 81 71 82 63 83 64 84 70 85 72 86 65 87 66 88
REMARK SMILES IDX 67 89 68 90 69 91 45 92 46 93 55 94 47 95 48 96 54 97 56 98
REMARK SMILES IDX 49 99 50 100 51 101 52 102 53 103
REMARK H PARENT 8 8 90 21 15 34 77 53 43 64
REMARK Flexibility Score: inf
ROOT
ATOM      1  C   UNL A   1      35.418  32.070  27.869  1.00  0.00     0.002 C 
ENDROOT
BRANCH   1   2
ATOM      2  C   UNL A   1      33.896  32.137  27.967  1.00  0.00     0.002 C 
BRANCH   2   3
ATOM      3  C   UNL A   1      33.175  30.858  27.559  1.00  0.00     0.021 C 
BRANCH   3   4
ATOM      4  C   UNL A   1      34.044  29.807  26.840  1.00  0.00     0.116 C 
BRANCH   4   5
ATOM      5  N   UNL A   1      33.706  29.702  25.423  1.00  0.00    -0.356 N 
ATOM      6  C   UNL A   1      32.916  28.881  24.671  1.00  0.00     0.226 C 
ATOM      7  O   UNL A   1      32.989  29.089  23.453  1.00  0.00    -0.274 OA
ATOM      8  H   UNL A   1      34.155  30.389  24.879  1.00  0.00     0.163 HD
BRANCH   6   9
ATOM      9  C   UNL A   1      31.940  27.782  25.237  1.00  0.00     0.052 C 
ATOM     10  C   UNL A   1      33.863  26.206  25.752  1.00  0.00     0.013 C 
ATOM     11  C   UNL A   1      32.435  26.272  25.284  1.00  0.00    -0.007 C 
ATOM     12  C   UNL A   1      31.527  25.467  26.253  1.00  0.00     0.013 C 
ATOM     13  C   UNL A   1      32.307  25.699  23.816  1.00  0.00     0.053 C 
ATOM     14  C   UNL A   1      31.405  28.331  26.583  1.00  0.00     0.022 C 
ATOM     15  C   UNL A   1      30.734  27.635  24.268  1.00  0.00     0.018 C 
ATOM     16  C   UNL A   1      31.028  26.459  23.320  1.00  0.00     0.018 C 
ATOM     17  C   UNL A   1      33.443  26.081  22.842  1.00  0.00     0.022 C 
BRANCH  13  18
ATOM     18  C   UNL A   1      32.113  24.128  23.697  1.00  0.00     0.230 C 
ATOM     19  O   UNL A   1      31.102  23.685  23.129  1.00  0.00    -0.274 OA
ATOM     20  N   UNL A   1      32.966  23.149  24.155  1.00  0.00    -0.324 N 
ATOM     21  H   UNL A   1      32.567  22.249  24.137  1.00  0.00     0.170 HD
BRANCH  20  22
ATOM     22  C   UNL A   1      34.287  23.158  24.645  1.00  0.00     0.060 A 
ATOM     23  C   UNL A   1      35.339  23.297  23.735  1.00  0.00     0.029 A 
ATOM     24  C   UNL A   1      34.602  22.955  26.007  1.00  0.00     0.066 A 
ATOM     25  C   UNL A   1      36.656  23.437  24.194  1.00  0.00     0.023 A 
ATOM     26  C   UNL A   1      35.905  23.180  26.472  1.00  0.00     0.043 A 
ATOM     27  Cl  UNL A   1      33.417  22.529  27.185  1.00  0.00    -0.082 Cl
ATOM     28  C   UNL A   1      36.921  23.448  25.562  1.00  0.00     0.042 A 
ATOM     29  Cl  UNL A   1      38.504  23.811  26.128  1.00  0.00    -0.084 Cl
ENDBRANCH  20  22
ENDBRANCH  13  18
ENDBRANCH   6   9
ENDBRANCH   4   5
ENDBRANCH   3   4
ENDBRANCH   2   3
ENDBRANCH   1   2
BRANCH   1  30
ATOM     30  C   UNL A   1      36.161  33.304  28.391  1.00  0.00     0.021 C 
BRANCH  30  31
ATOM     31  C   UNL A   1      36.983  33.078  29.659  1.00  0.00     0.116 C 
BRANCH  31  32
ATOM     32  N   UNL A   1      36.352  32.114  30.545  1.00  0.00    -0.352 N 
ATOM     33  C   UNL A   1      36.692  30.807  30.794  1.00  0.00     0.251 C 
ATOM     34  H   UNL A   1      35.568  32.446  31.039  1.00  0.00     0.163 HD
ATOM     35  O   UNL A   1      35.902  30.068  31.369  1.00  0.00    -0.269 OA
BRANCH  33  36
ATOM     36  C   UNL A   1      38.009  30.295  30.359  1.00  0.00     0.039 A 
ATOM     37  C   UNL A   1      38.254  30.128  28.994  1.00  0.00     0.014 A 
ATOM     38  C   UNL A   1      38.991  29.963  31.297  1.00  0.00     0.014 A 
ATOM     39  C   UNL A   1      39.504  29.675  28.567  1.00  0.00     0.010 A 
ATOM     40  C   UNL A   1      40.259  29.581  30.866  1.00  0.00     0.010 A 
ATOM     41  C   UNL A   1      40.527  29.425  29.498  1.00  0.00    -0.014 A 
BRANCH  41  42
ATOM     42  C   UNL A   1      41.880  29.004  29.054  1.00  0.00     0.031 A 
ATOM     43  C   UNL A   1      42.997  30.008  28.962  1.00  0.00     0.074 A 
ATOM     44  C   UNL A   1      42.084  27.730  28.666  1.00  0.00     0.049 A 
ATOM     45  N   UNL A   1      44.227  29.840  28.550  1.00  0.00    -0.248 NA
ATOM     46  C   UNL A   1      42.681  31.389  29.359  1.00  0.00     0.031 C 
ATOM     47  C   UNL A   1      41.063  26.680  28.647  1.00  0.00     0.029 A 
ATOM     48  N   UNL A   1      43.212  27.105  28.194  1.00  0.00    -0.354 N 
ATOM     49  C   UNL A   1      44.825  31.093  28.617  1.00  0.00     0.074 A 
ATOM     50  C   UNL A   1      43.808  32.020  29.062  1.00  0.00     0.031 C 
ATOM     51  C   UNL A   1      41.613  25.541  28.200  1.00  0.00     0.029 A 
ATOM     52  C   UNL A   1      43.013  25.785  27.865  1.00  0.00     0.049 A 
ATOM     53  H   UNL A   1      44.080  27.558  28.101  1.00  0.00     0.167 HD
ATOM     54  C   UNL A   1      46.108  31.435  28.348  1.00  0.00     0.037 A 
ATOM     55  C   UNL A   1      43.855  24.876  27.337  1.00  0.00     0.037 A 
ATOM     56  C   UNL A   1      47.117  30.498  27.924  1.00  0.00     0.049 A 
ATOM     57  C   UNL A   1      45.281  25.268  27.066  1.00  0.00     0.074 A 
ATOM     58  C   UNL A   1      48.465  30.726  27.708  1.00  0.00     0.029 A 
ATOM     59  N   UNL A   1      46.887  29.161  27.635  1.00  0.00    -0.354 N 
ATOM     60  N   UNL A   1      45.856  26.437  27.225  1.00  0.00    -0.248 NA
ATOM     61  C   UNL A   1      46.176  24.221  26.557  1.00  0.00     0.031 C 
ATOM     62  C   UNL A   1      49.038  29.541  27.232  1.00  0.00     0.029 A 
ATOM     63  C   UNL A   1      48.061  28.558  27.210  1.00  0.00     0.049 A 
ATOM     64  H   UNL A   1      46.018  28.706  27.719  1.00  0.00     0.167 HD
ATOM     65  C   UNL A   1      47.185  26.262  26.853  1.00  0.00     0.074 A 
ATOM     66  C   UNL A   1      47.330  24.871  26.476  1.00  0.00     0.031 C 
ATOM     67  C   UNL A   1      48.191  27.172  26.828  1.00  0.00     0.037 A 
BRANCH  54  68
ATOM     68  C   UNL A   1      46.486  32.887  28.486  1.00  0.00     0.058 A 
ATOM     69  C   UNL A   1      46.405  33.785  27.409  1.00  0.00     0.135 A 
ATOM     70  C   UNL A   1      46.925  33.391  29.722  1.00  0.00     0.135 A 
ATOM     71  F   UNL A   1      46.002  33.358  26.202  1.00  0.00    -0.206 F 
ATOM     72  C   UNL A   1      46.792  35.115  27.538  1.00  0.00     0.059 A 
ATOM     73  C   UNL A   1      47.286  34.726  29.883  1.00  0.00     0.059 A 
ATOM     74  F   UNL A   1      47.018  32.581  30.789  1.00  0.00    -0.206 F 
ATOM     75  C   UNL A   1      47.237  35.575  28.779  1.00  0.00     0.060 A 
BRANCH  75  76
ATOM     76  S   UNL A   1      47.759  37.297  28.925  1.00  0.00     0.124 S 
ATOM     77  O   UNL A   1      48.447  37.284  30.212  1.00  0.00    -0.237 OA
ATOM     78  O   UNL A   1      48.611  37.466  27.753  1.00  0.00    -0.237 OA
ATOM     79  O   UNL A   1      46.501  38.037  28.894  1.00  0.00    -0.744 OA
ENDBRANCH  75  76
ENDBRANCH  54  68
BRANCH  55  80
ATOM     80  C   UNL A   1      43.360  23.504  27.049  1.00  0.00     0.058 A 
ATOM     81  C   UNL A   1      43.086  23.090  25.738  1.00  0.00     0.135 A 
ATOM     82  C   UNL A   1      43.209  22.561  28.078  1.00  0.00     0.135 A 
ATOM     83  F   UNL A   1      43.207  23.957  24.722  1.00  0.00    -0.206 F 
ATOM     84  C   UNL A   1      42.682  21.789  25.454  1.00  0.00     0.059 A 
ATOM     85  C   UNL A   1      42.831  21.247  27.817  1.00  0.00     0.059 A 
ATOM     86  F   UNL A   1      43.474  22.903  29.348  1.00  0.00    -0.206 F 
ATOM     87  C   UNL A   1      42.569  20.871  26.500  1.00  0.00     0.060 A 
BRANCH  87  88
ATOM     88  S   UNL A   1      42.134  19.162  26.112  1.00  0.00     0.124 S 
ATOM     89  O   UNL A   1      40.720  19.287  25.773  1.00  0.00    -0.237 OA
ATOM     90  O   UNL A   1      43.033  18.864  25.001  1.00  0.00    -0.237 OA
ATOM     91  O   UNL A   1      42.426  18.450  27.353  1.00  0.00    -0.744 OA
ENDBRANCH  87  88
ENDBRANCH  55  80
BRANCH  67  92
ATOM     92  C   UNL A   1      49.551  26.690  26.398  1.00  0.00     0.058 A 
ATOM     93  C   UNL A   1      50.430  26.062  27.292  1.00  0.00     0.135 A 
ATOM     94  C   UNL A   1      49.955  26.811  25.058  1.00  0.00     0.135 A 
ATOM     95  F   UNL A   1      50.096  25.926  28.586  1.00  0.00    -0.206 F 
ATOM     96  C   UNL A   1      51.672  25.589  26.879  1.00  0.00     0.059 A 
ATOM     97  C   UNL A   1      51.179  26.319  24.616  1.00  0.00     0.059 A 
ATOM     98  F   UNL A   1      49.149  27.396  24.157  1.00  0.00    -0.206 F 
ATOM     99  C   UNL A   1      52.036  25.720  25.537  1.00  0.00     0.060 A 
BRANCH  99 100
ATOM    100  S   UNL A   1      53.636  25.071  25.008  1.00  0.00     0.124 S 
ATOM    101  O   UNL A   1      53.789  25.699  23.700  1.00  0.00    -0.237 OA
ATOM    102  O   UNL A   1      54.531  25.557  26.055  1.00  0.00    -0.237 OA
ATOM    103  O   UNL A   1      53.428  23.626  24.991  1.00  0.00    -0.744 OA
ENDBRANCH  99 100
ENDBRANCH  67  92
ENDBRANCH  41  42
ENDBRANCH  33  36
ENDBRANCH  31  32
ENDBRANCH  30  31
ENDBRANCH   1  30
TORSDOF 18
ENDMDL
MODEL 3
REMARK VINA RESULT:     -11.5      1.136      2.109
REMARK SMILES CC1(C)[C@@](C)(C(=O)NCCCCCCNC(=O)c2ccc(-c3c4nc(c(-c5c(F)cc(S(=O)(=O)[O-])cc5F)c5ccc([nH]5)c(-c5c(F)cc(S(=O)(=O)[O-])cc5F)c5nc(c(-c6c(F)cc(S(=O)(=O)[O-])cc6F)c6ccc3[nH]6)C=C5)C=C4)cc2)CC[C@]1(C)C(=O)Nc1ccc(Cl)cc1Cl
REMARK SMILES IDX 12 1 11 2 10 3 9 4 8 5 6 6 7 7 4 9 1 10 2 11 3 12 86 13 5 14
REMARK SMILES IDX 84 15 85 16 87 17 88 18 89 19 90 20 91 22 92 23 97 24 93 25
REMARK SMILES IDX 96 26 98 27 94 28 95 29 13 30 14 31 15 32 16 33 17 35 18 36
REMARK SMILES IDX 19 37 83 38 20 39 82 40 21 41 22 42 23 43 76 44 24 45 81 46
REMARK SMILES IDX 75 47 77 48 25 49 80 50 74 51 73 52 26 54 60 55 39 56 59 57
REMARK SMILES IDX 40 58 43 59 58 60 78 61 41 62 42 63 57 65 79 66 44 67 27 68
REMARK SMILES IDX 28 69 37 70 29 71 30 72 36 73 38 74 31 75 32 76 33 77 34 78
REMARK SMILES IDX 35 79 61 80 62 81 71 82 63 83 64 84 70 85 72 86 65 87 66 88
REMARK SMILES IDX 67 89 68 90 69 91 45 92 46 93 55 94 47 95 48 96 54 97 56 98
REMARK SMILES IDX 49 99 50 100 51 101 52 102 53 103
REMARK H PARENT 8 8 90 21 15 34 77 53 43 64
REMARK Flexibility Score: inf
ROOT
ATOM      1  C   UNL A   1      41.599  21.389  26.332  1.00  0.00     0.002 C 
ENDROOT
BRANCH   1   2
ATOM      2  C   UNL A   1      40.144  21.416  26.789  1.00  0.00     0.002 C 
BRANCH   2   3
ATOM      3  C   UNL A   1      39.199  22.174  25.864  1.00  0.00     0.021 C 
BRANCH   3   4
ATOM      4  C   UNL A   1      37.997  21.365  25.337  1.00  0.00     0.116 C 
BRANCH   4   5
ATOM      5  N   UNL A   1      37.383  22.003  24.175  1.00  0.00    -0.356 N 
ATOM      6  C   UNL A   1      36.318  22.831  23.971  1.00  0.00     0.226 C 
ATOM      7  O   UNL A   1      36.083  23.066  22.778  1.00  0.00    -0.274 OA
ATOM      8  H   UNL A   1      37.850  21.782  23.337  1.00  0.00     0.163 HD
BRANCH   6   9
ATOM      9  C   UNL A   1      35.452  23.503  25.103  1.00  0.00     0.052 C 
ATOM     10  C   UNL A   1      34.482  21.267  25.816  1.00  0.00     0.013 C 
ATOM     11  C   UNL A   1      34.174  22.730  25.646  1.00  0.00    -0.007 C 
ATOM     12  C   UNL A   1      33.750  23.339  27.011  1.00  0.00     0.013 C 
ATOM     13  C   UNL A   1      33.024  22.932  24.580  1.00  0.00     0.053 C 
ATOM     14  C   UNL A   1      36.449  23.957  26.198  1.00  0.00     0.022 C 
ATOM     15  C   UNL A   1      34.767  24.772  24.525  1.00  0.00     0.018 C 
ATOM     16  C   UNL A   1      33.345  24.383  24.081  1.00  0.00     0.018 C 
ATOM     17  C   UNL A   1      33.093  22.021  23.335  1.00  0.00     0.022 C 
BRANCH  13  18
ATOM     18  C   UNL A   1      31.539  22.840  25.132  1.00  0.00     0.230 C 
ATOM     19  O   UNL A   1      31.047  21.724  25.363  1.00  0.00    -0.274 OA
ATOM     20  N   UNL A   1      30.688  23.889  25.407  1.00  0.00    -0.324 N 
ATOM     21  H   UNL A   1      29.761  23.602  25.566  1.00  0.00     0.170 HD
BRANCH  20  22
ATOM     22  C   UNL A   1      30.862  25.282  25.511  1.00  0.00     0.060 A 
ATOM     23  C   UNL A   1      31.646  25.786  26.553  1.00  0.00     0.029 A 
ATOM     24  C   UNL A   1      30.217  26.202  24.654  1.00  0.00     0.066 A 
ATOM     25  C   UNL A   1      31.944  27.153  26.615  1.00  0.00     0.023 A 
ATOM     26  C   UNL A   1      30.584  27.555  24.664  1.00  0.00     0.043 A 
ATOM     27  Cl  UNL A   1      29.038  25.723  23.490  1.00  0.00    -0.082 Cl
ATOM     28  C   UNL A   1      31.469  28.017  25.630  1.00  0.00     0.042 A 
ATOM     29  Cl  UNL A   1      31.992  29.655  25.598  1.00  0.00    -0.084 Cl
ENDBRANCH  20  22
ENDBRANCH  13  18
ENDBRANCH   6   9
ENDBRANCH   4   5
ENDBRANCH   3   4
ENDBRANCH   2   3
ENDBRANCH   1   2
BRANCH   1  30
ATOM     30  C   UNL A   1      42.624  21.815  27.388  1.00  0.00     0.021 C 
BRANCH  30  31
ATOM     31  C   UNL A   1      42.972  23.303  27.390  1.00  0.00     0.116 C 
BRANCH  31  32
ATOM     32  N   UNL A   1      42.474  23.974  26.201  1.00  0.00    -0.352 N 
ATOM     33  C   UNL A   1      41.740  25.130  26.096  1.00  0.00     0.251 C 
ATOM     34  H   UNL A   1      42.697  23.538  25.347  1.00  0.00     0.163 HD
ATOM     35  O   UNL A   1      41.188  25.411  25.040  1.00  0.00    -0.269 OA
BRANCH  33  36
ATOM     36  C   UNL A   1      41.612  26.026  27.265  1.00  0.00     0.039 A 
ATOM     37  C   UNL A   1      42.516  27.081  27.412  1.00  0.00     0.014 A 
ATOM     38  C   UNL A   1      40.615  25.815  28.221  1.00  0.00     0.014 A 
ATOM     39  C   UNL A   1      42.389  27.954  28.494  1.00  0.00     0.010 A 
ATOM     40  C   UNL A   1      40.445  26.728  29.259  1.00  0.00     0.010 A 
ATOM     41  C   UNL A   1      41.335  27.802  29.412  1.00  0.00    -0.014 A 
BRANCH  41  42
ATOM     42  C   UNL A   1      41.149  28.761  30.530  1.00  0.00     0.031 A 
ATOM     43  C   UNL A   1      41.998  28.659  31.768  1.00  0.00     0.074 A 
ATOM     44  C   UNL A   1      40.165  29.679  30.459  1.00  0.00     0.049 A 
ATOM     45  N   UNL A   1      41.948  29.372  32.865  1.00  0.00    -0.248 NA
ATOM     46  C   UNL A   1      43.018  27.600  31.788  1.00  0.00     0.031 C 
ATOM     47  C   UNL A   1      39.235  29.834  29.339  1.00  0.00     0.029 A 
ATOM     48  N   UNL A   1      39.771  30.644  31.353  1.00  0.00    -0.354 N 
ATOM     49  C   UNL A   1      42.910  28.834  33.711  1.00  0.00     0.074 A 
ATOM     50  C   UNL A   1      43.495  27.706  33.019  1.00  0.00     0.031 C 
ATOM     51  C   UNL A   1      38.388  30.840  29.607  1.00  0.00     0.029 A 
ATOM     52  C   UNL A   1      38.688  31.377  30.931  1.00  0.00     0.049 A 
ATOM     53  H   UNL A   1      40.222  30.796  32.215  1.00  0.00     0.167 HD
ATOM     54  C   UNL A   1      43.285  29.254  34.944  1.00  0.00     0.037 A 
ATOM     55  C   UNL A   1      38.001  32.361  31.544  1.00  0.00     0.037 A 
ATOM     56  C   UNL A   1      42.708  30.391  35.614  1.00  0.00     0.049 A 
ATOM     57  C   UNL A   1      38.445  32.827  32.903  1.00  0.00     0.074 A 
ATOM     58  C   UNL A   1      43.074  30.952  36.826  1.00  0.00     0.029 A 
ATOM     59  N   UNL A   1      41.636  31.133  35.139  1.00  0.00    -0.354 N 
ATOM     60  N   UNL A   1      39.421  32.369  33.651  1.00  0.00    -0.248 NA
ATOM     61  C   UNL A   1      37.707  33.949  33.497  1.00  0.00     0.031 C 
ATOM     62  C   UNL A   1      42.185  31.993  37.111  1.00  0.00     0.029 A 
ATOM     63  C   UNL A   1      41.304  32.124  36.050  1.00  0.00     0.049 A 
ATOM     64  H   UNL A   1      41.177  30.978  34.282  1.00  0.00     0.167 HD
ATOM     65  C   UNL A   1      39.427  33.158  34.796  1.00  0.00     0.074 A 
ATOM     66  C   UNL A   1      38.365  34.132  34.634  1.00  0.00     0.031 C 
ATOM     67  C   UNL A   1      40.238  33.083  35.881  1.00  0.00     0.037 A 
BRANCH  54  68
ATOM     68  C   UNL A   1      44.355  28.465  35.653  1.00  0.00     0.058 A 
ATOM     69  C   UNL A   1      45.721  28.728  35.466  1.00  0.00     0.135 A 
ATOM     70  C   UNL A   1      44.005  27.437  36.544  1.00  0.00     0.135 A 
ATOM     71  F   UNL A   1      46.115  29.692  34.618  1.00  0.00    -0.206 F 
ATOM     72  C   UNL A   1      46.702  27.970  36.097  1.00  0.00     0.059 A 
ATOM     73  C   UNL A   1      44.969  26.687  37.212  1.00  0.00     0.059 A 
ATOM     74  F   UNL A   1      42.715  27.144  36.767  1.00  0.00    -0.206 F 
ATOM     75  C   UNL A   1      46.316  26.947  36.965  1.00  0.00     0.060 A 
BRANCH  75  76
ATOM     76  S   UNL A   1      47.600  25.956  37.757  1.00  0.00     0.124 S 
ATOM     77  O   UNL A   1      48.798  26.434  37.074  1.00  0.00    -0.237 OA
ATOM     78  O   UNL A   1      47.474  26.341  39.158  1.00  0.00    -0.237 OA
ATOM     79  O   UNL A   1      47.209  24.583  37.449  1.00  0.00    -0.744 OA
ENDBRANCH  75  76
ENDBRANCH  54  68
BRANCH  55  80
ATOM     80  C   UNL A   1      36.831  32.970  30.858  1.00  0.00     0.058 A 
ATOM     81  C   UNL A   1      35.520  32.688  31.267  1.00  0.00     0.135 A 
ATOM     82  C   UNL A   1      37.007  33.895  29.817  1.00  0.00     0.135 A 
ATOM     83  F   UNL A   1      35.300  31.804  32.252  1.00  0.00    -0.206 F 
ATOM     84  C   UNL A   1      34.423  33.302  30.671  1.00  0.00     0.059 A 
ATOM     85  C   UNL A   1      35.928  34.541  29.222  1.00  0.00     0.059 A 
ATOM     86  F   UNL A   1      38.243  34.211  29.400  1.00  0.00    -0.206 F 
ATOM     87  C   UNL A   1      34.638  34.237  29.656  1.00  0.00     0.060 A 
BRANCH  87  88
ATOM     88  S   UNL A   1      33.215  35.097  28.953  1.00  0.00     0.124 S 
ATOM     89  O   UNL A   1      32.710  34.107  28.007  1.00  0.00    -0.237 OA
ATOM     90  O   UNL A   1      32.388  35.333  30.132  1.00  0.00    -0.237 OA
ATOM     91  O   UNL A   1      33.804  36.294  28.360  1.00  0.00    -0.744 OA
ENDBRANCH  87  88
ENDBRANCH  55  80
BRANCH  67  92
ATOM     92  C   UNL A   1      40.027  34.094  36.976  1.00  0.00     0.058 A 
ATOM     93  C   UNL A   1      40.684  35.334  36.973  1.00  0.00     0.135 A 
ATOM     94  C   UNL A   1      39.113  33.839  38.011  1.00  0.00     0.135 A 
ATOM     95  F   UNL A   1      41.573  35.627  36.011  1.00  0.00    -0.206 F 
ATOM     96  C   UNL A   1      40.459  36.278  37.972  1.00  0.00     0.059 A 
ATOM     97  C   UNL A   1      38.850  34.779  39.003  1.00  0.00     0.059 A 
ATOM     98  F   UNL A   1      38.450  32.673  38.058  1.00  0.00    -0.206 F 
ATOM     99  C   UNL A   1      39.537  35.992  38.981  1.00  0.00     0.060 A 
BRANCH  99 100
ATOM    100  S   UNL A   1      39.229  37.239  40.250  1.00  0.00     0.124 S 
ATOM    101  O   UNL A   1      38.476  36.473  41.237  1.00  0.00    -0.237 OA
ATOM    102  O   UNL A   1      40.582  37.624  40.642  1.00  0.00    -0.237 OA
ATOM    103  O   UNL A   1      38.472  38.266  39.541  1.00  0.00    -0.744 OA
ENDBRANCH  99 100
ENDBRANCH  67  92
ENDBRANCH  41  42
ENDBRANCH  33  36
ENDBRANCH  31  32
ENDBRANCH  30  31
ENDBRANCH   1  30
TORSDOF 18
ENDMDL
