MODEL 1
REMARK VINA RESULT:     -13.0      0.000      0.000
REMARK SMILES O=C(NCCCCCCNC(=O)c1nccnc1C(=O)Nc1n[nH]c2ncccc12)c1ccc(-c2c3nc(c(-c4c(F)cc(S(=O)(=O)[O-])cc4F)c4ccc([nH]4)c(-c4c(F)cc(S(=O)(=O)[O-])cc4F)c4nc(c(-c5c(F)cc(S(=O)(=O)[O-])cc5F)c5ccc2[nH]5)C=C4)C=C3)cc1
REMARK SMILES IDX 6 1 5 2 4 3 3 4 1 5 2 6 31 8 32 9 96 10 33 11 95 12 34 13
REMARK SMILES IDX 35 14 36 15 89 16 37 17 94 18 88 19 90 20 38 21 93 22 87 23
REMARK SMILES IDX 86 24 39 26 73 27 52 28 72 29 53 30 56 31 71 32 91 33 54 34
REMARK SMILES IDX 55 35 70 37 92 38 57 39 40 40 41 41 50 42 42 43 43 44 49 45
REMARK SMILES IDX 51 46 44 47 45 48 46 49 47 50 48 51 74 52 75 53 84 54 76 55
REMARK SMILES IDX 77 56 83 57 85 58 78 59 79 60 80 61 81 62 82 63 58 64 59 65
REMARK SMILES IDX 68 66 60 67 61 68 67 69 69 70 62 71 63 72 64 73 65 74 66 75
REMARK SMILES IDX 7 76 8 77 9 78 10 79 11 80 12 82 13 83 14 84 18 85 15 86
REMARK SMILES IDX 17 87 16 88 19 89 20 90 21 91 22 93 23 94 30 95 24 96 25 97
REMARK SMILES IDX 29 98 26 100 28 101 27 102
REMARK H PARENT 3 7 90 25 56 36 10 81 21 92 24 99
REMARK Flexibility Score: inf
ROOT
ATOM      1  C   UNL A   1      31.772  29.460  26.277  1.00  0.00     0.002 C 
ENDROOT
BRANCH   1   2
ATOM      2  C   UNL A   1      32.583  28.509  27.150  1.00  0.00     0.021 C 
BRANCH   2   3
ATOM      3  C   UNL A   1      33.997  28.982  27.411  1.00  0.00     0.116 C 
BRANCH   3   4
ATOM      4  N   UNL A   1      33.986  30.314  27.990  1.00  0.00    -0.352 N 
ATOM      5  O   UNL A   1      34.591  31.817  29.559  1.00  0.00    -0.269 OA
ATOM      6  C   UNL A   1      34.903  30.864  28.853  1.00  0.00     0.251 C 
ATOM      7  H   UNL A   1      33.231  30.891  27.734  1.00  0.00     0.163 HD
BRANCH   6   8
ATOM      8  C   UNL A   1      36.268  30.295  28.912  1.00  0.00     0.039 A 
ATOM      9  C   UNL A   1      37.067  30.290  27.766  1.00  0.00     0.014 A 
ATOM     10  C   UNL A   1      36.777  29.816  30.121  1.00  0.00     0.014 A 
ATOM     11  C   UNL A   1      38.318  29.699  27.789  1.00  0.00     0.010 A 
ATOM     12  C   UNL A   1      38.092  29.342  30.176  1.00  0.00     0.010 A 
ATOM     13  C   UNL A   1      38.873  29.294  29.009  1.00  0.00    -0.014 A 
BRANCH  13  14
ATOM     14  C   UNL A   1      40.330  29.028  29.064  1.00  0.00     0.031 A 
ATOM     15  C   UNL A   1      41.315  30.103  29.407  1.00  0.00     0.074 A 
ATOM     16  C   UNL A   1      40.742  27.774  28.777  1.00  0.00     0.049 A 
ATOM     17  N   UNL A   1      42.619  30.029  29.446  1.00  0.00    -0.248 NA
ATOM     18  C   UNL A   1      40.778  31.432  29.742  1.00  0.00     0.031 C 
ATOM     19  C   UNL A   1      39.855  26.660  28.413  1.00  0.00     0.029 A 
ATOM     20  N   UNL A   1      41.992  27.217  28.743  1.00  0.00    -0.354 N 
ATOM     21  C   UNL A   1      43.064  31.301  29.780  1.00  0.00     0.074 A 
ATOM     22  C   UNL A   1      41.890  32.133  29.932  1.00  0.00     0.031 C 
ATOM     23  C   UNL A   1      40.584  25.554  28.223  1.00  0.00     0.029 A 
ATOM     24  C   UNL A   1      41.991  25.897  28.354  1.00  0.00     0.049 A 
ATOM     25  H   UNL A   1      42.811  27.712  28.972  1.00  0.00     0.167 HD
ATOM     26  C   UNL A   1      44.342  31.722  29.934  1.00  0.00     0.037 A 
ATOM     27  C   UNL A   1      43.009  25.063  28.076  1.00  0.00     0.037 A 
ATOM     28  C   UNL A   1      45.492  30.864  29.789  1.00  0.00     0.049 A 
ATOM     29  C   UNL A   1      44.411  25.579  28.216  1.00  0.00     0.074 A 
ATOM     30  C   UNL A   1      46.824  31.179  29.998  1.00  0.00     0.029 A 
ATOM     31  N   UNL A   1      45.456  29.540  29.378  1.00  0.00    -0.354 N 
ATOM     32  N   UNL A   1      44.813  26.762  28.618  1.00  0.00    -0.248 NA
ATOM     33  C   UNL A   1      45.498  24.661  27.860  1.00  0.00     0.031 C 
ATOM     34  C   UNL A   1      47.596  30.071  29.640  1.00  0.00     0.029 A 
ATOM     35  C   UNL A   1      46.745  29.041  29.275  1.00  0.00     0.049 A 
ATOM     36  H   UNL A   1      44.636  29.030  29.188  1.00  0.00     0.167 HD
ATOM     37  C   UNL A   1      46.200  26.725  28.570  1.00  0.00     0.074 A 
ATOM     38  C   UNL A   1      46.567  25.393  28.137  1.00  0.00     0.031 C 
ATOM     39  C   UNL A   1      47.089  27.708  28.847  1.00  0.00     0.037 A 
BRANCH  26  40
ATOM     40  C   UNL A   1      44.592  33.171  30.246  1.00  0.00     0.058 A 
ATOM     41  C   UNL A   1      44.828  33.622  31.553  1.00  0.00     0.135 A 
ATOM     42  C   UNL A   1      44.722  34.100  29.199  1.00  0.00     0.135 A 
ATOM     43  F   UNL A   1      44.703  32.782  32.592  1.00  0.00    -0.206 F 
ATOM     44  C   UNL A   1      45.191  34.941  31.811  1.00  0.00     0.059 A 
ATOM     45  C   UNL A   1      45.108  35.417  29.431  1.00  0.00     0.059 A 
ATOM     46  F   UNL A   1      44.500  33.722  27.930  1.00  0.00    -0.206 F 
ATOM     47  C   UNL A   1      45.341  35.827  30.742  1.00  0.00     0.060 A 
BRANCH  47  48
ATOM     48  S   UNL A   1      45.877  37.515  31.092  1.00  0.00     0.124 S 
ATOM     49  O   UNL A   1      44.943  38.292  30.282  1.00  0.00    -0.237 OA
ATOM     50  O   UNL A   1      45.688  37.606  32.537  1.00  0.00    -0.237 OA
ATOM     51  O   UNL A   1      47.265  37.536  30.639  1.00  0.00    -0.744 OA
ENDBRANCH  47  48
ENDBRANCH  26  40
BRANCH  27  52
ATOM     52  C   UNL A   1      42.739  23.690  27.570  1.00  0.00     0.058 A 
ATOM     53  C   UNL A   1      42.540  22.617  28.449  1.00  0.00     0.135 A 
ATOM     54  C   UNL A   1      42.697  23.421  26.191  1.00  0.00     0.135 A 
ATOM     55  F   UNL A   1      42.568  22.820  29.776  1.00  0.00    -0.206 F 
ATOM     56  C   UNL A   1      42.352  21.320  27.982  1.00  0.00     0.059 A 
ATOM     57  C   UNL A   1      42.469  22.141  25.700  1.00  0.00     0.059 A 
ATOM     58  F   UNL A   1      42.859  24.415  25.305  1.00  0.00    -0.206 F 
ATOM     59  C   UNL A   1      42.323  21.092  26.605  1.00  0.00     0.060 A 
BRANCH  59  60
ATOM     60  S   UNL A   1      42.088  19.405  26.010  1.00  0.00     0.124 S 
ATOM     61  O   UNL A   1      40.664  19.404  25.692  1.00  0.00    -0.237 OA
ATOM     62  O   UNL A   1      42.998  19.355  24.870  1.00  0.00    -0.237 OA
ATOM     63  O   UNL A   1      42.480  18.588  27.154  1.00  0.00    -0.744 OA
ENDBRANCH  59  60
ENDBRANCH  27  52
BRANCH  39  64
ATOM     64  C   UNL A   1      48.548  27.376  28.703  1.00  0.00     0.058 A 
ATOM     65  C   UNL A   1      49.248  27.651  27.518  1.00  0.00     0.135 A 
ATOM     66  C   UNL A   1      49.266  26.837  29.781  1.00  0.00     0.135 A 
ATOM     67  F   UNL A   1      48.604  28.152  26.452  1.00  0.00    -0.206 F 
ATOM     68  C   UNL A   1      50.608  27.392  27.403  1.00  0.00     0.059 A 
ATOM     69  C   UNL A   1      50.633  26.602  29.701  1.00  0.00     0.059 A 
ATOM     70  F   UNL A   1      48.643  26.559  30.938  1.00  0.00    -0.206 F 
ATOM     71  C   UNL A   1      51.295  26.877  28.505  1.00  0.00     0.060 A 
BRANCH  71  72
ATOM     72  S   UNL A   1      53.073  26.608  28.361  1.00  0.00     0.124 S 
ATOM     73  O   UNL A   1      53.129  25.518  27.392  1.00  0.00    -0.237 OA
ATOM     74  O   UNL A   1      53.544  27.905  27.885  1.00  0.00    -0.237 OA
ATOM     75  O   UNL A   1      53.476  26.260  29.720  1.00  0.00    -0.744 OA
ENDBRANCH  71  72
ENDBRANCH  39  64
ENDBRANCH  13  14
ENDBRANCH   6   8
ENDBRANCH   3   4
ENDBRANCH   2   3
ENDBRANCH   1   2
BRANCH   1  76
ATOM     76  C   UNL A   1      31.703  29.142  24.765  1.00  0.00     0.002 C 
BRANCH  76  77
ATOM     77  C   UNL A   1      30.345  28.293  24.038  1.00  0.00     0.021 C 
BRANCH  77  78
ATOM     78  C   UNL A   1      29.503  26.288  24.360  1.00  0.00     0.116 C 
BRANCH  78  79
ATOM     79  N   UNL A   1      29.860  24.857  23.724  1.00  0.00    -0.351 N 
ATOM     80  C   UNL A   1      31.087  24.238  23.614  1.00  0.00     0.272 C 
ATOM     81  H   UNL A   1      29.097  24.353  23.361  1.00  0.00     0.163 HD
ATOM     82  O   UNL A   1      31.248  23.213  22.964  1.00  0.00    -0.267 OA
BRANCH  80  83
ATOM     83  C   UNL A   1      32.193  24.854  24.363  1.00  0.00     0.159 A 
ATOM     84  N   UNL A   1      32.772  25.901  23.684  1.00  0.00    -0.247 NA
ATOM     85  C   UNL A   1      32.723  24.321  25.530  1.00  0.00     0.159 A 
ATOM     86  C   UNL A   1      33.890  26.411  24.228  1.00  0.00     0.132 A 
ATOM     87  N   UNL A   1      33.868  24.858  26.062  1.00  0.00    -0.247 NA
ATOM     88  C   UNL A   1      34.426  25.899  25.394  1.00  0.00     0.132 A 
BRANCH  85  89
ATOM     89  C   UNL A   1      32.098  23.253  26.369  1.00  0.00     0.277 C 
ATOM     90  O   UNL A   1      31.208  23.602  27.152  1.00  0.00    -0.267 OA
ATOM     91  N   UNL A   1      32.399  21.910  26.301  1.00  0.00    -0.303 N 
ATOM     92  H   UNL A   1      31.800  21.329  26.822  1.00  0.00     0.172 HD
BRANCH  91  93
ATOM     93  C   UNL A   1      33.391  21.247  25.626  1.00  0.00     0.164 A 
ATOM     94  N   UNL A   1      34.657  21.414  26.054  1.00  0.00    -0.155 NA
ATOM     95  C   UNL A   1      33.267  20.285  24.604  1.00  0.00     0.063 A 
ATOM     96  N   UNL A   1      35.391  20.316  25.704  1.00  0.00    -0.259 N 
ATOM     97  C   UNL A   1      34.754  19.442  24.869  1.00  0.00     0.157 A 
ATOM     98  C   UNL A   1      32.092  19.591  23.455  1.00  0.00     0.017 A 
ATOM     99  H   UNL A   1      36.308  20.166  26.029  1.00  0.00     0.192 HD
ATOM    100  N   UNL A   1      35.091  17.854  24.239  1.00  0.00    -0.237 NA
ATOM    101  C   UNL A   1      32.374  18.000  22.714  1.00  0.00     0.021 A 
ATOM    102  C   UNL A   1      33.883  17.187  23.094  1.00  0.00     0.113 A 
ENDBRANCH  91  93
ENDBRANCH  85  89
ENDBRANCH  80  83
ENDBRANCH  78  79
ENDBRANCH  77  78
ENDBRANCH  76  77
ENDBRANCH   1  76
TORSDOF 18
ENDMDL
MODEL 2
REMARK VINA RESULT:     -13.0      2.034      3.840
REMARK SMILES O=C(NCCCCCCNC(=O)c1nccnc1C(=O)Nc1n[nH]c2ncccc12)c1ccc(-c2c3nc(c(-c4c(F)cc(S(=O)(=O)[O-])cc4F)c4ccc([nH]4)c(-c4c(F)cc(S(=O)(=O)[O-])cc4F)c4nc(c(-c5c(F)cc(S(=O)(=O)[O-])cc5F)c5ccc2[nH]5)C=C4)C=C3)cc1
REMARK SMILES IDX 6 1 5 2 4 3 3 4 1 5 2 6 31 8 32 9 96 10 33 11 95 12 34 13
REMARK SMILES IDX 35 14 36 15 89 16 37 17 94 18 88 19 90 20 38 21 93 22 87 23
REMARK SMILES IDX 86 24 39 26 73 27 52 28 72 29 53 30 56 31 71 32 91 33 54 34
REMARK SMILES IDX 55 35 70 37 92 38 57 39 40 40 41 41 50 42 42 43 43 44 49 45
REMARK SMILES IDX 51 46 44 47 45 48 46 49 47 50 48 51 74 52 75 53 84 54 76 55
REMARK SMILES IDX 77 56 83 57 85 58 78 59 79 60 80 61 81 62 82 63 58 64 59 65
REMARK SMILES IDX 68 66 60 67 61 68 67 69 69 70 62 71 63 72 64 73 65 74 66 75
REMARK SMILES IDX 7 76 8 77 9 78 10 79 11 80 12 82 13 83 14 84 18 85 15 86
REMARK SMILES IDX 17 87 16 88 19 89 20 90 21 91 22 93 23 94 30 95 24 96 25 97
REMARK SMILES IDX 29 98 26 100 28 101 27 102
REMARK H PARENT 3 7 90 25 56 36 10 81 21 92 24 99
REMARK Flexibility Score: inf
ROOT
ATOM      1  C   UNL A   1      33.094  30.494  26.991  1.00  0.00     0.002 C 
ENDROOT
BRANCH   1   2
ATOM      2  C   UNL A   1      34.348  29.681  26.693  1.00  0.00     0.021 C 
BRANCH   2   3
ATOM      3  C   UNL A   1      35.115  29.271  27.932  1.00  0.00     0.116 C 
BRANCH   3   4
ATOM      4  N   UNL A   1      35.252  30.398  28.837  1.00  0.00    -0.352 N 
ATOM      5  O   UNL A   1      36.109  31.400  30.667  1.00  0.00    -0.269 OA
ATOM      6  C   UNL A   1      36.284  30.659  29.705  1.00  0.00     0.251 C 
ATOM      7  H   UNL A   1      34.518  31.054  28.827  1.00  0.00     0.163 HD
BRANCH   6   8
ATOM      8  C   UNL A   1      37.606  30.039  29.460  1.00  0.00     0.039 A 
ATOM      9  C   UNL A   1      38.147  30.050  28.172  1.00  0.00     0.014 A 
ATOM     10  C   UNL A   1      38.335  29.497  30.521  1.00  0.00     0.014 A 
ATOM     11  C   UNL A   1      39.350  29.413  27.915  1.00  0.00     0.010 A 
ATOM     12  C   UNL A   1      39.610  28.975  30.285  1.00  0.00     0.010 A 
ATOM     13  C   UNL A   1      40.128  28.943  28.980  1.00  0.00    -0.014 A 
BRANCH  13  14
ATOM     14  C   UNL A   1      41.552  28.623  28.720  1.00  0.00     0.031 A 
ATOM     15  C   UNL A   1      42.616  29.677  28.757  1.00  0.00     0.074 A 
ATOM     16  C   UNL A   1      41.855  27.339  28.432  1.00  0.00     0.049 A 
ATOM     17  N   UNL A   1      43.892  29.553  28.505  1.00  0.00    -0.248 NA
ATOM     18  C   UNL A   1      42.204  31.043  29.116  1.00  0.00     0.031 C 
ATOM     19  C   UNL A   1      40.881  26.241  28.355  1.00  0.00     0.029 A 
ATOM     20  N   UNL A   1      43.050  26.731  28.152  1.00  0.00    -0.354 N 
ATOM     21  C   UNL A   1      44.434  30.824  28.642  1.00  0.00     0.074 A 
ATOM     22  C   UNL A   1      43.347  31.710  29.001  1.00  0.00     0.031 C 
ATOM     23  C   UNL A   1      41.519  25.098  28.079  1.00  0.00     0.029 A 
ATOM     24  C   UNL A   1      42.928  25.391  27.864  1.00  0.00     0.049 A 
ATOM     25  H   UNL A   1      43.912  27.206  28.156  1.00  0.00     0.167 HD
ATOM     26  C   UNL A   1      45.724  31.202  28.473  1.00  0.00     0.037 A 
ATOM     27  C   UNL A   1      43.834  24.503  27.419  1.00  0.00     0.037 A 
ATOM     28  C   UNL A   1      46.788  30.293  28.129  1.00  0.00     0.049 A 
ATOM     29  C   UNL A   1      45.243  24.970  27.201  1.00  0.00     0.074 A 
ATOM     30  C   UNL A   1      48.139  30.566  28.008  1.00  0.00     0.029 A 
ATOM     31  N   UNL A   1      46.625  28.949  27.827  1.00  0.00    -0.354 N 
ATOM     32  N   UNL A   1      45.755  26.158  27.422  1.00  0.00    -0.248 NA
ATOM     33  C   UNL A   1      46.196  23.989  26.671  1.00  0.00     0.031 C 
ATOM     34  C   UNL A   1      48.781  29.408  27.559  1.00  0.00     0.029 A 
ATOM     35  C   UNL A   1      47.843  28.393  27.468  1.00  0.00     0.049 A 
ATOM     36  H   UNL A   1      45.770  28.461  27.863  1.00  0.00     0.167 HD
ATOM     37  C   UNL A   1      47.093  26.063  27.062  1.00  0.00     0.074 A 
ATOM     38  C   UNL A   1      47.318  24.694  26.648  1.00  0.00     0.031 C 
ATOM     39  C   UNL A   1      48.046  27.025  27.063  1.00  0.00     0.037 A 
BRANCH  26  40
ATOM     40  C   UNL A   1      46.075  32.657  28.622  1.00  0.00     0.058 A 
ATOM     41  C   UNL A   1      46.014  33.552  27.544  1.00  0.00     0.135 A 
ATOM     42  C   UNL A   1      46.354  33.182  29.896  1.00  0.00     0.135 A 
ATOM     43  F   UNL A   1      45.767  33.103  26.304  1.00  0.00    -0.206 F 
ATOM     44  C   UNL A   1      46.211  34.918  27.724  1.00  0.00     0.059 A 
ATOM     45  C   UNL A   1      46.529  34.547  30.103  1.00  0.00     0.059 A 
ATOM     46  F   UNL A   1      46.430  32.367  30.960  1.00  0.00    -0.206 F 
ATOM     47  C   UNL A   1      46.454  35.407  29.010  1.00  0.00     0.060 A 
BRANCH  47  48
ATOM     48  S   UNL A   1      46.639  37.190  29.232  1.00  0.00     0.124 S 
ATOM     49  O   UNL A   1      48.059  37.297  29.551  1.00  0.00    -0.237 OA
ATOM     50  O   UNL A   1      46.244  37.706  27.925  1.00  0.00    -0.237 OA
ATOM     51  O   UNL A   1      45.725  37.496  30.329  1.00  0.00    -0.744 OA
ENDBRANCH  47  48
ENDBRANCH  26  40
BRANCH  27  52
ATOM     52  C   UNL A   1      43.420  23.114  27.081  1.00  0.00     0.058 A 
ATOM     53  C   UNL A   1      43.136  22.175  28.081  1.00  0.00     0.135 A 
ATOM     54  C   UNL A   1      43.324  22.691  25.744  1.00  0.00     0.135 A 
ATOM     55  F   UNL A   1      43.211  22.528  29.375  1.00  0.00    -0.206 F 
ATOM     56  C   UNL A   1      42.812  20.858  27.773  1.00  0.00     0.059 A 
ATOM     57  C   UNL A   1      42.962  21.392  25.409  1.00  0.00     0.059 A 
ATOM     58  F   UNL A   1      43.563  23.554  24.745  1.00  0.00    -0.206 F 
ATOM     59  C   UNL A   1      42.733  20.475  26.432  1.00  0.00     0.060 A 
BRANCH  59  60
ATOM     60  S   UNL A   1      42.322  18.763  26.043  1.00  0.00     0.124 S 
ATOM     61  O   UNL A   1      40.913  18.876  25.681  1.00  0.00    -0.237 OA
ATOM     62  O   UNL A   1      43.242  18.470  24.949  1.00  0.00    -0.237 OA
ATOM     63  O   UNL A   1      42.598  18.058  27.292  1.00  0.00    -0.744 OA
ENDBRANCH  59  60
ENDBRANCH  27  52
BRANCH  39  64
ATOM     64  C   UNL A   1      49.424  26.627  26.614  1.00  0.00     0.058 A 
ATOM     65  C   UNL A   1      50.306  25.950  27.470  1.00  0.00     0.135 A 
ATOM     66  C   UNL A   1      49.842  26.868  25.296  1.00  0.00     0.135 A 
ATOM     67  F   UNL A   1      49.961  25.710  28.745  1.00  0.00    -0.206 F 
ATOM     68  C   UNL A   1      51.561  25.537  27.039  1.00  0.00     0.059 A 
ATOM     69  C   UNL A   1      51.078  26.433  24.833  1.00  0.00     0.059 A 
ATOM     70  F   UNL A   1      49.034  27.508  24.436  1.00  0.00    -0.206 F 
ATOM     71  C   UNL A   1      51.934  25.773  25.714  1.00  0.00     0.060 A 
BRANCH  71  72
ATOM     72  S   UNL A   1      53.539  25.171  25.152  1.00  0.00     0.124 S 
ATOM     73  O   UNL A   1      54.447  25.855  26.068  1.00  0.00    -0.237 OA
ATOM     74  O   UNL A   1      53.412  23.730  25.341  1.00  0.00    -0.237 OA
ATOM     75  O   UNL A   1      53.601  25.613  23.762  1.00  0.00    -0.744 OA
ENDBRANCH  71  72
ENDBRANCH  39  64
ENDBRANCH  13  14
ENDBRANCH   6   8
ENDBRANCH   3   4
ENDBRANCH   2   3
ENDBRANCH   1   2
BRANCH   1  76
ATOM     76  C   UNL A   1      31.737  29.756  26.897  1.00  0.00     0.002 C 
BRANCH  76  77
ATOM     77  C   UNL A   1      31.520  28.102  27.453  1.00  0.00     0.021 C 
BRANCH  77  78
ATOM     78  C   UNL A   1      31.627  26.163  26.422  1.00  0.00     0.116 C 
BRANCH  78  79
ATOM     79  N   UNL A   1      30.839  24.782  26.645  1.00  0.00    -0.351 N 
ATOM     80  C   UNL A   1      31.194  23.507  26.258  1.00  0.00     0.272 C 
ATOM     81  H   UNL A   1      29.982  24.857  27.125  1.00  0.00     0.163 HD
ATOM     82  O   UNL A   1      30.427  22.557  26.350  1.00  0.00    -0.267 OA
BRANCH  80  83
ATOM     83  C   UNL A   1      32.570  23.339  25.767  1.00  0.00     0.159 A 
ATOM     84  N   UNL A   1      33.504  23.424  26.774  1.00  0.00    -0.247 NA
ATOM     85  C   UNL A   1      32.906  23.298  24.422  1.00  0.00     0.159 A 
ATOM     86  C   UNL A   1      34.790  23.443  26.385  1.00  0.00     0.132 A 
ATOM     87  N   UNL A   1      34.227  23.322  24.051  1.00  0.00    -0.247 NA
ATOM     88  C   UNL A   1      35.143  23.392  25.050  1.00  0.00     0.132 A 
BRANCH  85  89
ATOM     89  C   UNL A   1      31.954  23.109  23.285  1.00  0.00     0.277 C 
ATOM     90  O   UNL A   1      31.743  21.949  22.915  1.00  0.00    -0.267 OA
ATOM     91  N   UNL A   1      31.256  24.118  22.656  1.00  0.00    -0.303 N 
ATOM     92  H   UNL A   1      30.570  23.807  22.022  1.00  0.00     0.172 HD
BRANCH  91  93
ATOM     93  C   UNL A   1      31.356  25.480  22.766  1.00  0.00     0.164 A 
ATOM     94  N   UNL A   1      32.510  26.055  22.381  1.00  0.00    -0.155 NA
ATOM     95  C   UNL A   1      30.354  26.409  23.110  1.00  0.00     0.063 A 
ATOM     96  N   UNL A   1      32.259  27.346  22.009  1.00  0.00    -0.259 N 
ATOM     97  C   UNL A   1      30.999  27.790  22.292  1.00  0.00     0.157 A 
ATOM     98  C   UNL A   1      28.714  26.524  23.802  1.00  0.00     0.017 A 
ATOM     99  H   UNL A   1      32.935  27.913  21.571  1.00  0.00     0.192 HD
ATOM    100  N   UNL A   1      30.072  29.218  21.925  1.00  0.00    -0.237 NA
ATOM    101  C   UNL A   1      27.709  27.965  23.532  1.00  0.00     0.021 A 
ATOM    102  C   UNL A   1      28.425  29.292  22.632  1.00  0.00     0.113 A 
ENDBRANCH  91  93
ENDBRANCH  85  89
ENDBRANCH  80  83
ENDBRANCH  78  79
ENDBRANCH  77  78
ENDBRANCH  76  77
ENDBRANCH   1  76
TORSDOF 18
ENDMDL
MODEL 3
REMARK VINA RESULT:     -12.9      5.473     10.490
REMARK SMILES O=C(NCCCCCCNC(=O)c1nccnc1C(=O)Nc1n[nH]c2ncccc12)c1ccc(-c2c3nc(c(-c4c(F)cc(S(=O)(=O)[O-])cc4F)c4ccc([nH]4)c(-c4c(F)cc(S(=O)(=O)[O-])cc4F)c4nc(c(-c5c(F)cc(S(=O)(=O)[O-])cc5F)c5ccc2[nH]5)C=C4)C=C3)cc1
REMARK SMILES IDX 6 1 5 2 4 3 3 4 1 5 2 6 31 8 32 9 96 10 33 11 95 12 34 13
REMARK SMILES IDX 35 14 36 15 89 16 37 17 94 18 88 19 90 20 38 21 93 22 87 23
REMARK SMILES IDX 86 24 39 26 73 27 52 28 72 29 53 30 56 31 71 32 91 33 54 34
REMARK SMILES IDX 55 35 70 37 92 38 57 39 40 40 41 41 50 42 42 43 43 44 49 45
REMARK SMILES IDX 51 46 44 47 45 48 46 49 47 50 48 51 74 52 75 53 84 54 76 55
REMARK SMILES IDX 77 56 83 57 85 58 78 59 79 60 80 61 81 62 82 63 58 64 59 65
REMARK SMILES IDX 68 66 60 67 61 68 67 69 69 70 62 71 63 72 64 73 65 74 66 75
REMARK SMILES IDX 7 76 8 77 9 78 10 79 11 80 12 82 13 83 14 84 18 85 15 86
REMARK SMILES IDX 17 87 16 88 19 89 20 90 21 91 22 93 23 94 30 95 24 96 25 97
REMARK SMILES IDX 29 98 26 100 28 101 27 102
REMARK H PARENT 3 7 90 25 56 36 10 81 21 92 24 99
REMARK Flexibility Score: inf
ROOT
ATOM      1  C   UNL A   1      35.792  23.737  25.454  1.00  0.00     0.002 C 
ENDROOT
BRANCH   1   2
ATOM      2  C   UNL A   1      37.252  23.301  25.487  1.00  0.00     0.021 C 
BRANCH   2   3
ATOM      3  C   UNL A   1      38.106  24.112  26.438  1.00  0.00     0.116 C 
BRANCH   3   4
ATOM      4  N   UNL A   1      39.488  23.672  26.377  1.00  0.00    -0.352 N 
ATOM      5  O   UNL A   1      41.706  24.061  26.243  1.00  0.00    -0.269 OA
ATOM      6  C   UNL A   1      40.615  24.392  26.695  1.00  0.00     0.251 C 
ATOM      7  H   UNL A   1      39.636  22.748  26.072  1.00  0.00     0.163 HD
BRANCH   6   8
ATOM      8  C   UNL A   1      40.493  25.563  27.592  1.00  0.00     0.039 A 
ATOM      9  C   UNL A   1      39.618  25.514  28.679  1.00  0.00     0.014 A 
ATOM     10  C   UNL A   1      41.290  26.691  27.385  1.00  0.00     0.014 A 
ATOM     11  C   UNL A   1      39.442  26.626  29.484  1.00  0.00     0.010 A 
ATOM     12  C   UNL A   1      41.211  27.763  28.279  1.00  0.00     0.010 A 
ATOM     13  C   UNL A   1      40.293  27.729  29.342  1.00  0.00    -0.014 A 
BRANCH  13  14
ATOM     14  C   UNL A   1      40.342  28.724  30.439  1.00  0.00     0.031 A 
ATOM     15  C   UNL A   1      41.287  28.581  31.592  1.00  0.00     0.074 A 
ATOM     16  C   UNL A   1      39.486  29.766  30.368  1.00  0.00     0.049 A 
ATOM     17  N   UNL A   1      41.408  29.345  32.645  1.00  0.00    -0.248 NA
ATOM     18  C   UNL A   1      42.212  27.435  31.571  1.00  0.00     0.031 C 
ATOM     19  C   UNL A   1      38.512  29.983  29.289  1.00  0.00     0.029 A 
ATOM     20  N   UNL A   1      39.287  30.834  31.202  1.00  0.00    -0.354 N 
ATOM     21  C   UNL A   1      42.396  28.764  33.428  1.00  0.00     0.074 A 
ATOM     22  C   UNL A   1      42.845  27.578  32.731  1.00  0.00     0.031 C 
ATOM     23  C   UNL A   1      37.846  31.122  29.512  1.00  0.00     0.029 A 
ATOM     24  C   UNL A   1      38.271  31.666  30.792  1.00  0.00     0.049 A 
ATOM     25  H   UNL A   1      39.819  30.991  32.016  1.00  0.00     0.167 HD
ATOM     26  C   UNL A   1      42.869  29.190  34.624  1.00  0.00     0.037 A 
ATOM     27  C   UNL A   1      37.700  32.720  31.402  1.00  0.00     0.037 A 
ATOM     28  C   UNL A   1      42.411  30.385  35.288  1.00  0.00     0.049 A 
ATOM     29  C   UNL A   1      38.222  33.135  32.746  1.00  0.00     0.074 A 
ATOM     30  C   UNL A   1      42.881  30.941  36.466  1.00  0.00     0.029 A 
ATOM     31  N   UNL A   1      41.370  31.192  34.854  1.00  0.00    -0.354 N 
ATOM     32  N   UNL A   1      39.217  32.625  33.431  1.00  0.00    -0.248 NA
ATOM     33  C   UNL A   1      37.547  34.259  33.405  1.00  0.00     0.031 C 
ATOM     34  C   UNL A   1      42.075  32.038  36.783  1.00  0.00     0.029 A 
ATOM     35  C   UNL A   1      41.147  32.210  35.768  1.00  0.00     0.049 A 
ATOM     36  H   UNL A   1      40.864  31.062  34.019  1.00  0.00     0.167 HD
ATOM     37  C   UNL A   1      39.291  33.370  34.600  1.00  0.00     0.074 A 
ATOM     38  C   UNL A   1      38.266  34.390  34.510  1.00  0.00     0.031 C 
ATOM     39  C   UNL A   1      40.123  33.219  35.657  1.00  0.00     0.037 A 
BRANCH  26  40
ATOM     40  C   UNL A   1      43.912  28.364  35.323  1.00  0.00     0.058 A 
ATOM     41  C   UNL A   1      43.574  27.348  36.230  1.00  0.00     0.135 A 
ATOM     42  C   UNL A   1      45.268  28.512  34.981  1.00  0.00     0.135 A 
ATOM     43  F   UNL A   1      42.297  27.173  36.605  1.00  0.00    -0.206 F 
ATOM     44  C   UNL A   1      44.541  26.504  36.767  1.00  0.00     0.059 A 
ATOM     45  C   UNL A   1      46.248  27.663  35.485  1.00  0.00     0.059 A 
ATOM     46  F   UNL A   1      45.646  29.472  34.123  1.00  0.00    -0.206 F 
ATOM     47  C   UNL A   1      45.873  26.660  36.378  1.00  0.00     0.060 A 
BRANCH  47  48
ATOM     48  S   UNL A   1      47.102  25.511  37.034  1.00  0.00     0.124 S 
ATOM     49  O   UNL A   1      48.287  25.882  36.266  1.00  0.00    -0.237 OA
ATOM     50  O   UNL A   1      47.130  25.864  38.449  1.00  0.00    -0.237 OA
ATOM     51  O   UNL A   1      46.543  24.198  36.726  1.00  0.00    -0.744 OA
ENDBRANCH  47  48
ENDBRANCH  26  40
BRANCH  27  52
ATOM     52  C   UNL A   1      36.530  33.402  30.784  1.00  0.00     0.058 A 
ATOM     53  C   UNL A   1      36.680  34.241  29.672  1.00  0.00     0.135 A 
ATOM     54  C   UNL A   1      35.236  33.242  31.311  1.00  0.00     0.135 A 
ATOM     55  F   UNL A   1      37.894  34.426  29.129  1.00  0.00    -0.206 F 
ATOM     56  C   UNL A   1      35.601  34.932  29.131  1.00  0.00     0.059 A 
ATOM     57  C   UNL A   1      34.136  33.888  30.763  1.00  0.00     0.059 A 
ATOM     58  F   UNL A   1      35.031  32.432  32.361  1.00  0.00    -0.206 F 
ATOM     59  C   UNL A   1      34.332  34.752  29.687  1.00  0.00     0.060 A 
BRANCH  59  60
ATOM     60  S   UNL A   1      32.941  35.660  28.984  1.00  0.00     0.124 S 
ATOM     61  O   UNL A   1      32.371  34.665  28.081  1.00  0.00    -0.237 OA
ATOM     62  O   UNL A   1      32.151  35.974  30.170  1.00  0.00    -0.237 OA
ATOM     63  O   UNL A   1      33.578  36.805  28.340  1.00  0.00    -0.744 OA
ENDBRANCH  59  60
ENDBRANCH  27  52
BRANCH  39  64
ATOM     64  C   UNL A   1      39.969  34.185  36.798  1.00  0.00     0.058 A 
ATOM     65  C   UNL A   1      40.603  35.437  36.787  1.00  0.00     0.135 A 
ATOM     66  C   UNL A   1      39.129  33.882  37.881  1.00  0.00     0.135 A 
ATOM     67  F   UNL A   1      41.429  35.769  35.782  1.00  0.00    -0.206 F 
ATOM     68  C   UNL A   1      40.419  36.352  37.817  1.00  0.00     0.059 A 
ATOM     69  C   UNL A   1      38.903  34.794  38.905  1.00  0.00     0.059 A 
ATOM     70  F   UNL A   1      38.497  32.699  37.936  1.00  0.00    -0.206 F 
ATOM     71  C   UNL A   1      39.557  36.025  38.868  1.00  0.00     0.060 A 
BRANCH  71  72
ATOM     72  S   UNL A   1      39.278  37.249  40.162  1.00  0.00     0.124 S 
ATOM     73  O   UNL A   1      38.525  36.473  41.143  1.00  0.00    -0.237 OA
ATOM     74  O   UNL A   1      40.638  37.608  40.547  1.00  0.00    -0.237 OA
ATOM     75  O   UNL A   1      38.525  38.298  39.482  1.00  0.00    -0.744 OA
ENDBRANCH  71  72
ENDBRANCH  39  64
ENDBRANCH  13  14
ENDBRANCH   6   8
ENDBRANCH   3   4
ENDBRANCH   2   3
ENDBRANCH   1   2
BRANCH   1  76
ATOM     76  C   UNL A   1      35.044  23.590  24.108  1.00  0.00     0.002 C 
BRANCH  76  77
ATOM     77  C   UNL A   1      34.404  24.970  23.225  1.00  0.00     0.021 C 
BRANCH  77  78
ATOM     78  C   UNL A   1      32.775  25.171  21.763  1.00  0.00     0.116 C 
BRANCH  78  79
ATOM     79  N   UNL A   1      31.744  26.365  21.460  1.00  0.00    -0.351 N 
ATOM     80  C   UNL A   1      31.223  27.303  22.326  1.00  0.00     0.272 C 
ATOM     81  H   UNL A   1      31.443  26.437  20.526  1.00  0.00     0.163 HD
ATOM     82  O   UNL A   1      30.321  28.064  22.002  1.00  0.00    -0.267 OA
BRANCH  80  83
ATOM     83  C   UNL A   1      31.843  27.370  23.658  1.00  0.00     0.159 A 
ATOM     84  N   UNL A   1      32.959  28.174  23.681  1.00  0.00    -0.247 NA
ATOM     85  C   UNL A   1      31.467  26.564  24.724  1.00  0.00     0.159 A 
ATOM     86  C   UNL A   1      33.675  28.158  24.819  1.00  0.00     0.132 A 
ATOM     87  N   UNL A   1      32.216  26.564  25.873  1.00  0.00    -0.247 NA
ATOM     88  C   UNL A   1      33.309  27.370  25.892  1.00  0.00     0.132 A 
BRANCH  85  89
ATOM     89  C   UNL A   1      30.219  25.744  24.804  1.00  0.00     0.277 C 
ATOM     90  O   UNL A   1      29.145  26.338  24.664  1.00  0.00    -0.267 OA
ATOM     91  N   UNL A   1      30.176  24.376  24.970  1.00  0.00    -0.303 N 
ATOM     92  H   UNL A   1      29.282  23.979  24.863  1.00  0.00     0.172 HD
BRANCH  91  93
ATOM     93  C   UNL A   1      31.169  23.477  25.255  1.00  0.00     0.164 A 
ATOM     94  N   UNL A   1      31.644  23.448  26.514  1.00  0.00    -0.155 NA
ATOM     95  C   UNL A   1      31.692  22.456  24.436  1.00  0.00     0.063 A 
ATOM     96  N   UNL A   1      32.147  22.203  26.770  1.00  0.00    -0.259 N 
ATOM     97  C   UNL A   1      32.230  21.383  25.682  1.00  0.00     0.157 A 
ATOM     98  C   UNL A   1      31.723  21.878  22.748  1.00  0.00     0.017 A 
ATOM     99  H   UNL A   1      32.428  21.920  27.671  1.00  0.00     0.192 HD
ATOM    100  N   UNL A   1      32.610  19.704  25.415  1.00  0.00    -0.237 NA
ATOM    101  C   UNL A   1      32.154  20.196  22.369  1.00  0.00     0.021 A 
ATOM    102  C   UNL A   1      32.623  19.160  23.707  1.00  0.00     0.113 A 
ENDBRANCH  91  93
ENDBRANCH  85  89
ENDBRANCH  80  83
ENDBRANCH  78  79
ENDBRANCH  77  78
ENDBRANCH  76  77
ENDBRANCH   1  76
TORSDOF 18
ENDMDL
