MODEL 1
REMARK VINA RESULT:     -11.7      0.000      0.000
REMARK SMILES Cc1c(C[N@H+]2CC[C@@H](C(=O)NCCCCCCNC(=O)c3ccc(-c4c5nc(c(-c6c(F)cc(S(=O)(=O)[O-])cc6F)c6ccc([nH]6)c(-c6c(F)cc(S(=O)(=O)[O-])cc6F)c6nc(c(-c7c(F)cc(S(=O)(=O)[O-])cc7F)c7ccc4[nH]7)C=C6)C=C5)cc3)[C@@H]2C)cccc1[N+](=O)[O-]
REMARK SMILES IDX 14 1 13 2 12 3 11 4 9 5 10 6 8 8 5 9 6 10 87 11 7 13 88 14
REMARK SMILES IDX 4 15 3 16 1 17 2 18 92 19 89 20 91 21 90 22 93 23 94 24
REMARK SMILES IDX 95 25 15 26 16 27 17 28 18 29 19 30 20 32 21 33 22 34 86 35
REMARK SMILES IDX 23 36 85 37 24 38 25 39 26 40 79 41 27 42 84 43 78 44 80 45
REMARK SMILES IDX 28 46 83 47 77 48 76 49 29 51 63 52 42 53 62 54 43 55 46 56
REMARK SMILES IDX 61 57 81 58 44 59 45 60 60 62 82 63 47 64 30 65 31 66 40 67
REMARK SMILES IDX 32 68 33 69 39 70 41 71 34 72 35 73 36 74 37 75 38 76 64 77
REMARK SMILES IDX 65 78 74 79 66 80 67 81 73 82 75 83 68 84 69 85 70 86 71 87
REMARK SMILES IDX 72 88 48 89 49 90 58 91 50 92 51 93 57 94 59 95 52 96 53 97
REMARK SMILES IDX 54 98 55 99 56 100
REMARK H PARENT 11 7 5 12 18 31 80 50 46 61
REMARK Flexibility Score: inf
ROOT
ATOM      1  C   UNL A   1      40.800  34.183  29.468  1.00  0.00     0.002 C 
ENDROOT
BRANCH   1   2
ATOM      2  C   UNL A   1      41.994  35.245  28.782  1.00  0.00     0.021 C 
BRANCH   2   3
ATOM      3  C   UNL A   1      42.747  35.670  26.757  1.00  0.00     0.116 C 
BRANCH   3   4
ATOM      4  N   UNL A   1      43.567  34.779  25.711  1.00  0.00    -0.356 N 
ATOM      5  C   UNL A   1      44.081  33.527  25.699  1.00  0.00     0.229 C 
ATOM      6  O   UNL A   1      44.692  33.198  24.672  1.00  0.00    -0.275 OA
ATOM      7  H   UNL A   1      43.739  35.260  24.870  1.00  0.00     0.163 HD
BRANCH   5   8
ATOM      8  C   UNL A   1      43.956  32.524  26.836  1.00  0.00     0.142 C 
ATOM      9  N   UNL A   1      45.456  30.683  27.243  1.00  0.00    -0.328 N 
ATOM     10  C   UNL A   1      45.641  31.635  28.336  1.00  0.00     0.263 C 
ATOM     11  C   UNL A   1      44.278  31.078  26.465  1.00  0.00     0.193 C 
ATOM     12  H   UNL A   1      45.283  29.772  27.666  1.00  0.00     0.348 HD
ATOM     13  C   UNL A   1      44.780  32.860  28.065  1.00  0.00     0.081 C 
ATOM     14  C   UNL A   1      43.131  30.127  26.813  1.00  0.00     0.076 C 
BRANCH   9  15
ATOM     15  C   UNL A   1      46.648  30.363  26.443  1.00  0.00     0.299 C 
BRANCH  15  16
ATOM     16  C   UNL A   1      46.991  28.892  26.378  1.00  0.00     0.016 A 
ATOM     17  C   UNL A   1      47.844  28.790  29.094  1.00  0.00     0.052 C 
ATOM     18  C   UNL A   1      47.857  28.098  27.761  1.00  0.00     0.036 A 
ATOM     19  C   UNL A   1      48.574  26.459  27.533  1.00  0.00     0.272 A 
ATOM     20  C   UNL A   1      46.789  28.008  24.803  1.00  0.00     0.010 A 
ATOM     21  C   UNL A   1      48.426  25.605  25.948  1.00  0.00     0.086 A 
ATOM     22  C   UNL A   1      47.516  26.366  24.587  1.00  0.00     0.008 A 
BRANCH  19  23
ATOM     23  N   UNL A   1      49.364  25.805  28.566  1.00  0.00     0.062 N 
ATOM     24  O   UNL A   1      50.591  25.818  28.416  1.00  0.00    -0.258 OA
ATOM     25  O   UNL A   1      48.771  25.322  29.533  1.00  0.00    -0.258 OA
ENDBRANCH  19  23
ENDBRANCH  15  16
ENDBRANCH   9  15
ENDBRANCH   5   8
ENDBRANCH   3   4
ENDBRANCH   2   3
ENDBRANCH   1   2
BRANCH   1  26
ATOM     26  C   UNL A   1      39.359  34.680  29.681  1.00  0.00     0.002 C 
BRANCH  26  27
ATOM     27  C   UNL A   1      38.266  33.822  29.063  1.00  0.00     0.021 C 
BRANCH  27  28
ATOM     28  C   UNL A   1      38.269  32.403  29.580  1.00  0.00     0.116 C 
BRANCH  28  29
ATOM     29  N   UNL A   1      36.907  31.904  29.590  1.00  0.00    -0.352 N 
ATOM     30  C   UNL A   1      36.406  30.940  28.745  1.00  0.00     0.251 C 
ATOM     31  H   UNL A   1      36.291  32.286  30.257  1.00  0.00     0.163 HD
ATOM     32  O   UNL A   1      35.350  31.016  28.136  1.00  0.00    -0.269 OA
BRANCH  30  33
ATOM     33  C   UNL A   1      37.214  29.712  28.724  1.00  0.00     0.039 A 
ATOM     34  C   UNL A   1      37.336  29.062  29.961  1.00  0.00     0.014 A 
ATOM     35  C   UNL A   1      38.194  29.643  27.738  1.00  0.00     0.014 A 
ATOM     36  C   UNL A   1      38.555  28.512  30.303  1.00  0.00     0.010 A 
ATOM     37  C   UNL A   1      39.440  29.240  28.139  1.00  0.00     0.010 A 
ATOM     38  C   UNL A   1      39.614  28.710  29.426  1.00  0.00    -0.014 A 
BRANCH  38  39
ATOM     39  C   UNL A   1      40.945  28.202  29.649  1.00  0.00     0.031 A 
ATOM     40  C   UNL A   1      41.152  26.817  29.205  1.00  0.00     0.074 A 
ATOM     41  C   UNL A   1      41.924  29.037  30.052  1.00  0.00     0.049 A 
ATOM     42  N   UNL A   1      42.194  26.123  29.459  1.00  0.00    -0.248 NA
ATOM     43  C   UNL A   1      40.139  26.077  28.451  1.00  0.00     0.031 C 
ATOM     44  C   UNL A   1      43.364  28.823  30.023  1.00  0.00     0.029 A 
ATOM     45  N   UNL A   1      41.763  30.201  30.811  1.00  0.00    -0.354 N 
ATOM     46  C   UNL A   1      42.135  24.985  28.686  1.00  0.00     0.074 A 
ATOM     47  C   UNL A   1      40.796  24.953  28.164  1.00  0.00     0.031 C 
ATOM     48  C   UNL A   1      43.933  29.609  30.955  1.00  0.00     0.029 A 
ATOM     49  C   UNL A   1      42.852  30.217  31.714  1.00  0.00     0.049 A 
ATOM     50  H   UNL A   1      41.044  30.868  30.735  1.00  0.00     0.167 HD
ATOM     51  C   UNL A   1      43.296  24.301  28.500  1.00  0.00     0.037 A 
ATOM     52  C   UNL A   1      42.605  29.985  33.041  1.00  0.00     0.037 A 
ATOM     53  C   UNL A   1      44.311  24.822  29.427  1.00  0.00     0.049 A 
ATOM     54  C   UNL A   1      43.171  28.657  33.544  1.00  0.00     0.074 A 
ATOM     55  C   UNL A   1      45.354  25.727  29.332  1.00  0.00     0.029 A 
ATOM     56  N   UNL A   1      44.050  24.697  30.780  1.00  0.00    -0.354 N 
ATOM     57  N   UNL A   1      43.722  27.745  32.786  1.00  0.00    -0.248 NA
ATOM     58  C   UNL A   1      43.117  28.239  34.943  1.00  0.00     0.031 C 
ATOM     59  C   UNL A   1      45.674  26.171  30.656  1.00  0.00     0.029 A 
ATOM     60  C   UNL A   1      44.849  25.514  31.551  1.00  0.00     0.049 A 
ATOM     61  H   UNL A   1      43.368  24.091  31.152  1.00  0.00     0.167 HD
ATOM     62  C   UNL A   1      44.060  26.644  33.533  1.00  0.00     0.074 A 
ATOM     63  C   UNL A   1      43.642  27.002  34.880  1.00  0.00     0.031 C 
ATOM     64  C   UNL A   1      44.631  25.518  32.995  1.00  0.00     0.037 A 
BRANCH  51  65
ATOM     65  C   UNL A   1      43.586  23.324  27.378  1.00  0.00     0.058 A 
ATOM     66  C   UNL A   1      42.877  22.105  27.329  1.00  0.00     0.135 A 
ATOM     67  C   UNL A   1      44.580  23.454  26.382  1.00  0.00     0.135 A 
ATOM     68  F   UNL A   1      41.877  21.844  28.182  1.00  0.00    -0.206 F 
ATOM     69  C   UNL A   1      43.169  21.086  26.418  1.00  0.00     0.059 A 
ATOM     70  C   UNL A   1      44.898  22.446  25.469  1.00  0.00     0.059 A 
ATOM     71  F   UNL A   1      45.296  24.566  26.216  1.00  0.00    -0.206 F 
ATOM     72  C   UNL A   1      44.195  21.258  25.502  1.00  0.00     0.060 A 
BRANCH  72  73
ATOM     73  S   UNL A   1      44.582  19.923  24.359  1.00  0.00     0.124 S 
ATOM     74  O   UNL A   1      45.846  19.428  24.892  1.00  0.00    -0.237 OA
ATOM     75  O   UNL A   1      43.431  19.041  24.521  1.00  0.00    -0.237 OA
ATOM     76  O   UNL A   1      44.675  20.595  23.066  1.00  0.00    -0.744 OA
ENDBRANCH  72  73
ENDBRANCH  51  65
BRANCH  52  77
ATOM     77  C   UNL A   1      41.322  30.632  33.477  1.00  0.00     0.058 A 
ATOM     78  C   UNL A   1      40.202  29.797  33.696  1.00  0.00     0.135 A 
ATOM     79  C   UNL A   1      41.307  31.889  34.095  1.00  0.00     0.135 A 
ATOM     80  F   UNL A   1      40.147  28.584  33.119  1.00  0.00    -0.206 F 
ATOM     81  C   UNL A   1      39.206  30.117  34.619  1.00  0.00     0.059 A 
ATOM     82  C   UNL A   1      40.304  32.240  35.007  1.00  0.00     0.059 A 
ATOM     83  F   UNL A   1      42.333  32.736  33.932  1.00  0.00    -0.206 F 
ATOM     84  C   UNL A   1      39.296  31.323  35.308  1.00  0.00     0.060 A 
BRANCH  84  85
ATOM     85  S   UNL A   1      38.181  31.609  36.705  1.00  0.00     0.124 S 
ATOM     86  O   UNL A   1      39.037  32.348  37.626  1.00  0.00    -0.237 OA
ATOM     87  O   UNL A   1      37.096  32.372  36.090  1.00  0.00    -0.237 OA
ATOM     88  O   UNL A   1      37.809  30.263  37.121  1.00  0.00    -0.744 OA
ENDBRANCH  84  85
ENDBRANCH  52  77
BRANCH  64  89
ATOM     89  C   UNL A   1      44.997  24.277  33.790  1.00  0.00     0.058 A 
ATOM     90  C   UNL A   1      44.229  23.102  33.769  1.00  0.00     0.135 A 
ATOM     91  C   UNL A   1      46.094  24.257  34.690  1.00  0.00     0.135 A 
ATOM     92  F   UNL A   1      43.086  23.037  33.068  1.00  0.00    -0.206 F 
ATOM     93  C   UNL A   1      44.590  21.959  34.489  1.00  0.00     0.059 A 
ATOM     94  C   UNL A   1      46.434  23.156  35.464  1.00  0.00     0.059 A 
ATOM     95  F   UNL A   1      46.918  25.300  34.844  1.00  0.00    -0.206 F 
ATOM     96  C   UNL A   1      45.702  21.993  35.327  1.00  0.00     0.060 A 
BRANCH  96  97
ATOM     97  S   UNL A   1      46.180  20.523  36.245  1.00  0.00     0.124 S 
ATOM     98  O   UNL A   1      45.792  20.869  37.610  1.00  0.00    -0.237 OA
ATOM     99  O   UNL A   1      45.369  19.499  35.596  1.00  0.00    -0.237 OA
ATOM    100  O   UNL A   1      47.618  20.426  36.014  1.00  0.00    -0.744 OA
ENDBRANCH  96  97
ENDBRANCH  64  89
ENDBRANCH  38  39
ENDBRANCH  30  33
ENDBRANCH  28  29
ENDBRANCH  27  28
ENDBRANCH  26  27
ENDBRANCH   1  26
TORSDOF 19
ENDMDL
MODEL 2
REMARK VINA RESULT:     -11.2      4.803     13.172
REMARK SMILES Cc1c(C[N@H+]2CC[C@@H](C(=O)NCCCCCCNC(=O)c3ccc(-c4c5nc(c(-c6c(F)cc(S(=O)(=O)[O-])cc6F)c6ccc([nH]6)c(-c6c(F)cc(S(=O)(=O)[O-])cc6F)c6nc(c(-c7c(F)cc(S(=O)(=O)[O-])cc7F)c7ccc4[nH]7)C=C6)C=C5)cc3)[C@@H]2C)cccc1[N+](=O)[O-]
REMARK SMILES IDX 14 1 13 2 12 3 11 4 9 5 10 6 8 8 5 9 6 10 87 11 7 13 88 14
REMARK SMILES IDX 4 15 3 16 1 17 2 18 92 19 89 20 91 21 90 22 93 23 94 24
REMARK SMILES IDX 95 25 15 26 16 27 17 28 18 29 19 30 20 32 21 33 22 34 86 35
REMARK SMILES IDX 23 36 85 37 24 38 25 39 26 40 79 41 27 42 84 43 78 44 80 45
REMARK SMILES IDX 28 46 83 47 77 48 76 49 29 51 63 52 42 53 62 54 43 55 46 56
REMARK SMILES IDX 61 57 81 58 44 59 45 60 60 62 82 63 47 64 30 65 31 66 40 67
REMARK SMILES IDX 32 68 33 69 39 70 41 71 34 72 35 73 36 74 37 75 38 76 64 77
REMARK SMILES IDX 65 78 74 79 66 80 67 81 73 82 75 83 68 84 69 85 70 86 71 87
REMARK SMILES IDX 72 88 48 89 49 90 58 91 50 92 51 93 57 94 59 95 52 96 53 97
REMARK SMILES IDX 54 98 55 99 56 100
REMARK H PARENT 11 7 5 12 18 31 80 50 46 61
REMARK Flexibility Score: inf
ROOT
ATOM      1  C   UNL A   1      42.330  20.144  26.775  1.00  0.00     0.002 C 
ENDROOT
BRANCH   1   2
ATOM      2  C   UNL A   1      40.661  19.809  26.418  1.00  0.00     0.021 C 
BRANCH   2   3
ATOM      3  C   UNL A   1      38.931  20.985  25.730  1.00  0.00     0.116 C 
BRANCH   3   4
ATOM      4  N   UNL A   1      38.546  22.527  25.910  1.00  0.00    -0.356 N 
ATOM      5  C   UNL A   1      37.399  23.247  25.900  1.00  0.00     0.229 C 
ATOM      6  O   UNL A   1      37.521  24.470  26.059  1.00  0.00    -0.275 OA
ATOM      7  H   UNL A   1      39.337  23.091  26.066  1.00  0.00     0.163 HD
BRANCH   5   8
ATOM      8  C   UNL A   1      36.007  22.662  25.713  1.00  0.00     0.142 C 
ATOM      9  N   UNL A   1      34.201  23.716  24.516  1.00  0.00    -0.328 N 
ATOM     10  C   UNL A   1      34.606  22.547  23.738  1.00  0.00     0.263 C 
ATOM     11  C   UNL A   1      34.861  23.666  25.824  1.00  0.00     0.193 C 
ATOM     12  H   UNL A   1      33.193  23.650  24.651  1.00  0.00     0.348 HD
ATOM     13  C   UNL A   1      35.810  21.907  24.412  1.00  0.00     0.081 C 
ATOM     14  C   UNL A   1      33.826  23.242  26.869  1.00  0.00     0.076 C 
BRANCH   9  15
ATOM     15  C   UNL A   1      34.276  25.017  23.834  1.00  0.00     0.299 C 
BRANCH  15  16
ATOM     16  C   UNL A   1      33.294  26.051  24.333  1.00  0.00     0.016 A 
ATOM     17  C   UNL A   1      31.375  25.462  22.311  1.00  0.00     0.052 C 
ATOM     18  C   UNL A   1      31.814  26.444  23.359  1.00  0.00     0.036 A 
ATOM     19  C   UNL A   1      30.848  27.912  23.769  1.00  0.00     0.272 A 
ATOM     20  C   UNL A   1      33.752  27.090  25.753  1.00  0.00     0.010 A 
ATOM     21  C   UNL A   1      31.337  28.978  25.144  1.00  0.00     0.086 A 
ATOM     22  C   UNL A   1      32.775  28.559  26.151  1.00  0.00     0.008 A 
BRANCH  19  23
ATOM     23  N   UNL A   1      29.708  28.340  22.973  1.00  0.00     0.062 N 
ATOM     24  O   UNL A   1      29.960  28.964  21.936  1.00  0.00    -0.258 OA
ATOM     25  O   UNL A   1      28.579  28.022  23.355  1.00  0.00    -0.258 OA
ENDBRANCH  19  23
ENDBRANCH  15  16
ENDBRANCH   9  15
ENDBRANCH   5   8
ENDBRANCH   3   4
ENDBRANCH   2   3
ENDBRANCH   1   2
BRANCH   1  26
ATOM     26  C   UNL A   1      43.209  20.867  25.739  1.00  0.00     0.002 C 
BRANCH  26  27
ATOM     27  C   UNL A   1      43.727  22.235  26.152  1.00  0.00     0.021 C 
BRANCH  27  28
ATOM     28  C   UNL A   1      43.637  23.258  25.044  1.00  0.00     0.116 C 
BRANCH  28  29
ATOM     29  N   UNL A   1      42.367  23.951  25.146  1.00  0.00    -0.352 N 
ATOM     30  C   UNL A   1      41.868  24.536  26.288  1.00  0.00     0.251 C 
ATOM     31  H   UNL A   1      41.817  24.007  24.331  1.00  0.00     0.163 HD
ATOM     32  O   UNL A   1      40.731  24.399  26.711  1.00  0.00    -0.269 OA
BRANCH  30  33
ATOM     33  C   UNL A   1      42.812  25.470  26.919  1.00  0.00     0.039 A 
ATOM     34  C   UNL A   1      42.975  25.305  28.302  1.00  0.00     0.014 A 
ATOM     35  C   UNL A   1      42.970  26.699  26.284  1.00  0.00     0.014 A 
ATOM     36  C   UNL A   1      43.084  26.430  29.095  1.00  0.00     0.010 A 
ATOM     37  C   UNL A   1      42.919  27.812  27.080  1.00  0.00     0.010 A 
ATOM     38  C   UNL A   1      42.944  27.665  28.475  1.00  0.00    -0.014 A 
BRANCH  38  39
ATOM     39  C   UNL A   1      43.027  28.925  29.171  1.00  0.00     0.031 A 
ATOM     40  C   UNL A   1      41.760  29.663  29.249  1.00  0.00     0.074 A 
ATOM     41  C   UNL A   1      44.151  29.249  29.841  1.00  0.00     0.049 A 
ATOM     42  N   UNL A   1      41.646  30.865  29.668  1.00  0.00    -0.248 NA
ATOM     43  C   UNL A   1      40.490  29.089  28.803  1.00  0.00     0.031 C 
ATOM     44  C   UNL A   1      44.336  30.281  30.852  1.00  0.00     0.029 A 
ATOM     45  N   UNL A   1      45.450  28.826  29.538  1.00  0.00    -0.354 N 
ATOM     46  C   UNL A   1      40.303  31.126  29.825  1.00  0.00     0.074 A 
ATOM     47  C   UNL A   1      39.628  30.036  29.176  1.00  0.00     0.031 C 
ATOM     48  C   UNL A   1      45.634  30.633  30.874  1.00  0.00     0.029 A 
ATOM     49  C   UNL A   1      46.276  29.953  29.759  1.00  0.00     0.049 A 
ATOM     50  H   UNL A   1      45.731  27.933  29.235  1.00  0.00     0.167 HD
ATOM     51  C   UNL A   1      39.965  32.182  30.614  1.00  0.00     0.037 A 
ATOM     52  C   UNL A   1      46.828  30.584  28.676  1.00  0.00     0.037 A 
ATOM     53  C   UNL A   1      41.171  32.973  30.895  1.00  0.00     0.049 A 
ATOM     54  C   UNL A   1      46.259  31.980  28.427  1.00  0.00     0.074 A 
ATOM     55  C   UNL A   1      42.069  33.054  31.946  1.00  0.00     0.029 A 
ATOM     56  N   UNL A   1      41.817  33.543  29.812  1.00  0.00    -0.354 N 
ATOM     57  N   UNL A   1      45.252  32.503  29.077  1.00  0.00    -0.248 NA
ATOM     58  C   UNL A   1      46.761  32.879  27.390  1.00  0.00     0.031 C 
ATOM     59  C   UNL A   1      43.278  33.642  31.450  1.00  0.00     0.029 A 
ATOM     60  C   UNL A   1      43.102  33.945  30.112  1.00  0.00     0.049 A 
ATOM     61  H   UNL A   1      41.404  33.651  28.924  1.00  0.00     0.167 HD
ATOM     62  C   UNL A   1      44.944  33.739  28.565  1.00  0.00     0.074 A 
ATOM     63  C   UNL A   1      45.914  33.919  27.496  1.00  0.00     0.031 C 
ATOM     64  C   UNL A   1      43.910  34.510  29.035  1.00  0.00     0.037 A 
BRANCH  51  65
ATOM     65  C   UNL A   1      38.626  32.399  31.289  1.00  0.00     0.058 A 
ATOM     66  C   UNL A   1      37.617  33.106  30.600  1.00  0.00     0.135 A 
ATOM     67  C   UNL A   1      38.278  32.038  32.610  1.00  0.00     0.135 A 
ATOM     68  F   UNL A   1      37.777  33.488  29.325  1.00  0.00    -0.206 F 
ATOM     69  C   UNL A   1      36.403  33.475  31.187  1.00  0.00     0.059 A 
ATOM     70  C   UNL A   1      37.077  32.404  33.222  1.00  0.00     0.059 A 
ATOM     71  F   UNL A   1      39.066  31.296  33.387  1.00  0.00    -0.206 F 
ATOM     72  C   UNL A   1      36.148  33.134  32.507  1.00  0.00     0.060 A 
BRANCH  72  73
ATOM     73  S   UNL A   1      34.597  33.646  33.260  1.00  0.00     0.124 S 
ATOM     74  O   UNL A   1      33.651  32.702  32.673  1.00  0.00    -0.237 OA
ATOM     75  O   UNL A   1      34.876  33.472  34.680  1.00  0.00    -0.237 OA
ATOM     76  O   UNL A   1      34.443  35.030  32.820  1.00  0.00    -0.744 OA
ENDBRANCH  72  73
ENDBRANCH  51  65
BRANCH  52  77
ATOM     77  C   UNL A   1      47.256  29.594  27.631  1.00  0.00     0.058 A 
ATOM     78  C   UNL A   1      48.355  28.753  27.928  1.00  0.00     0.135 A 
ATOM     79  C   UNL A   1      46.382  29.163  26.625  1.00  0.00     0.135 A 
ATOM     80  F   UNL A   1      49.239  29.116  28.873  1.00  0.00    -0.206 F 
ATOM     81  C   UNL A   1      48.480  27.475  27.384  1.00  0.00     0.059 A 
ATOM     82  C   UNL A   1      46.503  27.893  26.049  1.00  0.00     0.059 A 
ATOM     83  F   UNL A   1      45.320  29.908  26.287  1.00  0.00    -0.206 F 
ATOM     84  C   UNL A   1      47.515  27.035  26.482  1.00  0.00     0.060 A 
BRANCH  84  85
ATOM     85  S   UNL A   1      47.507  25.289  26.004  1.00  0.00     0.124 S 
ATOM     86  O   UNL A   1      46.249  24.826  26.578  1.00  0.00    -0.237 OA
ATOM     87  O   UNL A   1      47.554  25.363  24.544  1.00  0.00    -0.237 OA
ATOM     88  O   UNL A   1      48.720  24.765  26.618  1.00  0.00    -0.744 OA
ENDBRANCH  84  85
ENDBRANCH  52  77
BRANCH  64  89
ATOM     89  C   UNL A   1      43.531  35.870  28.477  1.00  0.00     0.058 A 
ATOM     90  C   UNL A   1      43.665  37.061  29.209  1.00  0.00     0.135 A 
ATOM     91  C   UNL A   1      42.920  36.017  27.205  1.00  0.00     0.135 A 
ATOM     92  F   UNL A   1      44.097  37.044  30.479  1.00  0.00    -0.206 F 
ATOM     93  C   UNL A   1      43.332  38.309  28.675  1.00  0.00     0.059 A 
ATOM     94  C   UNL A   1      42.522  37.239  26.679  1.00  0.00     0.059 A 
ATOM     95  F   UNL A   1      42.704  34.982  26.385  1.00  0.00    -0.206 F 
ATOM     96  C   UNL A   1      42.772  38.389  27.403  1.00  0.00     0.060 A 
BRANCH  96  97
ATOM     97  S   UNL A   1      42.354  39.993  26.704  1.00  0.00     0.124 S 
ATOM     98  O   UNL A   1      43.437  40.205  25.747  1.00  0.00    -0.237 OA
ATOM     99  O   UNL A   1      41.041  39.725  26.127  1.00  0.00    -0.237 OA
ATOM    100  O   UNL A   1      42.364  40.884  27.860  1.00  0.00    -0.744 OA
ENDBRANCH  96  97
ENDBRANCH  64  89
ENDBRANCH  38  39
ENDBRANCH  30  33
ENDBRANCH  28  29
ENDBRANCH  27  28
ENDBRANCH  26  27
ENDBRANCH   1  26
TORSDOF 19
ENDMDL
MODEL 3
REMARK VINA RESULT:     -10.8      4.372      7.608
REMARK SMILES Cc1c(C[N@H+]2CC[C@@H](C(=O)NCCCCCCNC(=O)c3ccc(-c4c5nc(c(-c6c(F)cc(S(=O)(=O)[O-])cc6F)c6ccc([nH]6)c(-c6c(F)cc(S(=O)(=O)[O-])cc6F)c6nc(c(-c7c(F)cc(S(=O)(=O)[O-])cc7F)c7ccc4[nH]7)C=C6)C=C5)cc3)[C@@H]2C)cccc1[N+](=O)[O-]
REMARK SMILES IDX 14 1 13 2 12 3 11 4 9 5 10 6 8 8 5 9 6 10 87 11 7 13 88 14
REMARK SMILES IDX 4 15 3 16 1 17 2 18 92 19 89 20 91 21 90 22 93 23 94 24
REMARK SMILES IDX 95 25 15 26 16 27 17 28 18 29 19 30 20 32 21 33 22 34 86 35
REMARK SMILES IDX 23 36 85 37 24 38 25 39 26 40 79 41 27 42 84 43 78 44 80 45
REMARK SMILES IDX 28 46 83 47 77 48 76 49 29 51 63 52 42 53 62 54 43 55 46 56
REMARK SMILES IDX 61 57 81 58 44 59 45 60 60 62 82 63 47 64 30 65 31 66 40 67
REMARK SMILES IDX 32 68 33 69 39 70 41 71 34 72 35 73 36 74 37 75 38 76 64 77
REMARK SMILES IDX 65 78 74 79 66 80 67 81 73 82 75 83 68 84 69 85 70 86 71 87
REMARK SMILES IDX 72 88 48 89 49 90 58 91 50 92 51 93 57 94 59 95 52 96 53 97
REMARK SMILES IDX 54 98 55 99 56 100
REMARK H PARENT 11 7 5 12 18 31 80 50 46 61
REMARK Flexibility Score: inf
ROOT
ATOM      1  C   UNL A   1      34.171  28.716  26.784  1.00  0.00     0.002 C 
ENDROOT
BRANCH   1   2
ATOM      2  C   UNL A   1      33.629  29.544  25.353  1.00  0.00     0.021 C 
BRANCH   2   3
ATOM      3  C   UNL A   1      33.158  28.966  23.282  1.00  0.00     0.116 C 
BRANCH   3   4
ATOM      4  N   UNL A   1      31.813  29.067  22.422  1.00  0.00    -0.356 N 
ATOM      5  C   UNL A   1      30.527  28.676  22.584  1.00  0.00     0.229 C 
ATOM      6  O   UNL A   1      29.758  28.928  21.646  1.00  0.00    -0.275 OA
ATOM      7  H   UNL A   1      31.956  29.527  21.563  1.00  0.00     0.163 HD
BRANCH   5   8
ATOM      8  C   UNL A   1      29.983  27.969  23.816  1.00  0.00     0.142 C 
ATOM      9  N   UNL A   1      30.083  25.595  24.220  1.00  0.00    -0.328 N 
ATOM     10  C   UNL A   1      30.968  26.232  25.192  1.00  0.00     0.263 C 
ATOM     11  C   UNL A   1      29.294  26.633  23.547  1.00  0.00     0.193 C 
ATOM     12  H   UNL A   1      29.452  24.988  24.743  1.00  0.00     0.348 HD
ATOM     13  C   UNL A   1      31.008  27.726  24.909  1.00  0.00     0.081 C 
ATOM     14  C   UNL A   1      27.871  26.596  24.109  1.00  0.00     0.076 C 
BRANCH   9  15
ATOM     15  C   UNL A   1      30.697  24.605  23.323  1.00  0.00     0.299 C 
BRANCH  15  16
ATOM     16  C   UNL A   1      31.809  23.792  23.945  1.00  0.00     0.016 A 
ATOM     17  C   UNL A   1      33.856  25.510  22.958  1.00  0.00     0.052 C 
ATOM     18  C   UNL A   1      33.540  24.166  23.548  1.00  0.00     0.036 A 
ATOM     19  C   UNL A   1      34.827  22.984  23.998  1.00  0.00     0.272 A 
ATOM     20  C   UNL A   1      31.391  22.274  24.853  1.00  0.00     0.010 A 
ATOM     21  C   UNL A   1      34.405  21.446  24.847  1.00  0.00     0.086 A 
ATOM     22  C   UNL A   1      32.691  21.097  25.295  1.00  0.00     0.008 A 
BRANCH  19  23
ATOM     23  N   UNL A   1      36.221  23.174  23.626  1.00  0.00     0.062 N 
ATOM     24  O   UNL A   1      36.506  22.993  22.436  1.00  0.00    -0.258 OA
ATOM     25  O   UNL A   1      37.012  23.538  24.499  1.00  0.00    -0.258 OA
ENDBRANCH  19  23
ENDBRANCH  15  16
ENDBRANCH   9  15
ENDBRANCH   5   8
ENDBRANCH   3   4
ENDBRANCH   2   3
ENDBRANCH   1   2
BRANCH   1  26
ATOM     26  C   UNL A   1      35.285  29.327  27.652  1.00  0.00     0.002 C 
BRANCH  26  27
ATOM     27  C   UNL A   1      35.372  30.845  27.642  1.00  0.00     0.021 C 
BRANCH  27  28
ATOM     28  C   UNL A   1      34.910  31.470  28.937  1.00  0.00     0.116 C 
BRANCH  28  29
ATOM     29  N   UNL A   1      35.924  32.399  29.399  1.00  0.00    -0.352 N 
ATOM     30  C   UNL A   1      36.866  32.132  30.368  1.00  0.00     0.251 C 
ATOM     31  H   UNL A   1      35.939  33.292  28.986  1.00  0.00     0.163 HD
ATOM     32  O   UNL A   1      37.141  32.866  31.304  1.00  0.00    -0.269 OA
BRANCH  30  33
ATOM     33  C   UNL A   1      37.629  30.903  30.109  1.00  0.00     0.039 A 
ATOM     34  C   UNL A   1      37.687  30.004  31.184  1.00  0.00     0.014 A 
ATOM     35  C   UNL A   1      38.637  31.000  29.154  1.00  0.00     0.014 A 
ATOM     36  C   UNL A   1      38.874  29.343  31.431  1.00  0.00     0.010 A 
ATOM     37  C   UNL A   1      39.854  30.470  29.490  1.00  0.00     0.010 A 
ATOM     38  C   UNL A   1      39.967  29.675  30.641  1.00  0.00    -0.014 A 
BRANCH  38  39
ATOM     39  C   UNL A   1      41.271  29.076  30.784  1.00  0.00     0.031 A 
ATOM     40  C   UNL A   1      41.430  27.790  30.091  1.00  0.00     0.074 A 
ATOM     41  C   UNL A   1      42.274  29.777  31.349  1.00  0.00     0.049 A 
ATOM     42  N   UNL A   1      42.437  27.015  30.226  1.00  0.00    -0.248 NA
ATOM     43  C   UNL A   1      40.405  27.249  29.198  1.00  0.00     0.031 C 
ATOM     44  C   UNL A   1      43.704  29.508  31.301  1.00  0.00     0.029 A 
ATOM     45  N   UNL A   1      42.144  30.785  32.310  1.00  0.00    -0.354 N 
ATOM     46  C   UNL A   1      42.348  26.045  29.253  1.00  0.00     0.074 A 
ATOM     47  C   UNL A   1      41.021  26.170  28.715  1.00  0.00     0.031 C 
ATOM     48  C   UNL A   1      44.285  30.080  32.371  1.00  0.00     0.029 A 
ATOM     49  C   UNL A   1      43.213  30.584  33.216  1.00  0.00     0.049 A 
ATOM     50  H   UNL A   1      41.455  31.486  32.350  1.00  0.00     0.167 HD
ATOM     51  C   UNL A   1      43.484  25.357  28.958  1.00  0.00     0.037 A 
ATOM     52  C   UNL A   1      42.927  30.119  34.472  1.00  0.00     0.037 A 
ATOM     53  C   UNL A   1      44.499  25.649  29.980  1.00  0.00     0.049 A 
ATOM     54  C   UNL A   1      43.427  28.697  34.725  1.00  0.00     0.074 A 
ATOM     55  C   UNL A   1      45.580  26.509  30.071  1.00  0.00     0.029 A 
ATOM     56  N   UNL A   1      44.203  25.287  31.282  1.00  0.00    -0.354 N 
ATOM     57  N   UNL A   1      43.957  27.919  33.818  1.00  0.00    -0.248 NA
ATOM     58  C   UNL A   1      43.324  28.029  36.021  1.00  0.00     0.031 C 
ATOM     59  C   UNL A   1      45.889  26.684  31.459  1.00  0.00     0.029 A 
ATOM     60  C   UNL A   1      45.018  25.909  32.204  1.00  0.00     0.049 A 
ATOM     61  H   UNL A   1      43.489  24.653  31.525  1.00  0.00     0.167 HD
ATOM     62  C   UNL A   1      44.232  26.684  34.351  1.00  0.00     0.074 A 
ATOM     63  C   UNL A   1      43.800  26.804  35.735  1.00  0.00     0.031 C 
ATOM     64  C   UNL A   1      44.768  25.654  33.620  1.00  0.00     0.037 A 
BRANCH  51  65
ATOM     65  C   UNL A   1      43.759  24.594  27.677  1.00  0.00     0.058 A 
ATOM     66  C   UNL A   1      43.211  23.303  27.517  1.00  0.00     0.135 A 
ATOM     67  C   UNL A   1      44.599  25.000  26.616  1.00  0.00     0.135 A 
ATOM     68  F   UNL A   1      42.365  22.785  28.418  1.00  0.00    -0.206 F 
ATOM     69  C   UNL A   1      43.519  22.470  26.438  1.00  0.00     0.059 A 
ATOM     70  C   UNL A   1      44.930  24.183  25.533  1.00  0.00     0.059 A 
ATOM     71  F   UNL A   1      45.140  26.216  26.549  1.00  0.00    -0.206 F 
ATOM     72  C   UNL A   1      44.395  22.912  25.458  1.00  0.00     0.060 A 
BRANCH  72  73
ATOM     73  S   UNL A   1      44.808  21.815  24.093  1.00  0.00     0.124 S 
ATOM     74  O   UNL A   1      46.266  21.869  24.093  1.00  0.00    -0.237 OA
ATOM     75  O   UNL A   1      44.215  20.554  24.525  1.00  0.00    -0.237 OA
ATOM     76  O   UNL A   1      44.165  22.443  22.942  1.00  0.00    -0.744 OA
ENDBRANCH  72  73
ENDBRANCH  51  65
BRANCH  52  77
ATOM     77  C   UNL A   1      41.663  30.731  35.003  1.00  0.00     0.058 A 
ATOM     78  C   UNL A   1      41.731  32.047  35.517  1.00  0.00     0.135 A 
ATOM     79  C   UNL A   1      40.401  30.269  34.609  1.00  0.00     0.135 A 
ATOM     80  F   UNL A   1      42.909  32.546  35.928  1.00  0.00    -0.206 F 
ATOM     81  C   UNL A   1      40.642  32.918  35.475  1.00  0.00     0.059 A 
ATOM     82  C   UNL A   1      39.290  31.119  34.581  1.00  0.00     0.059 A 
ATOM     83  F   UNL A   1      40.258  29.031  34.114  1.00  0.00    -0.206 F 
ATOM     84  C   UNL A   1      39.436  32.456  34.955  1.00  0.00     0.060 A 
BRANCH  84  85
ATOM     85  S   UNL A   1      38.118  33.652  34.627  1.00  0.00     0.124 S 
ATOM     86  O   UNL A   1      36.989  32.779  34.324  1.00  0.00    -0.237 OA
ATOM     87  O   UNL A   1      38.037  34.384  35.890  1.00  0.00    -0.237 OA
ATOM     88  O   UNL A   1      38.640  34.431  33.512  1.00  0.00    -0.744 OA
ENDBRANCH  84  85
ENDBRANCH  52  77
BRANCH  64  89
ATOM     89  C   UNL A   1      45.065  24.271  34.174  1.00  0.00     0.058 A 
ATOM     90  C   UNL A   1      46.356  23.854  34.536  1.00  0.00     0.135 A 
ATOM     91  C   UNL A   1      44.065  23.270  34.271  1.00  0.00     0.135 A 
ATOM     92  F   UNL A   1      47.415  24.658  34.359  1.00  0.00    -0.206 F 
ATOM     93  C   UNL A   1      46.611  22.586  35.065  1.00  0.00     0.059 A 
ATOM     94  C   UNL A   1      44.307  21.983  34.733  1.00  0.00     0.059 A 
ATOM     95  F   UNL A   1      42.785  23.496  33.950  1.00  0.00    -0.206 F 
ATOM     96  C   UNL A   1      45.577  21.660  35.170  1.00  0.00     0.060 A 
BRANCH  96  97
ATOM     97  S   UNL A   1      45.895  20.031  35.863  1.00  0.00     0.124 S 
ATOM     98  O   UNL A   1      47.251  19.755  35.398  1.00  0.00    -0.237 OA
ATOM     99  O   UNL A   1      45.756  20.292  37.292  1.00  0.00    -0.237 OA
ATOM    100  O   UNL A   1      44.854  19.197  35.271  1.00  0.00    -0.744 OA
ENDBRANCH  96  97
ENDBRANCH  64  89
ENDBRANCH  38  39
ENDBRANCH  30  33
ENDBRANCH  28  29
ENDBRANCH  27  28
ENDBRANCH  26  27
ENDBRANCH   1  26
TORSDOF 19
ENDMDL
