MODEL 1
REMARK VINA RESULT:     -11.2      0.000      0.000
REMARK SMILES O=C(CCc1ccc(S(=O)(=O)Nc2cccc(I)c2)cc1)NCCCCCCNC(=O)c1ccc(-c2c3nc(c(-c4c(F)cc(S(=O)(=O)[O-])cc4F)c4ccc([nH]4)c(-c4c(F)cc(S(=O)(=O)[O-])cc4F)c4nc(c(-c5c(F)cc(S(=O)(=O)[O-])cc5F)c5ccc2[nH]5)C=C4)C=C3)cc1
REMARK SMILES IDX 24 1 23 2 22 3 1 4 2 5 3 7 4 8 5 9 6 10 21 11 7 12 20 13
REMARK SMILES IDX 8 14 9 15 10 16 11 17 12 18 13 20 14 21 19 22 15 23 17 24
REMARK SMILES IDX 16 25 18 26 25 27 26 28 27 29 28 30 29 31 30 32 31 34 32 35
REMARK SMILES IDX 33 36 97 37 34 38 96 39 35 40 36 41 37 42 90 43 38 44 95 45
REMARK SMILES IDX 89 46 91 47 39 48 94 49 88 50 87 51 40 53 74 54 53 55 73 56
REMARK SMILES IDX 54 57 57 58 72 59 92 60 55 61 56 62 71 64 93 65 58 66 41 67
REMARK SMILES IDX 42 68 51 69 43 70 44 71 50 72 52 73 45 74 46 75 47 76 48 77
REMARK SMILES IDX 49 78 75 79 76 80 85 81 77 82 78 83 84 84 86 85 79 86 80 87
REMARK SMILES IDX 81 88 82 89 83 90 59 91 60 92 69 93 61 94 62 95 68 96 70 97
REMARK SMILES IDX 63 98 64 99 65 100 66 101 67 102
REMARK H PARENT 22 6 12 19 29 33 91 52 57 63
REMARK Flexibility Score: inf
ROOT
ATOM      1  C   UNL A   1      39.221  22.708  26.506  1.00  0.00     0.021 C 
ENDROOT
BRANCH   1   2
ATOM      2  C   UNL A   1      38.128  22.079  25.633  1.00  0.00     0.116 C 
BRANCH   2   3
ATOM      3  N   UNL A   1      36.799  22.186  26.206  1.00  0.00    -0.356 N 
ATOM      4  O   UNL A   1      35.862  20.464  25.041  1.00  0.00    -0.275 OA
ATOM      5  C   UNL A   1      35.752  21.367  25.870  1.00  0.00     0.220 C 
ATOM      6  H   UNL A   1      36.639  22.889  26.876  1.00  0.00     0.163 HD
BRANCH   5   7
ATOM      7  C   UNL A   1      34.382  21.681  26.474  1.00  0.00     0.105 C 
BRANCH   7   8
ATOM      8  C   UNL A   1      33.240  22.102  25.537  1.00  0.00     0.045 C 
BRANCH   8   9
ATOM      9  C   UNL A   1      33.187  23.551  25.100  1.00  0.00    -0.047 A 
ATOM     10  C   UNL A   1      32.333  23.949  24.059  1.00  0.00     0.005 A 
ATOM     11  C   UNL A   1      33.951  24.531  25.731  1.00  0.00     0.005 A 
ATOM     12  C   UNL A   1      32.222  25.301  23.691  1.00  0.00     0.022 A 
ATOM     13  C   UNL A   1      33.786  25.874  25.412  1.00  0.00     0.022 A 
ATOM     14  C   UNL A   1      32.956  26.274  24.375  1.00  0.00     0.087 A 
BRANCH  14  15
ATOM     15  S   UNL A   1      32.865  27.975  23.833  1.00  0.00     0.261 S 
ATOM     16  O   UNL A   1      32.259  28.724  24.911  1.00  0.00    -0.201 OA
ATOM     17  O   UNL A   1      34.190  28.310  23.346  1.00  0.00    -0.201 OA
BRANCH  15  18
ATOM     18  N   UNL A   1      31.883  28.060  22.475  1.00  0.00    -0.280 N 
ATOM     19  H   UNL A   1      32.288  27.784  21.621  1.00  0.00     0.180 HD
BRANCH  18  20
ATOM     20  C   UNL A   1      30.524  28.488  22.427  1.00  0.00     0.050 A 
ATOM     21  C   UNL A   1      29.571  27.623  22.973  1.00  0.00     0.027 A 
ATOM     22  C   UNL A   1      30.126  29.761  22.014  1.00  0.00     0.041 A 
ATOM     23  C   UNL A   1      28.280  28.075  23.259  1.00  0.00     0.003 A 
ATOM     24  C   UNL A   1      28.847  30.225  22.342  1.00  0.00     0.015 A 
ATOM     25  C   UNL A   1      27.930  29.392  22.982  1.00  0.00     0.015 A 
ATOM     26  I   UNL A   1      28.368  32.224  22.016  1.00  0.00    -0.044 I 
ENDBRANCH  18  20
ENDBRANCH  15  18
ENDBRANCH  14  15
ENDBRANCH   8   9
ENDBRANCH   7   8
ENDBRANCH   5   7
ENDBRANCH   2   3
ENDBRANCH   1   2
BRANCH   1  27
ATOM     27  C   UNL A   1      40.384  21.792  26.914  1.00  0.00     0.002 C 
BRANCH  27  28
ATOM     28  C   UNL A   1      41.148  22.179  28.183  1.00  0.00     0.002 C 
BRANCH  28  29
ATOM     29  C   UNL A   1      42.675  22.192  28.060  1.00  0.00     0.021 C 
BRANCH  29  30
ATOM     30  C   UNL A   1      43.299  23.559  27.788  1.00  0.00     0.116 C 
BRANCH  30  31
ATOM     31  N   UNL A   1      43.087  24.018  26.423  1.00  0.00    -0.352 N 
ATOM     32  C   UNL A   1      42.575  25.209  25.966  1.00  0.00     0.251 C 
ATOM     33  H   UNL A   1      43.350  23.379  25.722  1.00  0.00     0.163 HD
ATOM     34  O   UNL A   1      42.461  25.392  24.758  1.00  0.00    -0.269 OA
BRANCH  32  35
ATOM     35  C   UNL A   1      42.100  26.226  26.933  1.00  0.00     0.039 A 
ATOM     36  C   UNL A   1      41.083  25.873  27.825  1.00  0.00     0.014 A 
ATOM     37  C   UNL A   1      42.694  27.488  27.010  1.00  0.00     0.014 A 
ATOM     38  C   UNL A   1      40.736  26.745  28.862  1.00  0.00     0.010 A 
ATOM     39  C   UNL A   1      42.387  28.331  28.078  1.00  0.00     0.010 A 
ATOM     40  C   UNL A   1      41.426  27.957  29.029  1.00  0.00    -0.014 A 
BRANCH  40  41
ATOM     41  C   UNL A   1      41.201  28.812  30.224  1.00  0.00     0.031 A 
ATOM     42  C   UNL A   1      42.025  28.622  31.466  1.00  0.00     0.074 A 
ATOM     43  C   UNL A   1      40.191  29.707  30.216  1.00  0.00     0.049 A 
ATOM     44  N   UNL A   1      41.914  29.214  32.627  1.00  0.00    -0.248 NA
ATOM     45  C   UNL A   1      43.097  27.617  31.402  1.00  0.00     0.031 C 
ATOM     46  C   UNL A   1      39.284  29.948  29.089  1.00  0.00     0.029 A 
ATOM     47  N   UNL A   1      39.746  30.567  31.187  1.00  0.00    -0.354 N 
ATOM     48  C   UNL A   1      42.890  28.648  33.436  1.00  0.00     0.074 A 
ATOM     49  C   UNL A   1      43.557  27.635  32.645  1.00  0.00     0.031 C 
ATOM     50  C   UNL A   1      38.403  30.903  29.430  1.00  0.00     0.029 A 
ATOM     51  C   UNL A   1      38.657  31.318  30.806  1.00  0.00     0.049 A 
ATOM     52  H   UNL A   1      40.165  30.641  32.075  1.00  0.00     0.167 HD
ATOM     53  C   UNL A   1      43.215  28.956  34.716  1.00  0.00     0.037 A 
ATOM     54  C   UNL A   1      37.940  32.231  31.489  1.00  0.00     0.037 A 
ATOM     55  C   UNL A   1      42.566  29.980  35.492  1.00  0.00     0.049 A 
ATOM     56  C   UNL A   1      38.324  32.563  32.903  1.00  0.00     0.074 A 
ATOM     57  C   UNL A   1      42.863  30.406  36.775  1.00  0.00     0.029 A 
ATOM     58  N   UNL A   1      41.488  30.739  35.060  1.00  0.00    -0.354 N 
ATOM     59  N   UNL A   1      39.292  32.060  33.632  1.00  0.00    -0.248 NA
ATOM     60  C   UNL A   1      37.525  33.589  33.589  1.00  0.00     0.031 C 
ATOM     61  C   UNL A   1      41.944  31.399  37.132  1.00  0.00     0.029 A 
ATOM     62  C   UNL A   1      41.099  31.619  36.056  1.00  0.00     0.049 A 
ATOM     63  H   UNL A   1      41.063  30.664  34.175  1.00  0.00     0.167 HD
ATOM     64  C   UNL A   1      39.232  32.723  34.853  1.00  0.00     0.074 A 
ATOM     65  C   UNL A   1      38.139  33.670  34.762  1.00  0.00     0.031 C 
ATOM     66  C   UNL A   1      40.012  32.561  35.949  1.00  0.00     0.037 A 
BRANCH  53  67
ATOM     67  C   UNL A   1      44.330  28.178  35.353  1.00  0.00     0.058 A 
ATOM     68  C   UNL A   1      45.661  28.620  35.294  1.00  0.00     0.135 A 
ATOM     69  C   UNL A   1      44.065  26.990  36.054  1.00  0.00     0.135 A 
ATOM     70  F   UNL A   1      45.971  29.742  34.625  1.00  0.00    -0.206 F 
ATOM     71  C   UNL A   1      46.695  27.898  35.880  1.00  0.00     0.059 A 
ATOM     72  C   UNL A   1      45.081  26.263  36.668  1.00  0.00     0.059 A 
ATOM     73  F   UNL A   1      42.810  26.522  36.141  1.00  0.00    -0.206 F 
ATOM     74  C   UNL A   1      46.395  26.716  36.561  1.00  0.00     0.060 A 
BRANCH  74  75
ATOM     75  S   UNL A   1      47.748  25.783  37.307  1.00  0.00     0.124 S 
ATOM     76  O   UNL A   1      48.852  26.732  37.190  1.00  0.00    -0.237 OA
ATOM     77  O   UNL A   1      47.258  25.546  38.661  1.00  0.00    -0.237 OA
ATOM     78  O   UNL A   1      47.847  24.596  36.463  1.00  0.00    -0.744 OA
ENDBRANCH  74  75
ENDBRANCH  53  67
BRANCH  54  79
ATOM     79  C   UNL A   1      36.793  32.914  30.832  1.00  0.00     0.058 A 
ATOM     80  C   UNL A   1      35.472  32.561  31.146  1.00  0.00     0.135 A 
ATOM     81  C   UNL A   1      36.993  33.937  29.894  1.00  0.00     0.135 A 
ATOM     82  F   UNL A   1      35.232  31.584  32.033  1.00  0.00    -0.206 F 
ATOM     83  C   UNL A   1      34.388  33.191  30.544  1.00  0.00     0.059 A 
ATOM     84  C   UNL A   1      35.924  34.596  29.294  1.00  0.00     0.059 A 
ATOM     85  F   UNL A   1      38.238  34.321  29.572  1.00  0.00    -0.206 F 
ATOM     86  C   UNL A   1      34.625  34.210  29.620  1.00  0.00     0.060 A 
BRANCH  86  87
ATOM     87  S   UNL A   1      33.211  35.059  28.883  1.00  0.00     0.124 S 
ATOM     88  O   UNL A   1      32.698  34.040  27.975  1.00  0.00    -0.237 OA
ATOM     89  O   UNL A   1      32.384  35.350  30.050  1.00  0.00    -0.237 OA
ATOM     90  O   UNL A   1      33.818  36.226  28.249  1.00  0.00    -0.744 OA
ENDBRANCH  86  87
ENDBRANCH  54  79
BRANCH  66  91
ATOM     91  C   UNL A   1      39.733  33.444  37.133  1.00  0.00     0.058 A 
ATOM     92  C   UNL A   1      38.784  33.092  38.104  1.00  0.00     0.135 A 
ATOM     93  C   UNL A   1      40.464  34.627  37.325  1.00  0.00     0.135 A 
ATOM     94  F   UNL A   1      38.053  31.975  37.960  1.00  0.00    -0.206 F 
ATOM     95  C   UNL A   1      38.558  33.891  39.220  1.00  0.00     0.059 A 
ATOM     96  C   UNL A   1      40.270  35.430  38.445  1.00  0.00     0.059 A 
ATOM     97  F   UNL A   1      41.389  35.004  36.428  1.00  0.00    -0.206 F 
ATOM     98  C   UNL A   1      39.308  35.058  39.382  1.00  0.00     0.060 A 
BRANCH  98  99
ATOM     99  S   UNL A   1      39.037  36.064  40.857  1.00  0.00     0.124 S 
ATOM    100  O   UNL A   1      40.382  36.130  41.418  1.00  0.00    -0.237 OA
ATOM    101  O   UNL A   1      38.521  37.310  40.299  1.00  0.00    -0.237 OA
ATOM    102  O   UNL A   1      38.072  35.284  41.626  1.00  0.00    -0.744 OA
ENDBRANCH  98  99
ENDBRANCH  66  91
ENDBRANCH  40  41
ENDBRANCH  32  35
ENDBRANCH  30  31
ENDBRANCH  29  30
ENDBRANCH  28  29
ENDBRANCH  27  28
ENDBRANCH   1  27
TORSDOF 21
ENDMDL
MODEL 2
REMARK VINA RESULT:     -11.1      1.300      2.009
REMARK SMILES O=C(CCc1ccc(S(=O)(=O)Nc2cccc(I)c2)cc1)NCCCCCCNC(=O)c1ccc(-c2c3nc(c(-c4c(F)cc(S(=O)(=O)[O-])cc4F)c4ccc([nH]4)c(-c4c(F)cc(S(=O)(=O)[O-])cc4F)c4nc(c(-c5c(F)cc(S(=O)(=O)[O-])cc5F)c5ccc2[nH]5)C=C4)C=C3)cc1
REMARK SMILES IDX 24 1 23 2 22 3 1 4 2 5 3 7 4 8 5 9 6 10 21 11 7 12 20 13
REMARK SMILES IDX 8 14 9 15 10 16 11 17 12 18 13 20 14 21 19 22 15 23 17 24
REMARK SMILES IDX 16 25 18 26 25 27 26 28 27 29 28 30 29 31 30 32 31 34 32 35
REMARK SMILES IDX 33 36 97 37 34 38 96 39 35 40 36 41 37 42 90 43 38 44 95 45
REMARK SMILES IDX 89 46 91 47 39 48 94 49 88 50 87 51 40 53 74 54 53 55 73 56
REMARK SMILES IDX 54 57 57 58 72 59 92 60 55 61 56 62 71 64 93 65 58 66 41 67
REMARK SMILES IDX 42 68 51 69 43 70 44 71 50 72 52 73 45 74 46 75 47 76 48 77
REMARK SMILES IDX 49 78 75 79 76 80 85 81 77 82 78 83 84 84 86 85 79 86 80 87
REMARK SMILES IDX 81 88 82 89 83 90 59 91 60 92 69 93 61 94 62 95 68 96 70 97
REMARK SMILES IDX 63 98 64 99 65 100 66 101 67 102
REMARK H PARENT 22 6 12 19 29 33 91 52 57 63
REMARK Flexibility Score: inf
ROOT
ATOM      1  C   UNL A   1      39.321  22.628  26.619  1.00  0.00     0.021 C 
ENDROOT
BRANCH   1   2
ATOM      2  C   UNL A   1      38.409  22.056  25.526  1.00  0.00     0.116 C 
BRANCH   2   3
ATOM      3  N   UNL A   1      37.005  22.048  25.891  1.00  0.00    -0.356 N 
ATOM      4  O   UNL A   1      36.493  20.032  24.955  1.00  0.00    -0.275 OA
ATOM      5  C   UNL A   1      36.138  21.032  25.580  1.00  0.00     0.220 C 
ATOM      6  H   UNL A   1      36.653  22.819  26.393  1.00  0.00     0.163 HD
BRANCH   5   7
ATOM      7  C   UNL A   1      34.662  21.224  25.932  1.00  0.00     0.105 C 
BRANCH   7   8
ATOM      8  C   UNL A   1      33.621  21.174  24.804  1.00  0.00     0.045 C 
BRANCH   8   9
ATOM      9  C   UNL A   1      33.359  22.451  24.032  1.00  0.00    -0.047 A 
ATOM     10  C   UNL A   1      32.188  22.593  23.270  1.00  0.00     0.005 A 
ATOM     11  C   UNL A   1      34.244  23.526  24.079  1.00  0.00     0.005 A 
ATOM     12  C   UNL A   1      31.899  23.798  22.606  1.00  0.00     0.022 A 
ATOM     13  C   UNL A   1      33.921  24.738  23.481  1.00  0.00     0.022 A 
ATOM     14  C   UNL A   1      32.774  24.882  22.713  1.00  0.00     0.087 A 
BRANCH  14  15
ATOM     15  S   UNL A   1      32.430  26.375  21.792  1.00  0.00     0.261 S 
ATOM     16  O   UNL A   1      33.656  27.139  21.762  1.00  0.00    -0.201 OA
ATOM     17  O   UNL A   1      31.789  25.945  20.563  1.00  0.00    -0.201 OA
BRANCH  15  18
ATOM     18  N   UNL A   1      31.247  27.250  22.599  1.00  0.00    -0.280 N 
ATOM     19  H   UNL A   1      30.530  27.636  22.045  1.00  0.00     0.180 HD
BRANCH  18  20
ATOM     20  C   UNL A   1      31.170  27.492  24.001  1.00  0.00     0.050 A 
ATOM     21  C   UNL A   1      30.667  26.455  24.794  1.00  0.00     0.027 A 
ATOM     22  C   UNL A   1      31.701  28.623  24.624  1.00  0.00     0.041 A 
ATOM     23  C   UNL A   1      30.843  26.467  26.179  1.00  0.00     0.003 A 
ATOM     24  C   UNL A   1      31.915  28.613  26.007  1.00  0.00     0.015 A 
ATOM     25  C   UNL A   1      31.507  27.530  26.784  1.00  0.00     0.015 A 
ATOM     26  I   UNL A   1      32.998  30.158  26.886  1.00  0.00    -0.044 I 
ENDBRANCH  18  20
ENDBRANCH  15  18
ENDBRANCH  14  15
ENDBRANCH   8   9
ENDBRANCH   7   8
ENDBRANCH   5   7
ENDBRANCH   2   3
ENDBRANCH   1   2
BRANCH   1  27
ATOM     27  C   UNL A   1      40.489  21.740  27.071  1.00  0.00     0.002 C 
BRANCH  27  28
ATOM     28  C   UNL A   1      41.245  22.188  28.325  1.00  0.00     0.002 C 
BRANCH  28  29
ATOM     29  C   UNL A   1      42.765  22.307  28.176  1.00  0.00     0.021 C 
BRANCH  29  30
ATOM     30  C   UNL A   1      43.285  23.712  27.879  1.00  0.00     0.116 C 
BRANCH  30  31
ATOM     31  N   UNL A   1      43.019  24.139  26.514  1.00  0.00    -0.352 N 
ATOM     32  C   UNL A   1      42.454  25.305  26.053  1.00  0.00     0.251 C 
ATOM     33  H   UNL A   1      43.282  23.497  25.816  1.00  0.00     0.163 HD
ATOM     34  O   UNL A   1      42.299  25.462  24.845  1.00  0.00    -0.269 OA
BRANCH  32  35
ATOM     35  C   UNL A   1      41.975  26.323  27.016  1.00  0.00     0.039 A 
ATOM     36  C   UNL A   1      40.977  25.961  27.926  1.00  0.00     0.014 A 
ATOM     37  C   UNL A   1      42.547  27.596  27.072  1.00  0.00     0.014 A 
ATOM     38  C   UNL A   1      40.629  26.838  28.958  1.00  0.00     0.010 A 
ATOM     39  C   UNL A   1      42.240  28.445  28.135  1.00  0.00     0.010 A 
ATOM     40  C   UNL A   1      41.299  28.063  29.103  1.00  0.00    -0.014 A 
BRANCH  40  41
ATOM     41  C   UNL A   1      41.076  28.927  30.293  1.00  0.00     0.031 A 
ATOM     42  C   UNL A   1      41.887  28.731  31.543  1.00  0.00     0.074 A 
ATOM     43  C   UNL A   1      40.077  29.834  30.273  1.00  0.00     0.049 A 
ATOM     44  N   UNL A   1      41.774  29.330  32.700  1.00  0.00    -0.248 NA
ATOM     45  C   UNL A   1      42.946  27.712  31.492  1.00  0.00     0.031 C 
ATOM     46  C   UNL A   1      39.182  30.082  29.138  1.00  0.00     0.029 A 
ATOM     47  N   UNL A   1      39.636  30.704  31.237  1.00  0.00    -0.354 N 
ATOM     48  C   UNL A   1      42.736  28.754  33.520  1.00  0.00     0.074 A 
ATOM     49  C   UNL A   1      43.396  27.729  32.738  1.00  0.00     0.031 C 
ATOM     50  C   UNL A   1      38.311  31.050  29.467  1.00  0.00     0.029 A 
ATOM     51  C   UNL A   1      38.560  31.467  30.843  1.00  0.00     0.049 A 
ATOM     52  H   UNL A   1      40.048  30.776  32.128  1.00  0.00     0.167 HD
ATOM     53  C   UNL A   1      43.055  29.064  34.800  1.00  0.00     0.037 A 
ATOM     54  C   UNL A   1      37.849  32.393  31.516  1.00  0.00     0.037 A 
ATOM     55  C   UNL A   1      42.413  30.099  35.567  1.00  0.00     0.049 A 
ATOM     56  C   UNL A   1      38.226  32.726  32.933  1.00  0.00     0.074 A 
ATOM     57  C   UNL A   1      42.706  30.527  36.850  1.00  0.00     0.029 A 
ATOM     58  N   UNL A   1      41.349  30.871  35.123  1.00  0.00    -0.354 N 
ATOM     59  N   UNL A   1      39.181  32.214  33.671  1.00  0.00    -0.248 NA
ATOM     60  C   UNL A   1      37.434  33.765  33.608  1.00  0.00     0.031 C 
ATOM     61  C   UNL A   1      41.796  31.534  37.195  1.00  0.00     0.029 A 
ATOM     62  C   UNL A   1      40.962  31.760  36.112  1.00  0.00     0.049 A 
ATOM     63  H   UNL A   1      40.930  30.797  34.235  1.00  0.00     0.167 HD
ATOM     64  C   UNL A   1      39.120  32.882  34.889  1.00  0.00     0.074 A 
ATOM     65  C   UNL A   1      38.040  33.843  34.785  1.00  0.00     0.031 C 
ATOM     66  C   UNL A   1      39.889  32.715  35.992  1.00  0.00     0.037 A 
BRANCH  53  67
ATOM     67  C   UNL A   1      44.155  28.274  35.450  1.00  0.00     0.058 A 
ATOM     68  C   UNL A   1      43.898  27.061  36.107  1.00  0.00     0.135 A 
ATOM     69  C   UNL A   1      45.486  28.720  35.394  1.00  0.00     0.135 A 
ATOM     70  F   UNL A   1      42.642  26.596  36.202  1.00  0.00    -0.206 F 
ATOM     71  C   UNL A   1      44.915  26.332  36.713  1.00  0.00     0.059 A 
ATOM     72  C   UNL A   1      46.523  27.994  35.973  1.00  0.00     0.059 A 
ATOM     73  F   UNL A   1      45.787  29.874  34.778  1.00  0.00    -0.206 F 
ATOM     74  C   UNL A   1      46.225  26.810  36.645  1.00  0.00     0.060 A 
BRANCH  74  75
ATOM     75  S   UNL A   1      47.534  25.858  37.445  1.00  0.00     0.124 S 
ATOM     76  O   UNL A   1      47.710  26.600  38.691  1.00  0.00    -0.237 OA
ATOM     77  O   UNL A   1      46.928  24.537  37.575  1.00  0.00    -0.237 OA
ATOM     78  O   UNL A   1      48.643  25.947  36.500  1.00  0.00    -0.744 OA
ENDBRANCH  74  75
ENDBRANCH  53  67
BRANCH  54  79
ATOM     79  C   UNL A   1      36.717  33.087  30.848  1.00  0.00     0.058 A 
ATOM     80  C   UNL A   1      36.948  34.158  29.971  1.00  0.00     0.135 A 
ATOM     81  C   UNL A   1      35.388  32.687  31.058  1.00  0.00     0.135 A 
ATOM     82  F   UNL A   1      38.200  34.580  29.744  1.00  0.00    -0.206 F 
ATOM     83  C   UNL A   1      35.900  34.816  29.334  1.00  0.00     0.059 A 
ATOM     84  C   UNL A   1      34.326  33.316  30.416  1.00  0.00     0.059 A 
ATOM     85  F   UNL A   1      35.117  31.657  31.875  1.00  0.00    -0.206 F 
ATOM     86  C   UNL A   1      34.592  34.386  29.563  1.00  0.00     0.060 A 
BRANCH  86  87
ATOM     87  S   UNL A   1      33.243  35.212  28.691  1.00  0.00     0.124 S 
ATOM     88  O   UNL A   1      33.972  36.115  27.809  1.00  0.00    -0.237 OA
ATOM     89  O   UNL A   1      32.565  34.094  28.043  1.00  0.00    -0.237 OA
ATOM     90  O   UNL A   1      32.491  35.849  29.769  1.00  0.00    -0.744 OA
ENDBRANCH  86  87
ENDBRANCH  54  79
BRANCH  66  91
ATOM     91  C   UNL A   1      39.612  33.607  37.170  1.00  0.00     0.058 A 
ATOM     92  C   UNL A   1      38.704  33.237  38.174  1.00  0.00     0.135 A 
ATOM     93  C   UNL A   1      40.304  34.819  37.322  1.00  0.00     0.135 A 
ATOM     94  F   UNL A   1      38.011  32.092  38.069  1.00  0.00    -0.206 F 
ATOM     95  C   UNL A   1      38.482  34.046  39.283  1.00  0.00     0.059 A 
ATOM     96  C   UNL A   1      40.113  35.632  38.435  1.00  0.00     0.059 A 
ATOM     97  F   UNL A   1      41.189  35.214  36.393  1.00  0.00    -0.206 F 
ATOM     98  C   UNL A   1      39.192  35.241  39.406  1.00  0.00     0.060 A 
BRANCH  98  99
ATOM     99  S   UNL A   1      38.927  36.261  40.872  1.00  0.00     0.124 S 
ATOM    100  O   UNL A   1      38.541  37.536  40.276  1.00  0.00    -0.237 OA
ATOM    101  O   UNL A   1      37.868  35.540  41.570  1.00  0.00    -0.237 OA
ATOM    102  O   UNL A   1      40.228  36.245  41.535  1.00  0.00    -0.744 OA
ENDBRANCH  98  99
ENDBRANCH  66  91
ENDBRANCH  40  41
ENDBRANCH  32  35
ENDBRANCH  30  31
ENDBRANCH  29  30
ENDBRANCH  28  29
ENDBRANCH  27  28
ENDBRANCH   1  27
TORSDOF 21
ENDMDL
MODEL 3
REMARK VINA RESULT:     -10.8      1.137      8.160
REMARK SMILES O=C(CCc1ccc(S(=O)(=O)Nc2cccc(I)c2)cc1)NCCCCCCNC(=O)c1ccc(-c2c3nc(c(-c4c(F)cc(S(=O)(=O)[O-])cc4F)c4ccc([nH]4)c(-c4c(F)cc(S(=O)(=O)[O-])cc4F)c4nc(c(-c5c(F)cc(S(=O)(=O)[O-])cc5F)c5ccc2[nH]5)C=C4)C=C3)cc1
REMARK SMILES IDX 24 1 23 2 22 3 1 4 2 5 3 7 4 8 5 9 6 10 21 11 7 12 20 13
REMARK SMILES IDX 8 14 9 15 10 16 11 17 12 18 13 20 14 21 19 22 15 23 17 24
REMARK SMILES IDX 16 25 18 26 25 27 26 28 27 29 28 30 29 31 30 32 31 34 32 35
REMARK SMILES IDX 33 36 97 37 34 38 96 39 35 40 36 41 37 42 90 43 38 44 95 45
REMARK SMILES IDX 89 46 91 47 39 48 94 49 88 50 87 51 40 53 74 54 53 55 73 56
REMARK SMILES IDX 54 57 57 58 72 59 92 60 55 61 56 62 71 64 93 65 58 66 41 67
REMARK SMILES IDX 42 68 51 69 43 70 44 71 50 72 52 73 45 74 46 75 47 76 48 77
REMARK SMILES IDX 49 78 75 79 76 80 85 81 77 82 78 83 84 84 86 85 79 86 80 87
REMARK SMILES IDX 81 88 82 89 83 90 59 91 60 92 69 93 61 94 62 95 68 96 70 97
REMARK SMILES IDX 63 98 64 99 65 100 66 101 67 102
REMARK H PARENT 22 6 12 19 29 33 91 52 57 63
REMARK Flexibility Score: inf
ROOT
ATOM      1  C   UNL A   1      37.316  21.216  24.579  1.00  0.00     0.021 C 
ENDROOT
BRANCH   1   2
ATOM      2  C   UNL A   1      36.278  20.172  25.009  1.00  0.00     0.116 C 
BRANCH   2   3
ATOM      3  N   UNL A   1      34.909  20.634  24.883  1.00  0.00    -0.356 N 
ATOM      4  O   UNL A   1      33.996  18.625  24.307  1.00  0.00    -0.275 OA
ATOM      5  C   UNL A   1      33.856  19.825  24.539  1.00  0.00     0.220 C 
ATOM      6  H   UNL A   1      34.724  21.586  25.054  1.00  0.00     0.163 HD
BRANCH   5   7
ATOM      7  C   UNL A   1      32.491  20.485  24.333  1.00  0.00     0.105 C 
BRANCH   7   8
ATOM      8  C   UNL A   1      32.238  21.271  23.038  1.00  0.00     0.045 C 
BRANCH   8   9
ATOM      9  C   UNL A   1      32.266  22.782  23.117  1.00  0.00    -0.047 A 
ATOM     10  C   UNL A   1      31.137  23.493  23.554  1.00  0.00     0.005 A 
ATOM     11  C   UNL A   1      33.411  23.508  22.792  1.00  0.00     0.005 A 
ATOM     12  C   UNL A   1      31.173  24.891  23.698  1.00  0.00     0.022 A 
ATOM     13  C   UNL A   1      33.465  24.881  23.004  1.00  0.00     0.022 A 
ATOM     14  C   UNL A   1      32.349  25.592  23.421  1.00  0.00     0.087 A 
BRANCH  14  15
ATOM     15  S   UNL A   1      32.346  27.376  23.529  1.00  0.00     0.261 S 
ATOM     16  O   UNL A   1      31.707  27.717  24.780  1.00  0.00    -0.201 OA
ATOM     17  O   UNL A   1      33.707  27.795  23.250  1.00  0.00    -0.201 OA
BRANCH  15  18
ATOM     18  N   UNL A   1      31.446  27.995  22.256  1.00  0.00    -0.280 N 
ATOM     19  H   UNL A   1      31.852  27.936  21.360  1.00  0.00     0.180 HD
BRANCH  18  20
ATOM     20  C   UNL A   1      30.156  28.596  22.333  1.00  0.00     0.050 A 
ATOM     21  C   UNL A   1      29.119  27.803  22.835  1.00  0.00     0.027 A 
ATOM     22  C   UNL A   1      29.914  29.949  22.084  1.00  0.00     0.041 A 
ATOM     23  C   UNL A   1      27.915  28.380  23.243  1.00  0.00     0.003 A 
ATOM     24  C   UNL A   1      28.723  30.531  22.533  1.00  0.00     0.015 A 
ATOM     25  C   UNL A   1      27.732  29.755  23.131  1.00  0.00     0.015 A 
ATOM     26  I   UNL A   1      28.502  32.599  22.455  1.00  0.00    -0.044 I 
ENDBRANCH  18  20
ENDBRANCH  15  18
ENDBRANCH  14  15
ENDBRANCH   8   9
ENDBRANCH   7   8
ENDBRANCH   5   7
ENDBRANCH   2   3
ENDBRANCH   1   2
BRANCH   1  27
ATOM     27  C   UNL A   1      37.959  22.046  25.699  1.00  0.00     0.002 C 
BRANCH  27  28
ATOM     28  C   UNL A   1      39.357  21.617  26.153  1.00  0.00     0.002 C 
BRANCH  28  29
ATOM     29  C   UNL A   1      40.189  22.698  26.850  1.00  0.00     0.021 C 
BRANCH  29  30
ATOM     30  C   UNL A   1      39.698  24.131  26.652  1.00  0.00     0.116 C 
BRANCH  30  31
ATOM     31  N   UNL A   1      40.513  24.886  25.713  1.00  0.00    -0.352 N 
ATOM     32  C   UNL A   1      41.296  25.997  25.924  1.00  0.00     0.251 C 
ATOM     33  H   UNL A   1      40.502  24.553  24.787  1.00  0.00     0.163 HD
ATOM     34  O   UNL A   1      41.896  26.499  24.979  1.00  0.00    -0.269 OA
BRANCH  32  35
ATOM     35  C   UNL A   1      41.350  26.615  27.269  1.00  0.00     0.039 A 
ATOM     36  C   UNL A   1      42.105  27.780  27.436  1.00  0.00     0.014 A 
ATOM     37  C   UNL A   1      40.613  26.098  28.337  1.00  0.00     0.014 A 
ATOM     38  C   UNL A   1      42.036  28.485  28.642  1.00  0.00     0.010 A 
ATOM     39  C   UNL A   1      40.499  26.832  29.517  1.00  0.00     0.010 A 
ATOM     40  C   UNL A   1      41.188  28.045  29.671  1.00  0.00    -0.014 A 
BRANCH  40  41
ATOM     41  C   UNL A   1      40.958  28.872  30.886  1.00  0.00     0.031 A 
ATOM     42  C   UNL A   1      39.876  29.915  30.908  1.00  0.00     0.074 A 
ATOM     43  C   UNL A   1      41.788  28.739  31.941  1.00  0.00     0.049 A 
ATOM     44  N   UNL A   1      39.588  30.783  31.843  1.00  0.00    -0.248 NA
ATOM     45  C   UNL A   1      39.024  30.010  29.713  1.00  0.00     0.031 C 
ATOM     46  C   UNL A   1      42.911  27.801  32.022  1.00  0.00     0.029 A 
ATOM     47  N   UNL A   1      41.827  29.403  33.142  1.00  0.00    -0.354 N 
ATOM     48  C   UNL A   1      38.531  31.535  31.348  1.00  0.00     0.074 A 
ATOM     49  C   UNL A   1      38.256  31.048  30.012  1.00  0.00     0.031 C 
ATOM     50  C   UNL A   1      43.517  27.939  33.213  1.00  0.00     0.029 A 
ATOM     51  C   UNL A   1      42.851  28.996  33.966  1.00  0.00     0.049 A 
ATOM     52  H   UNL A   1      41.183  30.105  33.390  1.00  0.00     0.167 HD
ATOM     53  C   UNL A   1      37.839  32.529  31.957  1.00  0.00     0.037 A 
ATOM     54  C   UNL A   1      43.217  29.430  35.189  1.00  0.00     0.037 A 
ATOM     55  C   UNL A   1      38.099  32.996  33.294  1.00  0.00     0.049 A 
ATOM     56  C   UNL A   1      42.429  30.527  35.848  1.00  0.00     0.074 A 
ATOM     57  C   UNL A   1      37.414  33.955  34.019  1.00  0.00     0.029 A 
ATOM     58  N   UNL A   1      39.124  32.537  34.108  1.00  0.00    -0.354 N 
ATOM     59  N   UNL A   1      41.391  31.185  35.388  1.00  0.00    -0.248 NA
ATOM     60  C   UNL A   1      42.855  30.939  37.193  1.00  0.00     0.031 C 
ATOM     61  C   UNL A   1      38.045  34.102  35.259  1.00  0.00     0.029 A 
ATOM     62  C   UNL A   1      39.100  33.205  35.322  1.00  0.00     0.049 A 
ATOM     63  H   UNL A   1      39.772  31.839  33.861  1.00  0.00     0.167 HD
ATOM     64  C   UNL A   1      41.028  32.073  36.395  1.00  0.00     0.074 A 
ATOM     65  C   UNL A   1      41.950  31.861  37.492  1.00  0.00     0.031 C 
ATOM     66  C   UNL A   1      40.021  32.980  36.408  1.00  0.00     0.037 A 
BRANCH  53  67
ATOM     67  C   UNL A   1      36.726  33.174  31.181  1.00  0.00     0.058 A 
ATOM     68  C   UNL A   1      35.379  32.893  31.457  1.00  0.00     0.135 A 
ATOM     69  C   UNL A   1      37.006  34.104  30.166  1.00  0.00     0.135 A 
ATOM     70  F   UNL A   1      35.056  32.002  32.408  1.00  0.00    -0.206 F 
ATOM     71  C   UNL A   1      34.349  33.486  30.736  1.00  0.00     0.059 A 
ATOM     72  C   UNL A   1      35.991  34.728  29.447  1.00  0.00     0.059 A 
ATOM     73  F   UNL A   1      38.278  34.409  29.861  1.00  0.00    -0.206 F 
ATOM     74  C   UNL A   1      34.665  34.399  29.728  1.00  0.00     0.060 A 
BRANCH  74  75
ATOM     75  S   UNL A   1      33.318  35.154  28.792  1.00  0.00     0.124 S 
ATOM     76  O   UNL A   1      34.042  36.124  27.976  1.00  0.00    -0.237 OA
ATOM     77  O   UNL A   1      32.757  34.014  28.074  1.00  0.00    -0.237 OA
ATOM     78  O   UNL A   1      32.462  35.721  29.830  1.00  0.00    -0.744 OA
ENDBRANCH  74  75
ENDBRANCH  53  67
BRANCH  54  79
ATOM     79  C   UNL A   1      44.378  28.808  35.878  1.00  0.00     0.058 A 
ATOM     80  C   UNL A   1      44.200  27.720  36.745  1.00  0.00     0.135 A 
ATOM     81  C   UNL A   1      45.685  29.276  35.674  1.00  0.00     0.135 A 
ATOM     82  F   UNL A   1      42.969  27.241  36.976  1.00  0.00    -0.206 F 
ATOM     83  C   UNL A   1      45.276  27.123  37.395  1.00  0.00     0.059 A 
ATOM     84  C   UNL A   1      46.779  28.683  36.296  1.00  0.00     0.059 A 
ATOM     85  F   UNL A   1      45.908  30.305  34.841  1.00  0.00    -0.206 F 
ATOM     86  C   UNL A   1      46.563  27.612  37.163  1.00  0.00     0.060 A 
BRANCH  86  87
ATOM     87  S   UNL A   1      47.959  26.799  37.970  1.00  0.00     0.124 S 
ATOM     88  O   UNL A   1      49.080  27.284  37.176  1.00  0.00    -0.237 OA
ATOM     89  O   UNL A   1      47.869  27.314  39.333  1.00  0.00    -0.237 OA
ATOM     90  O   UNL A   1      47.646  25.380  37.824  1.00  0.00    -0.744 OA
ENDBRANCH  86  87
ENDBRANCH  54  79
BRANCH  66  91
ATOM     91  C   UNL A   1      39.842  33.796  37.657  1.00  0.00     0.058 A 
ATOM     92  C   UNL A   1      40.519  35.012  37.842  1.00  0.00     0.135 A 
ATOM     93  C   UNL A   1      38.943  33.385  38.653  1.00  0.00     0.135 A 
ATOM     94  F   UNL A   1      41.396  35.444  36.922  1.00  0.00    -0.206 F 
ATOM     95  C   UNL A   1      40.319  35.786  38.980  1.00  0.00     0.059 A 
ATOM     96  C   UNL A   1      38.711  34.155  39.789  1.00  0.00     0.059 A 
ATOM     97  F   UNL A   1      38.265  32.234  38.519  1.00  0.00    -0.206 F 
ATOM     98  C   UNL A   1      39.412  35.349  39.948  1.00  0.00     0.060 A 
BRANCH  98  99
ATOM     99  S   UNL A   1      39.128  36.384  41.400  1.00  0.00     0.124 S 
ATOM    100  O   UNL A   1      38.912  37.692  40.791  1.00  0.00    -0.237 OA
ATOM    101  O   UNL A   1      37.954  35.764  42.005  1.00  0.00    -0.237 OA
ATOM    102  O   UNL A   1      40.365  36.242  42.163  1.00  0.00    -0.744 OA
ENDBRANCH  98  99
ENDBRANCH  66  91
ENDBRANCH  40  41
ENDBRANCH  32  35
ENDBRANCH  30  31
ENDBRANCH  29  30
ENDBRANCH  28  29
ENDBRANCH  27  28
ENDBRANCH   1  27
TORSDOF 21
ENDMDL
