MODEL 1
REMARK VINA RESULT:      -9.3      0.000      0.000
REMARK SMILES O=C(NCCCCCCNC(=O)[C@@H]1[C@H](C(=O)Nc2ccccc2OC(F)F)[C@@H]2C=C[C@H]1C2)c1ccc(-c2c3nc(c(-c4c(F)cc(S(=O)(=O)[O-])cc4F)c4ccc([nH]4)c(-c4c(F)cc(S(=O)(=O)[O-])cc4F)c4nc(c(-c5c(F)cc(S(=O)(=O)[O-])cc5F)c5ccc2[nH]5)C=C4)C=C3)cc1
REMARK SMILES IDX 7 1 6 2 5 3 4 4 3 5 1 6 2 7 33 9 34 10 98 11 35 12 97 13
REMARK SMILES IDX 36 14 37 15 38 16 91 17 39 18 96 19 90 20 92 21 40 22 95 23
REMARK SMILES IDX 89 24 88 25 41 27 75 28 54 29 74 30 55 31 58 32 73 33 93 34
REMARK SMILES IDX 56 35 57 36 72 38 94 39 59 40 42 41 43 42 52 43 44 44 45 45
REMARK SMILES IDX 51 46 53 47 46 48 47 49 48 50 49 51 50 52 76 53 77 54 86 55
REMARK SMILES IDX 78 56 79 57 85 58 87 59 80 60 81 61 82 62 83 63 84 64 60 65
REMARK SMILES IDX 61 66 70 67 62 68 63 69 69 70 71 71 64 72 65 73 66 74 67 75
REMARK SMILES IDX 68 76 8 77 9 78 10 79 11 80 12 82 13 83 14 84 31 85 28 86
REMARK SMILES IDX 30 87 32 88 29 89 15 90 16 91 17 92 18 94 19 95 23 96 20 97
REMARK SMILES IDX 22 98 21 99 24 100 25 101 26 102 27 103
REMARK H PARENT 3 8 92 26 58 37 10 81 17 93
REMARK Flexibility Score: inf
ROOT
ATOM      1  C   UNL A   1      42.143  23.225  28.225  1.00  0.00     0.002 C 
ENDROOT
BRANCH   1   2
ATOM      2  C   UNL A   1      42.460  22.802  26.792  1.00  0.00     0.002 C 
BRANCH   2   3
ATOM      3  C   UNL A   1      41.534  21.771  26.128  1.00  0.00     0.021 C 
BRANCH   3   4
ATOM      4  C   UNL A   1      40.104  21.663  26.664  1.00  0.00     0.116 C 
BRANCH   4   5
ATOM      5  N   UNL A   1      39.123  22.284  25.781  1.00  0.00    -0.352 N 
ATOM      6  O   UNL A   1      37.546  23.768  25.148  1.00  0.00    -0.269 OA
ATOM      7  C   UNL A   1      38.542  23.521  25.845  1.00  0.00     0.251 C 
ATOM      8  H   UNL A   1      38.832  21.726  25.023  1.00  0.00     0.163 HD
BRANCH   7   9
ATOM      9  C   UNL A   1      39.096  24.570  26.724  1.00  0.00     0.039 A 
ATOM     10  C   UNL A   1      39.970  25.527  26.203  1.00  0.00     0.014 A 
ATOM     11  C   UNL A   1      38.691  24.641  28.061  1.00  0.00     0.014 A 
ATOM     12  C   UNL A   1      40.520  26.492  27.041  1.00  0.00     0.010 A 
ATOM     13  C   UNL A   1      39.188  25.656  28.884  1.00  0.00     0.010 A 
ATOM     14  C   UNL A   1      40.113  26.587  28.381  1.00  0.00    -0.014 A 
BRANCH  14  15
ATOM     15  C   UNL A   1      40.575  27.732  29.205  1.00  0.00     0.031 A 
ATOM     16  C   UNL A   1      41.902  27.702  29.909  1.00  0.00     0.074 A 
ATOM     17  C   UNL A   1      39.766  28.805  29.314  1.00  0.00     0.049 A 
ATOM     18  N   UNL A   1      42.435  28.603  30.693  1.00  0.00    -0.248 NA
ATOM     19  C   UNL A   1      42.735  26.505  29.716  1.00  0.00     0.031 C 
ATOM     20  C   UNL A   1      38.449  28.930  28.681  1.00  0.00     0.029 A 
ATOM     21  N   UNL A   1      39.922  29.990  29.987  1.00  0.00    -0.354 N 
ATOM     22  C   UNL A   1      43.656  28.079  31.104  1.00  0.00     0.074 A 
ATOM     23  C   UNL A   1      43.775  26.771  30.497  1.00  0.00     0.031 C 
ATOM     24  C   UNL A   1      37.931  30.131  28.972  1.00  0.00     0.029 A 
ATOM     25  C   UNL A   1      38.840  30.832  29.869  1.00  0.00     0.049 A 
ATOM     26  H   UNL A   1      40.729  30.215  30.503  1.00  0.00     0.167 HD
ATOM     27  C   UNL A   1      44.584  28.646  31.912  1.00  0.00     0.037 A 
ATOM     28  C   UNL A   1      38.590  32.021  30.448  1.00  0.00     0.037 A 
ATOM     29  C   UNL A   1      44.447  29.956  32.498  1.00  0.00     0.049 A 
ATOM     30  C   UNL A   1      39.621  32.607  31.370  1.00  0.00     0.074 A 
ATOM     31  C   UNL A   1      45.352  30.642  33.290  1.00  0.00     0.029 A 
ATOM     32  N   UNL A   1      43.330  30.772  32.373  1.00  0.00    -0.354 N 
ATOM     33  N   UNL A   1      40.792  32.121  31.705  1.00  0.00    -0.248 NA
ATOM     34  C   UNL A   1      39.298  33.895  31.997  1.00  0.00     0.031 C 
ATOM     35  C   UNL A   1      44.759  31.842  33.695  1.00  0.00     0.029 A 
ATOM     36  C   UNL A   1      43.509  31.937  33.102  1.00  0.00     0.049 A 
ATOM     37  H   UNL A   1      42.530  30.555  31.843  1.00  0.00     0.167 HD
ATOM     38  C   UNL A   1      41.356  33.053  32.567  1.00  0.00     0.074 A 
ATOM     39  C   UNL A   1      40.404  34.140  32.685  1.00  0.00     0.031 C 
ATOM     40  C   UNL A   1      42.551  33.011  33.206  1.00  0.00     0.037 A 
BRANCH  27  41
ATOM     41  C   UNL A   1      45.822  27.851  32.237  1.00  0.00     0.058 A 
ATOM     42  C   UNL A   1      45.838  26.873  33.244  1.00  0.00     0.135 A 
ATOM     43  C   UNL A   1      46.995  28.027  31.483  1.00  0.00     0.135 A 
ATOM     44  F   UNL A   1      44.751  26.668  34.004  1.00  0.00    -0.206 F 
ATOM     45  C   UNL A   1      46.975  26.114  33.505  1.00  0.00     0.059 A 
ATOM     46  C   UNL A   1      48.136  27.261  31.708  1.00  0.00     0.059 A 
ATOM     47  F   UNL A   1      47.038  28.947  30.506  1.00  0.00    -0.206 F 
ATOM     48  C   UNL A   1      48.119  26.313  32.730  1.00  0.00     0.060 A 
BRANCH  48  49
ATOM     49  S   UNL A   1      49.581  25.310  33.074  1.00  0.00     0.124 S 
ATOM     50  O   UNL A   1      50.523  26.320  33.546  1.00  0.00    -0.237 OA
ATOM     51  O   UNL A   1      49.089  24.381  34.085  1.00  0.00    -0.237 OA
ATOM     52  O   UNL A   1      49.898  24.714  31.780  1.00  0.00    -0.744 OA
ENDBRANCH  48  49
ENDBRANCH  27  41
BRANCH  28  53
ATOM     53  C   UNL A   1      37.297  32.711  30.192  1.00  0.00     0.058 A 
ATOM     54  C   UNL A   1      36.166  32.451  30.977  1.00  0.00     0.135 A 
ATOM     55  C   UNL A   1      37.175  33.663  29.165  1.00  0.00     0.135 A 
ATOM     56  F   UNL A   1      36.229  31.549  31.968  1.00  0.00    -0.206 F 
ATOM     57  C   UNL A   1      34.954  33.093  30.743  1.00  0.00     0.059 A 
ATOM     58  C   UNL A   1      35.985  34.343  28.933  1.00  0.00     0.059 A 
ATOM     59  F   UNL A   1      38.234  33.963  28.396  1.00  0.00    -0.206 F 
ATOM     60  C   UNL A   1      34.874  34.041  29.719  1.00  0.00     0.060 A 
BRANCH  60  61
ATOM     61  S   UNL A   1      33.307  34.894  29.448  1.00  0.00     0.124 S 
ATOM     62  O   UNL A   1      32.793  35.000  30.808  1.00  0.00    -0.237 OA
ATOM     63  O   UNL A   1      33.742  36.143  28.829  1.00  0.00    -0.237 OA
ATOM     64  O   UNL A   1      32.579  33.986  28.566  1.00  0.00    -0.744 OA
ENDBRANCH  60  61
ENDBRANCH  28  53
BRANCH  40  65
ATOM     65  C   UNL A   1      42.913  34.188  34.069  1.00  0.00     0.058 A 
ATOM     66  C   UNL A   1      42.679  34.188  35.453  1.00  0.00     0.135 A 
ATOM     67  C   UNL A   1      43.555  35.306  33.512  1.00  0.00     0.135 A 
ATOM     68  F   UNL A   1      42.057  33.150  36.034  1.00  0.00    -0.206 F 
ATOM     69  C   UNL A   1      43.055  35.262  36.253  1.00  0.00     0.059 A 
ATOM     70  C   UNL A   1      43.968  36.377  34.296  1.00  0.00     0.059 A 
ATOM     71  F   UNL A   1      43.806  35.354  32.194  1.00  0.00    -0.206 F 
ATOM     72  C   UNL A   1      43.707  36.349  35.665  1.00  0.00     0.060 A 
BRANCH  72  73
ATOM     73  S   UNL A   1      44.236  37.712  36.724  1.00  0.00     0.124 S 
ATOM     74  O   UNL A   1      43.204  37.702  37.755  1.00  0.00    -0.237 OA
ATOM     75  O   UNL A   1      45.562  37.277  37.150  1.00  0.00    -0.237 OA
ATOM     76  O   UNL A   1      44.218  38.865  35.829  1.00  0.00    -0.744 OA
ENDBRANCH  72  73
ENDBRANCH  40  65
ENDBRANCH  14  15
ENDBRANCH   7   9
ENDBRANCH   4   5
ENDBRANCH   3   4
ENDBRANCH   2   3
ENDBRANCH   1   2
BRANCH   1  77
ATOM     77  C   UNL A   1      43.113  22.770  29.328  1.00  0.00     0.021 C 
BRANCH  77  78
ATOM     78  C   UNL A   1      44.599  23.321  29.407  1.00  0.00     0.116 C 
BRANCH  78  79
ATOM     79  N   UNL A   1      45.582  23.596  28.136  1.00  0.00    -0.356 N 
ATOM     80  C   UNL A   1      46.576  24.300  27.455  1.00  0.00     0.224 C 
ATOM     81  H   UNL A   1      45.348  22.875  27.510  1.00  0.00     0.163 HD
ATOM     82  O   UNL A   1      46.769  23.729  26.351  1.00  0.00    -0.275 OA
BRANCH  80  83
ATOM     83  C   UNL A   1      47.625  25.673  27.657  1.00  0.00     0.098 C 
ATOM     84  C   UNL A   1      48.047  27.219  27.150  1.00  0.00     0.099 C 
ATOM     85  C   UNL A   1      49.083  25.210  28.110  1.00  0.00     0.025 C 
ATOM     86  C   UNL A   1      49.556  27.329  27.503  1.00  0.00     0.025 C 
ATOM     87  C   UNL A   1      50.056  25.174  26.944  1.00  0.00    -0.027 C 
ATOM     88  C   UNL A   1      49.635  26.492  28.772  1.00  0.00     0.017 C 
ATOM     89  C   UNL A   1      50.343  26.436  26.593  1.00  0.00    -0.027 C 
BRANCH  84  90
ATOM     90  C   UNL A   1      47.850  28.157  25.887  1.00  0.00     0.229 C 
ATOM     91  O   UNL A   1      48.744  28.188  25.032  1.00  0.00    -0.274 OA
ATOM     92  N   UNL A   1      46.720  28.876  25.627  1.00  0.00    -0.323 N 
ATOM     93  H   UNL A   1      46.583  29.210  24.711  1.00  0.00     0.170 HD
BRANCH  92  94
ATOM     94  C   UNL A   1      45.759  29.162  26.573  1.00  0.00     0.084 A 
ATOM     95  C   UNL A   1      46.029  30.006  27.661  1.00  0.00     0.030 A 
ATOM     96  C   UNL A   1      44.495  28.708  26.346  1.00  0.00     0.149 A 
ATOM     97  C   UNL A   1      44.980  30.605  28.375  1.00  0.00     0.002 A 
ATOM     98  C   UNL A   1      43.451  29.377  27.043  1.00  0.00     0.049 A 
ATOM     99  C   UNL A   1      43.675  30.340  28.018  1.00  0.00     0.004 A 
BRANCH  96 100
ATOM    100  O   UNL A   1      44.180  27.677  25.510  1.00  0.00    -0.433 OA
BRANCH 100 101
ATOM    101  C   UNL A   1      43.951  26.253  25.418  1.00  0.00     0.542 C 
ATOM    102  F   UNL A   1      43.730  25.709  26.625  1.00  0.00    -0.167 F 
ATOM    103  F   UNL A   1      42.823  26.046  24.680  1.00  0.00    -0.167 F 
ENDBRANCH 100 101
ENDBRANCH  96 100
ENDBRANCH  92  94
ENDBRANCH  84  90
ENDBRANCH  80  83
ENDBRANCH  78  79
ENDBRANCH  77  78
ENDBRANCH   1  77
TORSDOF 20
ENDMDL
MODEL 2
REMARK VINA RESULT:      -9.3      4.343     11.069
REMARK SMILES O=C(NCCCCCCNC(=O)[C@@H]1[C@H](C(=O)Nc2ccccc2OC(F)F)[C@@H]2C=C[C@H]1C2)c1ccc(-c2c3nc(c(-c4c(F)cc(S(=O)(=O)[O-])cc4F)c4ccc([nH]4)c(-c4c(F)cc(S(=O)(=O)[O-])cc4F)c4nc(c(-c5c(F)cc(S(=O)(=O)[O-])cc5F)c5ccc2[nH]5)C=C4)C=C3)cc1
REMARK SMILES IDX 7 1 6 2 5 3 4 4 3 5 1 6 2 7 33 9 34 10 98 11 35 12 97 13
REMARK SMILES IDX 36 14 37 15 38 16 91 17 39 18 96 19 90 20 92 21 40 22 95 23
REMARK SMILES IDX 89 24 88 25 41 27 75 28 54 29 74 30 55 31 58 32 73 33 93 34
REMARK SMILES IDX 56 35 57 36 72 38 94 39 59 40 42 41 43 42 52 43 44 44 45 45
REMARK SMILES IDX 51 46 53 47 46 48 47 49 48 50 49 51 50 52 76 53 77 54 86 55
REMARK SMILES IDX 78 56 79 57 85 58 87 59 80 60 81 61 82 62 83 63 84 64 60 65
REMARK SMILES IDX 61 66 70 67 62 68 63 69 69 70 71 71 64 72 65 73 66 74 67 75
REMARK SMILES IDX 68 76 8 77 9 78 10 79 11 80 12 82 13 83 14 84 31 85 28 86
REMARK SMILES IDX 30 87 32 88 29 89 15 90 16 91 17 92 18 94 19 95 23 96 20 97
REMARK SMILES IDX 22 98 21 99 24 100 25 101 26 102 27 103
REMARK H PARENT 3 8 92 26 58 37 10 81 17 93
REMARK Flexibility Score: inf
ROOT
ATOM      1  C   UNL A   1      37.551  21.738  24.524  1.00  0.00     0.002 C 
ENDROOT
BRANCH   1   2
ATOM      2  C   UNL A   1      37.925  22.501  25.793  1.00  0.00     0.002 C 
BRANCH   2   3
ATOM      3  C   UNL A   1      39.240  22.124  26.494  1.00  0.00     0.021 C 
BRANCH   3   4
ATOM      4  C   UNL A   1      40.058  23.262  27.110  1.00  0.00     0.116 C 
BRANCH   4   5
ATOM      5  N   UNL A   1      40.742  24.071  26.108  1.00  0.00    -0.352 N 
ATOM      6  O   UNL A   1      41.385  25.956  25.049  1.00  0.00    -0.269 OA
ATOM      7  C   UNL A   1      41.021  25.411  26.102  1.00  0.00     0.251 C 
ATOM      8  H   UNL A   1      41.050  23.578  25.313  1.00  0.00     0.163 HD
BRANCH   7   9
ATOM      9  C   UNL A   1      40.905  26.211  27.336  1.00  0.00     0.039 A 
ATOM     10  C   UNL A   1      41.832  27.222  27.602  1.00  0.00     0.014 A 
ATOM     11  C   UNL A   1      39.830  25.999  28.205  1.00  0.00     0.014 A 
ATOM     12  C   UNL A   1      41.744  27.951  28.784  1.00  0.00     0.010 A 
ATOM     13  C   UNL A   1      39.701  26.781  29.356  1.00  0.00     0.010 A 
ATOM     14  C   UNL A   1      40.662  27.760  29.658  1.00  0.00    -0.014 A 
BRANCH  14  15
ATOM     15  C   UNL A   1      40.492  28.670  30.818  1.00  0.00     0.031 A 
ATOM     16  C   UNL A   1      39.447  29.749  30.818  1.00  0.00     0.074 A 
ATOM     17  C   UNL A   1      41.310  28.509  31.878  1.00  0.00     0.049 A 
ATOM     18  N   UNL A   1      39.194  30.647  31.736  1.00  0.00    -0.248 NA
ATOM     19  C   UNL A   1      38.579  29.840  29.634  1.00  0.00     0.031 C 
ATOM     20  C   UNL A   1      42.369  27.499  31.975  1.00  0.00     0.029 A 
ATOM     21  N   UNL A   1      41.385  29.180  33.072  1.00  0.00    -0.354 N 
ATOM     22  C   UNL A   1      38.153  31.422  31.237  1.00  0.00     0.074 A 
ATOM     23  C   UNL A   1      37.834  30.900  29.925  1.00  0.00     0.031 C 
ATOM     24  C   UNL A   1      42.967  27.599  33.170  1.00  0.00     0.029 A 
ATOM     25  C   UNL A   1      42.389  28.723  33.895  1.00  0.00     0.049 A 
ATOM     26  H   UNL A   1      40.780  29.917  33.316  1.00  0.00     0.167 HD
ATOM     27  C   UNL A   1      37.527  32.468  31.827  1.00  0.00     0.037 A 
ATOM     28  C   UNL A   1      42.822  29.179  35.084  1.00  0.00     0.037 A 
ATOM     29  C   UNL A   1      37.856  32.966  33.140  1.00  0.00     0.049 A 
ATOM     30  C   UNL A   1      42.134  30.365  35.696  1.00  0.00     0.074 A 
ATOM     31  C   UNL A   1      37.250  33.988  33.849  1.00  0.00     0.029 A 
ATOM     32  N   UNL A   1      38.891  32.490  33.935  1.00  0.00    -0.354 N 
ATOM     33  N   UNL A   1      41.117  31.053  35.234  1.00  0.00    -0.248 NA
ATOM     34  C   UNL A   1      42.652  30.844  36.984  1.00  0.00     0.031 C 
ATOM     35  C   UNL A   1      37.955  34.173  35.042  1.00  0.00     0.029 A 
ATOM     36  C   UNL A   1      38.962  33.222  35.110  1.00  0.00     0.049 A 
ATOM     37  H   UNL A   1      39.486  31.743  33.700  1.00  0.00     0.167 HD
ATOM     38  C   UNL A   1      40.859  32.034  36.183  1.00  0.00     0.074 A 
ATOM     39  C   UNL A   1      41.816  31.837  37.255  1.00  0.00     0.031 C 
ATOM     40  C   UNL A   1      39.920  33.010  36.168  1.00  0.00     0.037 A 
BRANCH  27  41
ATOM     41  C   UNL A   1      36.439  33.171  31.056  1.00  0.00     0.058 A 
ATOM     42  C   UNL A   1      35.085  33.062  31.410  1.00  0.00     0.135 A 
ATOM     43  C   UNL A   1      36.766  34.020  29.985  1.00  0.00     0.135 A 
ATOM     44  F   UNL A   1      34.712  32.257  32.418  1.00  0.00    -0.206 F 
ATOM     45  C   UNL A   1      34.094  33.752  30.718  1.00  0.00     0.059 A 
ATOM     46  C   UNL A   1      35.794  34.741  29.296  1.00  0.00     0.059 A 
ATOM     47  F   UNL A   1      38.045  34.164  29.602  1.00  0.00    -0.206 F 
ATOM     48  C   UNL A   1      34.458  34.591  29.664  1.00  0.00     0.060 A 
BRANCH  48  49
ATOM     49  S   UNL A   1      33.159  35.489  28.786  1.00  0.00     0.124 S 
ATOM     50  O   UNL A   1      33.941  36.452  28.016  1.00  0.00    -0.237 OA
ATOM     51  O   UNL A   1      32.519  34.431  28.012  1.00  0.00    -0.237 OA
ATOM     52  O   UNL A   1      32.350  36.055  29.860  1.00  0.00    -0.744 OA
ENDBRANCH  48  49
ENDBRANCH  27  41
BRANCH  28  53
ATOM     53  C   UNL A   1      43.982  28.527  35.750  1.00  0.00     0.058 A 
ATOM     54  C   UNL A   1      43.801  27.492  36.676  1.00  0.00     0.135 A 
ATOM     55  C   UNL A   1      45.300  28.918  35.455  1.00  0.00     0.135 A 
ATOM     56  F   UNL A   1      42.563  27.084  36.994  1.00  0.00    -0.206 F 
ATOM     57  C   UNL A   1      44.881  26.878  37.302  1.00  0.00     0.059 A 
ATOM     58  C   UNL A   1      46.397  28.297  36.041  1.00  0.00     0.059 A 
ATOM     59  F   UNL A   1      45.529  29.892  34.561  1.00  0.00    -0.206 F 
ATOM     60  C   UNL A   1      46.177  27.286  36.975  1.00  0.00     0.060 A 
BRANCH  60  61
ATOM     61  S   UNL A   1      47.572  26.458  37.767  1.00  0.00     0.124 S 
ATOM     62  O   UNL A   1      48.623  26.644  36.774  1.00  0.00    -0.237 OA
ATOM     63  O   UNL A   1      47.717  27.220  39.004  1.00  0.00    -0.237 OA
ATOM     64  O   UNL A   1      47.097  25.088  37.936  1.00  0.00    -0.744 OA
ENDBRANCH  60  61
ENDBRANCH  28  53
BRANCH  40  65
ATOM     65  C   UNL A   1      39.858  33.926  37.359  1.00  0.00     0.058 A 
ATOM     66  C   UNL A   1      40.638  35.090  37.437  1.00  0.00     0.135 A 
ATOM     67  C   UNL A   1      38.963  33.665  38.409  1.00  0.00     0.135 A 
ATOM     68  F   UNL A   1      41.519  35.380  36.465  1.00  0.00    -0.206 F 
ATOM     69  C   UNL A   1      40.545  35.956  38.521  1.00  0.00     0.059 A 
ATOM     70  C   UNL A   1      38.830  34.533  39.488  1.00  0.00     0.059 A 
ATOM     71  F   UNL A   1      38.190  32.568  38.382  1.00  0.00    -0.206 F 
ATOM     72  C   UNL A   1      39.631  35.672  39.539  1.00  0.00     0.060 A 
BRANCH  72  73
ATOM     73  S   UNL A   1      39.485  36.832  40.913  1.00  0.00     0.124 S 
ATOM     74  O   UNL A   1      38.578  37.832  40.360  1.00  0.00    -0.237 OA
ATOM     75  O   UNL A   1      38.934  35.991  41.971  1.00  0.00    -0.237 OA
ATOM     76  O   UNL A   1      40.857  37.281  41.128  1.00  0.00    -0.744 OA
ENDBRANCH  72  73
ENDBRANCH  40  65
ENDBRANCH  14  15
ENDBRANCH   7   9
ENDBRANCH   4   5
ENDBRANCH   3   4
ENDBRANCH   2   3
ENDBRANCH   1   2
BRANCH   1  77
ATOM     77  C   UNL A   1      37.078  20.283  24.686  1.00  0.00     0.021 C 
BRANCH  77  78
ATOM     78  C   UNL A   1      35.585  19.936  25.095  1.00  0.00     0.116 C 
BRANCH  78  79
ATOM     79  N   UNL A   1      34.658  20.786  26.133  1.00  0.00    -0.356 N 
ATOM     80  C   UNL A   1      34.016  21.944  26.575  1.00  0.00     0.224 C 
ATOM     81  H   UNL A   1      34.426  20.123  26.822  1.00  0.00     0.163 HD
ATOM     82  O   UNL A   1      33.408  21.667  27.641  1.00  0.00    -0.275 OA
BRANCH  80  83
ATOM     83  C   UNL A   1      33.777  23.603  26.113  1.00  0.00     0.098 C 
ATOM     84  C   UNL A   1      32.694  24.870  25.895  1.00  0.00     0.099 C 
ATOM     85  C   UNL A   1      34.807  24.028  24.971  1.00  0.00     0.025 C 
ATOM     86  C   UNL A   1      33.362  25.751  24.803  1.00  0.00     0.025 C 
ATOM     87  C   UNL A   1      34.172  23.995  23.591  1.00  0.00    -0.027 C 
ATOM     88  C   UNL A   1      34.839  25.565  25.123  1.00  0.00     0.017 C 
ATOM     89  C   UNL A   1      33.322  25.027  23.492  1.00  0.00    -0.027 C 
BRANCH  84  90
ATOM     90  C   UNL A   1      31.135  25.090  25.703  1.00  0.00     0.229 C 
ATOM     91  O   UNL A   1      30.446  24.130  25.334  1.00  0.00    -0.274 OA
ATOM     92  N   UNL A   1      30.476  26.248  25.997  1.00  0.00    -0.323 N 
ATOM     93  H   UNL A   1      29.497  26.212  26.100  1.00  0.00     0.170 HD
BRANCH  92  94
ATOM     94  C   UNL A   1      31.100  27.466  26.159  1.00  0.00     0.084 A 
ATOM     95  C   UNL A   1      31.741  27.808  27.360  1.00  0.00     0.030 A 
ATOM     96  C   UNL A   1      31.194  28.277  25.069  1.00  0.00     0.149 A 
ATOM     97  C   UNL A   1      32.693  28.839  27.391  1.00  0.00     0.002 A 
ATOM     98  C   UNL A   1      32.208  29.274  25.112  1.00  0.00     0.049 A 
ATOM     99  C   UNL A   1      32.978  29.536  26.237  1.00  0.00     0.004 A 
BRANCH  96 100
ATOM    100  O   UNL A   1      30.394  28.192  23.968  1.00  0.00    -0.433 OA
BRANCH 100 101
ATOM    101  C   UNL A   1      30.364  28.005  22.535  1.00  0.00     0.542 C 
ATOM    102  F   UNL A   1      30.277  29.177  21.885  1.00  0.00    -0.167 F 
ATOM    103  F   UNL A   1      31.539  27.428  22.153  1.00  0.00    -0.167 F 
ENDBRANCH 100 101
ENDBRANCH  96 100
ENDBRANCH  92  94
ENDBRANCH  84  90
ENDBRANCH  80  83
ENDBRANCH  78  79
ENDBRANCH  77  78
ENDBRANCH   1  77
TORSDOF 20
ENDMDL
MODEL 3
REMARK VINA RESULT:      -8.7      5.027     11.922
REMARK SMILES O=C(NCCCCCCNC(=O)[C@@H]1[C@H](C(=O)Nc2ccccc2OC(F)F)[C@@H]2C=C[C@H]1C2)c1ccc(-c2c3nc(c(-c4c(F)cc(S(=O)(=O)[O-])cc4F)c4ccc([nH]4)c(-c4c(F)cc(S(=O)(=O)[O-])cc4F)c4nc(c(-c5c(F)cc(S(=O)(=O)[O-])cc5F)c5ccc2[nH]5)C=C4)C=C3)cc1
REMARK SMILES IDX 7 1 6 2 5 3 4 4 3 5 1 6 2 7 33 9 34 10 98 11 35 12 97 13
REMARK SMILES IDX 36 14 37 15 38 16 91 17 39 18 96 19 90 20 92 21 40 22 95 23
REMARK SMILES IDX 89 24 88 25 41 27 75 28 54 29 74 30 55 31 58 32 73 33 93 34
REMARK SMILES IDX 56 35 57 36 72 38 94 39 59 40 42 41 43 42 52 43 44 44 45 45
REMARK SMILES IDX 51 46 53 47 46 48 47 49 48 50 49 51 50 52 76 53 77 54 86 55
REMARK SMILES IDX 78 56 79 57 85 58 87 59 80 60 81 61 82 62 83 63 84 64 60 65
REMARK SMILES IDX 61 66 70 67 62 68 63 69 69 70 71 71 64 72 65 73 66 74 67 75
REMARK SMILES IDX 68 76 8 77 9 78 10 79 11 80 12 82 13 83 14 84 31 85 28 86
REMARK SMILES IDX 30 87 32 88 29 89 15 90 16 91 17 92 18 94 19 95 23 96 20 97
REMARK SMILES IDX 22 98 21 99 24 100 25 101 26 102 27 103
REMARK H PARENT 3 8 92 26 58 37 10 81 17 93
REMARK Flexibility Score: inf
ROOT
ATOM      1  C   UNL A   1      38.618  22.183  25.998  1.00  0.00     0.002 C 
ENDROOT
BRANCH   1   2
ATOM      2  C   UNL A   1      39.934  21.558  26.456  1.00  0.00     0.002 C 
BRANCH   2   3
ATOM      3  C   UNL A   1      40.217  20.103  26.048  1.00  0.00     0.021 C 
BRANCH   3   4
ATOM      4  C   UNL A   1      41.359  19.381  26.767  1.00  0.00     0.116 C 
BRANCH   4   5
ATOM      5  N   UNL A   1      42.415  18.951  25.857  1.00  0.00    -0.352 N 
ATOM      6  O   UNL A   1      44.004  19.169  24.271  1.00  0.00    -0.269 OA
ATOM      7  C   UNL A   1      43.355  19.689  25.192  1.00  0.00     0.251 C 
ATOM      8  H   UNL A   1      42.457  17.980  25.696  1.00  0.00     0.163 HD
BRANCH   7   9
ATOM      9  C   UNL A   1      43.617  21.092  25.566  1.00  0.00     0.039 A 
ATOM     10  C   UNL A   1      43.907  21.418  26.893  1.00  0.00     0.014 A 
ATOM     11  C   UNL A   1      43.638  22.083  24.579  1.00  0.00     0.014 A 
ATOM     12  C   UNL A   1      44.117  22.746  27.252  1.00  0.00     0.010 A 
ATOM     13  C   UNL A   1      43.922  23.406  24.929  1.00  0.00     0.010 A 
ATOM     14  C   UNL A   1      44.157  23.749  26.270  1.00  0.00    -0.014 A 
BRANCH  14  15
ATOM     15  C   UNL A   1      44.559  25.127  26.651  1.00  0.00     0.031 A 
ATOM     16  C   UNL A   1      43.568  26.100  27.223  1.00  0.00     0.074 A 
ATOM     17  C   UNL A   1      45.844  25.489  26.463  1.00  0.00     0.049 A 
ATOM     18  N   UNL A   1      43.752  27.347  27.573  1.00  0.00    -0.248 NA
ATOM     19  C   UNL A   1      42.193  25.617  27.422  1.00  0.00     0.031 C 
ATOM     20  C   UNL A   1      46.886  24.624  25.900  1.00  0.00     0.029 A 
ATOM     21  N   UNL A   1      46.498  26.667  26.719  1.00  0.00    -0.354 N 
ATOM     22  C   UNL A   1      42.516  27.806  28.015  1.00  0.00     0.074 A 
ATOM     23  C   UNL A   1      41.585  26.708  27.870  1.00  0.00     0.031 C 
ATOM     24  C   UNL A   1      48.050  25.288  25.880  1.00  0.00     0.029 A 
ATOM     25  C   UNL A   1      47.826  26.646  26.356  1.00  0.00     0.049 A 
ATOM     26  H   UNL A   1      46.061  27.450  27.124  1.00  0.00     0.167 HD
ATOM     27  C   UNL A   1      42.198  29.032  28.496  1.00  0.00     0.037 A 
ATOM     28  C   UNL A   1      48.752  27.622  26.370  1.00  0.00     0.037 A 
ATOM     29  C   UNL A   1      43.146  30.110  28.640  1.00  0.00     0.049 A 
ATOM     30  C   UNL A   1      48.361  28.982  26.873  1.00  0.00     0.074 A 
ATOM     31  C   UNL A   1      42.936  31.374  29.164  1.00  0.00     0.029 A 
ATOM     32  N   UNL A   1      44.476  30.059  28.245  1.00  0.00    -0.354 N 
ATOM     33  N   UNL A   1      47.201  29.383  27.336  1.00  0.00    -0.248 NA
ATOM     34  C   UNL A   1      49.396  30.023  26.850  1.00  0.00     0.031 C 
ATOM     35  C   UNL A   1      44.120  32.106  29.028  1.00  0.00     0.029 A 
ATOM     36  C   UNL A   1      45.088  31.280  28.479  1.00  0.00     0.049 A 
ATOM     37  H   UNL A   1      44.919  29.271  27.856  1.00  0.00     0.167 HD
ATOM     38  C   UNL A   1      47.371  30.718  27.679  1.00  0.00     0.074 A 
ATOM     39  C   UNL A   1      48.752  31.050  27.388  1.00  0.00     0.031 C 
ATOM     40  C   UNL A   1      46.466  31.591  28.185  1.00  0.00     0.037 A 
BRANCH  27  41
ATOM     41  C   UNL A   1      40.765  29.294  28.882  1.00  0.00     0.058 A 
ATOM     42  C   UNL A   1      40.360  29.397  30.221  1.00  0.00     0.135 A 
ATOM     43  C   UNL A   1      39.793  29.510  27.889  1.00  0.00     0.135 A 
ATOM     44  F   UNL A   1      41.241  29.189  31.212  1.00  0.00    -0.206 F 
ATOM     45  C   UNL A   1      39.041  29.683  30.564  1.00  0.00     0.059 A 
ATOM     46  C   UNL A   1      38.475  29.825  28.208  1.00  0.00     0.059 A 
ATOM     47  F   UNL A   1      40.123  29.425  26.591  1.00  0.00    -0.206 F 
ATOM     48  C   UNL A   1      38.106  29.898  29.550  1.00  0.00     0.060 A 
BRANCH  48  49
ATOM     49  S   UNL A   1      36.403  30.283  30.013  1.00  0.00     0.124 S 
ATOM     50  O   UNL A   1      35.662  29.727  28.884  1.00  0.00    -0.237 OA
ATOM     51  O   UNL A   1      36.257  29.572  31.277  1.00  0.00    -0.237 OA
ATOM     52  O   UNL A   1      36.396  31.739  30.110  1.00  0.00    -0.744 OA
ENDBRANCH  48  49
ENDBRANCH  27  41
BRANCH  28  53
ATOM     53  C   UNL A   1      50.124  27.348  25.863  1.00  0.00     0.058 A 
ATOM     54  C   UNL A   1      51.157  26.971  26.730  1.00  0.00     0.135 A 
ATOM     55  C   UNL A   1      50.422  27.441  24.492  1.00  0.00     0.135 A 
ATOM     56  F   UNL A   1      50.926  26.872  28.048  1.00  0.00    -0.206 F 
ATOM     57  C   UNL A   1      52.442  26.714  26.263  1.00  0.00     0.059 A 
ATOM     58  C   UNL A   1      51.689  27.155  23.997  1.00  0.00     0.059 A 
ATOM     59  F   UNL A   1      49.462  27.780  23.617  1.00  0.00    -0.206 F 
ATOM     60  C   UNL A   1      52.697  26.806  24.893  1.00  0.00     0.060 A 
BRANCH  60  61
ATOM     61  S   UNL A   1      54.359  26.434  24.293  1.00  0.00     0.124 S 
ATOM     62  O   UNL A   1      55.138  27.500  24.913  1.00  0.00    -0.237 OA
ATOM     63  O   UNL A   1      54.581  25.091  24.820  1.00  0.00    -0.237 OA
ATOM     64  O   UNL A   1      54.219  26.516  22.842  1.00  0.00    -0.744 OA
ENDBRANCH  60  61
ENDBRANCH  28  53
BRANCH  40  65
ATOM     65  C   UNL A   1      46.946  32.984  28.486  1.00  0.00     0.058 A 
ATOM     66  C   UNL A   1      46.847  34.019  27.543  1.00  0.00     0.135 A 
ATOM     67  C   UNL A   1      47.457  33.300  29.755  1.00  0.00     0.135 A 
ATOM     68  F   UNL A   1      46.377  33.768  26.310  1.00  0.00    -0.206 F 
ATOM     69  C   UNL A   1      47.252  35.315  27.841  1.00  0.00     0.059 A 
ATOM     70  C   UNL A   1      47.840  34.596  30.087  1.00  0.00     0.059 A 
ATOM     71  F   UNL A   1      47.569  32.349  30.695  1.00  0.00    -0.206 F 
ATOM     72  C   UNL A   1      47.740  35.595  29.120  1.00  0.00     0.060 A 
BRANCH  72  73
ATOM     73  S   UNL A   1      48.214  37.293  29.509  1.00  0.00     0.124 S 
ATOM     74  O   UNL A   1      46.946  37.996  29.350  1.00  0.00    -0.237 OA
ATOM     75  O   UNL A   1      48.705  37.172  30.878  1.00  0.00    -0.237 OA
ATOM     76  O   UNL A   1      49.232  37.600  28.509  1.00  0.00    -0.744 OA
ENDBRANCH  72  73
ENDBRANCH  40  65
ENDBRANCH  14  15
ENDBRANCH   7   9
ENDBRANCH   4   5
ENDBRANCH   3   4
ENDBRANCH   2   3
ENDBRANCH   1   2
BRANCH   1  77
ATOM     77  C   UNL A   1      37.805  21.422  24.937  1.00  0.00     0.021 C 
BRANCH  77  78
ATOM     78  C   UNL A   1      36.541  20.548  25.329  1.00  0.00     0.116 C 
BRANCH  78  79
ATOM     79  N   UNL A   1      35.162  21.110  25.993  1.00  0.00    -0.356 N 
ATOM     80  C   UNL A   1      34.067  21.973  26.058  1.00  0.00     0.224 C 
ATOM     81  H   UNL A   1      35.030  20.521  26.770  1.00  0.00     0.163 HD
ATOM     82  O   UNL A   1      33.371  21.643  27.053  1.00  0.00    -0.275 OA
BRANCH  80  83
ATOM     83  C   UNL A   1      33.366  23.315  25.203  1.00  0.00     0.098 C 
ATOM     84  C   UNL A   1      32.328  24.637  25.248  1.00  0.00     0.099 C 
ATOM     85  C   UNL A   1      33.164  22.960  23.660  1.00  0.00     0.025 C 
ATOM     86  C   UNL A   1      31.865  24.800  23.773  1.00  0.00     0.025 C 
ATOM     87  C   UNL A   1      31.731  22.562  23.350  1.00  0.00    -0.027 C 
ATOM     88  C   UNL A   1      33.109  24.362  23.013  1.00  0.00     0.017 C 
ATOM     89  C   UNL A   1      30.965  23.660  23.409  1.00  0.00    -0.027 C 
BRANCH  84  90
ATOM     90  C   UNL A   1      31.119  25.176  26.120  1.00  0.00     0.229 C 
ATOM     91  O   UNL A   1      30.257  24.371  26.495  1.00  0.00    -0.274 OA
ATOM     92  N   UNL A   1      30.999  26.461  26.564  1.00  0.00    -0.323 N 
ATOM     93  H   UNL A   1      30.374  26.641  27.304  1.00  0.00     0.170 HD
BRANCH  92  94
ATOM     94  C   UNL A   1      31.703  27.523  26.038  1.00  0.00     0.084 A 
ATOM     95  C   UNL A   1      32.918  27.947  26.597  1.00  0.00     0.030 A 
ATOM     96  C   UNL A   1      31.250  28.065  24.873  1.00  0.00     0.149 A 
ATOM     97  C   UNL A   1      33.809  28.734  25.851  1.00  0.00     0.002 A 
ATOM     98  C   UNL A   1      32.197  28.808  24.114  1.00  0.00     0.049 A 
ATOM     99  C   UNL A   1      33.473  29.113  24.569  1.00  0.00     0.004 A 
BRANCH  96 100
ATOM    100  O   UNL A   1      29.976  27.940  24.403  1.00  0.00    -0.433 OA
BRANCH 100 101
ATOM    101  C   UNL A   1      29.100  27.184  23.538  1.00  0.00     0.542 C 
ATOM    102  F   UNL A   1      28.570  26.126  24.172  1.00  0.00    -0.167 F 
ATOM    103  F   UNL A   1      28.059  27.987  23.172  1.00  0.00    -0.167 F 
ENDBRANCH 100 101
ENDBRANCH  96 100
ENDBRANCH  92  94
ENDBRANCH  84  90
ENDBRANCH  80  83
ENDBRANCH  78  79
ENDBRANCH  77  78
ENDBRANCH   1  77
TORSDOF 20
ENDMDL
