MODEL 1
REMARK VINA RESULT:     -12.0      0.000      0.000
REMARK SMILES O=C(NCCCCCCNC(=O)c1ccc(-c2ccncc2)cn1)c1ccc(-c2c3nc(c(-c4c(F)cc(S(=O)(=O)[O-])cc4F)c4ccc([nH]4)c(-c4c(F)cc(S(=O)(=O)[O-])cc4F)c4nc(c(-c5c(F)cc(S(=O)(=O)[O-])cc5F)c5ccc2[nH]5)C=C4)C=C3)cc1
REMARK SMILES IDX 5 1 4 2 3 3 1 4 2 5 25 7 26 8 90 9 27 10 89 11 28 12 29 13
REMARK SMILES IDX 30 14 83 15 31 16 88 17 82 18 84 19 32 20 87 21 81 22 80 23
REMARK SMILES IDX 33 25 67 26 46 27 66 28 47 29 50 30 65 31 85 32 48 33 49 34
REMARK SMILES IDX 64 36 86 37 51 38 34 39 35 40 44 41 36 42 37 43 43 44 45 45
REMARK SMILES IDX 38 46 39 47 40 48 41 49 42 50 68 51 69 52 78 53 70 54 71 55
REMARK SMILES IDX 77 56 79 57 72 58 73 59 74 60 75 61 76 62 52 63 53 64 62 65
REMARK SMILES IDX 54 66 55 67 61 68 63 69 56 70 57 71 58 72 59 73 60 74 6 75
REMARK SMILES IDX 7 76 8 77 9 78 10 79 11 80 12 82 13 83 14 84 24 85 15 86
REMARK SMILES IDX 23 87 16 88 17 89 18 90 22 91 19 92 21 93 20 94
REMARK H PARENT 3 6 84 24 50 35 10 81
REMARK Flexibility Score: inf
ROOT
ATOM      1  C   UNL A   1      33.966  29.073  26.472  1.00  0.00     0.021 C 
ENDROOT
BRANCH   1   2
ATOM      2  C   UNL A   1      35.157  28.985  27.422  1.00  0.00     0.116 C 
BRANCH   2   3
ATOM      3  N   UNL A   1      35.071  29.956  28.499  1.00  0.00    -0.352 N 
ATOM      4  O   UNL A   1      35.723  31.037  30.364  1.00  0.00    -0.269 OA
ATOM      5  C   UNL A   1      36.033  30.352  29.392  1.00  0.00     0.251 C 
ATOM      6  H   UNL A   1      34.195  30.393  28.604  1.00  0.00     0.163 HD
BRANCH   5   7
ATOM      7  C   UNL A   1      37.438  29.938  29.194  1.00  0.00     0.039 A 
ATOM      8  C   UNL A   1      38.230  29.538  30.276  1.00  0.00     0.014 A 
ATOM      9  C   UNL A   1      37.962  29.926  27.899  1.00  0.00     0.014 A 
ATOM     10  C   UNL A   1      39.574  29.237  30.080  1.00  0.00     0.010 A 
ATOM     11  C   UNL A   1      39.293  29.556  27.695  1.00  0.00     0.010 A 
ATOM     12  C   UNL A   1      40.116  29.230  28.786  1.00  0.00    -0.014 A 
BRANCH  12  13
ATOM     13  C   UNL A   1      41.527  28.832  28.560  1.00  0.00     0.031 A 
ATOM     14  C   UNL A   1      42.623  29.858  28.575  1.00  0.00     0.074 A 
ATOM     15  C   UNL A   1      41.809  27.543  28.290  1.00  0.00     0.049 A 
ATOM     16  N   UNL A   1      43.891  29.716  28.289  1.00  0.00    -0.248 NA
ATOM     17  C   UNL A   1      42.240  31.228  28.951  1.00  0.00     0.031 C 
ATOM     18  C   UNL A   1      40.826  26.458  28.249  1.00  0.00     0.029 A 
ATOM     19  N   UNL A   1      42.996  26.929  27.979  1.00  0.00    -0.354 N 
ATOM     20  C   UNL A   1      44.456  30.979  28.422  1.00  0.00     0.074 A 
ATOM     21  C   UNL A   1      43.385  31.879  28.793  1.00  0.00     0.031 C 
ATOM     22  C   UNL A   1      41.448  25.315  27.928  1.00  0.00     0.029 A 
ATOM     23  C   UNL A   1      42.857  25.595  27.679  1.00  0.00     0.049 A 
ATOM     24  H   UNL A   1      43.861  27.398  27.972  1.00  0.00     0.167 HD
ATOM     25  C   UNL A   1      45.749  31.349  28.250  1.00  0.00     0.037 A 
ATOM     26  C   UNL A   1      43.752  24.703  27.212  1.00  0.00     0.037 A 
ATOM     27  C   UNL A   1      46.801  30.440  27.873  1.00  0.00     0.049 A 
ATOM     28  C   UNL A   1      45.171  25.140  26.985  1.00  0.00     0.074 A 
ATOM     29  C   UNL A   1      48.149  30.705  27.706  1.00  0.00     0.029 A 
ATOM     30  N   UNL A   1      46.621  29.093  27.586  1.00  0.00    -0.354 N 
ATOM     31  N   UNL A   1      45.699  26.328  27.151  1.00  0.00    -0.248 NA
ATOM     32  C   UNL A   1      46.116  24.120  26.514  1.00  0.00     0.031 C 
ATOM     33  C   UNL A   1      48.773  29.536  27.261  1.00  0.00     0.029 A 
ATOM     34  C   UNL A   1      47.829  28.521  27.218  1.00  0.00     0.049 A 
ATOM     35  H   UNL A   1      45.763  28.614  27.637  1.00  0.00     0.167 HD
ATOM     36  C   UNL A   1      47.046  26.195  26.834  1.00  0.00     0.074 A 
ATOM     37  C   UNL A   1      47.250  24.809  26.462  1.00  0.00     0.031 C 
ATOM     38  C   UNL A   1      48.022  27.134  26.862  1.00  0.00     0.037 A 
BRANCH  25  39
ATOM     39  C   UNL A   1      46.084  32.808  28.424  1.00  0.00     0.058 A 
ATOM     40  C   UNL A   1      46.052  33.714  27.351  1.00  0.00     0.135 A 
ATOM     41  C   UNL A   1      46.445  33.307  29.686  1.00  0.00     0.135 A 
ATOM     42  F   UNL A   1      45.721  33.293  26.120  1.00  0.00    -0.206 F 
ATOM     43  C   UNL A   1      46.420  35.047  27.512  1.00  0.00     0.059 A 
ATOM     44  C   UNL A   1      46.786  34.644  29.877  1.00  0.00     0.059 A 
ATOM     45  F   UNL A   1      46.486  32.491  30.752  1.00  0.00    -0.206 F 
ATOM     46  C   UNL A   1      46.796  35.499  28.777  1.00  0.00     0.060 A 
BRANCH  46  47
ATOM     47  S   UNL A   1      47.324  37.216  28.957  1.00  0.00     0.124 S 
ATOM     48  O   UNL A   1      48.013  37.440  27.689  1.00  0.00    -0.237 OA
ATOM     49  O   UNL A   1      46.056  37.918  29.120  1.00  0.00    -0.237 OA
ATOM     50  O   UNL A   1      48.180  37.188  30.138  1.00  0.00    -0.744 OA
ENDBRANCH  46  47
ENDBRANCH  25  39
BRANCH  26  51
ATOM     51  C   UNL A   1      43.304  23.316  26.928  1.00  0.00     0.058 A 
ATOM     52  C   UNL A   1      43.167  22.854  25.612  1.00  0.00     0.135 A 
ATOM     53  C   UNL A   1      43.091  22.398  27.970  1.00  0.00     0.135 A 
ATOM     54  F   UNL A   1      43.355  23.695  24.584  1.00  0.00    -0.206 F 
ATOM     55  C   UNL A   1      42.847  21.529  25.336  1.00  0.00     0.059 A 
ATOM     56  C   UNL A   1      42.796  21.062  27.720  1.00  0.00     0.059 A 
ATOM     57  F   UNL A   1      43.229  22.788  29.247  1.00  0.00    -0.206 F 
ATOM     58  C   UNL A   1      42.676  20.637  26.397  1.00  0.00     0.060 A 
BRANCH  58  59
ATOM     59  S   UNL A   1      42.362  18.899  26.024  1.00  0.00     0.124 S 
ATOM     60  O   UNL A   1      43.273  18.669  24.908  1.00  0.00    -0.237 OA
ATOM     61  O   UNL A   1      42.717  18.249  27.282  1.00  0.00    -0.237 OA
ATOM     62  O   UNL A   1      40.940  18.876  25.694  1.00  0.00    -0.744 OA
ENDBRANCH  58  59
ENDBRANCH  26  51
BRANCH  38  63
ATOM     63  C   UNL A   1      49.425  26.700  26.537  1.00  0.00     0.058 A 
ATOM     64  C   UNL A   1      50.232  26.028  27.467  1.00  0.00     0.135 A 
ATOM     65  C   UNL A   1      49.927  26.871  25.236  1.00  0.00     0.135 A 
ATOM     66  F   UNL A   1      49.807  25.851  28.728  1.00  0.00    -0.206 F 
ATOM     67  C   UNL A   1      51.486  25.535  27.116  1.00  0.00     0.059 A 
ATOM     68  C   UNL A   1      51.164  26.363  24.856  1.00  0.00     0.059 A 
ATOM     69  F   UNL A   1      49.192  27.505  24.307  1.00  0.00    -0.206 F 
ATOM     70  C   UNL A   1      51.937  25.697  25.804  1.00  0.00     0.060 A 
BRANCH  70  71
ATOM     71  S   UNL A   1      53.526  24.975  25.340  1.00  0.00     0.124 S 
ATOM     72  O   UNL A   1      53.773  25.609  24.050  1.00  0.00    -0.237 OA
ATOM     73  O   UNL A   1      54.393  25.402  26.433  1.00  0.00    -0.237 OA
ATOM     74  O   UNL A   1      53.248  23.542  25.292  1.00  0.00    -0.744 OA
ENDBRANCH  70  71
ENDBRANCH  38  63
ENDBRANCH  12  13
ENDBRANCH   5   7
ENDBRANCH   2   3
ENDBRANCH   1   2
BRANCH   1  75
ATOM     75  C   UNL A   1      32.655  29.513  27.125  1.00  0.00     0.002 C 
BRANCH  75  76
ATOM     76  C   UNL A   1      31.648  28.390  27.393  1.00  0.00     0.002 C 
BRANCH  76  77
ATOM     77  C   UNL A   1      31.938  27.065  26.683  1.00  0.00     0.021 C 
BRANCH  77  78
ATOM     78  C   UNL A   1      30.701  26.245  26.326  1.00  0.00     0.116 C 
BRANCH  78  79
ATOM     79  N   UNL A   1      30.946  25.345  25.211  1.00  0.00    -0.351 N 
ATOM     80  C   UNL A   1      30.685  25.543  23.872  1.00  0.00     0.269 C 
ATOM     81  H   UNL A   1      31.351  24.478  25.444  1.00  0.00     0.163 HD
ATOM     82  O   UNL A   1      30.847  24.622  23.076  1.00  0.00    -0.268 OA
BRANCH  80  83
ATOM     83  C   UNL A   1      30.239  26.886  23.409  1.00  0.00     0.128 A 
ATOM     84  C   UNL A   1      31.186  27.830  23.032  1.00  0.00     0.035 A 
ATOM     85  N   UNL A   1      28.905  27.116  23.412  1.00  0.00    -0.250 NA
ATOM     86  C   UNL A   1      30.743  29.103  22.686  1.00  0.00     0.013 A 
ATOM     87  C   UNL A   1      28.511  28.358  23.047  1.00  0.00     0.120 A 
ATOM     88  C   UNL A   1      29.373  29.400  22.689  1.00  0.00     0.000 A 
BRANCH  88  89
ATOM     89  C   UNL A   1      28.877  30.737  22.343  1.00  0.00    -0.014 A 
ATOM     90  C   UNL A   1      28.337  31.001  21.079  1.00  0.00     0.029 A 
ATOM     91  C   UNL A   1      28.942  31.796  23.256  1.00  0.00     0.029 A 
ATOM     92  C   UNL A   1      27.890  32.281  20.790  1.00  0.00     0.111 A 
ATOM     93  C   UNL A   1      28.471  33.044  22.875  1.00  0.00     0.111 A 
ATOM     94  N   UNL A   1      27.941  33.306  21.663  1.00  0.00    -0.265 NA
ENDBRANCH  88  89
ENDBRANCH  80  83
ENDBRANCH  78  79
ENDBRANCH  77  78
ENDBRANCH  76  77
ENDBRANCH  75  76
ENDBRANCH   1  75
TORSDOF 17
ENDMDL
MODEL 2
REMARK VINA RESULT:     -12.0      2.387      3.154
REMARK SMILES O=C(NCCCCCCNC(=O)c1ccc(-c2ccncc2)cn1)c1ccc(-c2c3nc(c(-c4c(F)cc(S(=O)(=O)[O-])cc4F)c4ccc([nH]4)c(-c4c(F)cc(S(=O)(=O)[O-])cc4F)c4nc(c(-c5c(F)cc(S(=O)(=O)[O-])cc5F)c5ccc2[nH]5)C=C4)C=C3)cc1
REMARK SMILES IDX 5 1 4 2 3 3 1 4 2 5 25 7 26 8 90 9 27 10 89 11 28 12 29 13
REMARK SMILES IDX 30 14 83 15 31 16 88 17 82 18 84 19 32 20 87 21 81 22 80 23
REMARK SMILES IDX 33 25 67 26 46 27 66 28 47 29 50 30 65 31 85 32 48 33 49 34
REMARK SMILES IDX 64 36 86 37 51 38 34 39 35 40 44 41 36 42 37 43 43 44 45 45
REMARK SMILES IDX 38 46 39 47 40 48 41 49 42 50 68 51 69 52 78 53 70 54 71 55
REMARK SMILES IDX 77 56 79 57 72 58 73 59 74 60 75 61 76 62 52 63 53 64 62 65
REMARK SMILES IDX 54 66 55 67 61 68 63 69 56 70 57 71 58 72 59 73 60 74 6 75
REMARK SMILES IDX 7 76 8 77 9 78 10 79 11 80 12 82 13 83 14 84 24 85 15 86
REMARK SMILES IDX 23 87 16 88 17 89 18 90 22 91 19 92 21 93 20 94
REMARK H PARENT 3 6 84 24 50 35 10 81
REMARK Flexibility Score: inf
ROOT
ATOM      1  C   UNL A   1      33.996  27.889  25.485  1.00  0.00     0.021 C 
ENDROOT
BRANCH   1   2
ATOM      2  C   UNL A   1      33.879  28.118  26.989  1.00  0.00     0.116 C 
BRANCH   2   3
ATOM      3  N   UNL A   1      33.659  29.517  27.314  1.00  0.00    -0.352 N 
ATOM      4  O   UNL A   1      34.036  31.484  28.343  1.00  0.00    -0.269 OA
ATOM      5  C   UNL A   1      34.474  30.393  27.983  1.00  0.00     0.251 C 
ATOM      6  H   UNL A   1      32.799  29.889  27.011  1.00  0.00     0.163 HD
BRANCH   5   7
ATOM      7  C   UNL A   1      35.871  30.017  28.286  1.00  0.00     0.039 A 
ATOM      8  C   UNL A   1      36.234  29.567  29.560  1.00  0.00     0.014 A 
ATOM      9  C   UNL A   1      36.826  30.093  27.270  1.00  0.00     0.014 A 
ATOM     10  C   UNL A   1      37.569  29.302  29.848  1.00  0.00     0.010 A 
ATOM     11  C   UNL A   1      38.153  29.759  27.543  1.00  0.00     0.010 A 
ATOM     12  C   UNL A   1      38.540  29.383  28.839  1.00  0.00    -0.014 A 
BRANCH  12  13
ATOM     13  C   UNL A   1      39.952  29.024  29.120  1.00  0.00     0.031 A 
ATOM     14  C   UNL A   1      40.914  30.052  29.641  1.00  0.00     0.074 A 
ATOM     15  C   UNL A   1      40.376  27.774  28.853  1.00  0.00     0.049 A 
ATOM     16  N   UNL A   1      42.204  29.954  29.836  1.00  0.00    -0.248 NA
ATOM     17  C   UNL A   1      40.353  31.371  29.976  1.00  0.00     0.031 C 
ATOM     18  C   UNL A   1      39.532  26.691  28.345  1.00  0.00     0.029 A 
ATOM     19  N   UNL A   1      41.622  27.208  28.950  1.00  0.00    -0.354 N 
ATOM     20  C   UNL A   1      42.616  31.200  30.290  1.00  0.00     0.074 A 
ATOM     21  C   UNL A   1      41.442  32.046  30.319  1.00  0.00     0.031 C 
ATOM     22  C   UNL A   1      40.283  25.594  28.171  1.00  0.00     0.029 A 
ATOM     23  C   UNL A   1      41.669  25.912  28.494  1.00  0.00     0.049 A 
ATOM     24  H   UNL A   1      42.404  27.683  29.311  1.00  0.00     0.167 HD
ATOM     25  C   UNL A   1      43.862  31.599  30.649  1.00  0.00     0.037 A 
ATOM     26  C   UNL A   1      42.715  25.083  28.312  1.00  0.00     0.037 A 
ATOM     27  C   UNL A   1      45.021  30.745  30.607  1.00  0.00     0.049 A 
ATOM     28  C   UNL A   1      44.095  25.555  28.674  1.00  0.00     0.074 A 
ATOM     29  C   UNL A   1      46.321  31.039  30.982  1.00  0.00     0.029 A 
ATOM     30  N   UNL A   1      45.026  29.435  30.147  1.00  0.00    -0.354 N 
ATOM     31  N   UNL A   1      44.466  26.724  29.137  1.00  0.00    -0.248 NA
ATOM     32  C   UNL A   1      45.195  24.600  28.494  1.00  0.00     0.031 C 
ATOM     33  C   UNL A   1      47.121  29.930  30.692  1.00  0.00     0.029 A 
ATOM     34  C   UNL A   1      46.311  28.917  30.203  1.00  0.00     0.049 A 
ATOM     35  H   UNL A   1      44.234  28.945  29.828  1.00  0.00     0.167 HD
ATOM     36  C   UNL A   1      45.839  26.637  29.335  1.00  0.00     0.074 A 
ATOM     37  C   UNL A   1      46.232  25.301  28.936  1.00  0.00     0.031 C 
ATOM     38  C   UNL A   1      46.689  27.577  29.815  1.00  0.00     0.037 A 
BRANCH  25  39
ATOM     39  C   UNL A   1      44.038  33.034  31.074  1.00  0.00     0.058 A 
ATOM     40  C   UNL A   1      43.828  33.450  32.400  1.00  0.00     0.135 A 
ATOM     41  C   UNL A   1      44.420  34.010  30.139  1.00  0.00     0.135 A 
ATOM     42  F   UNL A   1      43.454  32.564  33.336  1.00  0.00    -0.206 F 
ATOM     43  C   UNL A   1      43.937  34.788  32.769  1.00  0.00     0.059 A 
ATOM     44  C   UNL A   1      44.566  35.349  30.493  1.00  0.00     0.059 A 
ATOM     45  F   UNL A   1      44.642  33.671  28.859  1.00  0.00    -0.206 F 
ATOM     46  C   UNL A   1      44.295  35.731  31.805  1.00  0.00     0.060 A 
BRANCH  46  47
ATOM     47  S   UNL A   1      44.376  37.469  32.287  1.00  0.00     0.124 S 
ATOM     48  O   UNL A   1      45.800  37.624  32.568  1.00  0.00    -0.237 OA
ATOM     49  O   UNL A   1      43.890  38.149  31.092  1.00  0.00    -0.237 OA
ATOM     50  O   UNL A   1      43.497  37.542  33.450  1.00  0.00    -0.744 OA
ENDBRANCH  46  47
ENDBRANCH  25  39
BRANCH  26  51
ATOM     51  C   UNL A   1      42.471  23.730  27.750  1.00  0.00     0.058 A 
ATOM     52  C   UNL A   1      42.447  23.515  26.366  1.00  0.00     0.135 A 
ATOM     53  C   UNL A   1      42.349  22.611  28.590  1.00  0.00     0.135 A 
ATOM     54  F   UNL A   1      42.555  24.554  25.524  1.00  0.00    -0.206 F 
ATOM     55  C   UNL A   1      42.321  22.237  25.831  1.00  0.00     0.059 A 
ATOM     56  C   UNL A   1      42.249  21.321  28.080  1.00  0.00     0.059 A 
ATOM     57  F   UNL A   1      42.386  22.764  29.923  1.00  0.00    -0.206 F 
ATOM     58  C   UNL A   1      42.236  21.145  26.697  1.00  0.00     0.060 A 
BRANCH  58  59
ATOM     59  S   UNL A   1      42.176  19.484  25.990  1.00  0.00     0.124 S 
ATOM     60  O   UNL A   1      43.063  19.622  24.841  1.00  0.00    -0.237 OA
ATOM     61  O   UNL A   1      42.680  18.668  27.091  1.00  0.00    -0.237 OA
ATOM     62  O   UNL A   1      40.762  19.300  25.679  1.00  0.00    -0.744 OA
ENDBRANCH  58  59
ENDBRANCH  26  51
BRANCH  38  63
ATOM     63  C   UNL A   1      48.132  27.194  29.997  1.00  0.00     0.058 A 
ATOM     64  C   UNL A   1      49.088  27.391  28.990  1.00  0.00     0.135 A 
ATOM     65  C   UNL A   1      48.578  26.718  31.241  1.00  0.00     0.135 A 
ATOM     66  F   UNL A   1      48.713  27.831  27.778  1.00  0.00    -0.206 F 
ATOM     67  C   UNL A   1      50.438  27.136  29.213  1.00  0.00     0.059 A 
ATOM     68  C   UNL A   1      49.925  26.481  31.494  1.00  0.00     0.059 A 
ATOM     69  F   UNL A   1      47.703  26.514  32.240  1.00  0.00    -0.206 F 
ATOM     70  C   UNL A   1      50.848  26.693  30.472  1.00  0.00     0.060 A 
BRANCH  70  71
ATOM     71  S   UNL A   1      52.612  26.450  30.774  1.00  0.00     0.124 S 
ATOM     72  O   UNL A   1      53.125  26.302  29.417  1.00  0.00    -0.237 OA
ATOM     73  O   UNL A   1      52.982  27.683  31.461  1.00  0.00    -0.237 OA
ATOM     74  O   UNL A   1      52.654  25.244  31.596  1.00  0.00    -0.744 OA
ENDBRANCH  70  71
ENDBRANCH  38  63
ENDBRANCH  12  13
ENDBRANCH   5   7
ENDBRANCH   2   3
ENDBRANCH   1   2
BRANCH   1  75
ATOM     75  C   UNL A   1      33.837  26.434  25.043  1.00  0.00     0.002 C 
BRANCH  75  76
ATOM     76  C   UNL A   1      33.609  26.226  23.542  1.00  0.00     0.002 C 
BRANCH  76  77
ATOM     77  C   UNL A   1      33.020  24.868  23.150  1.00  0.00     0.021 C 
BRANCH  77  78
ATOM     78  C   UNL A   1      31.500  24.842  23.019  1.00  0.00     0.116 C 
BRANCH  78  79
ATOM     79  N   UNL A   1      30.841  24.753  24.311  1.00  0.00    -0.351 N 
ATOM     80  C   UNL A   1      30.126  25.723  24.981  1.00  0.00     0.269 C 
ATOM     81  H   UNL A   1      30.915  23.884  24.769  1.00  0.00     0.163 HD
ATOM     82  O   UNL A   1      29.736  25.511  26.126  1.00  0.00    -0.268 OA
BRANCH  80  83
ATOM     83  C   UNL A   1      29.812  27.003  24.290  1.00  0.00     0.128 A 
ATOM     84  C   UNL A   1      30.707  28.063  24.369  1.00  0.00     0.035 A 
ATOM     85  N   UNL A   1      28.629  27.064  23.634  1.00  0.00    -0.250 NA
ATOM     86  C   UNL A   1      30.347  29.273  23.785  1.00  0.00     0.013 A 
ATOM     87  C   UNL A   1      28.324  28.250  23.058  1.00  0.00     0.120 A 
ATOM     88  C   UNL A   1      29.125  29.395  23.108  1.00  0.00     0.000 A 
BRANCH  88  89
ATOM     89  C   UNL A   1      28.711  30.663  22.494  1.00  0.00    -0.014 A 
ATOM     90  C   UNL A   1      28.264  30.710  21.169  1.00  0.00     0.029 A 
ATOM     91  C   UNL A   1      28.764  31.867  23.207  1.00  0.00     0.029 A 
ATOM     92  C   UNL A   1      27.893  31.930  20.626  1.00  0.00     0.111 A 
ATOM     93  C   UNL A   1      28.374  33.039  22.576  1.00  0.00     0.111 A 
ATOM     94  N   UNL A   1      27.934  33.095  21.303  1.00  0.00    -0.265 NA
ENDBRANCH  88  89
ENDBRANCH  80  83
ENDBRANCH  78  79
ENDBRANCH  77  78
ENDBRANCH  76  77
ENDBRANCH  75  76
ENDBRANCH   1  75
TORSDOF 17
ENDMDL
MODEL 3
REMARK VINA RESULT:     -11.7      1.479      3.455
REMARK SMILES O=C(NCCCCCCNC(=O)c1ccc(-c2ccncc2)cn1)c1ccc(-c2c3nc(c(-c4c(F)cc(S(=O)(=O)[O-])cc4F)c4ccc([nH]4)c(-c4c(F)cc(S(=O)(=O)[O-])cc4F)c4nc(c(-c5c(F)cc(S(=O)(=O)[O-])cc5F)c5ccc2[nH]5)C=C4)C=C3)cc1
REMARK SMILES IDX 5 1 4 2 3 3 1 4 2 5 25 7 26 8 90 9 27 10 89 11 28 12 29 13
REMARK SMILES IDX 30 14 83 15 31 16 88 17 82 18 84 19 32 20 87 21 81 22 80 23
REMARK SMILES IDX 33 25 67 26 46 27 66 28 47 29 50 30 65 31 85 32 48 33 49 34
REMARK SMILES IDX 64 36 86 37 51 38 34 39 35 40 44 41 36 42 37 43 43 44 45 45
REMARK SMILES IDX 38 46 39 47 40 48 41 49 42 50 68 51 69 52 78 53 70 54 71 55
REMARK SMILES IDX 77 56 79 57 72 58 73 59 74 60 75 61 76 62 52 63 53 64 62 65
REMARK SMILES IDX 54 66 55 67 61 68 63 69 56 70 57 71 58 72 59 73 60 74 6 75
REMARK SMILES IDX 7 76 8 77 9 78 10 79 11 80 12 82 13 83 14 84 24 85 15 86
REMARK SMILES IDX 23 87 16 88 17 89 18 90 22 91 19 92 21 93 20 94
REMARK H PARENT 3 6 84 24 50 35 10 81
REMARK Flexibility Score: inf
ROOT
ATOM      1  C   UNL A   1      33.800  28.798  27.232  1.00  0.00     0.021 C 
ENDROOT
BRANCH   1   2
ATOM      2  C   UNL A   1      35.177  29.330  27.621  1.00  0.00     0.116 C 
BRANCH   2   3
ATOM      3  N   UNL A   1      35.111  30.242  28.749  1.00  0.00    -0.352 N 
ATOM      4  O   UNL A   1      35.790  31.212  30.665  1.00  0.00    -0.269 OA
ATOM      5  C   UNL A   1      36.085  30.575  29.656  1.00  0.00     0.251 C 
ATOM      6  H   UNL A   1      34.243  30.686  28.883  1.00  0.00     0.163 HD
BRANCH   5   7
ATOM      7  C   UNL A   1      37.482  30.152  29.427  1.00  0.00     0.039 A 
ATOM      8  C   UNL A   1      38.307  29.786  30.496  1.00  0.00     0.014 A 
ATOM      9  C   UNL A   1      37.965  30.096  28.117  1.00  0.00     0.014 A 
ATOM     10  C   UNL A   1      39.644  29.475  30.267  1.00  0.00     0.010 A 
ATOM     11  C   UNL A   1      39.288  29.716  27.884  1.00  0.00     0.010 A 
ATOM     12  C   UNL A   1      40.144  29.424  28.958  1.00  0.00    -0.014 A 
BRANCH  12  13
ATOM     13  C   UNL A   1      41.547  29.015  28.701  1.00  0.00     0.031 A 
ATOM     14  C   UNL A   1      42.653  30.031  28.706  1.00  0.00     0.074 A 
ATOM     15  C   UNL A   1      41.812  27.727  28.412  1.00  0.00     0.049 A 
ATOM     16  N   UNL A   1      43.914  29.880  28.393  1.00  0.00    -0.248 NA
ATOM     17  C   UNL A   1      42.291  31.400  29.103  1.00  0.00     0.031 C 
ATOM     18  C   UNL A   1      40.817  26.652  28.378  1.00  0.00     0.029 A 
ATOM     19  N   UNL A   1      42.986  27.105  28.071  1.00  0.00    -0.354 N 
ATOM     20  C   UNL A   1      44.493  31.136  28.528  1.00  0.00     0.074 A 
ATOM     21  C   UNL A   1      43.438  32.043  28.930  1.00  0.00     0.031 C 
ATOM     22  C   UNL A   1      41.422  25.506  28.033  1.00  0.00     0.029 A 
ATOM     23  C   UNL A   1      42.829  25.776  27.759  1.00  0.00     0.049 A 
ATOM     24  H   UNL A   1      43.855  27.566  28.052  1.00  0.00     0.167 HD
ATOM     25  C   UNL A   1      45.786  31.496  28.335  1.00  0.00     0.037 A 
ATOM     26  C   UNL A   1      43.706  24.881  27.266  1.00  0.00     0.037 A 
ATOM     27  C   UNL A   1      46.822  30.581  27.929  1.00  0.00     0.049 A 
ATOM     28  C   UNL A   1      45.125  25.306  27.016  1.00  0.00     0.074 A 
ATOM     29  C   UNL A   1      48.169  30.836  27.739  1.00  0.00     0.029 A 
ATOM     30  N   UNL A   1      46.624  29.239  27.631  1.00  0.00    -0.354 N 
ATOM     31  N   UNL A   1      45.667  26.488  27.184  1.00  0.00    -0.248 NA
ATOM     32  C   UNL A   1      46.051  24.283  26.516  1.00  0.00     0.031 C 
ATOM     33  C   UNL A   1      48.773  29.666  27.269  1.00  0.00     0.029 A 
ATOM     34  C   UNL A   1      47.819  28.660  27.233  1.00  0.00     0.049 A 
ATOM     35  H   UNL A   1      45.762  28.768  27.693  1.00  0.00     0.167 HD
ATOM     36  C   UNL A   1      47.006  26.345  26.840  1.00  0.00     0.074 A 
ATOM     37  C   UNL A   1      47.190  24.962  26.450  1.00  0.00     0.031 C 
ATOM     38  C   UNL A   1      47.992  27.275  26.860  1.00  0.00     0.037 A 
BRANCH  25  39
ATOM     39  C   UNL A   1      46.138  32.950  28.518  1.00  0.00     0.058 A 
ATOM     40  C   UNL A   1      46.626  33.451  29.737  1.00  0.00     0.135 A 
ATOM     41  C   UNL A   1      45.982  33.857  27.457  1.00  0.00     0.135 A 
ATOM     42  F   UNL A   1      46.788  32.633  30.789  1.00  0.00    -0.206 F 
ATOM     43  C   UNL A   1      46.893  34.806  29.912  1.00  0.00     0.059 A 
ATOM     44  C   UNL A   1      46.274  35.211  27.600  1.00  0.00     0.059 A 
ATOM     45  F   UNL A   1      45.528  33.435  26.267  1.00  0.00    -0.206 F 
ATOM     46  C   UNL A   1      46.702  35.680  28.841  1.00  0.00     0.060 A 
BRANCH  46  47
ATOM     47  S   UNL A   1      46.999  37.441  29.102  1.00  0.00     0.124 S 
ATOM     48  O   UNL A   1      45.813  38.028  28.483  1.00  0.00    -0.237 OA
ATOM     49  O   UNL A   1      47.064  37.536  30.556  1.00  0.00    -0.237 OA
ATOM     50  O   UNL A   1      48.256  37.684  28.402  1.00  0.00    -0.744 OA
ENDBRANCH  46  47
ENDBRANCH  25  39
BRANCH  26  51
ATOM     51  C   UNL A   1      43.239  23.501  26.976  1.00  0.00     0.058 A 
ATOM     52  C   UNL A   1      43.039  23.066  25.659  1.00  0.00     0.135 A 
ATOM     53  C   UNL A   1      43.073  22.563  28.009  1.00  0.00     0.135 A 
ATOM     54  F   UNL A   1      43.180  23.927  24.640  1.00  0.00    -0.206 F 
ATOM     55  C   UNL A   1      42.700  21.748  25.372  1.00  0.00     0.059 A 
ATOM     56  C   UNL A   1      42.761  21.233  27.746  1.00  0.00     0.059 A 
ATOM     57  F   UNL A   1      43.273  22.926  29.285  1.00  0.00    -0.206 F 
ATOM     58  C   UNL A   1      42.577  20.835  26.423  1.00  0.00     0.060 A 
BRANCH  58  59
ATOM     59  S   UNL A   1      42.238  19.106  26.030  1.00  0.00     0.124 S 
ATOM     60  O   UNL A   1      42.617  18.443  27.272  1.00  0.00    -0.237 OA
ATOM     61  O   UNL A   1      40.809  19.137  25.733  1.00  0.00    -0.237 OA
ATOM     62  O   UNL A   1      43.103  18.844  24.884  1.00  0.00    -0.744 OA
ENDBRANCH  58  59
ENDBRANCH  26  51
BRANCH  38  63
ATOM     63  C   UNL A   1      49.384  26.832  26.503  1.00  0.00     0.058 A 
ATOM     64  C   UNL A   1      50.234  26.220  27.436  1.00  0.00     0.135 A 
ATOM     65  C   UNL A   1      49.831  26.930  25.174  1.00  0.00     0.135 A 
ATOM     66  F   UNL A   1      49.862  26.113  28.721  1.00  0.00    -0.206 F 
ATOM     67  C   UNL A   1      51.477  25.715  27.063  1.00  0.00     0.059 A 
ATOM     68  C   UNL A   1      51.057  26.409  24.774  1.00  0.00     0.059 A 
ATOM     69  F   UNL A   1      49.054  27.505  24.241  1.00  0.00    -0.206 F 
ATOM     70  C   UNL A   1      51.873  25.803  25.726  1.00  0.00     0.060 A 
BRANCH  70  71
ATOM     71  S   UNL A   1      53.448  25.065  25.240  1.00  0.00     0.124 S 
ATOM     72  O   UNL A   1      53.615  25.590  23.889  1.00  0.00    -0.237 OA
ATOM     73  O   UNL A   1      54.364  25.596  26.245  1.00  0.00    -0.237 OA
ATOM     74  O   UNL A   1      53.193  23.630  25.328  1.00  0.00    -0.744 OA
ENDBRANCH  70  71
ENDBRANCH  38  63
ENDBRANCH  12  13
ENDBRANCH   5   7
ENDBRANCH   2   3
ENDBRANCH   1   2
BRANCH   1  75
ATOM     75  C   UNL A   1      33.817  27.480  26.456  1.00  0.00     0.002 C 
BRANCH  75  76
ATOM     76  C   UNL A   1      33.703  27.613  24.935  1.00  0.00     0.002 C 
BRANCH  76  77
ATOM     77  C   UNL A   1      33.221  28.976  24.430  1.00  0.00     0.021 C 
BRANCH  77  78
ATOM     78  C   UNL A   1      33.145  29.108  22.912  1.00  0.00     0.116 C 
BRANCH  78  79
ATOM     79  N   UNL A   1      31.796  29.394  22.455  1.00  0.00    -0.351 N 
ATOM     80  C   UNL A   1      30.757  28.516  22.235  1.00  0.00     0.269 C 
ATOM     81  H   UNL A   1      31.598  30.343  22.279  1.00  0.00     0.163 HD
ATOM     82  O   UNL A   1      29.712  28.919  21.731  1.00  0.00    -0.268 OA
BRANCH  80  83
ATOM     83  C   UNL A   1      30.910  27.092  22.642  1.00  0.00     0.128 A 
ATOM     84  C   UNL A   1      30.199  26.611  23.735  1.00  0.00     0.035 A 
ATOM     85  N   UNL A   1      31.778  26.344  21.920  1.00  0.00    -0.250 NA
ATOM     86  C   UNL A   1      30.427  25.301  24.143  1.00  0.00     0.013 A 
ATOM     87  C   UNL A   1      31.956  25.068  22.333  1.00  0.00     0.120 A 
ATOM     88  C   UNL A   1      31.328  24.489  23.441  1.00  0.00     0.000 A 
BRANCH  88  89
ATOM     89  C   UNL A   1      31.601  23.107  23.856  1.00  0.00    -0.014 A 
ATOM     90  C   UNL A   1      31.482  22.721  25.196  1.00  0.00     0.029 A 
ATOM     91  C   UNL A   1      32.004  22.137  22.931  1.00  0.00     0.029 A 
ATOM     92  C   UNL A   1      31.760  21.408  25.546  1.00  0.00     0.111 A 
ATOM     93  C   UNL A   1      32.263  20.849  23.378  1.00  0.00     0.111 A 
ATOM     94  N   UNL A   1      32.143  20.463  24.664  1.00  0.00    -0.265 NA
ENDBRANCH  88  89
ENDBRANCH  80  83
ENDBRANCH  78  79
ENDBRANCH  77  78
ENDBRANCH  76  77
ENDBRANCH  75  76
ENDBRANCH   1  75
TORSDOF 17
ENDMDL
