MODEL 1
REMARK VINA RESULT:     -12.2      0.000      0.000
REMARK SMILES NS(=O)(=O)c1ccc(-c2coc(=O)n2-c2ccc(C(=O)NCCCCCCNC(=O)c3ccc(-c4c5nc(c(-c6c(F)cc(S(=O)(=O)[O-])cc6F)c6ccc([nH]6)c(-c6c(F)cc(S(=O)(=O)[O-])cc6F)c6nc(c(-c7c(F)cc(S(=O)(=O)[O-])cc7F)c7ccc4[nH]7)C=C6)C=C5)cc3)cc2)cc1
REMARK SMILES IDX 24 1 23 2 22 3 21 4 19 5 20 6 18 8 15 9 16 10 98 11 17 12
REMARK SMILES IDX 97 13 14 14 9 15 10 16 11 17 12 18 13 19 8 20 5 21 6 22
REMARK SMILES IDX 100 23 7 24 99 25 2 26 3 27 4 28 1 29 25 32 26 33 27 34
REMARK SMILES IDX 28 35 29 36 30 38 31 39 32 40 96 41 33 42 95 43 34 44 35 45
REMARK SMILES IDX 36 46 89 47 37 48 94 49 88 50 90 51 38 52 93 53 87 54 86 55
REMARK SMILES IDX 39 57 73 58 52 59 72 60 53 61 56 62 71 63 91 64 54 65 55 66
REMARK SMILES IDX 70 68 92 69 57 70 40 71 41 72 50 73 42 74 43 75 49 76 51 77
REMARK SMILES IDX 44 78 45 79 46 80 47 81 48 82 74 83 75 84 84 85 76 86 77 87
REMARK SMILES IDX 83 88 85 89 78 90 79 91 80 92 81 93 82 94 58 95 59 96 68 97
REMARK SMILES IDX 60 98 61 99 67 100 69 101 62 102 63 103 64 104 65 105 66 106
REMARK H PARENT 21 7 1 30 1 31 28 37 90 56 56 67
REMARK Flexibility Score: inf
ROOT
ATOM      1  C   UNL A   1      41.321  20.834  27.161  1.00  0.00     0.002 C 
ENDROOT
BRANCH   1   2
ATOM      2  C   UNL A   1      40.594  20.819  25.810  1.00  0.00     0.021 C 
BRANCH   2   3
ATOM      3  C   UNL A   1      39.161  21.346  25.900  1.00  0.00     0.116 C 
BRANCH   3   4
ATOM      4  N   UNL A   1      39.169  22.761  26.222  1.00  0.00    -0.352 N 
ATOM      5  C   UNL A   1      38.226  23.752  26.128  1.00  0.00     0.251 C 
ATOM      6  O   UNL A   1      38.561  24.880  26.495  1.00  0.00    -0.269 OA
ATOM      7  H   UNL A   1      40.030  23.074  26.582  1.00  0.00     0.163 HD
BRANCH   5   8
ATOM      8  C   UNL A   1      36.815  23.512  25.706  1.00  0.00     0.039 A 
ATOM      9  C   UNL A   1      34.182  23.393  24.738  1.00  0.00     0.053 A 
ATOM     10  C   UNL A   1      35.247  23.393  23.838  1.00  0.00     0.028 A 
ATOM     11  C   UNL A   1      34.435  23.343  26.110  1.00  0.00     0.028 A 
ATOM     12  C   UNL A   1      36.555  23.490  24.324  1.00  0.00     0.016 A 
ATOM     13  C   UNL A   1      35.747  23.328  26.582  1.00  0.00     0.016 A 
BRANCH   9  14
ATOM     14  N   UNL A   1      32.854  23.455  24.292  1.00  0.00    -0.242 N 
ATOM     15  C   UNL A   1      32.077  22.436  23.822  1.00  0.00     0.095 A 
ATOM     16  C   UNL A   1      30.994  23.013  23.313  1.00  0.00     0.228 A 
ATOM     17  O   UNL A   1      30.976  24.404  23.423  1.00  0.00    -0.415 OA
ATOM     18  C   UNL A   1      32.180  24.654  24.081  1.00  0.00     0.424 A 
ATOM     19  O   UNL A   1      32.542  25.782  24.390  1.00  0.00    -0.223 OA
BRANCH  15  20
ATOM     20  C   UNL A   1      32.317  21.006  24.031  1.00  0.00     0.002 A 
ATOM     21  C   UNL A   1      32.880  18.274  24.359  1.00  0.00     0.082 A 
ATOM     22  C   UNL A   1      32.573  18.765  23.091  1.00  0.00     0.022 A 
ATOM     23  C   UNL A   1      32.901  19.129  25.465  1.00  0.00     0.022 A 
ATOM     24  C   UNL A   1      32.295  20.125  22.933  1.00  0.00     0.012 A 
ATOM     25  C   UNL A   1      32.625  20.493  25.297  1.00  0.00     0.012 A 
BRANCH  21  26
ATOM     26  S   UNL A   1      33.244  16.557  24.574  1.00  0.00     0.238 S 
ATOM     27  O   UNL A   1      33.722  16.008  23.335  1.00  0.00    -0.207 OA
ATOM     28  O   UNL A   1      32.166  15.953  25.334  1.00  0.00    -0.207 OA
BRANCH  26  29
ATOM     29  N   UNL A   1      34.580  16.565  25.596  1.00  0.00    -0.225 NA
ATOM     30  H   UNL A   1      34.311  16.202  26.510  1.00  0.00     0.137 HD
ATOM     31  H   UNL A   1      34.923  17.521  25.698  1.00  0.00     0.137 HD
ENDBRANCH  26  29
ENDBRANCH  21  26
ENDBRANCH  15  20
ENDBRANCH   9  14
ENDBRANCH   5   8
ENDBRANCH   3   4
ENDBRANCH   2   3
ENDBRANCH   1   2
BRANCH   1  32
ATOM     32  C   UNL A   1      42.077  19.541  27.513  1.00  0.00     0.002 C 
BRANCH  32  33
ATOM     33  C   UNL A   1      42.624  18.740  26.321  1.00  0.00     0.021 C 
BRANCH  33  34
ATOM     34  C   UNL A   1      44.142  18.714  26.271  1.00  0.00     0.116 C 
BRANCH  34  35
ATOM     35  N   UNL A   1      44.640  18.815  24.897  1.00  0.00    -0.352 N 
ATOM     36  C   UNL A   1      44.659  19.918  24.067  1.00  0.00     0.251 C 
ATOM     37  H   UNL A   1      45.012  17.986  24.516  1.00  0.00     0.163 HD
ATOM     38  O   UNL A   1      44.740  19.786  22.851  1.00  0.00    -0.269 OA
BRANCH  36  39
ATOM     39  C   UNL A   1      44.602  21.254  24.679  1.00  0.00     0.039 A 
ATOM     40  C   UNL A   1      43.620  22.190  24.342  1.00  0.00     0.014 A 
ATOM     41  C   UNL A   1      45.567  21.547  25.637  1.00  0.00     0.014 A 
ATOM     42  C   UNL A   1      43.588  23.401  25.031  1.00  0.00     0.010 A 
ATOM     43  C   UNL A   1      45.410  22.636  26.444  1.00  0.00     0.010 A 
ATOM     44  C   UNL A   1      44.487  23.609  26.087  1.00  0.00    -0.014 A 
BRANCH  44  45
ATOM     45  C   UNL A   1      44.428  24.785  26.943  1.00  0.00     0.031 A 
ATOM     46  C   UNL A   1      45.509  25.768  26.668  1.00  0.00     0.074 A 
ATOM     47  C   UNL A   1      43.329  25.060  27.686  1.00  0.00     0.049 A 
ATOM     48  N   UNL A   1      46.513  26.069  27.421  1.00  0.00    -0.248 NA
ATOM     49  C   UNL A   1      45.601  26.338  25.310  1.00  0.00     0.031 C 
ATOM     50  C   UNL A   1      42.074  24.298  27.763  1.00  0.00     0.029 A 
ATOM     51  N   UNL A   1      43.048  26.151  28.447  1.00  0.00    -0.354 N 
ATOM     52  C   UNL A   1      47.194  27.079  26.746  1.00  0.00     0.074 A 
ATOM     53  C   UNL A   1      46.753  27.008  25.381  1.00  0.00     0.031 C 
ATOM     54  C   UNL A   1      41.106  25.059  28.321  1.00  0.00     0.029 A 
ATOM     55  C   UNL A   1      41.703  26.291  28.797  1.00  0.00     0.049 A 
ATOM     56  H   UNL A   1      43.739  26.792  28.730  1.00  0.00     0.167 HD
ATOM     57  C   UNL A   1      47.822  28.076  27.432  1.00  0.00     0.037 A 
ATOM     58  C   UNL A   1      41.130  27.359  29.414  1.00  0.00     0.037 A 
ATOM     59  C   UNL A   1      47.964  27.721  28.825  1.00  0.00     0.049 A 
ATOM     60  C   UNL A   1      42.234  28.115  30.060  1.00  0.00     0.074 A 
ATOM     61  C   UNL A   1      48.575  26.689  29.509  1.00  0.00     0.029 A 
ATOM     62  N   UNL A   1      47.064  28.276  29.703  1.00  0.00    -0.354 N 
ATOM     63  N   UNL A   1      42.953  27.642  31.042  1.00  0.00    -0.248 NA
ATOM     64  C   UNL A   1      42.856  29.180  29.290  1.00  0.00     0.031 C 
ATOM     65  C   UNL A   1      47.687  26.379  30.581  1.00  0.00     0.029 A 
ATOM     66  C   UNL A   1      46.631  27.292  30.552  1.00  0.00     0.049 A 
ATOM     67  H   UNL A   1      46.780  29.219  29.719  1.00  0.00     0.167 HD
ATOM     68  C   UNL A   1      44.254  28.024  30.746  1.00  0.00     0.074 A 
ATOM     69  C   UNL A   1      44.120  29.036  29.697  1.00  0.00     0.031 C 
ATOM     70  C   UNL A   1      45.317  27.272  31.160  1.00  0.00     0.037 A 
BRANCH  57  71
ATOM     71  C   UNL A   1      47.924  29.513  26.962  1.00  0.00     0.058 A 
ATOM     72  C   UNL A   1      49.168  30.174  27.060  1.00  0.00     0.135 A 
ATOM     73  C   UNL A   1      46.817  30.350  26.691  1.00  0.00     0.135 A 
ATOM     74  F   UNL A   1      50.290  29.482  27.315  1.00  0.00    -0.206 F 
ATOM     75  C   UNL A   1      49.288  31.562  26.982  1.00  0.00     0.059 A 
ATOM     76  C   UNL A   1      46.923  31.729  26.555  1.00  0.00     0.059 A 
ATOM     77  F   UNL A   1      45.561  29.895  26.638  1.00  0.00    -0.206 F 
ATOM     78  C   UNL A   1      48.155  32.332  26.743  1.00  0.00     0.060 A 
BRANCH  78  79
ATOM     79  S   UNL A   1      48.288  34.127  26.730  1.00  0.00     0.124 S 
ATOM     80  O   UNL A   1      47.326  34.497  27.761  1.00  0.00    -0.237 OA
ATOM     81  O   UNL A   1      49.694  34.324  27.062  1.00  0.00    -0.237 OA
ATOM     82  O   UNL A   1      47.917  34.478  25.362  1.00  0.00    -0.744 OA
ENDBRANCH  78  79
ENDBRANCH  57  71
BRANCH  58  83
ATOM     83  C   UNL A   1      39.779  27.950  29.194  1.00  0.00     0.058 A 
ATOM     84  C   UNL A   1      38.862  28.101  30.253  1.00  0.00     0.135 A 
ATOM     85  C   UNL A   1      39.471  28.651  28.012  1.00  0.00     0.135 A 
ATOM     86  F   UNL A   1      39.081  27.486  31.426  1.00  0.00    -0.206 F 
ATOM     87  C   UNL A   1      37.739  28.936  30.163  1.00  0.00     0.059 A 
ATOM     88  C   UNL A   1      38.356  29.484  27.896  1.00  0.00     0.059 A 
ATOM     89  F   UNL A   1      40.301  28.622  26.958  1.00  0.00    -0.206 F 
ATOM     90  C   UNL A   1      37.508  29.643  28.985  1.00  0.00     0.060 A 
BRANCH  90  91
ATOM     91  S   UNL A   1      36.170  30.864  28.921  1.00  0.00     0.124 S 
ATOM     92  O   UNL A   1      36.841  32.017  28.332  1.00  0.00    -0.237 OA
ATOM     93  O   UNL A   1      35.185  30.198  28.075  1.00  0.00    -0.237 OA
ATOM     94  O   UNL A   1      35.785  31.014  30.321  1.00  0.00    -0.744 OA
ENDBRANCH  90  91
ENDBRANCH  58  83
BRANCH  70  95
ATOM     95  C   UNL A   1      45.070  26.202  32.197  1.00  0.00     0.058 A 
ATOM     96  C   UNL A   1      44.687  24.876  31.917  1.00  0.00     0.135 A 
ATOM     97  C   UNL A   1      45.385  26.505  33.529  1.00  0.00     0.135 A 
ATOM     98  F   UNL A   1      44.464  24.474  30.659  1.00  0.00    -0.206 F 
ATOM     99  C   UNL A   1      44.583  23.910  32.921  1.00  0.00     0.059 A 
ATOM    100  C   UNL A   1      45.319  25.552  34.541  1.00  0.00     0.059 A 
ATOM    101  F   UNL A   1      45.816  27.734  33.854  1.00  0.00    -0.206 F 
ATOM    102  C   UNL A   1      44.904  24.259  34.233  1.00  0.00     0.060 A 
BRANCH 102 103
ATOM    103  S   UNL A   1      44.829  23.001  35.527  1.00  0.00     0.124 S 
ATOM    104  O   UNL A   1      43.556  23.299  36.173  1.00  0.00    -0.237 OA
ATOM    105  O   UNL A   1      44.879  21.757  34.764  1.00  0.00    -0.237 OA
ATOM    106  O   UNL A   1      46.016  23.273  36.335  1.00  0.00    -0.744 OA
ENDBRANCH 102 103
ENDBRANCH  70  95
ENDBRANCH  44  45
ENDBRANCH  36  39
ENDBRANCH  34  35
ENDBRANCH  33  34
ENDBRANCH  32  33
ENDBRANCH   1  32
TORSDOF 20
ENDMDL
MODEL 2
REMARK VINA RESULT:     -11.4      3.895     10.050
REMARK SMILES NS(=O)(=O)c1ccc(-c2coc(=O)n2-c2ccc(C(=O)NCCCCCCNC(=O)c3ccc(-c4c5nc(c(-c6c(F)cc(S(=O)(=O)[O-])cc6F)c6ccc([nH]6)c(-c6c(F)cc(S(=O)(=O)[O-])cc6F)c6nc(c(-c7c(F)cc(S(=O)(=O)[O-])cc7F)c7ccc4[nH]7)C=C6)C=C5)cc3)cc2)cc1
REMARK SMILES IDX 24 1 23 2 22 3 21 4 19 5 20 6 18 8 15 9 16 10 98 11 17 12
REMARK SMILES IDX 97 13 14 14 9 15 10 16 11 17 12 18 13 19 8 20 5 21 6 22
REMARK SMILES IDX 100 23 7 24 99 25 2 26 3 27 4 28 1 29 25 32 26 33 27 34
REMARK SMILES IDX 28 35 29 36 30 38 31 39 32 40 96 41 33 42 95 43 34 44 35 45
REMARK SMILES IDX 36 46 89 47 37 48 94 49 88 50 90 51 38 52 93 53 87 54 86 55
REMARK SMILES IDX 39 57 73 58 52 59 72 60 53 61 56 62 71 63 91 64 54 65 55 66
REMARK SMILES IDX 70 68 92 69 57 70 40 71 41 72 50 73 42 74 43 75 49 76 51 77
REMARK SMILES IDX 44 78 45 79 46 80 47 81 48 82 74 83 75 84 84 85 76 86 77 87
REMARK SMILES IDX 83 88 85 89 78 90 79 91 80 92 81 93 82 94 58 95 59 96 68 97
REMARK SMILES IDX 60 98 61 99 67 100 69 101 62 102 63 103 64 104 65 105 66 106
REMARK H PARENT 21 7 1 30 1 31 28 37 90 56 56 67
REMARK Flexibility Score: inf
ROOT
ATOM      1  C   UNL A   1      37.046  31.824  28.082  1.00  0.00     0.002 C 
ENDROOT
BRANCH   1   2
ATOM      2  C   UNL A   1      37.090  30.304  28.294  1.00  0.00     0.021 C 
BRANCH   2   3
ATOM      3  C   UNL A   1      35.747  29.728  28.747  1.00  0.00     0.116 C 
BRANCH   3   4
ATOM      4  N   UNL A   1      34.670  30.629  28.384  1.00  0.00    -0.352 N 
ATOM      5  C   UNL A   1      33.564  30.499  27.583  1.00  0.00     0.251 C 
ATOM      6  O   UNL A   1      32.826  31.481  27.483  1.00  0.00    -0.269 OA
ATOM      7  H   UNL A   1      34.749  31.519  28.799  1.00  0.00     0.163 HD
BRANCH   5   8
ATOM      8  C   UNL A   1      33.169  29.221  26.923  1.00  0.00     0.039 A 
ATOM      9  C   UNL A   1      32.346  27.025  25.379  1.00  0.00     0.053 A 
ATOM     10  C   UNL A   1      33.469  27.755  24.993  1.00  0.00     0.028 A 
ATOM     11  C   UNL A   1      31.705  27.323  26.583  1.00  0.00     0.028 A 
ATOM     12  C   UNL A   1      33.853  28.870  25.745  1.00  0.00     0.016 A 
ATOM     13  C   UNL A   1      32.165  28.370  27.382  1.00  0.00     0.016 A 
BRANCH   9  14
ATOM     14  N   UNL A   1      31.834  25.999  24.571  1.00  0.00    -0.242 N 
ATOM     15  C   UNL A   1      30.741  26.039  23.754  1.00  0.00     0.095 A 
ATOM     16  C   UNL A   1      30.523  24.783  23.382  1.00  0.00     0.228 A 
ATOM     17  O   UNL A   1      31.436  23.862  23.897  1.00  0.00    -0.415 OA
ATOM     18  C   UNL A   1      32.283  24.684  24.640  1.00  0.00     0.424 A 
ATOM     19  O   UNL A   1      33.252  24.254  25.251  1.00  0.00    -0.223 OA
BRANCH  15  20
ATOM     20  C   UNL A   1      30.089  27.250  23.249  1.00  0.00     0.002 A 
ATOM     21  C   UNL A   1      28.820  29.608  22.401  1.00  0.00     0.082 A 
ATOM     22  C   UNL A   1      28.096  28.657  23.117  1.00  0.00     0.022 A 
ATOM     23  C   UNL A   1      30.168  29.392  22.097  1.00  0.00     0.022 A 
ATOM     24  C   UNL A   1      28.732  27.486  23.538  1.00  0.00     0.012 A 
ATOM     25  C   UNL A   1      30.799  28.217  22.526  1.00  0.00     0.012 A 
BRANCH  21  26
ATOM     26  S   UNL A   1      28.032  31.099  21.870  1.00  0.00     0.238 S 
ATOM     27  O   UNL A   1      27.118  31.547  22.884  1.00  0.00    -0.207 OA
ATOM     28  O   UNL A   1      27.645  30.942  20.480  1.00  0.00    -0.207 OA
BRANCH  26  29
ATOM     29  N   UNL A   1      29.282  32.225  21.875  1.00  0.00    -0.225 NA
ATOM     30  H   UNL A   1      28.891  33.166  21.912  1.00  0.00     0.137 HD
ATOM     31  H   UNL A   1      29.836  32.120  21.024  1.00  0.00     0.137 HD
ENDBRANCH  26  29
ENDBRANCH  21  26
ENDBRANCH  15  20
ENDBRANCH   9  14
ENDBRANCH   5   8
ENDBRANCH   3   4
ENDBRANCH   2   3
ENDBRANCH   1   2
BRANCH   1  32
ATOM     32  C   UNL A   1      37.747  32.657  29.169  1.00  0.00     0.002 C 
BRANCH  32  33
ATOM     33  C   UNL A   1      36.883  33.728  29.854  1.00  0.00     0.021 C 
BRANCH  33  34
ATOM     34  C   UNL A   1      35.612  33.162  30.464  1.00  0.00     0.116 C 
BRANCH  34  35
ATOM     35  N   UNL A   1      35.475  33.536  31.874  1.00  0.00    -0.352 N 
ATOM     36  C   UNL A   1      35.962  32.882  32.989  1.00  0.00     0.251 C 
ATOM     37  H   UNL A   1      34.971  34.363  32.050  1.00  0.00     0.163 HD
ATOM     38  O   UNL A   1      35.468  33.075  34.094  1.00  0.00    -0.269 OA
BRANCH  36  39
ATOM     39  C   UNL A   1      37.100  31.966  32.821  1.00  0.00     0.039 A 
ATOM     40  C   UNL A   1      36.932  30.607  32.539  1.00  0.00     0.014 A 
ATOM     41  C   UNL A   1      38.372  32.518  32.934  1.00  0.00     0.014 A 
ATOM     42  C   UNL A   1      38.065  29.827  32.312  1.00  0.00     0.010 A 
ATOM     43  C   UNL A   1      39.458  31.808  32.513  1.00  0.00     0.010 A 
ATOM     44  C   UNL A   1      39.324  30.444  32.295  1.00  0.00    -0.014 A 
BRANCH  44  45
ATOM     45  C   UNL A   1      40.538  29.728  31.929  1.00  0.00     0.031 A 
ATOM     46  C   UNL A   1      41.397  29.394  33.095  1.00  0.00     0.074 A 
ATOM     47  C   UNL A   1      40.690  29.183  30.699  1.00  0.00     0.049 A 
ATOM     48  N   UNL A   1      42.552  29.888  33.393  1.00  0.00    -0.248 NA
ATOM     49  C   UNL A   1      40.821  28.561  34.168  1.00  0.00     0.031 C 
ATOM     50  C   UNL A   1      39.735  29.191  29.580  1.00  0.00     0.029 A 
ATOM     51  N   UNL A   1      41.688  28.395  30.216  1.00  0.00    -0.354 N 
ATOM     52  C   UNL A   1      42.965  29.207  34.535  1.00  0.00     0.074 A 
ATOM     53  C   UNL A   1      41.779  28.621  35.095  1.00  0.00     0.031 C 
ATOM     54  C   UNL A   1      40.089  28.261  28.665  1.00  0.00     0.029 A 
ATOM     55  C   UNL A   1      41.379  27.714  29.037  1.00  0.00     0.049 A 
ATOM     56  H   UNL A   1      42.561  28.312  30.663  1.00  0.00     0.167 HD
ATOM     57  C   UNL A   1      44.283  28.929  34.745  1.00  0.00     0.037 A 
ATOM     58  C   UNL A   1      42.128  26.754  28.432  1.00  0.00     0.037 A 
ATOM     59  C   UNL A   1      45.113  29.718  33.863  1.00  0.00     0.049 A 
ATOM     60  C   UNL A   1      43.508  26.898  28.965  1.00  0.00     0.074 A 
ATOM     61  C   UNL A   1      45.298  31.069  33.650  1.00  0.00     0.029 A 
ATOM     62  N   UNL A   1      45.606  29.087  32.745  1.00  0.00    -0.354 N 
ATOM     63  N   UNL A   1      44.258  27.945  28.749  1.00  0.00    -0.248 NA
ATOM     64  C   UNL A   1      43.857  26.113  30.138  1.00  0.00     0.031 C 
ATOM     65  C   UNL A   1      45.450  31.203  32.238  1.00  0.00     0.029 A 
ATOM     66  C   UNL A   1      45.444  29.926  31.674  1.00  0.00     0.049 A 
ATOM     67  H   UNL A   1      46.007  28.189  32.719  1.00  0.00     0.167 HD
ATOM     68  C   UNL A   1      44.873  28.199  29.966  1.00  0.00     0.074 A 
ATOM     69  C   UNL A   1      44.649  26.991  30.761  1.00  0.00     0.031 C 
ATOM     70  C   UNL A   1      45.238  29.469  30.316  1.00  0.00     0.037 A 
BRANCH  57  71
ATOM     71  C   UNL A   1      44.803  27.676  35.418  1.00  0.00     0.058 A 
ATOM     72  C   UNL A   1      45.749  27.805  36.458  1.00  0.00     0.135 A 
ATOM     73  C   UNL A   1      44.640  26.366  34.912  1.00  0.00     0.135 A 
ATOM     74  F   UNL A   1      45.990  29.002  37.017  1.00  0.00    -0.206 F 
ATOM     75  C   UNL A   1      46.530  26.736  36.900  1.00  0.00     0.059 A 
ATOM     76  C   UNL A   1      45.368  25.277  35.376  1.00  0.00     0.059 A 
ATOM     77  F   UNL A   1      43.838  26.083  33.881  1.00  0.00    -0.206 F 
ATOM     78  C   UNL A   1      46.341  25.477  36.340  1.00  0.00     0.060 A 
BRANCH  78  79
ATOM     79  S   UNL A   1      47.404  24.114  36.840  1.00  0.00     0.124 S 
ATOM     80  O   UNL A   1      47.382  24.246  38.291  1.00  0.00    -0.237 OA
ATOM     81  O   UNL A   1      46.696  22.965  36.288  1.00  0.00    -0.237 OA
ATOM     82  O   UNL A   1      48.676  24.429  36.195  1.00  0.00    -0.744 OA
ENDBRANCH  78  79
ENDBRANCH  57  71
BRANCH  58  83
ATOM     83  C   UNL A   1      41.674  25.529  27.713  1.00  0.00     0.058 A 
ATOM     84  C   UNL A   1      42.528  24.835  26.832  1.00  0.00     0.135 A 
ATOM     85  C   UNL A   1      40.504  24.846  28.099  1.00  0.00     0.135 A 
ATOM     86  F   UNL A   1      43.676  25.399  26.424  1.00  0.00    -0.206 F 
ATOM     87  C   UNL A   1      42.264  23.526  26.404  1.00  0.00     0.059 A 
ATOM     88  C   UNL A   1      40.217  23.544  27.682  1.00  0.00     0.059 A 
ATOM     89  F   UNL A   1      39.646  25.390  28.976  1.00  0.00    -0.206 F 
ATOM     90  C   UNL A   1      41.115  22.879  26.856  1.00  0.00     0.060 A 
BRANCH  90  91
ATOM     91  S   UNL A   1      40.859  21.129  26.462  1.00  0.00     0.124 S 
ATOM     92  O   UNL A   1      39.573  21.159  25.775  1.00  0.00    -0.237 OA
ATOM     93  O   UNL A   1      42.019  20.827  25.629  1.00  0.00    -0.237 OA
ATOM     94  O   UNL A   1      40.852  20.486  27.773  1.00  0.00    -0.744 OA
ENDBRANCH  90  91
ENDBRANCH  58  83
BRANCH  70  95
ATOM     95  C   UNL A   1      45.244  30.528  29.239  1.00  0.00     0.058 A 
ATOM     96  C   UNL A   1      46.266  30.711  28.289  1.00  0.00     0.135 A 
ATOM     97  C   UNL A   1      44.081  31.296  29.078  1.00  0.00     0.135 A 
ATOM     98  F   UNL A   1      47.369  29.952  28.308  1.00  0.00    -0.206 F 
ATOM     99  C   UNL A   1      46.153  31.642  27.253  1.00  0.00     0.059 A 
ATOM    100  C   UNL A   1      43.933  32.206  28.036  1.00  0.00     0.059 A 
ATOM    101  F   UNL A   1      43.044  31.126  29.914  1.00  0.00    -0.206 F 
ATOM    102  C   UNL A   1      44.978  32.385  27.135  1.00  0.00     0.060 A 
BRANCH 102 103
ATOM    103  S   UNL A   1      44.800  33.547  25.763  1.00  0.00     0.124 S 
ATOM    104  O   UNL A   1      43.920  34.562  26.332  1.00  0.00    -0.237 OA
ATOM    105  O   UNL A   1      46.177  33.965  25.520  1.00  0.00    -0.237 OA
ATOM    106  O   UNL A   1      44.209  32.733  24.702  1.00  0.00    -0.744 OA
ENDBRANCH 102 103
ENDBRANCH  70  95
ENDBRANCH  44  45
ENDBRANCH  36  39
ENDBRANCH  34  35
ENDBRANCH  33  34
ENDBRANCH  32  33
ENDBRANCH   1  32
TORSDOF 20
ENDMDL
MODEL 3
REMARK VINA RESULT:     -10.8      2.266      3.937
REMARK SMILES NS(=O)(=O)c1ccc(-c2coc(=O)n2-c2ccc(C(=O)NCCCCCCNC(=O)c3ccc(-c4c5nc(c(-c6c(F)cc(S(=O)(=O)[O-])cc6F)c6ccc([nH]6)c(-c6c(F)cc(S(=O)(=O)[O-])cc6F)c6nc(c(-c7c(F)cc(S(=O)(=O)[O-])cc7F)c7ccc4[nH]7)C=C6)C=C5)cc3)cc2)cc1
REMARK SMILES IDX 24 1 23 2 22 3 21 4 19 5 20 6 18 8 15 9 16 10 98 11 17 12
REMARK SMILES IDX 97 13 14 14 9 15 10 16 11 17 12 18 13 19 8 20 5 21 6 22
REMARK SMILES IDX 100 23 7 24 99 25 2 26 3 27 4 28 1 29 25 32 26 33 27 34
REMARK SMILES IDX 28 35 29 36 30 38 31 39 32 40 96 41 33 42 95 43 34 44 35 45
REMARK SMILES IDX 36 46 89 47 37 48 94 49 88 50 90 51 38 52 93 53 87 54 86 55
REMARK SMILES IDX 39 57 73 58 52 59 72 60 53 61 56 62 71 63 91 64 54 65 55 66
REMARK SMILES IDX 70 68 92 69 57 70 40 71 41 72 50 73 42 74 43 75 49 76 51 77
REMARK SMILES IDX 44 78 45 79 46 80 47 81 48 82 74 83 75 84 84 85 76 86 77 87
REMARK SMILES IDX 83 88 85 89 78 90 79 91 80 92 81 93 82 94 58 95 59 96 68 97
REMARK SMILES IDX 60 98 61 99 67 100 69 101 62 102 63 103 64 104 65 105 66 106
REMARK H PARENT 21 7 1 30 1 31 28 37 90 56 56 67
REMARK Flexibility Score: inf
ROOT
ATOM      1  C   UNL A   1      39.846  19.424  25.613  1.00  0.00     0.002 C 
ENDROOT
BRANCH   1   2
ATOM      2  C   UNL A   1      39.404  20.892  25.545  1.00  0.00     0.021 C 
BRANCH   2   3
ATOM      3  C   UNL A   1      39.740  21.673  26.817  1.00  0.00     0.116 C 
BRANCH   3   4
ATOM      4  N   UNL A   1      39.857  23.087  26.518  1.00  0.00    -0.352 N 
ATOM      5  C   UNL A   1      38.990  24.013  25.997  1.00  0.00     0.251 C 
ATOM      6  O   UNL A   1      39.412  25.164  25.866  1.00  0.00    -0.269 OA
ATOM      7  H   UNL A   1      40.743  23.459  26.732  1.00  0.00     0.163 HD
BRANCH   5   8
ATOM      8  C   UNL A   1      37.561  23.721  25.684  1.00  0.00     0.039 A 
ATOM      9  C   UNL A   1      34.906  22.878  25.330  1.00  0.00     0.053 A 
ATOM     10  C   UNL A   1      35.328  23.312  26.586  1.00  0.00     0.028 A 
ATOM     11  C   UNL A   1      35.772  22.967  24.238  1.00  0.00     0.028 A 
ATOM     12  C   UNL A   1      36.661  23.695  26.766  1.00  0.00     0.016 A 
ATOM     13  C   UNL A   1      37.067  23.457  24.408  1.00  0.00     0.016 A 
BRANCH   9  14
ATOM     14  N   UNL A   1      33.625  22.338  25.141  1.00  0.00    -0.242 N 
ATOM     15  C   UNL A   1      32.430  22.998  25.119  1.00  0.00     0.095 A 
ATOM     16  C   UNL A   1      31.497  22.053  25.143  1.00  0.00     0.228 A 
ATOM     17  O   UNL A   1      31.995  20.750  25.163  1.00  0.00    -0.415 OA
ATOM     18  C   UNL A   1      33.373  20.970  25.136  1.00  0.00     0.424 A 
ATOM     19  O   UNL A   1      34.187  20.057  25.125  1.00  0.00    -0.223 OA
BRANCH  15  20
ATOM     20  C   UNL A   1      32.246  24.436  24.911  1.00  0.00     0.002 A 
ATOM     21  C   UNL A   1      32.003  27.213  24.565  1.00  0.00     0.082 A 
ATOM     22  C   UNL A   1      32.038  26.680  25.854  1.00  0.00     0.022 A 
ATOM     23  C   UNL A   1      32.080  26.374  23.449  1.00  0.00     0.022 A 
ATOM     24  C   UNL A   1      32.160  25.298  26.020  1.00  0.00     0.012 A 
ATOM     25  C   UNL A   1      32.206  24.990  23.625  1.00  0.00     0.012 A 
BRANCH  21  26
ATOM     26  S   UNL A   1      31.859  28.960  24.338  1.00  0.00     0.238 S 
ATOM     27  O   UNL A   1      31.289  29.552  25.518  1.00  0.00    -0.207 OA
ATOM     28  O   UNL A   1      31.337  29.207  23.008  1.00  0.00    -0.207 OA
BRANCH  26  29
ATOM     29  N   UNL A   1      33.457  29.484  24.311  1.00  0.00    -0.225 NA
ATOM     30  H   UNL A   1      33.480  30.501  24.243  1.00  0.00     0.137 HD
ATOM     31  H   UNL A   1      33.933  29.079  23.504  1.00  0.00     0.137 HD
ENDBRANCH  26  29
ENDBRANCH  21  26
ENDBRANCH  15  20
ENDBRANCH   9  14
ENDBRANCH   5   8
ENDBRANCH   3   4
ENDBRANCH   2   3
ENDBRANCH   1   2
BRANCH   1  32
ATOM     32  C   UNL A   1      41.099  19.156  26.465  1.00  0.00     0.002 C 
BRANCH  32  33
ATOM     33  C   UNL A   1      42.438  19.171  25.711  1.00  0.00     0.021 C 
BRANCH  33  34
ATOM     34  C   UNL A   1      43.198  20.475  25.882  1.00  0.00     0.116 C 
BRANCH  34  35
ATOM     35  N   UNL A   1      44.613  20.328  25.528  1.00  0.00    -0.352 N 
ATOM     36  C   UNL A   1      45.545  21.315  25.280  1.00  0.00     0.251 C 
ATOM     37  H   UNL A   1      44.941  19.402  25.459  1.00  0.00     0.163 HD
ATOM     38  O   UNL A   1      46.559  21.071  24.635  1.00  0.00    -0.269 OA
BRANCH  36  39
ATOM     39  C   UNL A   1      45.302  22.660  25.825  1.00  0.00     0.039 A 
ATOM     40  C   UNL A   1      44.542  23.616  25.147  1.00  0.00     0.014 A 
ATOM     41  C   UNL A   1      45.851  22.939  27.073  1.00  0.00     0.014 A 
ATOM     42  C   UNL A   1      44.291  24.836  25.773  1.00  0.00     0.010 A 
ATOM     43  C   UNL A   1      45.436  24.040  27.763  1.00  0.00     0.010 A 
ATOM     44  C   UNL A   1      44.739  25.032  27.087  1.00  0.00    -0.014 A 
BRANCH  44  45
ATOM     45  C   UNL A   1      44.400  26.219  27.858  1.00  0.00     0.031 A 
ATOM     46  C   UNL A   1      45.381  27.325  27.699  1.00  0.00     0.074 A 
ATOM     47  C   UNL A   1      43.172  26.374  28.409  1.00  0.00     0.049 A 
ATOM     48  N   UNL A   1      46.207  27.780  28.580  1.00  0.00    -0.248 NA
ATOM     49  C   UNL A   1      45.616  27.855  26.343  1.00  0.00     0.031 C 
ATOM     50  C   UNL A   1      42.024  25.456  28.334  1.00  0.00     0.029 A 
ATOM     51  N   UNL A   1      42.640  27.444  29.058  1.00  0.00    -0.354 N 
ATOM     52  C   UNL A   1      46.857  28.847  27.963  1.00  0.00     0.074 A 
ATOM     53  C   UNL A   1      46.650  28.673  26.552  1.00  0.00     0.031 C 
ATOM     54  C   UNL A   1      40.893  26.103  28.695  1.00  0.00     0.029 A 
ATOM     55  C   UNL A   1      41.250  27.418  29.190  1.00  0.00     0.049 A 
ATOM     56  H   UNL A   1      43.193  28.179  29.408  1.00  0.00     0.167 HD
ATOM     57  C   UNL A   1      47.239  29.941  28.681  1.00  0.00     0.037 A 
ATOM     58  C   UNL A   1      40.458  28.423  29.652  1.00  0.00     0.037 A 
ATOM     59  C   UNL A   1      47.202  29.655  30.097  1.00  0.00     0.049 A 
ATOM     60  C   UNL A   1      41.344  29.338  30.417  1.00  0.00     0.074 A 
ATOM     61  C   UNL A   1      47.819  28.736  30.922  1.00  0.00     0.029 A 
ATOM     62  N   UNL A   1      46.112  30.118  30.796  1.00  0.00    -0.354 N 
ATOM     63  N   UNL A   1      41.951  28.997  31.522  1.00  0.00    -0.248 NA
ATOM     64  C   UNL A   1      41.943  30.448  29.695  1.00  0.00     0.031 C 
ATOM     65  C   UNL A   1      46.817  28.350  31.861  1.00  0.00     0.029 A 
ATOM     66  C   UNL A   1      45.675  29.115  31.621  1.00  0.00     0.049 A 
ATOM     67  H   UNL A   1      45.715  31.015  30.717  1.00  0.00     0.167 HD
ATOM     68  C   UNL A   1      43.225  29.536  31.408  1.00  0.00     0.074 A 
ATOM     69  C   UNL A   1      43.134  30.486  30.298  1.00  0.00     0.031 C 
ATOM     70  C   UNL A   1      44.294  28.944  32.021  1.00  0.00     0.037 A 
BRANCH  57  71
ATOM     71  C   UNL A   1      47.236  31.362  28.155  1.00  0.00     0.058 A 
ATOM     72  C   UNL A   1      46.041  31.885  27.617  1.00  0.00     0.135 A 
ATOM     73  C   UNL A   1      48.398  32.124  27.896  1.00  0.00     0.135 A 
ATOM     74  F   UNL A   1      44.873  31.246  27.798  1.00  0.00    -0.206 F 
ATOM     75  C   UNL A   1      46.015  33.025  26.814  1.00  0.00     0.059 A 
ATOM     76  C   UNL A   1      48.386  33.294  27.144  1.00  0.00     0.059 A 
ATOM     77  F   UNL A   1      49.619  31.734  28.273  1.00  0.00    -0.206 F 
ATOM     78  C   UNL A   1      47.199  33.715  26.572  1.00  0.00     0.060 A 
BRANCH  78  79
ATOM     79  S   UNL A   1      47.189  35.135  25.466  1.00  0.00     0.124 S 
ATOM     80  O   UNL A   1      46.074  34.809  24.586  1.00  0.00    -0.237 OA
ATOM     81  O   UNL A   1      46.973  36.237  26.396  1.00  0.00    -0.237 OA
ATOM     82  O   UNL A   1      48.514  35.089  24.853  1.00  0.00    -0.744 OA
ENDBRANCH  78  79
ENDBRANCH  57  71
BRANCH  58  83
ATOM     83  C   UNL A   1      39.097  28.824  29.196  1.00  0.00     0.058 A 
ATOM     84  C   UNL A   1      38.032  28.977  30.108  1.00  0.00     0.135 A 
ATOM     85  C   UNL A   1      38.883  29.355  27.909  1.00  0.00     0.135 A 
ATOM     86  F   UNL A   1      38.151  28.520  31.364  1.00  0.00    -0.206 F 
ATOM     87  C   UNL A   1      36.852  29.660  29.779  1.00  0.00     0.059 A 
ATOM     88  C   UNL A   1      37.715  30.034  27.556  1.00  0.00     0.059 A 
ATOM     89  F   UNL A   1      39.849  29.313  26.978  1.00  0.00    -0.206 F 
ATOM     90  C   UNL A   1      36.714  30.207  28.504  1.00  0.00     0.060 A 
BRANCH  90  91
ATOM     91  S   UNL A   1      35.280  31.248  28.128  1.00  0.00     0.124 S 
ATOM     92  O   UNL A   1      34.500  30.383  27.251  1.00  0.00    -0.237 OA
ATOM     93  O   UNL A   1      34.716  31.487  29.452  1.00  0.00    -0.237 OA
ATOM     94  O   UNL A   1      35.872  32.418  27.486  1.00  0.00    -0.744 OA
ENDBRANCH  90  91
ENDBRANCH  58  83
BRANCH  70  95
ATOM     95  C   UNL A   1      44.019  27.887  33.064  1.00  0.00     0.058 A 
ATOM     96  C   UNL A   1      43.599  28.141  34.383  1.00  0.00     0.135 A 
ATOM     97  C   UNL A   1      44.043  26.547  32.651  1.00  0.00     0.135 A 
ATOM     98  F   UNL A   1      43.452  29.395  34.830  1.00  0.00    -0.206 F 
ATOM     99  C   UNL A   1      43.258  27.108  35.261  1.00  0.00     0.059 A 
ATOM    100  C   UNL A   1      43.678  25.505  33.497  1.00  0.00     0.059 A 
ATOM    101  F   UNL A   1      44.376  26.240  31.387  1.00  0.00    -0.206 F 
ATOM    102  C   UNL A   1      43.300  25.791  34.806  1.00  0.00     0.060 A 
BRANCH 102 103
ATOM    103  S   UNL A   1      42.803  24.455  35.916  1.00  0.00     0.124 S 
ATOM    104  O   UNL A   1      44.077  23.807  36.208  1.00  0.00    -0.237 OA
ATOM    105  O   UNL A   1      42.188  25.177  37.026  1.00  0.00    -0.237 OA
ATOM    106  O   UNL A   1      41.875  23.667  35.107  1.00  0.00    -0.744 OA
ENDBRANCH 102 103
ENDBRANCH  70  95
ENDBRANCH  44  45
ENDBRANCH  36  39
ENDBRANCH  34  35
ENDBRANCH  33  34
ENDBRANCH  32  33
ENDBRANCH   1  32
TORSDOF 20
ENDMDL
