MODEL 1
REMARK VINA RESULT:     -11.4      0.000      0.000
REMARK SMILES CC(C)(C)OC(=O)N1CCC(c2c(C(=O)NCCCCCCNC(=O)c3ccc(-c4c5nc(c(-c6c(F)cc(S(=O)(=O)[O-])cc6F)c6ccc([nH]6)c(-c6c(F)cc(S(=O)(=O)[O-])cc6F)c6nc(c(-c7c(F)cc(S(=O)(=O)[O-])cc7F)c7ccc4[nH]7)C=C6)C=C5)cc3)cnn2-c2ccccc2)CC1
REMARK SMILES IDX 19 1 18 2 17 3 16 4 14 5 15 6 13 8 12 9 94 10 92 11 93 12
REMARK SMILES IDX 11 13 6 14 7 15 8 16 9 17 102 18 10 19 101 20 5 21 2 22 1 23
REMARK SMILES IDX 3 24 4 25 95 26 96 27 100 28 97 29 99 30 98 31 20 32 21 33
REMARK SMILES IDX 22 34 23 35 24 36 25 38 26 39 27 40 91 41 28 42 90 43 29 44
REMARK SMILES IDX 30 45 31 46 84 47 32 48 89 49 83 50 85 51 33 52 88 53 82 54
REMARK SMILES IDX 81 55 34 57 68 58 47 59 67 60 48 61 51 62 66 63 86 64 49 65
REMARK SMILES IDX 50 66 65 68 87 69 52 70 35 71 36 72 45 73 37 74 38 75 44 76
REMARK SMILES IDX 46 77 39 78 40 79 41 80 42 81 43 82 69 83 70 84 79 85 71 86
REMARK SMILES IDX 72 87 78 88 80 89 73 90 74 91 75 92 76 93 77 94 53 95 54 96
REMARK SMILES IDX 63 97 55 98 56 99 62 100 64 101 57 102 58 103 59 104 60 105
REMARK SMILES IDX 61 106
REMARK H PARENT 16 7 23 37 85 56 51 67
REMARK Flexibility Score: inf
ROOT
ATOM      1  C   UNL A   1      36.760  31.385  27.832  1.00  0.00     0.002 C 
ENDROOT
BRANCH   1   2
ATOM      2  C   UNL A   1      35.919  30.129  28.069  1.00  0.00     0.021 C 
BRANCH   2   3
ATOM      3  C   UNL A   1      35.089  29.657  26.880  1.00  0.00     0.116 C 
BRANCH   3   4
ATOM      4  N   UNL A   1      34.183  28.573  27.201  1.00  0.00    -0.352 N 
ATOM      5  C   UNL A   1      32.861  28.321  26.932  1.00  0.00     0.254 C 
ATOM      6  O   UNL A   1      32.451  27.222  27.316  1.00  0.00    -0.269 OA
ATOM      7  H   UNL A   1      34.610  27.861  27.730  1.00  0.00     0.163 HD
BRANCH   5   8
ATOM      8  C   UNL A   1      31.984  29.259  26.223  1.00  0.00     0.081 A 
ATOM      9  C   UNL A   1      31.301  29.006  25.008  1.00  0.00     0.060 A 
ATOM     10  N   UNL A   1      30.620  30.189  24.717  1.00  0.00    -0.237 N 
ATOM     11  C   UNL A   1      31.703  30.613  26.482  1.00  0.00     0.149 A 
ATOM     12  N   UNL A   1      30.974  31.193  25.543  1.00  0.00    -0.175 NA
BRANCH   9  13
ATOM     13  C   UNL A   1      31.392  27.748  24.134  1.00  0.00     0.043 C 
ATOM     14  C   UNL A   1      33.374  24.259  23.227  1.00  0.00     0.410 C 
ATOM     15  O   UNL A   1      34.578  24.482  23.087  1.00  0.00    -0.224 OA
ATOM     16  N   UNL A   1      32.418  25.245  23.112  1.00  0.00    -0.308 N 
ATOM     17  C   UNL A   1      32.770  26.495  22.461  1.00  0.00     0.124 C 
ATOM     18  C   UNL A   1      31.115  25.217  23.763  1.00  0.00     0.124 C 
ATOM     19  C   UNL A   1      32.774  27.638  23.465  1.00  0.00     0.032 C 
ATOM     20  C   UNL A   1      31.014  26.386  24.758  1.00  0.00     0.032 C 
BRANCH  14  21
ATOM     21  O   UNL A   1      32.849  23.021  23.407  1.00  0.00    -0.444 OA
BRANCH  21  22
ATOM     22  C   UNL A   1      33.219  22.242  24.581  1.00  0.00     0.106 C 
ATOM     23  C   UNL A   1      32.169  21.124  24.671  1.00  0.00     0.056 C 
ATOM     24  C   UNL A   1      33.134  23.114  25.836  1.00  0.00     0.056 C 
ATOM     25  C   UNL A   1      34.596  21.562  24.459  1.00  0.00     0.056 C 
ENDBRANCH  21  22
ENDBRANCH  14  21
ENDBRANCH   9  13
BRANCH  10  26
ATOM     26  C   UNL A   1      29.780  30.528  23.639  1.00  0.00     0.065 A 
ATOM     27  C   UNL A   1      28.817  31.527  23.841  1.00  0.00     0.028 A 
ATOM     28  C   UNL A   1      29.868  29.854  22.421  1.00  0.00     0.028 A 
ATOM     29  C   UNL A   1      28.007  31.925  22.784  1.00  0.00     0.002 A 
ATOM     30  C   UNL A   1      29.044  30.254  21.368  1.00  0.00     0.002 A 
ATOM     31  C   UNL A   1      28.131  31.298  21.544  1.00  0.00     0.000 A 
ENDBRANCH  10  26
ENDBRANCH   5   8
ENDBRANCH   3   4
ENDBRANCH   2   3
ENDBRANCH   1   2
BRANCH   1  32
ATOM     32  C   UNL A   1      36.898  32.347  29.022  1.00  0.00     0.002 C 
BRANCH  32  33
ATOM     33  C   UNL A   1      35.648  33.153  29.409  1.00  0.00     0.021 C 
BRANCH  33  34
ATOM     34  C   UNL A   1      34.681  32.402  30.310  1.00  0.00     0.116 C 
BRANCH  34  35
ATOM     35  N   UNL A   1      34.590  32.998  31.642  1.00  0.00    -0.352 N 
ATOM     36  C   UNL A   1      35.330  32.696  32.767  1.00  0.00     0.251 C 
ATOM     37  H   UNL A   1      33.915  33.707  31.751  1.00  0.00     0.163 HD
ATOM     38  O   UNL A   1      34.922  32.992  33.884  1.00  0.00    -0.269 OA
BRANCH  36  39
ATOM     39  C   UNL A   1      36.625  32.015  32.600  1.00  0.00     0.039 A 
ATOM     40  C   UNL A   1      36.704  30.631  32.406  1.00  0.00     0.014 A 
ATOM     41  C   UNL A   1      37.773  32.800  32.623  1.00  0.00     0.014 A 
ATOM     42  C   UNL A   1      37.946  30.053  32.157  1.00  0.00     0.010 A 
ATOM     43  C   UNL A   1      38.965  32.259  32.227  1.00  0.00     0.010 A 
ATOM     44  C   UNL A   1      39.072  30.878  32.055  1.00  0.00    -0.014 A 
BRANCH  44  45
ATOM     45  C   UNL A   1      40.374  30.359  31.640  1.00  0.00     0.031 A 
ATOM     46  C   UNL A   1      41.329  30.098  32.758  1.00  0.00     0.074 A 
ATOM     47  C   UNL A   1      40.532  29.868  30.390  1.00  0.00     0.049 A 
ATOM     48  N   UNL A   1      42.530  30.554  32.902  1.00  0.00    -0.248 NA
ATOM     49  C   UNL A   1      40.846  29.345  33.932  1.00  0.00     0.031 C 
ATOM     50  C   UNL A   1      39.531  29.834  29.313  1.00  0.00     0.029 A 
ATOM     51  N   UNL A   1      41.545  29.131  29.863  1.00  0.00    -0.354 N 
ATOM     52  C   UNL A   1      43.035  29.949  34.053  1.00  0.00     0.074 A 
ATOM     53  C   UNL A   1      41.902  29.398  34.746  1.00  0.00     0.031 C 
ATOM     54  C   UNL A   1      39.876  28.903  28.402  1.00  0.00     0.029 A 
ATOM     55  C   UNL A   1      41.184  28.380  28.743  1.00  0.00     0.049 A 
ATOM     56  H   UNL A   1      42.455  29.127  30.237  1.00  0.00     0.167 HD
ATOM     57  C   UNL A   1      44.370  29.724  34.211  1.00  0.00     0.037 A 
ATOM     58  C   UNL A   1      41.882  27.352  28.191  1.00  0.00     0.037 A 
ATOM     59  C   UNL A   1      45.140  30.506  33.277  1.00  0.00     0.049 A 
ATOM     60  C   UNL A   1      43.286  27.495  28.666  1.00  0.00     0.074 A 
ATOM     61  C   UNL A   1      45.245  31.858  33.009  1.00  0.00     0.029 A 
ATOM     62  N   UNL A   1      45.660  29.863  32.178  1.00  0.00    -0.354 N 
ATOM     63  N   UNL A   1      44.057  28.499  28.341  1.00  0.00    -0.248 NA
ATOM     64  C   UNL A   1      43.664  26.794  29.885  1.00  0.00     0.031 C 
ATOM     65  C   UNL A   1      45.340  31.941  31.590  1.00  0.00     0.029 A 
ATOM     66  C   UNL A   1      45.381  30.642  31.082  1.00  0.00     0.049 A 
ATOM     67  H   UNL A   1      46.141  29.005  32.176  1.00  0.00     0.167 HD
ATOM     68  C   UNL A   1      44.724  28.830  29.512  1.00  0.00     0.074 A 
ATOM     69  C   UNL A   1      44.504  27.694  30.408  1.00  0.00     0.031 C 
ATOM     70  C   UNL A   1      45.128  30.113  29.760  1.00  0.00     0.037 A 
BRANCH  57  71
ATOM     71  C   UNL A   1      44.961  28.533  34.936  1.00  0.00     0.058 A 
ATOM     72  C   UNL A   1      44.549  27.232  34.576  1.00  0.00     0.135 A 
ATOM     73  C   UNL A   1      45.686  28.624  36.145  1.00  0.00     0.135 A 
ATOM     74  F   UNL A   1      43.851  27.024  33.447  1.00  0.00    -0.206 F 
ATOM     75  C   UNL A   1      44.767  26.123  35.395  1.00  0.00     0.059 A 
ATOM     76  C   UNL A   1      45.963  27.524  36.948  1.00  0.00     0.059 A 
ATOM     77  F   UNL A   1      46.077  29.795  36.662  1.00  0.00    -0.206 F 
ATOM     78  C   UNL A   1      45.460  26.285  36.589  1.00  0.00     0.060 A 
BRANCH  78  79
ATOM     79  S   UNL A   1      45.645  24.883  37.705  1.00  0.00     0.124 S 
ATOM     80  O   UNL A   1      44.261  24.455  37.863  1.00  0.00    -0.237 OA
ATOM     81  O   UNL A   1      46.507  23.995  36.932  1.00  0.00    -0.237 OA
ATOM     82  O   UNL A   1      46.264  25.476  38.887  1.00  0.00    -0.744 OA
ENDBRANCH  78  79
ENDBRANCH  57  71
BRANCH  58  83
ATOM     83  C   UNL A   1      41.338  26.092  27.602  1.00  0.00     0.058 A 
ATOM     84  C   UNL A   1      42.018  25.414  26.572  1.00  0.00     0.135 A 
ATOM     85  C   UNL A   1      40.283  25.376  28.208  1.00  0.00     0.135 A 
ATOM     86  F   UNL A   1      43.043  26.006  25.939  1.00  0.00    -0.206 F 
ATOM     87  C   UNL A   1      41.720  24.090  26.216  1.00  0.00     0.059 A 
ATOM     88  C   UNL A   1      39.954  24.067  27.858  1.00  0.00     0.059 A 
ATOM     89  F   UNL A   1      39.589  25.885  29.237  1.00  0.00    -0.206 F 
ATOM     90  C   UNL A   1      40.700  23.415  26.886  1.00  0.00     0.060 A 
BRANCH  90  91
ATOM     91  S   UNL A   1      40.447  21.647  26.599  1.00  0.00     0.124 S 
ATOM     92  O   UNL A   1      39.091  21.618  26.064  1.00  0.00    -0.237 OA
ATOM     93  O   UNL A   1      41.513  21.332  25.656  1.00  0.00    -0.237 OA
ATOM     94  O   UNL A   1      40.606  21.064  27.930  1.00  0.00    -0.744 OA
ENDBRANCH  90  91
ENDBRANCH  58  83
BRANCH  70  95
ATOM     95  C   UNL A   1      45.083  31.117  28.635  1.00  0.00     0.058 A 
ATOM     96  C   UNL A   1      44.010  31.994  28.389  1.00  0.00     0.135 A 
ATOM     97  C   UNL A   1      46.252  31.324  27.888  1.00  0.00     0.135 A 
ATOM     98  F   UNL A   1      42.896  31.946  29.130  1.00  0.00    -0.206 F 
ATOM     99  C   UNL A   1      44.078  32.995  27.419  1.00  0.00     0.059 A 
ATOM    100  C   UNL A   1      46.356  32.338  26.939  1.00  0.00     0.059 A 
ATOM    101  F   UNL A   1      47.338  30.568  28.119  1.00  0.00    -0.206 F 
ATOM    102  C   UNL A   1      45.259  33.161  26.700  1.00  0.00     0.060 A 
BRANCH 102 103
ATOM    103  S   UNL A   1      45.374  34.502  25.496  1.00  0.00     0.124 S 
ATOM    104  O   UNL A   1      44.564  33.993  24.394  1.00  0.00    -0.237 OA
ATOM    105  O   UNL A   1      44.811  35.634  26.226  1.00  0.00    -0.237 OA
ATOM    106  O   UNL A   1      46.807  34.596  25.227  1.00  0.00    -0.744 OA
ENDBRANCH 102 103
ENDBRANCH  70  95
ENDBRANCH  44  45
ENDBRANCH  36  39
ENDBRANCH  34  35
ENDBRANCH  33  34
ENDBRANCH  32  33
ENDBRANCH   1  32
TORSDOF 20
ENDMDL
MODEL 2
REMARK VINA RESULT:     -11.3      3.159      8.358
REMARK SMILES CC(C)(C)OC(=O)N1CCC(c2c(C(=O)NCCCCCCNC(=O)c3ccc(-c4c5nc(c(-c6c(F)cc(S(=O)(=O)[O-])cc6F)c6ccc([nH]6)c(-c6c(F)cc(S(=O)(=O)[O-])cc6F)c6nc(c(-c7c(F)cc(S(=O)(=O)[O-])cc7F)c7ccc4[nH]7)C=C6)C=C5)cc3)cnn2-c2ccccc2)CC1
REMARK SMILES IDX 19 1 18 2 17 3 16 4 14 5 15 6 13 8 12 9 94 10 92 11 93 12
REMARK SMILES IDX 11 13 6 14 7 15 8 16 9 17 102 18 10 19 101 20 5 21 2 22 1 23
REMARK SMILES IDX 3 24 4 25 95 26 96 27 100 28 97 29 99 30 98 31 20 32 21 33
REMARK SMILES IDX 22 34 23 35 24 36 25 38 26 39 27 40 91 41 28 42 90 43 29 44
REMARK SMILES IDX 30 45 31 46 84 47 32 48 89 49 83 50 85 51 33 52 88 53 82 54
REMARK SMILES IDX 81 55 34 57 68 58 47 59 67 60 48 61 51 62 66 63 86 64 49 65
REMARK SMILES IDX 50 66 65 68 87 69 52 70 35 71 36 72 45 73 37 74 38 75 44 76
REMARK SMILES IDX 46 77 39 78 40 79 41 80 42 81 43 82 69 83 70 84 79 85 71 86
REMARK SMILES IDX 72 87 78 88 80 89 73 90 74 91 75 92 76 93 77 94 53 95 54 96
REMARK SMILES IDX 63 97 55 98 56 99 62 100 64 101 57 102 58 103 59 104 60 105
REMARK SMILES IDX 61 106
REMARK H PARENT 16 7 23 37 85 56 51 67
REMARK Flexibility Score: inf
ROOT
ATOM      1  C   UNL A   1      34.282  21.565  25.961  1.00  0.00     0.002 C 
ENDROOT
BRANCH   1   2
ATOM      2  C   UNL A   1      33.497  22.279  27.064  1.00  0.00     0.021 C 
BRANCH   2   3
ATOM      3  C   UNL A   1      32.813  23.577  26.649  1.00  0.00     0.116 C 
BRANCH   3   4
ATOM      4  N   UNL A   1      33.675  24.473  25.905  1.00  0.00    -0.352 N 
ATOM      5  C   UNL A   1      33.464  25.401  24.916  1.00  0.00     0.254 C 
ATOM      6  O   UNL A   1      34.464  26.042  24.580  1.00  0.00    -0.269 OA
ATOM      7  H   UNL A   1      34.622  24.398  26.166  1.00  0.00     0.163 HD
BRANCH   5   8
ATOM      8  C   UNL A   1      32.155  25.650  24.304  1.00  0.00     0.081 A 
ATOM      9  C   UNL A   1      31.370  26.819  24.460  1.00  0.00     0.060 A 
ATOM     10  N   UNL A   1      30.213  26.586  23.715  1.00  0.00    -0.237 N 
ATOM     11  C   UNL A   1      31.330  24.800  23.544  1.00  0.00     0.149 A 
ATOM     12  N   UNL A   1      30.141  25.315  23.275  1.00  0.00    -0.175 NA
BRANCH   9  13
ATOM     13  C   UNL A   1      31.669  28.028  25.356  1.00  0.00     0.043 C 
ATOM     14  C   UNL A   1      34.423  30.148  27.559  1.00  0.00     0.410 C 
ATOM     15  O   UNL A   1      35.024  29.391  28.324  1.00  0.00    -0.224 OA
ATOM     16  N   UNL A   1      33.193  29.837  27.022  1.00  0.00    -0.308 N 
ATOM     17  C   UNL A   1      32.407  28.777  27.629  1.00  0.00     0.124 C 
ATOM     18  C   UNL A   1      32.682  30.359  25.761  1.00  0.00     0.124 C 
ATOM     19  C   UNL A   1      32.299  27.585  26.690  1.00  0.00     0.032 C 
ATOM     20  C   UNL A   1      32.486  29.200  24.768  1.00  0.00     0.032 C 
BRANCH  14  21
ATOM     21  O   UNL A   1      34.847  31.398  27.241  1.00  0.00    -0.444 OA
BRANCH  21  22
ATOM     22  C   UNL A   1      34.576  32.506  28.146  1.00  0.00     0.106 C 
ATOM     23  C   UNL A   1      35.770  33.459  27.987  1.00  0.00     0.056 C 
ATOM     24  C   UNL A   1      34.524  32.002  29.590  1.00  0.00     0.056 C 
ATOM     25  C   UNL A   1      33.307  33.302  27.781  1.00  0.00     0.056 C 
ENDBRANCH  21  22
ENDBRANCH  14  21
ENDBRANCH   9  13
BRANCH  10  26
ATOM     26  C   UNL A   1      29.077  27.391  23.500  1.00  0.00     0.065 A 
ATOM     27  C   UNL A   1      29.254  28.620  22.849  1.00  0.00     0.028 A 
ATOM     28  C   UNL A   1      27.822  27.001  23.968  1.00  0.00     0.028 A 
ATOM     29  C   UNL A   1      28.147  29.416  22.572  1.00  0.00     0.002 A 
ATOM     30  C   UNL A   1      26.719  27.811  23.694  1.00  0.00     0.002 A 
ATOM     31  C   UNL A   1      26.879  29.004  22.982  1.00  0.00     0.000 A 
ENDBRANCH  10  26
ENDBRANCH   5   8
ENDBRANCH   3   4
ENDBRANCH   2   3
ENDBRANCH   1   2
BRANCH   1  32
ATOM     32  C   UNL A   1      35.803  21.782  25.961  1.00  0.00     0.002 C 
BRANCH  32  33
ATOM     33  C   UNL A   1      36.644  20.782  25.151  1.00  0.00     0.021 C 
BRANCH  33  34
ATOM     34  C   UNL A   1      38.143  21.032  25.223  1.00  0.00     0.116 C 
BRANCH  34  35
ATOM     35  N   UNL A   1      38.892  19.811  25.513  1.00  0.00    -0.352 N 
ATOM     36  C   UNL A   1      40.220  19.686  25.870  1.00  0.00     0.251 C 
ATOM     37  H   UNL A   1      38.386  18.969  25.445  1.00  0.00     0.163 HD
ATOM     38  O   UNL A   1      40.810  18.622  25.727  1.00  0.00    -0.269 OA
BRANCH  36  39
ATOM     39  C   UNL A   1      40.914  20.856  26.432  1.00  0.00     0.039 A 
ATOM     40  C   UNL A   1      41.624  21.746  25.619  1.00  0.00     0.014 A 
ATOM     41  C   UNL A   1      40.823  21.060  27.805  1.00  0.00     0.014 A 
ATOM     42  C   UNL A   1      42.180  22.888  26.191  1.00  0.00     0.010 A 
ATOM     43  C   UNL A   1      41.232  22.252  28.337  1.00  0.00     0.010 A 
ATOM     44  C   UNL A   1      41.966  23.141  27.550  1.00  0.00    -0.014 A 
BRANCH  44  45
ATOM     45  C   UNL A   1      42.382  24.394  28.177  1.00  0.00     0.031 A 
ATOM     46  C   UNL A   1      41.331  25.454  28.216  1.00  0.00     0.074 A 
ATOM     47  C   UNL A   1      43.507  24.427  28.928  1.00  0.00     0.049 A 
ATOM     48  N   UNL A   1      41.404  26.665  27.769  1.00  0.00    -0.248 NA
ATOM     49  C   UNL A   1      39.982  25.087  28.688  1.00  0.00     0.031 C 
ATOM     50  C   UNL A   1      44.450  23.324  29.168  1.00  0.00     0.029 A 
ATOM     51  N   UNL A   1      43.957  25.381  29.786  1.00  0.00    -0.354 N 
ATOM     52  C   UNL A   1      40.203  27.279  28.125  1.00  0.00     0.074 A 
ATOM     53  C   UNL A   1      39.303  26.218  28.487  1.00  0.00     0.031 C 
ATOM     54  C   UNL A   1      45.168  23.575  30.281  1.00  0.00     0.029 A 
ATOM     55  C   UNL A   1      44.849  24.908  30.750  1.00  0.00     0.049 A 
ATOM     56  H   UNL A   1      43.679  26.323  29.731  1.00  0.00     0.167 HD
ATOM     57  C   UNL A   1      40.129  28.622  28.344  1.00  0.00     0.037 A 
ATOM     58  C   UNL A   1      45.230  25.545  31.889  1.00  0.00     0.037 A 
ATOM     59  C   UNL A   1      41.279  29.299  27.799  1.00  0.00     0.049 A 
ATOM     60  C   UNL A   1      44.934  26.990  31.682  1.00  0.00     0.074 A 
ATOM     61  C   UNL A   1      41.841  29.381  26.539  1.00  0.00     0.029 A 
ATOM     62  N   UNL A   1      42.258  29.706  28.675  1.00  0.00    -0.354 N 
ATOM     63  N   UNL A   1      45.540  27.728  30.790  1.00  0.00    -0.248 NA
ATOM     64  C   UNL A   1      43.634  27.484  32.114  1.00  0.00     0.031 C 
ATOM     65  C   UNL A   1      43.247  29.336  26.764  1.00  0.00     0.029 A 
ATOM     66  C   UNL A   1      43.464  29.323  28.142  1.00  0.00     0.049 A 
ATOM     67  H   UNL A   1      42.121  30.182  29.525  1.00  0.00     0.167 HD
ATOM     68  C   UNL A   1      44.537  28.508  30.232  1.00  0.00     0.074 A 
ATOM     69  C   UNL A   1      43.401  28.374  31.144  1.00  0.00     0.031 C 
ATOM     70  C   UNL A   1      44.611  28.939  28.936  1.00  0.00     0.037 A 
BRANCH  57  71
ATOM     71  C   UNL A   1      39.225  29.278  29.366  1.00  0.00     0.058 A 
ATOM     72  C   UNL A   1      38.348  30.305  28.952  1.00  0.00     0.135 A 
ATOM     73  C   UNL A   1      39.384  29.146  30.763  1.00  0.00     0.135 A 
ATOM     74  F   UNL A   1      38.121  30.525  27.647  1.00  0.00    -0.206 F 
ATOM     75  C   UNL A   1      37.746  31.184  29.854  1.00  0.00     0.059 A 
ATOM     76  C   UNL A   1      38.749  29.974  31.681  1.00  0.00     0.059 A 
ATOM     77  F   UNL A   1      40.239  28.273  31.309  1.00  0.00    -0.206 F 
ATOM     78  C   UNL A   1      37.968  31.019  31.217  1.00  0.00     0.060 A 
BRANCH  78  79
ATOM     79  S   UNL A   1      37.288  32.217  32.377  1.00  0.00     0.124 S 
ATOM     80  O   UNL A   1      37.178  33.404  31.538  1.00  0.00    -0.237 OA
ATOM     81  O   UNL A   1      36.030  31.584  32.761  1.00  0.00    -0.237 OA
ATOM     82  O   UNL A   1      38.300  32.276  33.429  1.00  0.00    -0.744 OA
ENDBRANCH  78  79
ENDBRANCH  57  71
BRANCH  58  83
ATOM     83  C   UNL A   1      45.479  24.942  33.232  1.00  0.00     0.058 A 
ATOM     84  C   UNL A   1      44.428  24.395  33.993  1.00  0.00     0.135 A 
ATOM     85  C   UNL A   1      46.781  24.642  33.689  1.00  0.00     0.135 A 
ATOM     86  F   UNL A   1      43.153  24.613  33.636  1.00  0.00    -0.206 F 
ATOM     87  C   UNL A   1      44.653  23.550  35.091  1.00  0.00     0.059 A 
ATOM     88  C   UNL A   1      47.030  23.822  34.789  1.00  0.00     0.059 A 
ATOM     89  F   UNL A   1      47.869  25.057  33.025  1.00  0.00    -0.206 F 
ATOM     90  C   UNL A   1      45.962  23.249  35.465  1.00  0.00     0.060 A 
BRANCH  90  91
ATOM     91  S   UNL A   1      46.273  21.994  36.730  1.00  0.00     0.124 S 
ATOM     92  O   UNL A   1      47.730  21.978  36.788  1.00  0.00    -0.237 OA
ATOM     93  O   UNL A   1      45.594  22.552  37.893  1.00  0.00    -0.237 OA
ATOM     94  O   UNL A   1      45.657  20.792  36.171  1.00  0.00    -0.744 OA
ENDBRANCH  90  91
ENDBRANCH  58  83
BRANCH  70  95
ATOM     95  C   UNL A   1      45.916  28.787  28.195  1.00  0.00     0.058 A 
ATOM     96  C   UNL A   1      47.005  29.672  28.305  1.00  0.00     0.135 A 
ATOM     97  C   UNL A   1      46.137  27.598  27.485  1.00  0.00     0.135 A 
ATOM     98  F   UNL A   1      46.924  30.777  29.057  1.00  0.00    -0.206 F 
ATOM     99  C   UNL A   1      48.237  29.410  27.703  1.00  0.00     0.059 A 
ATOM    100  C   UNL A   1      47.367  27.299  26.904  1.00  0.00     0.059 A 
ATOM    101  F   UNL A   1      45.164  26.677  27.398  1.00  0.00    -0.206 F 
ATOM    102  C   UNL A   1      48.409  28.217  27.006  1.00  0.00     0.060 A 
BRANCH 102 103
ATOM    103  S   UNL A   1      50.024  27.844  26.288  1.00  0.00     0.124 S 
ATOM    104  O   UNL A   1      49.955  26.396  26.119  1.00  0.00    -0.237 OA
ATOM    105  O   UNL A   1      50.014  28.628  25.057  1.00  0.00    -0.237 OA
ATOM    106  O   UNL A   1      50.965  28.309  27.305  1.00  0.00    -0.744 OA
ENDBRANCH 102 103
ENDBRANCH  70  95
ENDBRANCH  44  45
ENDBRANCH  36  39
ENDBRANCH  34  35
ENDBRANCH  33  34
ENDBRANCH  32  33
ENDBRANCH   1  32
TORSDOF 20
ENDMDL
MODEL 3
REMARK VINA RESULT:     -11.0      3.191      8.250
REMARK SMILES CC(C)(C)OC(=O)N1CCC(c2c(C(=O)NCCCCCCNC(=O)c3ccc(-c4c5nc(c(-c6c(F)cc(S(=O)(=O)[O-])cc6F)c6ccc([nH]6)c(-c6c(F)cc(S(=O)(=O)[O-])cc6F)c6nc(c(-c7c(F)cc(S(=O)(=O)[O-])cc7F)c7ccc4[nH]7)C=C6)C=C5)cc3)cnn2-c2ccccc2)CC1
REMARK SMILES IDX 19 1 18 2 17 3 16 4 14 5 15 6 13 8 12 9 94 10 92 11 93 12
REMARK SMILES IDX 11 13 6 14 7 15 8 16 9 17 102 18 10 19 101 20 5 21 2 22 1 23
REMARK SMILES IDX 3 24 4 25 95 26 96 27 100 28 97 29 99 30 98 31 20 32 21 33
REMARK SMILES IDX 22 34 23 35 24 36 25 38 26 39 27 40 91 41 28 42 90 43 29 44
REMARK SMILES IDX 30 45 31 46 84 47 32 48 89 49 83 50 85 51 33 52 88 53 82 54
REMARK SMILES IDX 81 55 34 57 68 58 47 59 67 60 48 61 51 62 66 63 86 64 49 65
REMARK SMILES IDX 50 66 65 68 87 69 52 70 35 71 36 72 45 73 37 74 38 75 44 76
REMARK SMILES IDX 46 77 39 78 40 79 41 80 42 81 43 82 69 83 70 84 79 85 71 86
REMARK SMILES IDX 72 87 78 88 80 89 73 90 74 91 75 92 76 93 77 94 53 95 54 96
REMARK SMILES IDX 63 97 55 98 56 99 62 100 64 101 57 102 58 103 59 104 60 105
REMARK SMILES IDX 61 106
REMARK H PARENT 16 7 23 37 85 56 51 67
REMARK Flexibility Score: inf
ROOT
ATOM      1  C   UNL A   1      32.631  22.091  26.211  1.00  0.00     0.002 C 
ENDROOT
BRANCH   1   2
ATOM      2  C   UNL A   1      31.982  23.227  27.003  1.00  0.00     0.021 C 
BRANCH   2   3
ATOM      3  C   UNL A   1      31.828  24.547  26.254  1.00  0.00     0.116 C 
BRANCH   3   4
ATOM      4  N   UNL A   1      33.036  24.968  25.572  1.00  0.00    -0.352 N 
ATOM      5  C   UNL A   1      33.291  25.776  24.493  1.00  0.00     0.254 C 
ATOM      6  O   UNL A   1      34.487  25.964  24.253  1.00  0.00    -0.269 OA
ATOM      7  H   UNL A   1      33.853  24.590  25.971  1.00  0.00     0.163 HD
BRANCH   5   8
ATOM      8  C   UNL A   1      32.242  26.402  23.681  1.00  0.00     0.081 A 
ATOM      9  C   UNL A   1      31.547  27.596  23.994  1.00  0.00     0.060 A 
ATOM     10  N   UNL A   1      30.640  27.777  22.948  1.00  0.00    -0.237 N 
ATOM     11  C   UNL A   1      31.604  25.947  22.512  1.00  0.00     0.149 A 
ATOM     12  N   UNL A   1      30.592  26.709  22.129  1.00  0.00    -0.175 NA
BRANCH   9  13
ATOM     13  C   UNL A   1      31.674  28.440  25.269  1.00  0.00     0.043 C 
ATOM     14  C   UNL A   1      33.870  31.132  27.472  1.00  0.00     0.410 C 
ATOM     15  O   UNL A   1      35.035  30.742  27.575  1.00  0.00    -0.224 OA
ATOM     16  N   UNL A   1      32.827  30.283  27.177  1.00  0.00    -0.308 N 
ATOM     17  C   UNL A   1      33.014  28.852  27.344  1.00  0.00     0.124 C 
ATOM     18  C   UNL A   1      31.589  30.686  26.522  1.00  0.00     0.124 C 
ATOM     19  C   UNL A   1      33.001  28.150  25.994  1.00  0.00     0.032 C 
ATOM     20  C   UNL A   1      31.468  29.968  25.167  1.00  0.00     0.032 C 
BRANCH  14  21
ATOM     21  O   UNL A   1      33.472  32.403  27.731  1.00  0.00    -0.444 OA
BRANCH  21  22
ATOM     22  C   UNL A   1      34.298  33.265  28.565  1.00  0.00     0.106 C 
ATOM     23  C   UNL A   1      35.672  33.298  27.879  1.00  0.00     0.056 C 
ATOM     24  C   UNL A   1      34.447  32.654  29.961  1.00  0.00     0.056 C 
ATOM     25  C   UNL A   1      33.791  34.718  28.638  1.00  0.00     0.056 C 
ENDBRANCH  21  22
ENDBRANCH  14  21
ENDBRANCH   9  13
BRANCH  10  26
ATOM     26  C   UNL A   1      29.688  28.788  22.718  1.00  0.00     0.065 A 
ATOM     27  C   UNL A   1      30.051  29.862  21.893  1.00  0.00     0.028 A 
ATOM     28  C   UNL A   1      28.437  28.750  23.336  1.00  0.00     0.028 A 
ATOM     29  C   UNL A   1      29.118  30.851  21.601  1.00  0.00     0.002 A 
ATOM     30  C   UNL A   1      27.511  29.753  23.045  1.00  0.00     0.002 A 
ATOM     31  C   UNL A   1      27.845  30.788  22.165  1.00  0.00     0.000 A 
ENDBRANCH  10  26
ENDBRANCH   5   8
ENDBRANCH   3   4
ENDBRANCH   2   3
ENDBRANCH   1   2
BRANCH   1  32
ATOM     32  C   UNL A   1      34.109  21.804  26.520  1.00  0.00     0.002 C 
BRANCH  32  33
ATOM     33  C   UNL A   1      34.916  21.080  25.431  1.00  0.00     0.021 C 
BRANCH  33  34
ATOM     34  C   UNL A   1      36.404  21.391  25.453  1.00  0.00     0.116 C 
BRANCH  34  35
ATOM     35  N   UNL A   1      37.222  20.181  25.389  1.00  0.00    -0.352 N 
ATOM     36  C   UNL A   1      38.581  20.055  25.595  1.00  0.00     0.251 C 
ATOM     37  H   UNL A   1      36.742  19.348  25.172  1.00  0.00     0.163 HD
ATOM     38  O   UNL A   1      39.193  19.085  25.161  1.00  0.00    -0.269 OA
BRANCH  36  39
ATOM     39  C   UNL A   1      39.282  21.105  26.351  1.00  0.00     0.039 A 
ATOM     40  C   UNL A   1      40.359  20.806  27.193  1.00  0.00     0.014 A 
ATOM     41  C   UNL A   1      38.849  22.416  26.184  1.00  0.00     0.014 A 
ATOM     42  C   UNL A   1      41.047  21.849  27.808  1.00  0.00     0.010 A 
ATOM     43  C   UNL A   1      39.616  23.444  26.661  1.00  0.00     0.010 A 
ATOM     44  C   UNL A   1      40.677  23.168  27.525  1.00  0.00    -0.014 A 
BRANCH  44  45
ATOM     45  C   UNL A   1      41.453  24.308  28.007  1.00  0.00     0.031 A 
ATOM     46  C   UNL A   1      40.682  25.581  28.137  1.00  0.00     0.074 A 
ATOM     47  C   UNL A   1      42.660  24.102  28.582  1.00  0.00     0.049 A 
ATOM     48  N   UNL A   1      40.951  26.732  27.613  1.00  0.00    -0.248 NA
ATOM     49  C   UNL A   1      39.376  25.543  28.824  1.00  0.00     0.031 C 
ATOM     50  C   UNL A   1      43.361  22.820  28.746  1.00  0.00     0.029 A 
ATOM     51  N   UNL A   1      43.440  24.950  29.305  1.00  0.00    -0.354 N 
ATOM     52  C   UNL A   1      39.986  27.612  28.104  1.00  0.00     0.074 A 
ATOM     53  C   UNL A   1      38.942  26.794  28.658  1.00  0.00     0.031 C 
ATOM     54  C   UNL A   1      44.283  22.929  29.724  1.00  0.00     0.029 A 
ATOM     55  C   UNL A   1      44.344  24.310  30.154  1.00  0.00     0.049 A 
ATOM     56  H   UNL A   1      43.372  25.929  29.236  1.00  0.00     0.167 HD
ATOM     57  C   UNL A   1      40.247  28.942  28.251  1.00  0.00     0.037 A 
ATOM     58  C   UNL A   1      45.031  24.872  31.184  1.00  0.00     0.037 A 
ATOM     59  C   UNL A   1      41.418  29.324  27.503  1.00  0.00     0.049 A 
ATOM     60  C   UNL A   1      45.033  26.341  30.937  1.00  0.00     0.074 A 
ATOM     61  C   UNL A   1      41.780  29.245  26.172  1.00  0.00     0.029 A 
ATOM     62  N   UNL A   1      42.589  29.520  28.199  1.00  0.00    -0.354 N 
ATOM     63  N   UNL A   1      45.641  26.899  29.923  1.00  0.00    -0.248 NA
ATOM     64  C   UNL A   1      43.960  27.129  31.525  1.00  0.00     0.031 C 
ATOM     65  C   UNL A   1      43.158  28.886  26.189  1.00  0.00     0.029 A 
ATOM     66  C   UNL A   1      43.581  28.858  27.519  1.00  0.00     0.049 A 
ATOM     67  H   UNL A   1      42.695  30.035  29.030  1.00  0.00     0.167 HD
ATOM     68  C   UNL A   1      44.760  27.873  29.473  1.00  0.00     0.074 A 
ATOM     69  C   UNL A   1      43.780  28.024  30.549  1.00  0.00     0.031 C 
ATOM     70  C   UNL A   1      44.724  28.243  28.157  1.00  0.00     0.037 A 
BRANCH  57  71
ATOM     71  C   UNL A   1      39.682  29.812  29.354  1.00  0.00     0.058 A 
ATOM     72  C   UNL A   1      40.082  29.581  30.688  1.00  0.00     0.135 A 
ATOM     73  C   UNL A   1      38.564  30.661  29.196  1.00  0.00     0.135 A 
ATOM     74  F   UNL A   1      41.132  28.789  30.959  1.00  0.00    -0.206 F 
ATOM     75  C   UNL A   1      39.373  30.085  31.780  1.00  0.00     0.059 A 
ATOM     76  C   UNL A   1      37.878  31.218  30.269  1.00  0.00     0.059 A 
ATOM     77  F   UNL A   1      38.016  30.913  28.002  1.00  0.00    -0.206 F 
ATOM     78  C   UNL A   1      38.261  30.889  31.557  1.00  0.00     0.060 A 
BRANCH  78  79
ATOM     79  S   UNL A   1      37.276  31.447  32.958  1.00  0.00     0.124 S 
ATOM     80  O   UNL A   1      37.576  32.873  32.974  1.00  0.00    -0.237 OA
ATOM     81  O   UNL A   1      35.925  31.080  32.542  1.00  0.00    -0.237 OA
ATOM     82  O   UNL A   1      37.813  30.673  34.074  1.00  0.00    -0.744 OA
ENDBRANCH  78  79
ENDBRANCH  57  71
BRANCH  58  83
ATOM     83  C   UNL A   1      45.348  24.261  32.510  1.00  0.00     0.058 A 
ATOM     84  C   UNL A   1      46.488  24.650  33.240  1.00  0.00     0.135 A 
ATOM     85  C   UNL A   1      44.408  23.482  33.220  1.00  0.00     0.135 A 
ATOM     86  F   UNL A   1      47.436  25.401  32.658  1.00  0.00    -0.206 F 
ATOM     87  C   UNL A   1      46.652  24.346  34.599  1.00  0.00     0.059 A 
ATOM     88  C   UNL A   1      44.559  23.150  34.566  1.00  0.00     0.059 A 
ATOM     89  F   UNL A   1      43.255  23.091  32.659  1.00  0.00    -0.206 F 
ATOM     90  C   UNL A   1      45.666  23.616  35.261  1.00  0.00     0.060 A 
BRANCH  90  91
ATOM     91  S   UNL A   1      45.749  23.405  37.056  1.00  0.00     0.124 S 
ATOM     92  O   UNL A   1      47.066  23.947  37.364  1.00  0.00    -0.237 OA
ATOM     93  O   UNL A   1      44.610  24.195  37.512  1.00  0.00    -0.237 OA
ATOM     94  O   UNL A   1      45.610  21.961  37.233  1.00  0.00    -0.744 OA
ENDBRANCH  90  91
ENDBRANCH  58  83
BRANCH  70  95
ATOM     95  C   UNL A   1      45.830  27.778  27.243  1.00  0.00     0.058 A 
ATOM     96  C   UNL A   1      45.778  26.614  26.453  1.00  0.00     0.135 A 
ATOM     97  C   UNL A   1      46.911  28.645  27.021  1.00  0.00     0.135 A 
ATOM     98  F   UNL A   1      44.729  25.785  26.514  1.00  0.00    -0.206 F 
ATOM     99  C   UNL A   1      46.772  26.304  25.523  1.00  0.00     0.059 A 
ATOM    100  C   UNL A   1      47.896  28.374  26.075  1.00  0.00     0.059 A 
ATOM    101  F   UNL A   1      46.987  29.807  27.690  1.00  0.00    -0.206 F 
ATOM    102  C   UNL A   1      47.828  27.193  25.339  1.00  0.00     0.060 A 
BRANCH 102 103
ATOM    103  S   UNL A   1      49.075  26.830  24.086  1.00  0.00     0.124 S 
ATOM    104  O   UNL A   1      49.351  28.154  23.537  1.00  0.00    -0.237 OA
ATOM    105  O   UNL A   1      50.151  26.232  24.871  1.00  0.00    -0.237 OA
ATOM    106  O   UNL A   1      48.391  25.910  23.180  1.00  0.00    -0.744 OA
ENDBRANCH 102 103
ENDBRANCH  70  95
ENDBRANCH  44  45
ENDBRANCH  36  39
ENDBRANCH  34  35
ENDBRANCH  33  34
ENDBRANCH  32  33
ENDBRANCH   1  32
TORSDOF 20
ENDMDL
