MODEL 1
REMARK VINA RESULT:     -11.0      0.000      0.000
REMARK SMILES CCOc1ccc(-c2ccc(=O)n(CC(=O)NCCCCCCNC(=O)c3ccc(-c4c5nc(c(-c6c(F)cc(S(=O)(=O)[O-])cc6F)c6ccc([nH]6)c(-c6c(F)cc(S(=O)(=O)[O-])cc6F)c6nc(c(-c7c(F)cc(S(=O)(=O)[O-])cc7F)c7ccc4[nH]7)C=C6)C=C5)cc3)n2)cc1
REMARK SMILES IDX 20 1 19 2 18 3 17 4 15 5 16 6 14 8 13 9 8 10 9 11 93 12
REMARK SMILES IDX 10 13 11 14 12 15 7 16 4 17 5 18 95 19 6 20 94 21 3 22 2 23
REMARK SMILES IDX 1 24 21 25 22 26 23 27 24 28 25 29 26 31 27 32 28 33 92 34
REMARK SMILES IDX 29 35 91 36 30 37 31 38 32 39 85 40 33 41 90 42 84 43 86 44
REMARK SMILES IDX 34 45 89 46 83 47 82 48 35 50 69 51 48 52 68 53 49 54 52 55
REMARK SMILES IDX 67 56 87 57 50 58 51 59 66 61 88 62 53 63 36 64 37 65 46 66
REMARK SMILES IDX 38 67 39 68 45 69 47 70 40 71 41 72 42 73 43 74 44 75 70 76
REMARK SMILES IDX 71 77 80 78 72 79 73 80 79 81 81 82 74 83 75 84 76 85 77 86
REMARK SMILES IDX 78 87 54 88 55 89 64 90 56 91 57 92 63 93 65 94 58 95 59 96
REMARK SMILES IDX 60 97 61 98 62 99
REMARK H PARENT 17 7 24 30 86 49 52 60
REMARK Flexibility Score: inf
ROOT
ATOM      1  C   UNL A   1      38.809  21.647  25.869  1.00  0.00     0.002 C 
ENDROOT
BRANCH   1   2
ATOM      2  C   UNL A   1      38.125  23.007  25.677  1.00  0.00     0.021 C 
BRANCH   2   3
ATOM      3  C   UNL A   1      36.608  22.918  25.515  1.00  0.00     0.116 C 
BRANCH   3   4
ATOM      4  N   UNL A   1      36.200  23.164  24.147  1.00  0.00    -0.354 N 
ATOM      5  C   UNL A   1      35.059  22.777  23.502  1.00  0.00     0.241 C 
ATOM      6  O   UNL A   1      34.843  23.280  22.395  1.00  0.00    -0.273 OA
ATOM      7  H   UNL A   1      36.835  23.684  23.605  1.00  0.00     0.163 HD
BRANCH   5   8
ATOM      8  C   UNL A   1      34.003  21.909  24.198  1.00  0.00     0.248 C 
BRANCH   8   9
ATOM      9  N   UNL A   1      33.055  22.672  25.001  1.00  0.00    -0.220 N 
ATOM     10  C   UNL A   1      32.466  24.714  25.850  1.00  0.00     0.091 A 
ATOM     11  C   UNL A   1      31.328  24.146  26.596  1.00  0.00     0.036 A 
ATOM     12  N   UNL A   1      33.267  24.032  25.094  1.00  0.00    -0.169 NA
ATOM     13  C   UNL A   1      31.078  22.850  26.398  1.00  0.00     0.075 A 
ATOM     14  C   UNL A   1      31.945  22.028  25.526  1.00  0.00     0.267 A 
ATOM     15  O   UNL A   1      31.662  20.847  25.347  1.00  0.00    -0.268 OA
BRANCH  10  16
ATOM     16  C   UNL A   1      32.658  26.175  25.963  1.00  0.00     0.002 A 
ATOM     17  C   UNL A   1      32.916  28.937  26.175  1.00  0.00     0.119 A 
ATOM     18  C   UNL A   1      34.044  28.154  25.924  1.00  0.00     0.047 A 
ATOM     19  C   UNL A   1      31.656  28.349  26.267  1.00  0.00     0.047 A 
ATOM     20  C   UNL A   1      33.920  26.765  25.824  1.00  0.00     0.014 A 
ATOM     21  C   UNL A   1      31.525  26.967  26.169  1.00  0.00     0.014 A 
BRANCH  17  22
ATOM     22  O   UNL A   1      33.052  30.296  26.185  1.00  0.00    -0.494 OA
BRANCH  22  23
ATOM     23  C   UNL A   1      33.293  30.835  27.491  1.00  0.00     0.226 C 
ATOM     24  C   UNL A   1      34.776  31.060  27.748  1.00  0.00     0.049 C 
ENDBRANCH  22  23
ENDBRANCH  17  22
ENDBRANCH  10  16
ENDBRANCH   8   9
ENDBRANCH   5   8
ENDBRANCH   3   4
ENDBRANCH   2   3
ENDBRANCH   1   2
BRANCH   1  25
ATOM     25  C   UNL A   1      40.276  21.712  26.310  1.00  0.00     0.002 C 
BRANCH  25  26
ATOM     26  C   UNL A   1      40.523  22.447  27.630  1.00  0.00     0.021 C 
BRANCH  26  27
ATOM     27  C   UNL A   1      41.723  23.387  27.613  1.00  0.00     0.116 C 
BRANCH  27  28
ATOM     28  N   UNL A   1      41.804  24.146  26.373  1.00  0.00    -0.352 N 
ATOM     29  C   UNL A   1      41.484  25.459  26.138  1.00  0.00     0.251 C 
ATOM     30  H   UNL A   1      42.134  23.645  25.593  1.00  0.00     0.163 HD
ATOM     31  O   UNL A   1      41.412  25.875  24.982  1.00  0.00    -0.269 OA
BRANCH  29  32
ATOM     32  C   UNL A   1      41.212  26.367  27.271  1.00  0.00     0.039 A 
ATOM     33  C   UNL A   1      40.151  26.082  28.133  1.00  0.00     0.014 A 
ATOM     34  C   UNL A   1      42.001  27.503  27.480  1.00  0.00     0.014 A 
ATOM     35  C   UNL A   1      39.919  26.902  29.240  1.00  0.00     0.010 A 
ATOM     36  C   UNL A   1      41.817  28.272  28.625  1.00  0.00     0.010 A 
ATOM     37  C   UNL A   1      40.772  27.984  29.514  1.00  0.00    -0.014 A 
BRANCH  37  38
ATOM     38  C   UNL A   1      40.587  28.824  30.726  1.00  0.00     0.031 A 
ATOM     39  C   UNL A   1      39.525  29.889  30.757  1.00  0.00     0.074 A 
ATOM     40  C   UNL A   1      41.421  28.670  31.775  1.00  0.00     0.049 A 
ATOM     41  N   UNL A   1      39.250  30.756  31.696  1.00  0.00    -0.248 NA
ATOM     42  C   UNL A   1      38.675  30.013  29.560  1.00  0.00     0.031 C 
ATOM     43  C   UNL A   1      42.517  27.700  31.850  1.00  0.00     0.029 A 
ATOM     44  N   UNL A   1      41.482  29.330  32.976  1.00  0.00    -0.354 N 
ATOM     45  C   UNL A   1      38.214  31.539  31.200  1.00  0.00     0.074 A 
ATOM     46  C   UNL A   1      37.943  31.077  29.857  1.00  0.00     0.031 C 
ATOM     47  C   UNL A   1      43.118  27.808  33.044  1.00  0.00     0.029 A 
ATOM     48  C   UNL A   1      42.485  28.881  33.804  1.00  0.00     0.049 A 
ATOM     49  H   UNL A   1      40.866  30.058  33.224  1.00  0.00     0.167 HD
ATOM     50  C   UNL A   1      37.537  32.538  31.817  1.00  0.00     0.037 A 
ATOM     51  C   UNL A   1      42.855  29.290  35.033  1.00  0.00     0.037 A 
ATOM     52  C   UNL A   1      37.797  32.973  33.165  1.00  0.00     0.049 A 
ATOM     53  C   UNL A   1      42.097  30.412  35.690  1.00  0.00     0.074 A 
ATOM     54  C   UNL A   1      37.122  33.927  33.906  1.00  0.00     0.029 A 
ATOM     55  N   UNL A   1      38.820  32.493  33.970  1.00  0.00    -0.354 N 
ATOM     56  N   UNL A   1      41.071  31.091  35.236  1.00  0.00    -0.248 NA
ATOM     57  C   UNL A   1      42.546  30.822  37.029  1.00  0.00     0.031 C 
ATOM     58  C   UNL A   1      37.772  34.067  35.135  1.00  0.00     0.029 A 
ATOM     59  C   UNL A   1      38.815  33.155  35.188  1.00  0.00     0.049 A 
ATOM     60  H   UNL A   1      39.456  31.786  33.716  1.00  0.00     0.167 HD
ATOM     61  C   UNL A   1      40.729  31.985  36.246  1.00  0.00     0.074 A 
ATOM     62  C   UNL A   1      41.653  31.753  37.337  1.00  0.00     0.031 C 
ATOM     63  C   UNL A   1      39.737  32.910  36.270  1.00  0.00     0.037 A 
BRANCH  50  64
ATOM     64  C   UNL A   1      36.456  33.237  31.035  1.00  0.00     0.058 A 
ATOM     65  C   UNL A   1      35.096  33.100  31.360  1.00  0.00     0.135 A 
ATOM     66  C   UNL A   1      36.788  34.081  29.963  1.00  0.00     0.135 A 
ATOM     67  F   UNL A   1      34.719  32.297  32.368  1.00  0.00    -0.206 F 
ATOM     68  C   UNL A   1      34.104  33.742  30.626  1.00  0.00     0.059 A 
ATOM     69  C   UNL A   1      35.814  34.758  29.235  1.00  0.00     0.059 A 
ATOM     70  F   UNL A   1      38.071  34.251  29.608  1.00  0.00    -0.206 F 
ATOM     71  C   UNL A   1      34.473  34.568  29.563  1.00  0.00     0.060 A 
BRANCH  71  72
ATOM     72  S   UNL A   1      33.173  35.385  28.614  1.00  0.00     0.124 S 
ATOM     73  O   UNL A   1      33.953  36.283  27.767  1.00  0.00    -0.237 OA
ATOM     74  O   UNL A   1      32.535  34.265  27.930  1.00  0.00    -0.237 OA
ATOM     75  O   UNL A   1      32.362  36.037  29.637  1.00  0.00    -0.744 OA
ENDBRANCH  71  72
ENDBRANCH  50  64
BRANCH  51  76
ATOM     76  C   UNL A   1      43.977  28.613  35.738  1.00  0.00     0.058 A 
ATOM     77  C   UNL A   1      43.740  27.515  36.578  1.00  0.00     0.135 A 
ATOM     78  C   UNL A   1      45.306  29.037  35.579  1.00  0.00     0.135 A 
ATOM     79  F   UNL A   1      42.486  27.075  36.768  1.00  0.00    -0.206 F 
ATOM     80  C   UNL A   1      44.774  26.872  37.250  1.00  0.00     0.059 A 
ATOM     81  C   UNL A   1      46.361  28.393  36.218  1.00  0.00     0.059 A 
ATOM     82  F   UNL A   1      45.590  30.073  34.774  1.00  0.00    -0.206 F 
ATOM     83  C   UNL A   1      46.083  27.317  37.060  1.00  0.00     0.060 A 
BRANCH  83  84
ATOM     84  S   UNL A   1      47.421  26.444  37.901  1.00  0.00     0.124 S 
ATOM     85  O   UNL A   1      46.886  26.315  39.252  1.00  0.00    -0.237 OA
ATOM     86  O   UNL A   1      47.514  25.209  37.128  1.00  0.00    -0.237 OA
ATOM     87  O   UNL A   1      48.557  27.351  37.757  1.00  0.00    -0.744 OA
ENDBRANCH  83  84
ENDBRANCH  51  76
BRANCH  63  88
ATOM     88  C   UNL A   1      39.568  33.715  37.529  1.00  0.00     0.058 A 
ATOM     89  C   UNL A   1      38.727  33.296  38.572  1.00  0.00     0.135 A 
ATOM     90  C   UNL A   1      40.302  34.898  37.718  1.00  0.00     0.135 A 
ATOM     91  F   UNL A   1      37.997  32.176  38.443  1.00  0.00    -0.206 F 
ATOM     92  C   UNL A   1      38.601  34.031  39.746  1.00  0.00     0.059 A 
ATOM     93  C   UNL A   1      40.216  35.634  38.896  1.00  0.00     0.059 A 
ATOM     94  F   UNL A   1      41.130  35.340  36.758  1.00  0.00    -0.206 F 
ATOM     95  C   UNL A   1      39.354  35.198  39.900  1.00  0.00     0.060 A 
BRANCH  95  96
ATOM     96  S   UNL A   1      39.209  36.122  41.444  1.00  0.00     0.124 S 
ATOM     97  O   UNL A   1      37.978  35.573  42.002  1.00  0.00    -0.237 OA
ATOM     98  O   UNL A   1      40.438  35.757  42.141  1.00  0.00    -0.237 OA
ATOM     99  O   UNL A   1      39.134  37.512  41.002  1.00  0.00    -0.744 OA
ENDBRANCH  95  96
ENDBRANCH  63  88
ENDBRANCH  37  38
ENDBRANCH  29  32
ENDBRANCH  27  28
ENDBRANCH  26  27
ENDBRANCH  25  26
ENDBRANCH   1  25
TORSDOF 20
ENDMDL
MODEL 2
REMARK VINA RESULT:     -10.9      2.555      9.076
REMARK SMILES CCOc1ccc(-c2ccc(=O)n(CC(=O)NCCCCCCNC(=O)c3ccc(-c4c5nc(c(-c6c(F)cc(S(=O)(=O)[O-])cc6F)c6ccc([nH]6)c(-c6c(F)cc(S(=O)(=O)[O-])cc6F)c6nc(c(-c7c(F)cc(S(=O)(=O)[O-])cc7F)c7ccc4[nH]7)C=C6)C=C5)cc3)n2)cc1
REMARK SMILES IDX 20 1 19 2 18 3 17 4 15 5 16 6 14 8 13 9 8 10 9 11 93 12
REMARK SMILES IDX 10 13 11 14 12 15 7 16 4 17 5 18 95 19 6 20 94 21 3 22 2 23
REMARK SMILES IDX 1 24 21 25 22 26 23 27 24 28 25 29 26 31 27 32 28 33 92 34
REMARK SMILES IDX 29 35 91 36 30 37 31 38 32 39 85 40 33 41 90 42 84 43 86 44
REMARK SMILES IDX 34 45 89 46 83 47 82 48 35 50 69 51 48 52 68 53 49 54 52 55
REMARK SMILES IDX 67 56 87 57 50 58 51 59 66 61 88 62 53 63 36 64 37 65 46 66
REMARK SMILES IDX 38 67 39 68 45 69 47 70 40 71 41 72 42 73 43 74 44 75 70 76
REMARK SMILES IDX 71 77 80 78 72 79 73 80 79 81 81 82 74 83 75 84 76 85 77 86
REMARK SMILES IDX 78 87 54 88 55 89 64 90 56 91 57 92 63 93 65 94 58 95 59 96
REMARK SMILES IDX 60 97 61 98 62 99
REMARK H PARENT 17 7 24 30 86 49 52 60
REMARK Flexibility Score: inf
ROOT
ATOM      1  C   UNL A   1      31.598  29.993  25.298  1.00  0.00     0.002 C 
ENDROOT
BRANCH   1   2
ATOM      2  C   UNL A   1      31.346  28.481  25.216  1.00  0.00     0.021 C 
BRANCH   2   3
ATOM      3  C   UNL A   1      31.585  27.744  26.533  1.00  0.00     0.116 C 
BRANCH   3   4
ATOM      4  N   UNL A   1      30.906  26.463  26.560  1.00  0.00    -0.354 N 
ATOM      5  C   UNL A   1      31.434  25.205  26.500  1.00  0.00     0.241 C 
ATOM      6  O   UNL A   1      30.672  24.264  26.745  1.00  0.00    -0.273 OA
ATOM      7  H   UNL A   1      29.927  26.507  26.631  1.00  0.00     0.163 HD
BRANCH   5   8
ATOM      8  C   UNL A   1      32.941  24.977  26.325  1.00  0.00     0.248 C 
BRANCH   8   9
ATOM      9  N   UNL A   1      33.289  24.288  25.089  1.00  0.00    -0.220 N 
ATOM     10  C   UNL A   1      33.576  22.281  24.025  1.00  0.00     0.091 A 
ATOM     11  C   UNL A   1      34.034  22.933  22.784  1.00  0.00     0.036 A 
ATOM     12  N   UNL A   1      33.215  22.911  25.098  1.00  0.00    -0.169 NA
ATOM     13  C   UNL A   1      33.988  24.267  22.764  1.00  0.00     0.075 A 
ATOM     14  C   UNL A   1      33.561  25.035  23.953  1.00  0.00     0.267 A 
ATOM     15  O   UNL A   1      33.504  26.259  23.882  1.00  0.00    -0.268 OA
BRANCH  10  16
ATOM     16  C   UNL A   1      33.496  20.806  23.999  1.00  0.00     0.002 A 
ATOM     17  C   UNL A   1      33.255  18.036  23.903  1.00  0.00     0.119 A 
ATOM     18  C   UNL A   1      34.296  18.614  24.629  1.00  0.00     0.047 A 
ATOM     19  C   UNL A   1      32.306  18.837  23.269  1.00  0.00     0.047 A 
ATOM     20  C   UNL A   1      34.426  20.006  24.674  1.00  0.00     0.014 A 
ATOM     21  C   UNL A   1      32.429  20.223  23.310  1.00  0.00     0.014 A 
BRANCH  17  22
ATOM     22  O   UNL A   1      33.103  16.679  23.943  1.00  0.00    -0.494 OA
BRANCH  22  23
ATOM     23  C   UNL A   1      33.540  16.093  25.176  1.00  0.00     0.226 C 
ATOM     24  C   UNL A   1      32.508  15.128  25.743  1.00  0.00     0.049 C 
ENDBRANCH  22  23
ENDBRANCH  17  22
ENDBRANCH  10  16
ENDBRANCH   8   9
ENDBRANCH   5   8
ENDBRANCH   3   4
ENDBRANCH   2   3
ENDBRANCH   1   2
BRANCH   1  25
ATOM     25  C   UNL A   1      31.793  30.546  26.714  1.00  0.00     0.002 C 
BRANCH  25  26
ATOM     26  C   UNL A   1      31.621  32.061  26.847  1.00  0.00     0.021 C 
BRANCH  26  27
ATOM     27  C   UNL A   1      32.868  32.797  27.326  1.00  0.00     0.116 C 
BRANCH  27  28
ATOM     28  N   UNL A   1      32.582  34.181  27.677  1.00  0.00    -0.352 N 
ATOM     29  C   UNL A   1      33.089  34.938  28.703  1.00  0.00     0.251 C 
ATOM     30  H   UNL A   1      31.933  34.638  27.095  1.00  0.00     0.163 HD
ATOM     31  O   UNL A   1      32.575  36.022  28.977  1.00  0.00    -0.269 OA
BRANCH  29  32
ATOM     32  C   UNL A   1      34.239  34.444  29.486  1.00  0.00     0.039 A 
ATOM     33  C   UNL A   1      34.018  33.903  30.755  1.00  0.00     0.014 A 
ATOM     34  C   UNL A   1      35.538  34.517  28.971  1.00  0.00     0.014 A 
ATOM     35  C   UNL A   1      35.091  33.382  31.482  1.00  0.00     0.010 A 
ATOM     36  C   UNL A   1      36.591  33.927  29.662  1.00  0.00     0.010 A 
ATOM     37  C   UNL A   1      36.381  33.357  30.926  1.00  0.00    -0.014 A 
BRANCH  37  38
ATOM     38  C   UNL A   1      37.522  32.740  31.652  1.00  0.00     0.031 A 
ATOM     39  C   UNL A   1      38.225  31.540  31.078  1.00  0.00     0.074 A 
ATOM     40  C   UNL A   1      37.882  33.222  32.858  1.00  0.00     0.049 A 
ATOM     41  N   UNL A   1      39.198  30.830  31.588  1.00  0.00    -0.248 NA
ATOM     42  C   UNL A   1      37.753  31.056  29.770  1.00  0.00     0.031 C 
ATOM     43  C   UNL A   1      37.250  34.355  33.539  1.00  0.00     0.029 A 
ATOM     44  N   UNL A   1      38.861  32.817  33.731  1.00  0.00    -0.354 N 
ATOM     45  C   UNL A   1      39.442  29.808  30.677  1.00  0.00     0.074 A 
ATOM     46  C   UNL A   1      38.480  29.961  29.607  1.00  0.00     0.031 C 
ATOM     47  C   UNL A   1      37.878  34.573  34.705  1.00  0.00     0.029 A 
ATOM     48  C   UNL A   1      38.926  33.572  34.879  1.00  0.00     0.049 A 
ATOM     49  H   UNL A   1      39.461  32.057  33.552  1.00  0.00     0.167 HD
ATOM     50  C   UNL A   1      40.393  28.845  30.719  1.00  0.00     0.037 A 
ATOM     51  C   UNL A   1      39.734  33.466  35.951  1.00  0.00     0.037 A 
ATOM     52  C   UNL A   1      41.363  28.718  31.776  1.00  0.00     0.049 A 
ATOM     53  C   UNL A   1      40.773  32.377  35.981  1.00  0.00     0.074 A 
ATOM     54  C   UNL A   1      42.412  27.821  31.877  1.00  0.00     0.029 A 
ATOM     55  N   UNL A   1      41.396  29.501  32.921  1.00  0.00    -0.354 N 
ATOM     56  N   UNL A   1      41.038  31.466  35.076  1.00  0.00    -0.248 NA
ATOM     57  C   UNL A   1      41.623  32.304  37.177  1.00  0.00     0.031 C 
ATOM     58  C   UNL A   1      43.042  28.022  33.108  1.00  0.00     0.029 A 
ATOM     59  C   UNL A   1      42.428  29.087  33.749  1.00  0.00     0.049 A 
ATOM     60  H   UNL A   1      40.779  30.243  33.117  1.00  0.00     0.167 HD
ATOM     61  C   UNL A   1      42.109  30.732  35.578  1.00  0.00     0.074 A 
ATOM     62  C   UNL A   1      42.446  31.313  36.861  1.00  0.00     0.031 C 
ATOM     63  C   UNL A   1      42.758  29.678  35.023  1.00  0.00     0.037 A 
BRANCH  50  64
ATOM     64  C   UNL A   1      40.426  27.843  29.594  1.00  0.00     0.058 A 
ATOM     65  C   UNL A   1      39.487  26.802  29.498  1.00  0.00     0.135 A 
ATOM     66  C   UNL A   1      41.394  27.944  28.582  1.00  0.00     0.135 A 
ATOM     67  F   UNL A   1      38.546  26.650  30.442  1.00  0.00    -0.206 F 
ATOM     68  C   UNL A   1      39.532  25.876  28.461  1.00  0.00     0.059 A 
ATOM     69  C   UNL A   1      41.438  27.047  27.518  1.00  0.00     0.059 A 
ATOM     70  F   UNL A   1      42.316  28.919  28.622  1.00  0.00    -0.206 F 
ATOM     71  C   UNL A   1      40.513  26.005  27.477  1.00  0.00     0.060 A 
BRANCH  71  72
ATOM     72  S   UNL A   1      40.564  24.788  26.144  1.00  0.00     0.124 S 
ATOM     73  O   UNL A   1      39.178  24.329  26.117  1.00  0.00    -0.237 OA
ATOM     74  O   UNL A   1      40.987  25.594  25.003  1.00  0.00    -0.237 OA
ATOM     75  O   UNL A   1      41.539  23.809  26.614  1.00  0.00    -0.744 OA
ENDBRANCH  71  72
ENDBRANCH  50  64
BRANCH  51  76
ATOM     76  C   UNL A   1      39.616  34.438  37.073  1.00  0.00     0.058 A 
ATOM     77  C   UNL A   1      40.166  35.724  36.968  1.00  0.00     0.135 A 
ATOM     78  C   UNL A   1      38.944  34.110  38.261  1.00  0.00     0.135 A 
ATOM     79  F   UNL A   1      40.825  36.083  35.856  1.00  0.00    -0.206 F 
ATOM     80  C   UNL A   1      40.072  36.645  38.007  1.00  0.00     0.059 A 
ATOM     81  C   UNL A   1      38.811  35.023  39.302  1.00  0.00     0.059 A 
ATOM     82  F   UNL A   1      38.385  32.898  38.405  1.00  0.00    -0.206 F 
ATOM     83  C   UNL A   1      39.388  36.286  39.169  1.00  0.00     0.060 A 
BRANCH  83  84
ATOM     84  S   UNL A   1      39.232  37.506  40.490  1.00  0.00     0.124 S 
ATOM     85  O   UNL A   1      38.908  36.662  41.635  1.00  0.00    -0.237 OA
ATOM     86  O   UNL A   1      40.558  38.117  40.501  1.00  0.00    -0.237 OA
ATOM     87  O   UNL A   1      38.154  38.373  40.022  1.00  0.00    -0.744 OA
ENDBRANCH  83  84
ENDBRANCH  51  76
BRANCH  63  88
ATOM     88  C   UNL A   1      43.926  29.105  35.778  1.00  0.00     0.058 A 
ATOM     89  C   UNL A   1      43.787  28.002  36.635  1.00  0.00     0.135 A 
ATOM     90  C   UNL A   1      45.214  29.635  35.598  1.00  0.00     0.135 A 
ATOM     91  F   UNL A   1      42.577  27.460  36.849  1.00  0.00    -0.206 F 
ATOM     92  C   UNL A   1      44.879  27.460  37.305  1.00  0.00     0.059 A 
ATOM     93  C   UNL A   1      46.326  29.090  36.233  1.00  0.00     0.059 A 
ATOM     94  F   UNL A   1      45.406  30.683  34.782  1.00  0.00    -0.206 F 
ATOM     95  C   UNL A   1      46.146  28.008  37.094  1.00  0.00     0.060 A 
BRANCH  95  96
ATOM     96  S   UNL A   1      47.560  27.270  37.940  1.00  0.00     0.124 S 
ATOM     97  O   UNL A   1      48.221  28.448  38.491  1.00  0.00    -0.237 OA
ATOM     98  O   UNL A   1      46.916  26.392  38.911  1.00  0.00    -0.237 OA
ATOM     99  O   UNL A   1      48.280  26.589  36.868  1.00  0.00    -0.744 OA
ENDBRANCH  95  96
ENDBRANCH  63  88
ENDBRANCH  37  38
ENDBRANCH  29  32
ENDBRANCH  27  28
ENDBRANCH  26  27
ENDBRANCH  25  26
ENDBRANCH   1  25
TORSDOF 20
ENDMDL
MODEL 3
REMARK VINA RESULT:     -10.8      1.156      8.240
REMARK SMILES CCOc1ccc(-c2ccc(=O)n(CC(=O)NCCCCCCNC(=O)c3ccc(-c4c5nc(c(-c6c(F)cc(S(=O)(=O)[O-])cc6F)c6ccc([nH]6)c(-c6c(F)cc(S(=O)(=O)[O-])cc6F)c6nc(c(-c7c(F)cc(S(=O)(=O)[O-])cc7F)c7ccc4[nH]7)C=C6)C=C5)cc3)n2)cc1
REMARK SMILES IDX 20 1 19 2 18 3 17 4 15 5 16 6 14 8 13 9 8 10 9 11 93 12
REMARK SMILES IDX 10 13 11 14 12 15 7 16 4 17 5 18 95 19 6 20 94 21 3 22 2 23
REMARK SMILES IDX 1 24 21 25 22 26 23 27 24 28 25 29 26 31 27 32 28 33 92 34
REMARK SMILES IDX 29 35 91 36 30 37 31 38 32 39 85 40 33 41 90 42 84 43 86 44
REMARK SMILES IDX 34 45 89 46 83 47 82 48 35 50 69 51 48 52 68 53 49 54 52 55
REMARK SMILES IDX 67 56 87 57 50 58 51 59 66 61 88 62 53 63 36 64 37 65 46 66
REMARK SMILES IDX 38 67 39 68 45 69 47 70 40 71 41 72 42 73 43 74 44 75 70 76
REMARK SMILES IDX 71 77 80 78 72 79 73 80 79 81 81 82 74 83 75 84 76 85 77 86
REMARK SMILES IDX 78 87 54 88 55 89 64 90 56 91 57 92 63 93 65 94 58 95 59 96
REMARK SMILES IDX 60 97 61 98 62 99
REMARK H PARENT 17 7 24 30 86 49 52 60
REMARK Flexibility Score: inf
ROOT
ATOM      1  C   UNL A   1      35.593  22.762  25.190  1.00  0.00     0.002 C 
ENDROOT
BRANCH   1   2
ATOM      2  C   UNL A   1      34.855  23.153  26.478  1.00  0.00     0.021 C 
BRANCH   2   3
ATOM      3  C   UNL A   1      33.972  22.041  27.044  1.00  0.00     0.116 C 
BRANCH   3   4
ATOM      4  N   UNL A   1      32.723  22.562  27.561  1.00  0.00    -0.354 N 
ATOM      5  C   UNL A   1      31.513  22.684  26.937  1.00  0.00     0.241 C 
ATOM      6  O   UNL A   1      30.542  22.969  27.645  1.00  0.00    -0.273 OA
ATOM      7  H   UNL A   1      32.749  22.872  28.494  1.00  0.00     0.163 HD
BRANCH   5   8
ATOM      8  C   UNL A   1      31.332  22.301  25.463  1.00  0.00     0.248 C 
BRANCH   8   9
ATOM      9  N   UNL A   1      31.863  23.290  24.532  1.00  0.00    -0.220 N 
ATOM     10  C   UNL A   1      32.368  25.489  24.150  1.00  0.00     0.091 A 
ATOM     11  C   UNL A   1      32.781  25.218  22.760  1.00  0.00     0.036 A 
ATOM     12  N   UNL A   1      31.952  24.590  24.984  1.00  0.00    -0.169 NA
ATOM     13  C   UNL A   1      32.793  23.938  22.385  1.00  0.00     0.075 A 
ATOM     14  C   UNL A   1      32.351  22.868  23.304  1.00  0.00     0.267 A 
ATOM     15  O   UNL A   1      32.407  21.700  22.930  1.00  0.00    -0.268 OA
BRANCH  10  16
ATOM     16  C   UNL A   1      32.486  26.890  24.606  1.00  0.00     0.002 A 
ATOM     17  C   UNL A   1      32.810  29.512  25.479  1.00  0.00     0.119 A 
ATOM     18  C   UNL A   1      31.526  29.001  25.285  1.00  0.00     0.047 A 
ATOM     19  C   UNL A   1      33.928  28.701  25.288  1.00  0.00     0.047 A 
ATOM     20  C   UNL A   1      31.359  27.686  24.839  1.00  0.00     0.014 A 
ATOM     21  C   UNL A   1      33.768  27.392  24.844  1.00  0.00     0.014 A 
BRANCH  17  22
ATOM     22  O   UNL A   1      32.943  30.770  25.993  1.00  0.00    -0.494 OA
BRANCH  22  23
ATOM     23  C   UNL A   1      33.131  30.790  27.414  1.00  0.00     0.226 C 
ATOM     24  C   UNL A   1      34.585  31.033  27.791  1.00  0.00     0.049 C 
ENDBRANCH  22  23
ENDBRANCH  17  22
ENDBRANCH  10  16
ENDBRANCH   8   9
ENDBRANCH   5   8
ENDBRANCH   3   4
ENDBRANCH   2   3
ENDBRANCH   1   2
BRANCH   1  25
ATOM     25  C   UNL A   1      37.121  22.705  25.306  1.00  0.00     0.002 C 
BRANCH  25  26
ATOM     26  C   UNL A   1      37.704  23.419  26.528  1.00  0.00     0.021 C 
BRANCH  26  27
ATOM     27  C   UNL A   1      38.714  24.513  26.196  1.00  0.00     0.116 C 
BRANCH  27  28
ATOM     28  N   UNL A   1      40.085  24.025  26.257  1.00  0.00    -0.352 N 
ATOM     29  C   UNL A   1      41.167  24.559  26.910  1.00  0.00     0.251 C 
ATOM     30  H   UNL A   1      40.260  23.195  25.758  1.00  0.00     0.163 HD
ATOM     31  O   UNL A   1      42.297  24.130  26.677  1.00  0.00    -0.269 OA
BRANCH  29  32
ATOM     32  C   UNL A   1      40.976  25.656  27.880  1.00  0.00     0.039 A 
ATOM     33  C   UNL A   1      39.765  25.752  28.571  1.00  0.00     0.014 A 
ATOM     34  C   UNL A   1      41.989  26.594  28.105  1.00  0.00     0.014 A 
ATOM     35  C   UNL A   1      39.594  26.751  29.531  1.00  0.00     0.010 A 
ATOM     36  C   UNL A   1      41.844  27.540  29.116  1.00  0.00     0.010 A 
ATOM     37  C   UNL A   1      40.645  27.632  29.837  1.00  0.00    -0.014 A 
BRANCH  37  38
ATOM     38  C   UNL A   1      40.509  28.655  30.906  1.00  0.00     0.031 A 
ATOM     39  C   UNL A   1      41.363  28.576  32.143  1.00  0.00     0.074 A 
ATOM     40  C   UNL A   1      39.572  29.616  30.792  1.00  0.00     0.049 A 
ATOM     41  N   UNL A   1      41.349  29.338  33.207  1.00  0.00    -0.248 NA
ATOM     42  C   UNL A   1      42.342  27.479  32.205  1.00  0.00     0.031 C 
ATOM     43  C   UNL A   1      38.655  29.773  29.659  1.00  0.00     0.029 A 
ATOM     44  N   UNL A   1      39.227  30.639  31.639  1.00  0.00    -0.354 N 
ATOM     45  C   UNL A   1      42.300  28.804  34.069  1.00  0.00     0.074 A 
ATOM     46  C   UNL A   1      42.835  27.624  33.427  1.00  0.00     0.031 C 
ATOM     47  C   UNL A   1      37.878  30.847  29.868  1.00  0.00     0.029 A 
ATOM     48  C   UNL A   1      38.206  31.430  31.166  1.00  0.00     0.049 A 
ATOM     49  H   UNL A   1      39.670  30.794  32.505  1.00  0.00     0.167 HD
ATOM     50  C   UNL A   1      42.703  29.267  35.277  1.00  0.00     0.037 A 
ATOM     51  C   UNL A   1      37.599  32.499  31.716  1.00  0.00     0.037 A 
ATOM     52  C   UNL A   1      42.182  30.459  35.896  1.00  0.00     0.049 A 
ATOM     53  C   UNL A   1      38.055  32.985  33.066  1.00  0.00     0.074 A 
ATOM     54  C   UNL A   1      42.573  31.052  37.083  1.00  0.00     0.029 A 
ATOM     55  N   UNL A   1      41.149  31.231  35.386  1.00  0.00    -0.354 N 
ATOM     56  N   UNL A   1      39.007  32.512  33.835  1.00  0.00    -0.248 NA
ATOM     57  C   UNL A   1      37.355  34.152  33.622  1.00  0.00     0.031 C 
ATOM     58  C   UNL A   1      41.739  32.148  37.320  1.00  0.00     0.029 A 
ATOM     59  C   UNL A   1      40.867  32.278  36.250  1.00  0.00     0.049 A 
ATOM     60  H   UNL A   1      40.684  31.063  34.534  1.00  0.00     0.167 HD
ATOM     61  C   UNL A   1      39.044  33.344  34.949  1.00  0.00     0.074 A 
ATOM     62  C   UNL A   1      38.025  34.354  34.749  1.00  0.00     0.031 C 
ATOM     63  C   UNL A   1      39.853  33.281  36.037  1.00  0.00     0.037 A 
BRANCH  50  64
ATOM     64  C   UNL A   1      43.752  28.478  36.015  1.00  0.00     0.058 A 
ATOM     65  C   UNL A   1      43.420  27.401  36.854  1.00  0.00     0.135 A 
ATOM     66  C   UNL A   1      45.113  28.786  35.858  1.00  0.00     0.135 A 
ATOM     67  F   UNL A   1      42.134  27.069  37.052  1.00  0.00    -0.206 F 
ATOM     68  C   UNL A   1      44.396  26.685  37.541  1.00  0.00     0.059 A 
ATOM     69  C   UNL A   1      46.108  28.062  36.509  1.00  0.00     0.059 A 
ATOM     70  F   UNL A   1      45.490  29.803  35.068  1.00  0.00    -0.206 F 
ATOM     71  C   UNL A   1      45.737  27.024  37.363  1.00  0.00     0.060 A 
BRANCH  71  72
ATOM     72  S   UNL A   1      46.990  26.092  38.268  1.00  0.00     0.124 S 
ATOM     73  O   UNL A   1      46.302  24.824  38.495  1.00  0.00    -0.237 OA
ATOM     74  O   UNL A   1      48.096  26.051  37.317  1.00  0.00    -0.237 OA
ATOM     75  O   UNL A   1      47.222  26.901  39.461  1.00  0.00    -0.744 OA
ENDBRANCH  71  72
ENDBRANCH  50  64
BRANCH  51  76
ATOM     76  C   UNL A   1      36.516  33.205  30.978  1.00  0.00     0.058 A 
ATOM     77  C   UNL A   1      35.175  33.061  31.363  1.00  0.00     0.135 A 
ATOM     78  C   UNL A   1      36.796  34.044  29.888  1.00  0.00     0.135 A 
ATOM     79  F   UNL A   1      34.854  32.265  32.394  1.00  0.00    -0.206 F 
ATOM     80  C   UNL A   1      34.147  33.708  30.683  1.00  0.00     0.059 A 
ATOM     81  C   UNL A   1      35.790  34.723  29.211  1.00  0.00     0.059 A 
ATOM     82  F   UNL A   1      38.065  34.228  29.490  1.00  0.00    -0.206 F 
ATOM     83  C   UNL A   1      34.466  34.540  29.609  1.00  0.00     0.060 A 
BRANCH  83  84
ATOM     84  S   UNL A   1      33.127  35.410  28.766  1.00  0.00     0.124 S 
ATOM     85  O   UNL A   1      32.480  34.323  28.040  1.00  0.00    -0.237 OA
ATOM     86  O   UNL A   1      32.375  35.971  29.884  1.00  0.00    -0.237 OA
ATOM     87  O   UNL A   1      33.830  36.389  27.940  1.00  0.00    -0.744 OA
ENDBRANCH  83  84
ENDBRANCH  51  76
BRANCH  63  88
ATOM     88  C   UNL A   1      39.701  34.355  37.079  1.00  0.00     0.058 A 
ATOM     89  C   UNL A   1      38.828  34.213  38.169  1.00  0.00     0.135 A 
ATOM     90  C   UNL A   1      40.483  35.520  37.015  1.00  0.00     0.135 A 
ATOM     91  F   UNL A   1      38.052  33.123  38.277  1.00  0.00    -0.206 F 
ATOM     92  C   UNL A   1      38.718  35.199  39.145  1.00  0.00     0.059 A 
ATOM     93  C   UNL A   1      40.412  36.504  37.996  1.00  0.00     0.059 A 
ATOM     94  F   UNL A   1      41.342  35.703  36.000  1.00  0.00    -0.206 F 
ATOM     95  C   UNL A   1      39.518  36.340  39.052  1.00  0.00     0.060 A 
BRANCH  95  96
ATOM     96  S   UNL A   1      39.392  37.592  40.346  1.00  0.00     0.124 S 
ATOM     97  O   UNL A   1      39.145  36.772  41.527  1.00  0.00    -0.237 OA
ATOM     98  O   UNL A   1      40.700  38.236  40.283  1.00  0.00    -0.237 OA
ATOM     99  O   UNL A   1      38.271  38.419  39.910  1.00  0.00    -0.744 OA
ENDBRANCH  95  96
ENDBRANCH  63  88
ENDBRANCH  37  38
ENDBRANCH  29  32
ENDBRANCH  27  28
ENDBRANCH  26  27
ENDBRANCH  25  26
ENDBRANCH   1  25
TORSDOF 20
ENDMDL
