MODEL 1
REMARK VINA RESULT:     -12.1      0.000      0.000
REMARK SMILES Cc1ccc(NC(=O)C[C@@H](C(=O)NCCCCCCNC(=O)c2ccc(-c3c4nc(c(-c5c(F)cc(S(=O)(=O)[O-])cc5F)c5ccc([nH]5)c(-c5c(F)cc(S(=O)(=O)[O-])cc5F)c5nc(c(-c6c(F)cc(S(=O)(=O)[O-])cc6F)c6ccc3[nH]6)C=C5)C=C4)cc2)[NH+]2CCOCC2)cc1
REMARK SMILES IDX 16 1 15 2 14 3 13 4 11 5 12 6 10 8 9 9 7 10 6 11 8 13 5 14
REMARK SMILES IDX 1 15 2 16 3 17 96 18 4 19 95 20 89 21 90 22 94 23 91 25
REMARK SMILES IDX 93 26 92 27 17 28 18 29 19 30 20 31 21 32 22 34 23 35 24 36
REMARK SMILES IDX 88 37 25 38 87 39 26 40 27 41 28 42 81 43 29 44 86 45 80 46
REMARK SMILES IDX 82 47 30 48 85 49 79 50 78 51 31 53 65 54 44 55 64 56 45 57
REMARK SMILES IDX 48 58 63 59 83 60 46 61 47 62 62 64 84 65 49 66 32 67 33 68
REMARK SMILES IDX 42 69 34 70 35 71 41 72 43 73 36 74 37 75 38 76 39 77 40 78
REMARK SMILES IDX 66 79 67 80 76 81 68 82 69 83 75 84 77 85 70 86 71 87 72 88
REMARK SMILES IDX 73 89 74 90 50 91 51 92 60 93 52 94 53 95 59 96 61 97 54 98
REMARK SMILES IDX 55 99 56 100 57 101 58 102
REMARK H PARENT 13 7 6 12 89 24 20 33 82 52 48 63
REMARK Flexibility Score: inf
ROOT
ATOM      1  C   UNL A   1      34.367  23.885  26.083  1.00  0.00     0.002 C 
ENDROOT
BRANCH   1   2
ATOM      2  C   UNL A   1      34.027  23.012  27.307  1.00  0.00     0.021 C 
BRANCH   2   3
ATOM      3  C   UNL A   1      33.568  21.573  27.036  1.00  0.00     0.116 C 
BRANCH   3   4
ATOM      4  N   UNL A   1      34.601  20.772  26.414  1.00  0.00    -0.351 N 
ATOM      5  C   UNL A   1      34.757  20.213  25.188  1.00  0.00     0.278 C 
ATOM      6  O   UNL A   1      35.874  19.710  25.001  1.00  0.00    -0.268 OA
ATOM      7  H   UNL A   1      35.359  20.593  27.016  1.00  0.00     0.163 HD
BRANCH   5   8
ATOM      8  C   UNL A   1      33.677  20.285  24.049  1.00  0.00     0.283 C 
BRANCH   8   9
ATOM      9  C   UNL A   1      32.874  21.601  23.979  1.00  0.00     0.175 C 
BRANCH   9  10
ATOM     10  C   UNL A   1      32.109  21.959  22.732  1.00  0.00     0.230 C 
ATOM     11  N   UNL A   1      31.671  23.221  22.462  1.00  0.00    -0.326 N 
ATOM     12  H   UNL A   1      31.054  23.284  21.697  1.00  0.00     0.169 HD
ATOM     13  O   UNL A   1      31.876  21.073  21.900  1.00  0.00    -0.274 OA
BRANCH  11  14
ATOM     14  C   UNL A   1      31.950  24.448  23.086  1.00  0.00     0.041 A 
ATOM     15  C   UNL A   1      33.637  27.619  25.438  1.00  0.00     0.044 C 
ATOM     16  C   UNL A   1      32.992  26.615  24.534  1.00  0.00    -0.051 A 
ATOM     17  C   UNL A   1      31.772  26.039  24.898  1.00  0.00     0.005 A 
ATOM     18  C   UNL A   1      33.621  26.183  23.364  1.00  0.00     0.005 A 
ATOM     19  C   UNL A   1      31.248  24.969  24.169  1.00  0.00     0.026 A 
ATOM     20  C   UNL A   1      33.086  25.124  22.628  1.00  0.00     0.026 A 
ENDBRANCH  11  14
ENDBRANCH   9  10
ENDBRANCH   8   9
BRANCH   8  21
ATOM     21  N   UNL A   1      32.763  19.104  24.212  1.00  0.00    -0.320 N 
ATOM     22  C   UNL A   1      32.878  18.392  25.500  1.00  0.00     0.291 C 
ATOM     23  C   UNL A   1      32.535  18.153  23.118  1.00  0.00     0.291 C 
ATOM     24  H   UNL A   1      31.907  19.657  24.184  1.00  0.00     0.348 HD
ATOM     25  C   UNL A   1      33.772  17.145  25.450  1.00  0.00     0.221 C 
ATOM     26  C   UNL A   1      33.429  16.907  23.144  1.00  0.00     0.221 C 
ATOM     27  O   UNL A   1      33.369  16.246  24.412  1.00  0.00    -0.370 OA
ENDBRANCH   8  21
ENDBRANCH   5   8
ENDBRANCH   3   4
ENDBRANCH   2   3
ENDBRANCH   1   2
BRANCH   1  28
ATOM     28  C   UNL A   1      35.848  24.118  25.755  1.00  0.00     0.002 C 
BRANCH  28  29
ATOM     29  C   UNL A   1      36.415  23.415  24.520  1.00  0.00     0.021 C 
BRANCH  29  30
ATOM     30  C   UNL A   1      37.538  22.426  24.781  1.00  0.00     0.116 C 
BRANCH  30  31
ATOM     31  N   UNL A   1      37.935  22.214  26.160  1.00  0.00    -0.352 N 
ATOM     32  C   UNL A   1      39.259  22.526  26.473  1.00  0.00     0.251 C 
ATOM     33  H   UNL A   1      37.307  21.870  26.837  1.00  0.00     0.163 HD
ATOM     34  O   UNL A   1      40.223  21.804  26.248  1.00  0.00    -0.269 OA
BRANCH  32  35
ATOM     35  C   UNL A   1      39.442  23.962  26.777  1.00  0.00     0.039 A 
ATOM     36  C   UNL A   1      40.205  24.817  25.984  1.00  0.00     0.014 A 
ATOM     37  C   UNL A   1      38.948  24.377  28.016  1.00  0.00     0.014 A 
ATOM     38  C   UNL A   1      40.578  26.062  26.501  1.00  0.00     0.010 A 
ATOM     39  C   UNL A   1      39.390  25.559  28.558  1.00  0.00     0.010 A 
ATOM     40  C   UNL A   1      40.227  26.394  27.810  1.00  0.00    -0.014 A 
BRANCH  40  41
ATOM     41  C   UNL A   1      40.648  27.586  28.533  1.00  0.00     0.031 A 
ATOM     42  C   UNL A   1      39.759  28.769  28.568  1.00  0.00     0.074 A 
ATOM     43  C   UNL A   1      41.692  27.485  29.384  1.00  0.00     0.049 A 
ATOM     44  N   UNL A   1      40.069  29.896  29.115  1.00  0.00    -0.248 NA
ATOM     45  C   UNL A   1      38.442  28.791  27.929  1.00  0.00     0.031 C 
ATOM     46  C   UNL A   1      41.972  28.312  30.555  1.00  0.00     0.029 A 
ATOM     47  N   UNL A   1      42.848  26.724  29.213  1.00  0.00    -0.354 N 
ATOM     48  C   UNL A   1      38.917  30.641  29.197  1.00  0.00     0.074 A 
ATOM     49  C   UNL A   1      37.985  29.987  28.317  1.00  0.00     0.031 C 
ATOM     50  C   UNL A   1      43.275  28.211  30.858  1.00  0.00     0.029 A 
ATOM     51  C   UNL A   1      43.905  27.468  29.780  1.00  0.00     0.049 A 
ATOM     52  H   UNL A   1      42.915  25.841  28.783  1.00  0.00     0.167 HD
ATOM     53  C   UNL A   1      38.840  31.629  30.130  1.00  0.00     0.037 A 
ATOM     54  C   UNL A   1      44.900  27.970  28.985  1.00  0.00     0.037 A 
ATOM     55  C   UNL A   1      40.171  31.965  30.640  1.00  0.00     0.049 A 
ATOM     56  C   UNL A   1      44.988  29.480  28.980  1.00  0.00     0.074 A 
ATOM     57  C   UNL A   1      40.819  31.748  31.841  1.00  0.00     0.029 A 
ATOM     58  N   UNL A   1      41.142  32.405  29.740  1.00  0.00    -0.354 N 
ATOM     59  N   UNL A   1      44.041  30.274  29.402  1.00  0.00    -0.248 NA
ATOM     60  C   UNL A   1      46.151  30.216  28.494  1.00  0.00     0.031 C 
ATOM     61  C   UNL A   1      42.214  31.920  31.614  1.00  0.00     0.029 A 
ATOM     62  C   UNL A   1      42.403  32.302  30.294  1.00  0.00     0.049 A 
ATOM     63  H   UNL A   1      40.956  32.743  28.835  1.00  0.00     0.167 HD
ATOM     64  C   UNL A   1      44.415  31.578  29.217  1.00  0.00     0.074 A 
ATOM     65  C   UNL A   1      45.760  31.489  28.676  1.00  0.00     0.031 C 
ATOM     66  C   UNL A   1      43.586  32.626  29.506  1.00  0.00     0.037 A 
BRANCH  53  67
ATOM     67  C   UNL A   1      37.548  32.152  30.737  1.00  0.00     0.058 A 
ATOM     68  C   UNL A   1      36.835  33.197  30.107  1.00  0.00     0.135 A 
ATOM     69  C   UNL A   1      37.037  31.778  32.001  1.00  0.00     0.135 A 
ATOM     70  F   UNL A   1      37.220  33.670  28.911  1.00  0.00    -0.206 F 
ATOM     71  C   UNL A   1      35.724  33.823  30.688  1.00  0.00     0.059 A 
ATOM     72  C   UNL A   1      35.899  32.351  32.575  1.00  0.00     0.059 A 
ATOM     73  F   UNL A   1      37.652  30.891  32.790  1.00  0.00    -0.206 F 
ATOM     74  C   UNL A   1      35.264  33.395  31.927  1.00  0.00     0.060 A 
BRANCH  74  75
ATOM     75  S   UNL A   1      33.859  34.217  32.703  1.00  0.00     0.124 S 
ATOM     76  O   UNL A   1      33.250  34.904  31.570  1.00  0.00    -0.237 OA
ATOM     77  O   UNL A   1      33.101  33.097  33.253  1.00  0.00    -0.237 OA
ATOM     78  O   UNL A   1      34.483  35.087  33.698  1.00  0.00    -0.744 OA
ENDBRANCH  74  75
ENDBRANCH  53  67
BRANCH  54  79
ATOM     79  C   UNL A   1      45.212  27.073  27.832  1.00  0.00     0.058 A 
ATOM     80  C   UNL A   1      45.972  25.920  28.111  1.00  0.00     0.135 A 
ATOM     81  C   UNL A   1      44.382  27.045  26.702  1.00  0.00     0.135 A 
ATOM     82  F   UNL A   1      46.807  25.907  29.164  1.00  0.00    -0.206 F 
ATOM     83  C   UNL A   1      45.752  24.723  27.439  1.00  0.00     0.059 A 
ATOM     84  C   UNL A   1      44.162  25.857  26.001  1.00  0.00     0.059 A 
ATOM     85  F   UNL A   1      43.651  28.119  26.372  1.00  0.00    -0.206 F 
ATOM     86  C   UNL A   1      44.776  24.685  26.446  1.00  0.00     0.060 A 
BRANCH  86  87
ATOM     87  S   UNL A   1      44.192  23.062  25.896  1.00  0.00     0.124 S 
ATOM     88  O   UNL A   1      45.441  22.331  25.708  1.00  0.00    -0.237 OA
ATOM     89  O   UNL A   1      43.374  22.634  27.032  1.00  0.00    -0.237 OA
ATOM     90  O   UNL A   1      43.452  23.366  24.676  1.00  0.00    -0.744 OA
ENDBRANCH  86  87
ENDBRANCH  54  79
BRANCH  66  91
ATOM     91  C   UNL A   1      43.856  34.065  29.134  1.00  0.00     0.058 A 
ATOM     92  C   UNL A   1      43.839  34.552  27.814  1.00  0.00     0.135 A 
ATOM     93  C   UNL A   1      44.020  35.045  30.142  1.00  0.00     0.135 A 
ATOM     94  F   UNL A   1      43.564  33.745  26.779  1.00  0.00    -0.206 F 
ATOM     95  C   UNL A   1      44.063  35.895  27.507  1.00  0.00     0.059 A 
ATOM     96  C   UNL A   1      44.191  36.399  29.860  1.00  0.00     0.059 A 
ATOM     97  F   UNL A   1      44.015  34.714  31.442  1.00  0.00    -0.206 F 
ATOM     98  C   UNL A   1      44.246  36.812  28.537  1.00  0.00     0.060 A 
BRANCH  98  99
ATOM     99  S   UNL A   1      44.505  38.554  28.154  1.00  0.00     0.124 S 
ATOM    100  O   UNL A   1      44.610  39.132  29.490  1.00  0.00    -0.237 OA
ATOM    101  O   UNL A   1      45.741  38.539  27.377  1.00  0.00    -0.237 OA
ATOM    102  O   UNL A   1      43.306  38.910  27.402  1.00  0.00    -0.744 OA
ENDBRANCH  98  99
ENDBRANCH  66  91
ENDBRANCH  40  41
ENDBRANCH  32  35
ENDBRANCH  30  31
ENDBRANCH  29  30
ENDBRANCH  28  29
ENDBRANCH   1  28
TORSDOF 20
ENDMDL
MODEL 2
REMARK VINA RESULT:     -11.7      4.203     10.218
REMARK SMILES Cc1ccc(NC(=O)C[C@@H](C(=O)NCCCCCCNC(=O)c2ccc(-c3c4nc(c(-c5c(F)cc(S(=O)(=O)[O-])cc5F)c5ccc([nH]5)c(-c5c(F)cc(S(=O)(=O)[O-])cc5F)c5nc(c(-c6c(F)cc(S(=O)(=O)[O-])cc6F)c6ccc3[nH]6)C=C5)C=C4)cc2)[NH+]2CCOCC2)cc1
REMARK SMILES IDX 16 1 15 2 14 3 13 4 11 5 12 6 10 8 9 9 7 10 6 11 8 13 5 14
REMARK SMILES IDX 1 15 2 16 3 17 96 18 4 19 95 20 89 21 90 22 94 23 91 25
REMARK SMILES IDX 93 26 92 27 17 28 18 29 19 30 20 31 21 32 22 34 23 35 24 36
REMARK SMILES IDX 88 37 25 38 87 39 26 40 27 41 28 42 81 43 29 44 86 45 80 46
REMARK SMILES IDX 82 47 30 48 85 49 79 50 78 51 31 53 65 54 44 55 64 56 45 57
REMARK SMILES IDX 48 58 63 59 83 60 46 61 47 62 62 64 84 65 49 66 32 67 33 68
REMARK SMILES IDX 42 69 34 70 35 71 41 72 43 73 36 74 37 75 38 76 39 77 40 78
REMARK SMILES IDX 66 79 67 80 76 81 68 82 69 83 75 84 77 85 70 86 71 87 72 88
REMARK SMILES IDX 73 89 74 90 50 91 51 92 60 93 52 94 53 95 59 96 61 97 54 98
REMARK SMILES IDX 55 99 56 100 57 101 58 102
REMARK H PARENT 13 7 6 12 89 24 20 33 82 52 48 63
REMARK Flexibility Score: inf
ROOT
ATOM      1  C   UNL A   1      32.396  30.622  26.003  1.00  0.00     0.002 C 
ENDROOT
BRANCH   1   2
ATOM      2  C   UNL A   1      31.735  29.234  25.904  1.00  0.00     0.021 C 
BRANCH   2   3
ATOM      3  C   UNL A   1      32.218  28.155  26.883  1.00  0.00     0.116 C 
BRANCH   3   4
ATOM      4  N   UNL A   1      31.346  27.000  26.906  1.00  0.00    -0.351 N 
ATOM      5  C   UNL A   1      31.388  25.769  26.336  1.00  0.00     0.278 C 
ATOM      6  O   UNL A   1      30.496  25.002  26.724  1.00  0.00    -0.268 OA
ATOM      7  H   UNL A   1      30.542  27.139  27.457  1.00  0.00     0.163 HD
BRANCH   5   8
ATOM      8  C   UNL A   1      32.524  25.296  25.358  1.00  0.00     0.283 C 
BRANCH   8   9
ATOM      9  C   UNL A   1      32.090  25.085  23.892  1.00  0.00     0.175 C 
BRANCH   9  10
ATOM     10  C   UNL A   1      32.796  25.811  22.778  1.00  0.00     0.230 C 
ATOM     11  N   UNL A   1      32.307  26.943  22.198  1.00  0.00    -0.326 N 
ATOM     12  H   UNL A   1      32.785  27.224  21.384  1.00  0.00     0.169 HD
ATOM     13  O   UNL A   1      33.881  25.375  22.375  1.00  0.00    -0.274 OA
BRANCH  11  14
ATOM     14  C   UNL A   1      31.239  27.780  22.562  1.00  0.00     0.041 A 
ATOM     15  C   UNL A   1      27.488  29.855  22.802  1.00  0.00     0.044 C 
ATOM     16  C   UNL A   1      28.813  29.159  22.858  1.00  0.00    -0.051 A 
ATOM     17  C   UNL A   1      29.965  29.831  22.444  1.00  0.00     0.005 A 
ATOM     18  C   UNL A   1      28.914  27.822  23.247  1.00  0.00     0.005 A 
ATOM     19  C   UNL A   1      31.175  29.146  22.309  1.00  0.00     0.026 A 
ATOM     20  C   UNL A   1      30.128  27.144  23.128  1.00  0.00     0.026 A 
ENDBRANCH  11  14
ENDBRANCH   9  10
ENDBRANCH   8   9
BRANCH   8  21
ATOM     21  N   UNL A   1      33.125  24.044  25.929  1.00  0.00    -0.320 N 
ATOM     22  C   UNL A   1      34.598  23.967  25.868  1.00  0.00     0.291 C 
ATOM     23  C   UNL A   1      32.532  22.725  25.681  1.00  0.00     0.291 C 
ATOM     24  H   UNL A   1      32.815  24.231  26.883  1.00  0.00     0.348 HD
ATOM     25  C   UNL A   1      35.135  23.164  24.675  1.00  0.00     0.221 C 
ATOM     26  C   UNL A   1      33.137  21.952  24.503  1.00  0.00     0.221 C 
ATOM     27  O   UNL A   1      34.560  21.854  24.617  1.00  0.00    -0.370 OA
ENDBRANCH   8  21
ENDBRANCH   5   8
ENDBRANCH   3   4
ENDBRANCH   2   3
ENDBRANCH   1   2
BRANCH   1  28
ATOM     28  C   UNL A   1      32.629  31.210  27.401  1.00  0.00     0.002 C 
BRANCH  28  29
ATOM     29  C   UNL A   1      33.850  32.112  27.592  1.00  0.00     0.021 C 
BRANCH  29  30
ATOM     30  C   UNL A   1      35.020  31.491  28.334  1.00  0.00     0.116 C 
BRANCH  30  31
ATOM     31  N   UNL A   1      34.973  30.062  28.582  1.00  0.00    -0.352 N 
ATOM     32  C   UNL A   1      35.679  29.259  27.685  1.00  0.00     0.251 C 
ATOM     33  H   UNL A   1      34.472  29.680  29.339  1.00  0.00     0.163 HD
ATOM     34  O   UNL A   1      35.278  28.922  26.577  1.00  0.00    -0.269 OA
BRANCH  32  35
ATOM     35  C   UNL A   1      37.111  29.143  28.040  1.00  0.00     0.039 A 
ATOM     36  C   UNL A   1      38.142  29.373  27.131  1.00  0.00     0.014 A 
ATOM     37  C   UNL A   1      37.370  28.608  29.304  1.00  0.00     0.014 A 
ATOM     38  C   UNL A   1      39.434  28.945  27.455  1.00  0.00     0.010 A 
ATOM     39  C   UNL A   1      38.617  28.106  29.582  1.00  0.00     0.010 A 
ATOM     40  C   UNL A   1      39.647  28.252  28.647  1.00  0.00    -0.014 A 
BRANCH  40  41
ATOM     41  C   UNL A   1      40.897  27.632  29.064  1.00  0.00     0.031 A 
ATOM     42  C   UNL A   1      41.145  26.207  28.748  1.00  0.00     0.074 A 
ATOM     43  C   UNL A   1      41.908  28.433  29.466  1.00  0.00     0.049 A 
ATOM     44  N   UNL A   1      42.182  25.546  29.137  1.00  0.00    -0.248 NA
ATOM     45  C   UNL A   1      40.195  25.383  27.998  1.00  0.00     0.031 C 
ATOM     46  C   UNL A   1      43.340  28.150  29.428  1.00  0.00     0.029 A 
ATOM     47  N   UNL A   1      41.806  29.608  30.211  1.00  0.00    -0.354 N 
ATOM     48  C   UNL A   1      42.203  24.366  28.432  1.00  0.00     0.074 A 
ATOM     49  C   UNL A   1      40.885  24.245  27.867  1.00  0.00     0.031 C 
ATOM     50  C   UNL A   1      43.967  28.955  30.300  1.00  0.00     0.029 A 
ATOM     51  C   UNL A   1      42.935  29.644  31.057  1.00  0.00     0.049 A 
ATOM     52  H   UNL A   1      41.089  30.280  30.157  1.00  0.00     0.167 HD
ATOM     53  C   UNL A   1      43.389  23.715  28.277  1.00  0.00     0.037 A 
ATOM     54  C   UNL A   1      42.786  29.541  32.413  1.00  0.00     0.037 A 
ATOM     55  C   UNL A   1      44.384  24.217  29.226  1.00  0.00     0.049 A 
ATOM     56  C   UNL A   1      43.446  28.323  33.019  1.00  0.00     0.074 A 
ATOM     57  C   UNL A   1      45.518  24.997  29.102  1.00  0.00     0.029 A 
ATOM     58  N   UNL A   1      44.111  24.130  30.592  1.00  0.00    -0.354 N 
ATOM     59  N   UNL A   1      43.840  27.283  32.336  1.00  0.00    -0.248 NA
ATOM     60  C   UNL A   1      43.710  28.179  34.448  1.00  0.00     0.031 C 
ATOM     61  C   UNL A   1      45.838  25.499  30.395  1.00  0.00     0.029 A 
ATOM     62  C   UNL A   1      44.936  24.973  31.308  1.00  0.00     0.049 A 
ATOM     63  H   UNL A   1      43.425  23.548  30.990  1.00  0.00     0.167 HD
ATOM     64  C   UNL A   1      44.350  26.338  33.186  1.00  0.00     0.074 A 
ATOM     65  C   UNL A   1      44.278  26.962  34.496  1.00  0.00     0.031 C 
ATOM     66  C   UNL A   1      44.777  25.114  32.751  1.00  0.00     0.037 A 
BRANCH  53  67
ATOM     67  C   UNL A   1      43.716  22.771  27.131  1.00  0.00     0.058 A 
ATOM     68  C   UNL A   1      43.098  21.503  27.052  1.00  0.00     0.135 A 
ATOM     69  C   UNL A   1      44.730  22.984  26.169  1.00  0.00     0.135 A 
ATOM     70  F   UNL A   1      42.133  21.152  27.917  1.00  0.00    -0.206 F 
ATOM     71  C   UNL A   1      43.464  20.530  26.112  1.00  0.00     0.059 A 
ATOM     72  C   UNL A   1      45.075  22.051  25.189  1.00  0.00     0.059 A 
ATOM     73  F   UNL A   1      45.501  24.078  26.169  1.00  0.00    -0.206 F 
ATOM     74  C   UNL A   1      44.459  20.812  25.184  1.00  0.00     0.060 A 
BRANCH  74  75
ATOM     75  S   UNL A   1      44.968  19.557  23.993  1.00  0.00     0.124 S 
ATOM     76  O   UNL A   1      46.410  19.515  24.202  1.00  0.00    -0.237 OA
ATOM     77  O   UNL A   1      44.224  18.381  24.435  1.00  0.00    -0.237 OA
ATOM     78  O   UNL A   1      44.539  20.112  22.712  1.00  0.00    -0.744 OA
ENDBRANCH  74  75
ENDBRANCH  53  67
BRANCH  54  79
ATOM     79  C   UNL A   1      41.526  30.184  32.895  1.00  0.00     0.058 A 
ATOM     80  C   UNL A   1      41.479  31.591  32.868  1.00  0.00     0.135 A 
ATOM     81  C   UNL A   1      40.306  29.493  32.845  1.00  0.00     0.135 A 
ATOM     82  F   UNL A   1      42.619  32.301  32.946  1.00  0.00    -0.206 F 
ATOM     83  C   UNL A   1      40.304  32.275  32.578  1.00  0.00     0.059 A 
ATOM     84  C   UNL A   1      39.111  30.164  32.575  1.00  0.00     0.059 A 
ATOM     85  F   UNL A   1      40.285  28.153  32.889  1.00  0.00    -0.206 F 
ATOM     86  C   UNL A   1      39.145  31.540  32.343  1.00  0.00     0.060 A 
BRANCH  86  87
ATOM     87  S   UNL A   1      37.755  32.383  31.546  1.00  0.00     0.124 S 
ATOM     88  O   UNL A   1      37.475  33.468  32.480  1.00  0.00    -0.237 OA
ATOM     89  O   UNL A   1      38.340  32.787  30.266  1.00  0.00    -0.237 OA
ATOM     90  O   UNL A   1      36.733  31.345  31.463  1.00  0.00    -0.744 OA
ENDBRANCH  86  87
ENDBRANCH  54  79
BRANCH  66  91
ATOM     91  C   UNL A   1      45.152  23.962  33.653  1.00  0.00     0.058 A 
ATOM     92  C   UNL A   1      44.265  22.936  34.028  1.00  0.00     0.135 A 
ATOM     93  C   UNL A   1      46.492  23.792  34.075  1.00  0.00     0.135 A 
ATOM     94  F   UNL A   1      43.000  22.914  33.584  1.00  0.00    -0.206 F 
ATOM     95  C   UNL A   1      44.653  21.869  34.840  1.00  0.00     0.059 A 
ATOM     96  C   UNL A   1      46.913  22.707  34.840  1.00  0.00     0.059 A 
ATOM     97  F   UNL A   1      47.443  24.681  33.749  1.00  0.00    -0.206 F 
ATOM     98  C   UNL A   1      45.979  21.765  35.249  1.00  0.00     0.060 A 
BRANCH  98  99
ATOM     99  S   UNL A   1      46.498  20.375  36.271  1.00  0.00     0.124 S 
ATOM    100  O   UNL A   1      47.941  20.583  36.332  1.00  0.00    -0.237 OA
ATOM    101  O   UNL A   1      45.777  20.600  37.520  1.00  0.00    -0.237 OA
ATOM    102  O   UNL A   1      46.057  19.215  35.503  1.00  0.00    -0.744 OA
ENDBRANCH  98  99
ENDBRANCH  66  91
ENDBRANCH  40  41
ENDBRANCH  32  35
ENDBRANCH  30  31
ENDBRANCH  29  30
ENDBRANCH  28  29
ENDBRANCH   1  28
TORSDOF 20
ENDMDL
MODEL 3
REMARK VINA RESULT:     -11.7      3.850     10.075
REMARK SMILES Cc1ccc(NC(=O)C[C@@H](C(=O)NCCCCCCNC(=O)c2ccc(-c3c4nc(c(-c5c(F)cc(S(=O)(=O)[O-])cc5F)c5ccc([nH]5)c(-c5c(F)cc(S(=O)(=O)[O-])cc5F)c5nc(c(-c6c(F)cc(S(=O)(=O)[O-])cc6F)c6ccc3[nH]6)C=C5)C=C4)cc2)[NH+]2CCOCC2)cc1
REMARK SMILES IDX 16 1 15 2 14 3 13 4 11 5 12 6 10 8 9 9 7 10 6 11 8 13 5 14
REMARK SMILES IDX 1 15 2 16 3 17 96 18 4 19 95 20 89 21 90 22 94 23 91 25
REMARK SMILES IDX 93 26 92 27 17 28 18 29 19 30 20 31 21 32 22 34 23 35 24 36
REMARK SMILES IDX 88 37 25 38 87 39 26 40 27 41 28 42 81 43 29 44 86 45 80 46
REMARK SMILES IDX 82 47 30 48 85 49 79 50 78 51 31 53 65 54 44 55 64 56 45 57
REMARK SMILES IDX 48 58 63 59 83 60 46 61 47 62 62 64 84 65 49 66 32 67 33 68
REMARK SMILES IDX 42 69 34 70 35 71 41 72 43 73 36 74 37 75 38 76 39 77 40 78
REMARK SMILES IDX 66 79 67 80 76 81 68 82 69 83 75 84 77 85 70 86 71 87 72 88
REMARK SMILES IDX 73 89 74 90 50 91 51 92 60 93 52 94 53 95 59 96 61 97 54 98
REMARK SMILES IDX 55 99 56 100 57 101 58 102
REMARK H PARENT 13 7 6 12 89 24 20 33 82 52 48 63
REMARK Flexibility Score: inf
ROOT
ATOM      1  C   UNL A   1      32.597  28.366  24.573  1.00  0.00     0.002 C 
ENDROOT
BRANCH   1   2
ATOM      2  C   UNL A   1      33.737  27.483  25.115  1.00  0.00     0.021 C 
BRANCH   2   3
ATOM      3  C   UNL A   1      33.809  26.038  24.602  1.00  0.00     0.116 C 
BRANCH   3   4
ATOM      4  N   UNL A   1      34.019  25.083  25.671  1.00  0.00    -0.351 N 
ATOM      5  C   UNL A   1      34.260  23.749  25.715  1.00  0.00     0.278 C 
ATOM      6  O   UNL A   1      34.525  23.321  26.847  1.00  0.00    -0.268 OA
ATOM      7  H   UNL A   1      33.977  25.495  26.564  1.00  0.00     0.163 HD
BRANCH   5   8
ATOM      8  C   UNL A   1      34.318  22.827  24.444  1.00  0.00     0.283 C 
BRANCH   8   9
ATOM      9  C   UNL A   1      33.595  21.470  24.575  1.00  0.00     0.175 C 
BRANCH   9  10
ATOM     10  C   UNL A   1      32.644  21.009  23.503  1.00  0.00     0.230 C 
ATOM     11  N   UNL A   1      32.393  19.695  23.242  1.00  0.00    -0.326 N 
ATOM     12  H   UNL A   1      31.877  19.533  22.420  1.00  0.00     0.169 HD
ATOM     13  O   UNL A   1      32.044  21.858  22.833  1.00  0.00    -0.274 OA
BRANCH  11  14
ATOM     14  C   UNL A   1      32.745  18.531  23.946  1.00  0.00     0.041 A 
ATOM     15  C   UNL A   1      33.023  14.525  25.466  1.00  0.00     0.044 C 
ATOM     16  C   UNL A   1      33.062  15.941  24.979  1.00  0.00    -0.051 A 
ATOM     17  C   UNL A   1      32.519  16.958  25.769  1.00  0.00     0.005 A 
ATOM     18  C   UNL A   1      33.563  16.260  23.716  1.00  0.00     0.005 A 
ATOM     19  C   UNL A   1      32.374  18.250  25.257  1.00  0.00     0.026 A 
ATOM     20  C   UNL A   1      33.431  17.556  23.214  1.00  0.00     0.026 A 
ENDBRANCH  11  14
ENDBRANCH   9  10
ENDBRANCH   8   9
BRANCH   8  21
ATOM     21  N   UNL A   1      35.764  22.636  24.085  1.00  0.00    -0.320 N 
ATOM     22  C   UNL A   1      36.345  21.337  24.478  1.00  0.00     0.291 C 
ATOM     23  C   UNL A   1      36.747  23.711  24.259  1.00  0.00     0.291 C 
ATOM     24  H   UNL A   1      35.605  22.667  23.078  1.00  0.00     0.348 HD
ATOM     25  C   UNL A   1      37.125  21.374  25.800  1.00  0.00     0.221 C 
ATOM     26  C   UNL A   1      37.525  23.673  25.580  1.00  0.00     0.221 C 
ATOM     27  O   UNL A   1      38.130  22.393  25.793  1.00  0.00    -0.370 OA
ENDBRANCH   8  21
ENDBRANCH   5   8
ENDBRANCH   3   4
ENDBRANCH   2   3
ENDBRANCH   1   2
BRANCH   1  28
ATOM     28  C   UNL A   1      31.514  28.828  25.558  1.00  0.00     0.002 C 
BRANCH  28  29
ATOM     29  C   UNL A   1      31.855  30.000  26.481  1.00  0.00     0.021 C 
BRANCH  29  30
ATOM     30  C   UNL A   1      33.156  29.874  27.254  1.00  0.00     0.116 C 
BRANCH  30  31
ATOM     31  N   UNL A   1      34.229  30.789  26.910  1.00  0.00    -0.352 N 
ATOM     32  C   UNL A   1      34.968  31.299  27.979  1.00  0.00     0.251 C 
ATOM     33  H   UNL A   1      34.425  31.035  25.977  1.00  0.00     0.163 HD
ATOM     34  O   UNL A   1      34.617  32.227  28.696  1.00  0.00    -0.269 OA
BRANCH  32  35
ATOM     35  C   UNL A   1      36.055  30.386  28.398  1.00  0.00     0.039 A 
ATOM     36  C   UNL A   1      36.125  29.818  29.669  1.00  0.00     0.014 A 
ATOM     37  C   UNL A   1      37.115  30.267  27.496  1.00  0.00     0.014 A 
ATOM     38  C   UNL A   1      37.325  29.229  30.079  1.00  0.00     0.010 A 
ATOM     39  C   UNL A   1      38.319  29.772  27.931  1.00  0.00     0.010 A 
ATOM     40  C   UNL A   1      38.434  29.274  29.233  1.00  0.00    -0.014 A 
BRANCH  40  41
ATOM     41  C   UNL A   1      39.780  28.826  29.563  1.00  0.00     0.031 A 
ATOM     42  C   UNL A   1      40.199  27.451  29.208  1.00  0.00     0.074 A 
ATOM     43  C   UNL A   1      40.696  29.754  29.917  1.00  0.00     0.049 A 
ATOM     44  N   UNL A   1      41.338  26.935  29.521  1.00  0.00    -0.248 NA
ATOM     45  C   UNL A   1      39.324  26.513  28.502  1.00  0.00     0.031 C 
ATOM     46  C   UNL A   1      42.148  29.669  29.787  1.00  0.00     0.029 A 
ATOM     47  N   UNL A   1      40.482  30.898  30.687  1.00  0.00    -0.354 N 
ATOM     48  C   UNL A   1      41.475  25.775  28.796  1.00  0.00     0.074 A 
ATOM     49  C   UNL A   1      40.153  25.480  28.310  1.00  0.00     0.031 C 
ATOM     50  C   UNL A   1      42.713  30.545  30.633  1.00  0.00     0.029 A 
ATOM     51  C   UNL A   1      41.647  31.079  31.463  1.00  0.00     0.049 A 
ATOM     52  H   UNL A   1      39.679  31.466  30.688  1.00  0.00     0.167 HD
ATOM     53  C   UNL A   1      42.726  25.294  28.557  1.00  0.00     0.037 A 
ATOM     54  C   UNL A   1      41.598  30.945  32.824  1.00  0.00     0.037 A 
ATOM     55  C   UNL A   1      43.701  25.917  29.454  1.00  0.00     0.049 A 
ATOM     56  C   UNL A   1      42.454  29.823  33.368  1.00  0.00     0.074 A 
ATOM     57  C   UNL A   1      44.709  26.846  29.275  1.00  0.00     0.029 A 
ATOM     58  N   UNL A   1      43.528  25.782  30.831  1.00  0.00    -0.354 N 
ATOM     59  N   UNL A   1      42.942  28.853  32.644  1.00  0.00    -0.248 NA
ATOM     60  C   UNL A   1      42.823  29.703  34.776  1.00  0.00     0.031 C 
ATOM     61  C   UNL A   1      45.038  27.376  30.555  1.00  0.00     0.029 A 
ATOM     62  C   UNL A   1      44.275  26.723  31.511  1.00  0.00     0.049 A 
ATOM     63  H   UNL A   1      42.954  25.108  31.260  1.00  0.00     0.167 HD
ATOM     64  C   UNL A   1      43.627  27.978  33.445  1.00  0.00     0.074 A 
ATOM     65  C   UNL A   1      43.553  28.575  34.767  1.00  0.00     0.031 C 
ATOM     66  C   UNL A   1      44.188  26.828  32.963  1.00  0.00     0.037 A 
BRANCH  53  67
ATOM     67  C   UNL A   1      43.106  24.413  27.378  1.00  0.00     0.058 A 
ATOM     68  C   UNL A   1      43.328  23.030  27.562  1.00  0.00     0.135 A 
ATOM     69  C   UNL A   1      43.415  24.884  26.081  1.00  0.00     0.135 A 
ATOM     70  F   UNL A   1      43.100  22.448  28.750  1.00  0.00    -0.206 F 
ATOM     71  C   UNL A   1      43.825  22.194  26.552  1.00  0.00     0.059 A 
ATOM     72  C   UNL A   1      43.859  24.060  25.044  1.00  0.00     0.059 A 
ATOM     73  F   UNL A   1      43.378  26.183  25.761  1.00  0.00    -0.206 F 
ATOM     74  C   UNL A   1      44.091  22.720  25.294  1.00  0.00     0.060 A 
BRANCH  74  75
ATOM     75  S   UNL A   1      44.767  21.665  23.997  1.00  0.00     0.124 S 
ATOM     76  O   UNL A   1      46.202  21.836  24.190  1.00  0.00    -0.237 OA
ATOM     77  O   UNL A   1      44.229  20.352  24.344  1.00  0.00    -0.237 OA
ATOM     78  O   UNL A   1      44.228  22.248  22.771  1.00  0.00    -0.744 OA
ENDBRANCH  74  75
ENDBRANCH  53  67
BRANCH  54  79
ATOM     79  C   UNL A   1      40.295  31.405  33.393  1.00  0.00     0.058 A 
ATOM     80  C   UNL A   1      39.415  30.407  33.856  1.00  0.00     0.135 A 
ATOM     81  C   UNL A   1      40.167  32.688  33.944  1.00  0.00     0.135 A 
ATOM     82  F   UNL A   1      39.475  29.168  33.336  1.00  0.00    -0.206 F 
ATOM     83  C   UNL A   1      38.605  30.608  34.968  1.00  0.00     0.059 A 
ATOM     84  C   UNL A   1      39.344  32.917  35.049  1.00  0.00     0.059 A 
ATOM     85  F   UNL A   1      40.961  33.685  33.529  1.00  0.00    -0.206 F 
ATOM     86  C   UNL A   1      38.650  31.844  35.610  1.00  0.00     0.060 A 
BRANCH  86  87
ATOM     87  S   UNL A   1      37.952  31.956  37.277  1.00  0.00     0.124 S 
ATOM     88  O   UNL A   1      36.913  32.967  37.110  1.00  0.00    -0.237 OA
ATOM     89  O   UNL A   1      37.473  30.590  37.497  1.00  0.00    -0.237 OA
ATOM     90  O   UNL A   1      39.093  32.355  38.094  1.00  0.00    -0.744 OA
ENDBRANCH  86  87
ENDBRANCH  54  79
BRANCH  66  91
ATOM     91  C   UNL A   1      44.772  25.730  33.821  1.00  0.00     0.058 A 
ATOM     92  C   UNL A   1      44.007  24.893  34.654  1.00  0.00     0.135 A 
ATOM     93  C   UNL A   1      46.145  25.403  33.726  1.00  0.00     0.135 A 
ATOM     94  F   UNL A   1      42.674  25.018  34.730  1.00  0.00    -0.206 F 
ATOM     95  C   UNL A   1      44.575  23.867  35.412  1.00  0.00     0.059 A 
ATOM     96  C   UNL A   1      46.723  24.349  34.431  1.00  0.00     0.059 A 
ATOM     97  F   UNL A   1      46.973  26.100  32.934  1.00  0.00    -0.206 F 
ATOM     98  C   UNL A   1      45.937  23.606  35.300  1.00  0.00     0.060 A 
BRANCH  98  99
ATOM     99  S   UNL A   1      46.675  22.264  36.249  1.00  0.00     0.124 S 
ATOM    100  O   UNL A   1      45.918  21.115  35.763  1.00  0.00    -0.237 OA
ATOM    101  O   UNL A   1      48.077  22.309  35.843  1.00  0.00    -0.237 OA
ATOM    102  O   UNL A   1      46.419  22.654  37.631  1.00  0.00    -0.744 OA
ENDBRANCH  98  99
ENDBRANCH  66  91
ENDBRANCH  40  41
ENDBRANCH  32  35
ENDBRANCH  30  31
ENDBRANCH  29  30
ENDBRANCH  28  29
ENDBRANCH   1  28
TORSDOF 20
ENDMDL
