MODEL 1
REMARK VINA RESULT:     -12.0      0.000      0.000
REMARK SMILES COCC[C@@]1(C(=O)NCCCCCCNC(=O)c2ccc(-c3c4nc(c(-c5c(F)cc(S(=O)(=O)[O-])cc5F)c5ccc([nH]5)c(-c5c(F)cc(S(=O)(=O)[O-])cc5F)c5nc(c(-c6c(F)cc(S(=O)(=O)[O-])cc6F)c6ccc3[nH]6)C=C5)C=C4)cc2)CCC[N@@H+](Cc2cccc3c2OC(C)(C)C3)C1
REMARK SMILES IDX 11 1 10 2 9 3 8 4 6 5 7 6 5 8 84 9 100 10 85 11 87 12 86 13
REMARK SMILES IDX 4 15 3 16 2 17 1 18 88 19 89 20 90 21 94 22 91 23 93 24
REMARK SMILES IDX 95 25 92 26 99 27 96 28 97 29 98 30 12 31 13 32 14 33 15 34
REMARK SMILES IDX 16 35 17 37 18 38 19 39 83 40 20 41 82 42 21 43 22 44 23 45
REMARK SMILES IDX 76 46 24 47 81 48 75 49 77 50 25 51 80 52 74 53 73 54 26 56
REMARK SMILES IDX 60 57 39 58 59 59 40 60 43 61 58 62 78 63 41 64 42 65 57 67
REMARK SMILES IDX 79 68 44 69 27 70 28 71 37 72 29 73 30 74 36 75 38 76 31 77
REMARK SMILES IDX 32 78 33 79 34 80 35 81 61 82 62 83 71 84 63 85 64 86 70 87
REMARK SMILES IDX 72 88 65 89 66 90 67 91 68 92 69 93 45 94 46 95 55 96 47 97
REMARK SMILES IDX 48 98 54 99 56 100 49 101 50 102 51 103 52 104 53 105
REMARK H PARENT 8 7 87 14 15 36 77 55 43 66
REMARK Flexibility Score: inf
ROOT
ATOM      1  C   UNL A   1      33.896  29.211  26.447  1.00  0.00     0.002 C 
ENDROOT
BRANCH   1   2
ATOM      2  C   UNL A   1      33.156  28.184  27.310  1.00  0.00     0.021 C 
BRANCH   2   3
ATOM      3  C   UNL A   1      31.626  28.287  27.213  1.00  0.00     0.116 C 
BRANCH   3   4
ATOM      4  N   UNL A   1      31.042  26.979  27.002  1.00  0.00    -0.355 N 
ATOM      5  C   UNL A   1      30.596  26.325  25.898  1.00  0.00     0.232 C 
ATOM      6  O   UNL A   1      29.865  25.359  26.152  1.00  0.00    -0.274 OA
ATOM      7  H   UNL A   1      30.951  26.455  27.830  1.00  0.00     0.163 HD
BRANCH   5   8
ATOM      8  C   UNL A   1      31.004  26.675  24.429  1.00  0.00     0.100 C 
ATOM      9  C   UNL A   1      30.071  25.831  23.504  1.00  0.00     0.029 C 
ATOM     10  C   UNL A   1      32.532  26.268  24.250  1.00  0.00     0.279 C 
ATOM     11  C   UNL A   1      30.509  24.393  23.313  1.00  0.00     0.063 C 
ATOM     12  N   UNL A   1      32.882  24.918  23.751  1.00  0.00    -0.330 N 
ATOM     13  C   UNL A   1      31.937  24.356  22.794  1.00  0.00     0.262 C 
ATOM     14  H   UNL A   1      32.773  24.341  24.585  1.00  0.00     0.348 HD
BRANCH   8  15
ATOM     15  C   UNL A   1      30.620  28.169  24.076  1.00  0.00     0.051 C 
BRANCH  15  16
ATOM     16  C   UNL A   1      30.852  28.699  22.655  1.00  0.00     0.161 C 
BRANCH  16  17
ATOM     17  O   UNL A   1      29.629  29.050  22.005  1.00  0.00    -0.385 OA
ATOM     18  C   UNL A   1      28.508  29.081  22.868  1.00  0.00     0.194 C 
ENDBRANCH  16  17
ENDBRANCH  15  16
ENDBRANCH   8  15
BRANCH  12  19
ATOM     19  C   UNL A   1      34.332  24.714  23.379  1.00  0.00     0.303 C 
BRANCH  19  20
ATOM     20  C   UNL A   1      34.958  23.356  23.696  1.00  0.00     0.049 A 
ATOM     21  C   UNL A   1      36.312  23.116  23.441  1.00  0.00     0.013 A 
ATOM     22  C   UNL A   1      34.335  22.392  24.471  1.00  0.00     0.132 A 
ATOM     23  C   UNL A   1      37.016  22.153  24.185  1.00  0.00     0.001 A 
ATOM     24  C   UNL A   1      35.031  21.628  25.384  1.00  0.00    -0.001 A 
ATOM     25  O   UNL A   1      33.131  21.777  24.180  1.00  0.00    -0.487 OA
ATOM     26  C   UNL A   1      36.395  21.486  25.247  1.00  0.00     0.008 A 
ATOM     27  C   UNL A   1      34.044  21.004  26.298  1.00  0.00     0.087 C 
ATOM     28  C   UNL A   1      32.861  20.889  25.317  1.00  0.00     0.108 C 
ATOM     29  C   UNL A   1      32.732  19.381  25.022  1.00  0.00     0.057 C 
ATOM     30  C   UNL A   1      31.507  21.426  25.786  1.00  0.00     0.057 C 
ENDBRANCH  19  20
ENDBRANCH  12  19
ENDBRANCH   5   8
ENDBRANCH   3   4
ENDBRANCH   2   3
ENDBRANCH   1   2
BRANCH   1  31
ATOM     31  C   UNL A   1      35.101  29.861  27.134  1.00  0.00     0.002 C 
BRANCH  31  32
ATOM     32  C   UNL A   1      34.818  31.239  27.740  1.00  0.00     0.021 C 
BRANCH  32  33
ATOM     33  C   UNL A   1      35.927  31.752  28.651  1.00  0.00     0.116 C 
BRANCH  33  34
ATOM     34  N   UNL A   1      35.723  31.314  30.024  1.00  0.00    -0.352 N 
ATOM     35  C   UNL A   1      36.485  30.459  30.771  1.00  0.00     0.251 C 
ATOM     36  H   UNL A   1      34.930  31.682  30.476  1.00  0.00     0.163 HD
ATOM     37  O   UNL A   1      36.021  29.957  31.802  1.00  0.00    -0.269 OA
BRANCH  35  38
ATOM     38  C   UNL A   1      37.858  30.139  30.343  1.00  0.00     0.039 A 
ATOM     39  C   UNL A   1      38.844  29.916  31.304  1.00  0.00     0.014 A 
ATOM     40  C   UNL A   1      38.169  30.071  28.980  1.00  0.00     0.014 A 
ATOM     41  C   UNL A   1      40.136  29.578  30.899  1.00  0.00     0.010 A 
ATOM     42  C   UNL A   1      39.434  29.657  28.581  1.00  0.00     0.010 A 
ATOM     43  C   UNL A   1      40.434  29.418  29.535  1.00  0.00    -0.014 A 
BRANCH  43  44
ATOM     44  C   UNL A   1      41.788  29.012  29.086  1.00  0.00     0.031 A 
ATOM     45  C   UNL A   1      42.898  30.027  29.027  1.00  0.00     0.074 A 
ATOM     46  C   UNL A   1      41.998  27.748  28.674  1.00  0.00     0.049 A 
ATOM     47  N   UNL A   1      44.127  29.882  28.604  1.00  0.00    -0.248 NA
ATOM     48  C   UNL A   1      42.576  31.392  29.477  1.00  0.00     0.031 C 
ATOM     49  C   UNL A   1      40.985  26.690  28.639  1.00  0.00     0.029 A 
ATOM     50  N   UNL A   1      43.130  27.137  28.195  1.00  0.00    -0.354 N 
ATOM     51  C   UNL A   1      44.719  31.133  28.725  1.00  0.00     0.074 A 
ATOM     52  C   UNL A   1      43.700  32.040  29.206  1.00  0.00     0.031 C 
ATOM     53  C   UNL A   1      41.547  25.557  28.186  1.00  0.00     0.029 A 
ATOM     54  C   UNL A   1      42.945  25.816  27.858  1.00  0.00     0.049 A 
ATOM     55  H   UNL A   1      43.993  27.601  28.100  1.00  0.00     0.167 HD
ATOM     56  C   UNL A   1      46.003  31.489  28.479  1.00  0.00     0.037 A 
ATOM     57  C   UNL A   1      43.802  24.920  27.334  1.00  0.00     0.037 A 
ATOM     58  C   UNL A   1      47.014  30.572  28.018  1.00  0.00     0.049 A 
ATOM     59  C   UNL A   1      45.221  25.339  27.063  1.00  0.00     0.074 A 
ATOM     60  C   UNL A   1      48.358  30.816  27.796  1.00  0.00     0.029 A 
ATOM     61  N   UNL A   1      46.793  29.239  27.706  1.00  0.00    -0.354 N 
ATOM     62  N   UNL A   1      45.784  26.510  27.247  1.00  0.00    -0.248 NA
ATOM     63  C   UNL A   1      46.125  24.317  26.521  1.00  0.00     0.031 C 
ATOM     64  C   UNL A   1      48.936  29.646  27.296  1.00  0.00     0.029 A 
ATOM     65  C   UNL A   1      47.969  28.654  27.267  1.00  0.00     0.049 A 
ATOM     66  H   UNL A   1      45.928  28.775  27.786  1.00  0.00     0.167 HD
ATOM     67  C   UNL A   1      47.113  26.357  26.871  1.00  0.00     0.074 A 
ATOM     68  C   UNL A   1      47.274  24.977  26.461  1.00  0.00     0.031 C 
ATOM     69  C   UNL A   1      48.113  27.274  26.868  1.00  0.00     0.037 A 
BRANCH  56  70
ATOM     70  C   UNL A   1      46.387  32.927  28.701  1.00  0.00     0.058 A 
ATOM     71  C   UNL A   1      46.857  33.385  29.942  1.00  0.00     0.135 A 
ATOM     72  C   UNL A   1      46.323  33.854  27.646  1.00  0.00     0.135 A 
ATOM     73  F   UNL A   1      46.925  32.548  30.991  1.00  0.00    -0.206 F 
ATOM     74  C   UNL A   1      47.219  34.713  30.140  1.00  0.00     0.059 A 
ATOM     75  C   UNL A   1      46.712  35.180  27.813  1.00  0.00     0.059 A 
ATOM     76  F   UNL A   1      45.881  33.473  26.438  1.00  0.00    -0.206 F 
ATOM     77  C   UNL A   1      47.146  35.604  29.068  1.00  0.00     0.060 A 
BRANCH  77  78
ATOM     78  S   UNL A   1      47.631  37.320  29.340  1.00  0.00     0.124 S 
ATOM     79  O   UNL A   1      46.462  38.036  28.838  1.00  0.00    -0.237 OA
ATOM     80  O   UNL A   1      47.828  37.363  30.785  1.00  0.00    -0.237 OA
ATOM     81  O   UNL A   1      48.843  37.463  28.539  1.00  0.00    -0.744 OA
ENDBRANCH  77  78
ENDBRANCH  56  70
BRANCH  57  82
ATOM     82  C   UNL A   1      43.344  23.533  27.050  1.00  0.00     0.058 A 
ATOM     83  C   UNL A   1      43.088  23.108  25.738  1.00  0.00     0.135 A 
ATOM     84  C   UNL A   1      43.169  22.598  28.084  1.00  0.00     0.135 A 
ATOM     85  F   UNL A   1      43.236  23.964  24.716  1.00  0.00    -0.206 F 
ATOM     86  C   UNL A   1      42.659  21.814  25.460  1.00  0.00     0.059 A 
ATOM     87  C   UNL A   1      42.768  21.291  27.829  1.00  0.00     0.059 A 
ATOM     88  F   UNL A   1      43.417  22.948  29.356  1.00  0.00    -0.206 F 
ATOM     89  C   UNL A   1      42.505  20.911  26.514  1.00  0.00     0.060 A 
BRANCH  89  90
ATOM     90  S   UNL A   1      41.993  19.221  26.137  1.00  0.00     0.124 S 
ATOM     91  O   UNL A   1      40.558  19.384  25.943  1.00  0.00    -0.237 OA
ATOM     92  O   UNL A   1      42.773  18.927  24.939  1.00  0.00    -0.237 OA
ATOM     93  O   UNL A   1      42.389  18.478  27.331  1.00  0.00    -0.744 OA
ENDBRANCH  89  90
ENDBRANCH  57  82
BRANCH  69  94
ATOM     94  C   UNL A   1      49.480  26.811  26.444  1.00  0.00     0.058 A 
ATOM     95  C   UNL A   1      50.371  26.207  27.346  1.00  0.00     0.135 A 
ATOM     96  C   UNL A   1      49.880  26.922  25.102  1.00  0.00     0.135 A 
ATOM     97  F   UNL A   1      50.041  26.081  28.640  1.00  0.00    -0.206 F 
ATOM     98  C   UNL A   1      51.619  25.752  26.936  1.00  0.00     0.059 A 
ATOM     99  C   UNL A   1      51.110  26.444  24.664  1.00  0.00     0.059 A 
ATOM    100  F   UNL A   1      49.062  27.481  24.196  1.00  0.00    -0.206 F 
ATOM    101  C   UNL A   1      51.979  25.871  25.592  1.00  0.00     0.060 A 
BRANCH 101 102
ATOM    102  S   UNL A   1      53.588  25.243  25.069  1.00  0.00     0.124 S 
ATOM    103  O   UNL A   1      53.642  25.692  23.682  1.00  0.00    -0.237 OA
ATOM    104  O   UNL A   1      54.499  25.915  25.988  1.00  0.00    -0.237 OA
ATOM    105  O   UNL A   1      53.468  23.800  25.257  1.00  0.00    -0.744 OA
ENDBRANCH 101 102
ENDBRANCH  69  94
ENDBRANCH  43  44
ENDBRANCH  35  38
ENDBRANCH  33  34
ENDBRANCH  32  33
ENDBRANCH  31  32
ENDBRANCH   1  31
TORSDOF 21
ENDMDL
MODEL 2
REMARK VINA RESULT:     -11.7      6.045     11.707
REMARK SMILES COCC[C@@]1(C(=O)NCCCCCCNC(=O)c2ccc(-c3c4nc(c(-c5c(F)cc(S(=O)(=O)[O-])cc5F)c5ccc([nH]5)c(-c5c(F)cc(S(=O)(=O)[O-])cc5F)c5nc(c(-c6c(F)cc(S(=O)(=O)[O-])cc6F)c6ccc3[nH]6)C=C5)C=C4)cc2)CCC[N@@H+](Cc2cccc3c2OC(C)(C)C3)C1
REMARK SMILES IDX 11 1 10 2 9 3 8 4 6 5 7 6 5 8 84 9 100 10 85 11 87 12 86 13
REMARK SMILES IDX 4 15 3 16 2 17 1 18 88 19 89 20 90 21 94 22 91 23 93 24
REMARK SMILES IDX 95 25 92 26 99 27 96 28 97 29 98 30 12 31 13 32 14 33 15 34
REMARK SMILES IDX 16 35 17 37 18 38 19 39 83 40 20 41 82 42 21 43 22 44 23 45
REMARK SMILES IDX 76 46 24 47 81 48 75 49 77 50 25 51 80 52 74 53 73 54 26 56
REMARK SMILES IDX 60 57 39 58 59 59 40 60 43 61 58 62 78 63 41 64 42 65 57 67
REMARK SMILES IDX 79 68 44 69 27 70 28 71 37 72 29 73 30 74 36 75 38 76 31 77
REMARK SMILES IDX 32 78 33 79 34 80 35 81 61 82 62 83 71 84 63 85 64 86 70 87
REMARK SMILES IDX 72 88 65 89 66 90 67 91 68 92 69 93 45 94 46 95 55 96 47 97
REMARK SMILES IDX 48 98 54 99 56 100 49 101 50 102 51 103 52 104 53 105
REMARK H PARENT 8 7 87 14 15 36 77 55 43 66
REMARK Flexibility Score: inf
ROOT
ATOM      1  C   UNL A   1      39.448  22.255  26.483  1.00  0.00     0.002 C 
ENDROOT
BRANCH   1   2
ATOM      2  C   UNL A   1      38.910  23.688  26.420  1.00  0.00     0.021 C 
BRANCH   2   3
ATOM      3  C   UNL A   1      37.427  23.770  26.023  1.00  0.00     0.116 C 
BRANCH   3   4
ATOM      4  N   UNL A   1      37.270  23.552  24.601  1.00  0.00    -0.355 N 
ATOM      5  C   UNL A   1      36.211  23.209  23.822  1.00  0.00     0.232 C 
ATOM      6  O   UNL A   1      36.530  22.796  22.699  1.00  0.00    -0.274 OA
ATOM      7  H   UNL A   1      38.103  23.680  24.092  1.00  0.00     0.163 HD
BRANCH   5   8
ATOM      8  C   UNL A   1      34.711  23.377  24.233  1.00  0.00     0.100 C 
ATOM      9  C   UNL A   1      33.888  22.470  23.263  1.00  0.00     0.029 C 
ATOM     10  C   UNL A   1      34.339  24.913  24.057  1.00  0.00     0.279 C 
ATOM     11  C   UNL A   1      33.615  23.088  21.906  1.00  0.00     0.063 C 
ATOM     12  N   UNL A   1      33.772  25.394  22.776  1.00  0.00    -0.330 N 
ATOM     13  C   UNL A   1      32.926  24.431  22.083  1.00  0.00     0.262 C 
ATOM     14  H   UNL A   1      34.601  25.474  22.186  1.00  0.00     0.348 HD
BRANCH   8  15
ATOM     15  C   UNL A   1      34.440  22.737  25.655  1.00  0.00     0.051 C 
BRANCH  15  16
ATOM     16  C   UNL A   1      34.635  21.229  25.860  1.00  0.00     0.161 C 
BRANCH  16  17
ATOM     17  O   UNL A   1      33.435  20.583  26.285  1.00  0.00    -0.385 OA
ATOM     18  C   UNL A   1      32.931  19.638  25.360  1.00  0.00     0.194 C 
ENDBRANCH  16  17
ENDBRANCH  15  16
ENDBRANCH   8  15
BRANCH  12  19
ATOM     19  C   UNL A   1      33.223  26.800  22.791  1.00  0.00     0.303 C 
BRANCH  19  20
ATOM     20  C   UNL A   1      32.091  27.105  23.772  1.00  0.00     0.049 A 
ATOM     21  C   UNL A   1      30.846  26.480  23.645  1.00  0.00     0.013 A 
ATOM     22  C   UNL A   1      32.278  27.784  24.965  1.00  0.00     0.132 A 
ATOM     23  C   UNL A   1      30.020  26.305  24.768  1.00  0.00     0.001 A 
ATOM     24  C   UNL A   1      31.627  27.417  26.123  1.00  0.00    -0.001 A 
ATOM     25  O   UNL A   1      32.747  29.079  25.091  1.00  0.00    -0.487 OA
ATOM     26  C   UNL A   1      30.469  26.674  26.042  1.00  0.00     0.008 A 
ATOM     27  C   UNL A   1      32.327  28.062  27.260  1.00  0.00     0.087 C 
ATOM     28  C   UNL A   1      32.831  29.326  26.536  1.00  0.00     0.108 C 
ATOM     29  C   UNL A   1      31.982  30.479  27.107  1.00  0.00     0.057 C 
ATOM     30  C   UNL A   1      34.313  29.674  26.682  1.00  0.00     0.057 C 
ENDBRANCH  19  20
ENDBRANCH  12  19
ENDBRANCH   5   8
ENDBRANCH   3   4
ENDBRANCH   2   3
ENDBRANCH   1   2
BRANCH   1  31
ATOM     31  C   UNL A   1      40.468  22.013  27.600  1.00  0.00     0.002 C 
BRANCH  31  32
ATOM     32  C   UNL A   1      41.918  21.905  27.120  1.00  0.00     0.021 C 
BRANCH  32  33
ATOM     33  C   UNL A   1      42.730  23.180  27.319  1.00  0.00     0.116 C 
BRANCH  33  34
ATOM     34  N   UNL A   1      42.724  23.999  26.116  1.00  0.00    -0.352 N 
ATOM     35  C   UNL A   1      42.308  25.292  25.964  1.00  0.00     0.251 C 
ATOM     36  H   UNL A   1      43.066  23.563  25.301  1.00  0.00     0.163 HD
ATOM     37  O   UNL A   1      42.085  25.741  24.833  1.00  0.00    -0.269 OA
BRANCH  35  38
ATOM     38  C   UNL A   1      42.125  26.145  27.151  1.00  0.00     0.039 A 
ATOM     39  C   UNL A   1      42.995  27.214  27.370  1.00  0.00     0.014 A 
ATOM     40  C   UNL A   1      41.092  25.876  28.055  1.00  0.00     0.014 A 
ATOM     41  C   UNL A   1      42.801  28.044  28.475  1.00  0.00     0.010 A 
ATOM     42  C   UNL A   1      40.852  26.750  29.109  1.00  0.00     0.010 A 
ATOM     43  C   UNL A   1      41.711  27.835  29.337  1.00  0.00    -0.014 A 
BRANCH  43  44
ATOM     44  C   UNL A   1      41.458  28.734  30.489  1.00  0.00     0.031 A 
ATOM     45  C   UNL A   1      42.287  28.608  31.739  1.00  0.00     0.074 A 
ATOM     46  C   UNL A   1      40.444  29.619  30.430  1.00  0.00     0.049 A 
ATOM     47  N   UNL A   1      42.178  29.257  32.870  1.00  0.00    -0.248 NA
ATOM     48  C   UNL A   1      43.362  27.603  31.726  1.00  0.00     0.031 C 
ATOM     49  C   UNL A   1      39.541  29.796  29.289  1.00  0.00     0.029 A 
ATOM     50  N   UNL A   1      39.993  30.529  31.353  1.00  0.00    -0.354 N 
ATOM     51  C   UNL A   1      43.158  28.730  33.704  1.00  0.00     0.074 A 
ATOM     52  C   UNL A   1      43.814  27.670  32.970  1.00  0.00     0.031 C 
ATOM     53  C   UNL A   1      38.661  30.770  29.572  1.00  0.00     0.029 A 
ATOM     54  C   UNL A   1      38.906  31.256  30.926  1.00  0.00     0.049 A 
ATOM     55  H   UNL A   1      40.407  30.649  32.238  1.00  0.00     0.167 HD
ATOM     56  C   UNL A   1      43.495  29.113  34.958  1.00  0.00     0.037 A 
ATOM     57  C   UNL A   1      38.183  32.200  31.559  1.00  0.00     0.037 A 
ATOM     58  C   UNL A   1      42.847  30.183  35.672  1.00  0.00     0.049 A 
ATOM     59  C   UNL A   1      38.573  32.604  32.954  1.00  0.00     0.074 A 
ATOM     60  C   UNL A   1      43.151  30.690  36.923  1.00  0.00     0.029 A 
ATOM     61  N   UNL A   1      41.763  30.909  35.199  1.00  0.00    -0.354 N 
ATOM     62  N   UNL A   1      39.547  32.143  33.704  1.00  0.00    -0.248 NA
ATOM     63  C   UNL A   1      37.773  33.659  33.589  1.00  0.00     0.031 C 
ATOM     64  C   UNL A   1      42.216  31.682  37.230  1.00  0.00     0.029 A 
ATOM     65  C   UNL A   1      41.369  31.840  36.144  1.00  0.00     0.049 A 
ATOM     66  H   UNL A   1      41.337  30.781  34.321  1.00  0.00     0.167 HD
ATOM     67  C   UNL A   1      39.494  32.872  34.886  1.00  0.00     0.074 A 
ATOM     68  C   UNL A   1      38.401  33.813  34.747  1.00  0.00     0.031 C 
ATOM     69  C   UNL A   1      40.281  32.775  35.987  1.00  0.00     0.037 A 
BRANCH  56  70
ATOM     70  C   UNL A   1      44.613  28.370  35.641  1.00  0.00     0.058 A 
ATOM     71  C   UNL A   1      44.371  27.239  36.439  1.00  0.00     0.135 A 
ATOM     72  C   UNL A   1      45.948  28.767  35.461  1.00  0.00     0.135 A 
ATOM     73  F   UNL A   1      43.114  26.822  36.658  1.00  0.00    -0.206 F 
ATOM     74  C   UNL A   1      45.408  26.551  37.060  1.00  0.00     0.059 A 
ATOM     75  C   UNL A   1      47.003  28.074  36.046  1.00  0.00     0.059 A 
ATOM     76  F   UNL A   1      46.239  29.841  34.709  1.00  0.00    -0.206 F 
ATOM     77  C   UNL A   1      46.722  26.974  36.855  1.00  0.00     0.060 A 
BRANCH  77  78
ATOM     78  S   UNL A   1      48.055  26.061  37.659  1.00  0.00     0.124 S 
ATOM     79  O   UNL A   1      48.938  25.781  36.531  1.00  0.00    -0.237 OA
ATOM     80  O   UNL A   1      48.554  27.030  38.630  1.00  0.00    -0.237 OA
ATOM     81  O   UNL A   1      47.378  24.900  38.227  1.00  0.00    -0.744 OA
ENDBRANCH  77  78
ENDBRANCH  56  70
BRANCH  57  82
ATOM     82  C   UNL A   1      37.031  32.839  30.868  1.00  0.00     0.058 A 
ATOM     83  C   UNL A   1      35.710  32.494  31.189  1.00  0.00     0.135 A 
ATOM     84  C   UNL A   1      37.227  33.822  29.883  1.00  0.00     0.135 A 
ATOM     85  F   UNL A   1      35.470  31.559  32.120  1.00  0.00    -0.206 F 
ATOM     86  C   UNL A   1      34.625  33.085  30.550  1.00  0.00     0.059 A 
ATOM     87  C   UNL A   1      36.159  34.447  29.250  1.00  0.00     0.059 A 
ATOM     88  F   UNL A   1      38.471  34.202  29.550  1.00  0.00    -0.206 F 
ATOM     89  C   UNL A   1      34.861  34.064  29.583  1.00  0.00     0.060 A 
BRANCH  89  90
ATOM     90  S   UNL A   1      33.443  34.858  28.793  1.00  0.00     0.124 S 
ATOM     91  O   UNL A   1      33.100  33.888  27.760  1.00  0.00    -0.237 OA
ATOM     92  O   UNL A   1      32.501  34.973  29.902  1.00  0.00    -0.237 OA
ATOM     93  O   UNL A   1      33.993  36.123  28.314  1.00  0.00    -0.744 OA
ENDBRANCH  89  90
ENDBRANCH  57  82
BRANCH  69  94
ATOM     94  C   UNL A   1      40.016  33.733  37.117  1.00  0.00     0.058 A 
ATOM     95  C   UNL A   1      40.679  34.967  37.212  1.00  0.00     0.135 A 
ATOM     96  C   UNL A   1      39.043  33.435  38.085  1.00  0.00     0.135 A 
ATOM     97  F   UNL A   1      41.622  35.300  36.318  1.00  0.00    -0.206 F 
ATOM     98  C   UNL A   1      40.403  35.860  38.242  1.00  0.00     0.059 A 
ATOM     99  C   UNL A   1      38.728  34.327  39.104  1.00  0.00     0.059 A 
ATOM    100  F   UNL A   1      38.372  32.273  38.034  1.00  0.00    -0.206 F 
ATOM    101  C   UNL A   1      39.423  35.533  39.181  1.00  0.00     0.060 A 
BRANCH 101 102
ATOM    102  S   UNL A   1      39.051  36.718  40.491  1.00  0.00     0.124 S 
ATOM    103  O   UNL A   1      38.219  35.918  41.383  1.00  0.00    -0.237 OA
ATOM    104  O   UNL A   1      40.378  37.055  40.994  1.00  0.00    -0.237 OA
ATOM    105  O   UNL A   1      38.361  37.796  39.789  1.00  0.00    -0.744 OA
ENDBRANCH 101 102
ENDBRANCH  69  94
ENDBRANCH  43  44
ENDBRANCH  35  38
ENDBRANCH  33  34
ENDBRANCH  32  33
ENDBRANCH  31  32
ENDBRANCH   1  31
TORSDOF 21
ENDMDL
MODEL 3
REMARK VINA RESULT:     -11.6      2.215      8.651
REMARK SMILES COCC[C@@]1(C(=O)NCCCCCCNC(=O)c2ccc(-c3c4nc(c(-c5c(F)cc(S(=O)(=O)[O-])cc5F)c5ccc([nH]5)c(-c5c(F)cc(S(=O)(=O)[O-])cc5F)c5nc(c(-c6c(F)cc(S(=O)(=O)[O-])cc6F)c6ccc3[nH]6)C=C5)C=C4)cc2)CCC[N@@H+](Cc2cccc3c2OC(C)(C)C3)C1
REMARK SMILES IDX 11 1 10 2 9 3 8 4 6 5 7 6 5 8 84 9 100 10 85 11 87 12 86 13
REMARK SMILES IDX 4 15 3 16 2 17 1 18 88 19 89 20 90 21 94 22 91 23 93 24
REMARK SMILES IDX 95 25 92 26 99 27 96 28 97 29 98 30 12 31 13 32 14 33 15 34
REMARK SMILES IDX 16 35 17 37 18 38 19 39 83 40 20 41 82 42 21 43 22 44 23 45
REMARK SMILES IDX 76 46 24 47 81 48 75 49 77 50 25 51 80 52 74 53 73 54 26 56
REMARK SMILES IDX 60 57 39 58 59 59 40 60 43 61 58 62 78 63 41 64 42 65 57 67
REMARK SMILES IDX 79 68 44 69 27 70 28 71 37 72 29 73 30 74 36 75 38 76 31 77
REMARK SMILES IDX 32 78 33 79 34 80 35 81 61 82 62 83 71 84 63 85 64 86 70 87
REMARK SMILES IDX 72 88 65 89 66 90 67 91 68 92 69 93 45 94 46 95 55 96 47 97
REMARK SMILES IDX 48 98 54 99 56 100 49 101 50 102 51 103 52 104 53 105
REMARK H PARENT 8 7 87 14 15 36 77 55 43 66
REMARK Flexibility Score: inf
ROOT
ATOM      1  C   UNL A   1      37.221  21.911  24.725  1.00  0.00     0.002 C 
ENDROOT
BRANCH   1   2
ATOM      2  C   UNL A   1      36.865  22.792  25.926  1.00  0.00     0.021 C 
BRANCH   2   3
ATOM      3  C   UNL A   1      36.038  24.033  25.554  1.00  0.00     0.116 C 
BRANCH   3   4
ATOM      4  N   UNL A   1      35.448  23.873  24.242  1.00  0.00    -0.355 N 
ATOM      5  C   UNL A   1      34.383  23.167  23.779  1.00  0.00     0.232 C 
ATOM      6  O   UNL A   1      34.383  23.014  22.550  1.00  0.00    -0.274 OA
ATOM      7  H   UNL A   1      35.914  24.382  23.540  1.00  0.00     0.163 HD
BRANCH   5   8
ATOM      8  C   UNL A   1      33.205  22.646  24.666  1.00  0.00     0.100 C 
ATOM      9  C   UNL A   1      32.003  22.405  23.698  1.00  0.00     0.029 C 
ATOM     10  C   UNL A   1      32.879  23.776  25.736  1.00  0.00     0.279 C 
ATOM     11  C   UNL A   1      31.222  23.654  23.345  1.00  0.00     0.063 C 
ATOM     12  N   UNL A   1      31.855  24.804  25.436  1.00  0.00    -0.330 N 
ATOM     13  C   UNL A   1      30.744  24.338  24.615  1.00  0.00     0.262 C 
ATOM     14  H   UNL A   1      32.364  25.450  24.832  1.00  0.00     0.348 HD
BRANCH   8  15
ATOM     15  C   UNL A   1      33.520  21.201  25.230  1.00  0.00     0.051 C 
BRANCH  15  16
ATOM     16  C   UNL A   1      32.841  19.976  24.604  1.00  0.00     0.161 C 
BRANCH  16  17
ATOM     17  O   UNL A   1      32.367  19.059  25.592  1.00  0.00    -0.385 OA
ATOM     18  C   UNL A   1      32.434  17.702  25.196  1.00  0.00     0.194 C 
ENDBRANCH  16  17
ENDBRANCH  15  16
ENDBRANCH   8  15
BRANCH  12  19
ATOM     19  C   UNL A   1      31.441  25.673  26.599  1.00  0.00     0.303 C 
BRANCH  19  20
ATOM     20  C   UNL A   1      31.397  27.184  26.371  1.00  0.00     0.049 A 
ATOM     21  C   UNL A   1      31.585  28.074  27.434  1.00  0.00     0.013 A 
ATOM     22  C   UNL A   1      31.435  27.767  25.115  1.00  0.00     0.132 A 
ATOM     23  C   UNL A   1      32.086  29.366  27.200  1.00  0.00     0.001 A 
ATOM     24  C   UNL A   1      32.154  28.917  24.866  1.00  0.00    -0.001 A 
ATOM     25  O   UNL A   1      30.503  27.580  24.111  1.00  0.00    -0.487 OA
ATOM     26  C   UNL A   1      32.484  29.749  25.914  1.00  0.00     0.008 A 
ATOM     27  C   UNL A   1      32.310  29.043  23.396  1.00  0.00     0.087 C 
ATOM     28  C   UNL A   1      31.005  28.347  22.964  1.00  0.00     0.108 C 
ATOM     29  C   UNL A   1      30.109  29.479  22.422  1.00  0.00     0.057 C 
ATOM     30  C   UNL A   1      31.115  27.245  21.908  1.00  0.00     0.057 C 
ENDBRANCH  19  20
ENDBRANCH  12  19
ENDBRANCH   5   8
ENDBRANCH   3   4
ENDBRANCH   2   3
ENDBRANCH   1   2
BRANCH   1  31
ATOM     31  C   UNL A   1      37.008  20.411  24.957  1.00  0.00     0.002 C 
BRANCH  31  32
ATOM     32  C   UNL A   1      38.299  19.589  25.007  1.00  0.00     0.021 C 
BRANCH  32  33
ATOM     33  C   UNL A   1      39.423  20.253  25.794  1.00  0.00     0.116 C 
BRANCH  33  34
ATOM     34  N   UNL A   1      40.450  19.288  26.157  1.00  0.00    -0.352 N 
ATOM     35  C   UNL A   1      41.779  19.501  26.396  1.00  0.00     0.251 C 
ATOM     36  H   UNL A   1      40.147  18.354  26.243  1.00  0.00     0.163 HD
ATOM     37  O   UNL A   1      42.569  18.549  26.396  1.00  0.00    -0.269 OA
BRANCH  35  38
ATOM     38  C   UNL A   1      42.265  20.868  26.653  1.00  0.00     0.039 A 
ATOM     39  C   UNL A   1      42.401  21.315  27.968  1.00  0.00     0.014 A 
ATOM     40  C   UNL A   1      42.576  21.714  25.582  1.00  0.00     0.014 A 
ATOM     41  C   UNL A   1      42.894  22.596  28.212  1.00  0.00     0.010 A 
ATOM     42  C   UNL A   1      43.142  22.959  25.828  1.00  0.00     0.010 A 
ATOM     43  C   UNL A   1      43.296  23.418  27.144  1.00  0.00    -0.014 A 
BRANCH  43  44
ATOM     44  C   UNL A   1      43.868  24.765  27.384  1.00  0.00     0.031 A 
ATOM     45  C   UNL A   1      42.975  25.897  27.816  1.00  0.00     0.074 A 
ATOM     46  C   UNL A   1      45.177  24.980  27.153  1.00  0.00     0.049 A 
ATOM     47  N   UNL A   1      43.275  27.155  28.014  1.00  0.00    -0.248 NA
ATOM     48  C   UNL A   1      41.553  25.580  28.027  1.00  0.00     0.031 C 
ATOM     49  C   UNL A   1      46.130  23.970  26.684  1.00  0.00     0.029 A 
ATOM     50  N   UNL A   1      45.933  26.120  27.269  1.00  0.00    -0.354 N 
ATOM     51  C   UNL A   1      42.082  27.779  28.358  1.00  0.00     0.074 A 
ATOM     52  C   UNL A   1      41.043  26.775  28.287  1.00  0.00     0.031 C 
ATOM     53  C   UNL A   1      47.346  24.530  26.575  1.00  0.00     0.029 A 
ATOM     54  C   UNL A   1      47.253  25.944  26.923  1.00  0.00     0.049 A 
ATOM     55  H   UNL A   1      45.566  26.982  27.571  1.00  0.00     0.167 HD
ATOM     56  C   UNL A   1      41.876  29.067  28.724  1.00  0.00     0.037 A 
ATOM     57  C   UNL A   1      48.270  26.826  26.881  1.00  0.00     0.037 A 
ATOM     58  C   UNL A   1      42.922  30.053  28.809  1.00  0.00     0.049 A 
ATOM     59  C   UNL A   1      48.016  28.253  27.285  1.00  0.00     0.074 A 
ATOM     60  C   UNL A   1      42.830  31.369  29.227  1.00  0.00     0.029 A 
ATOM     61  N   UNL A   1      44.248  29.833  28.469  1.00  0.00    -0.354 N 
ATOM     62  N   UNL A   1      46.894  28.812  27.675  1.00  0.00    -0.248 NA
ATOM     63  C   UNL A   1      49.163  29.169  27.251  1.00  0.00     0.031 C 
ATOM     64  C   UNL A   1      44.089  31.960  29.084  1.00  0.00     0.029 A 
ATOM     65  C   UNL A   1      44.980  30.996  28.641  1.00  0.00     0.049 A 
ATOM     66  H   UNL A   1      44.617  28.976  28.153  1.00  0.00     0.167 HD
ATOM     67  C   UNL A   1      47.208  30.135  27.960  1.00  0.00     0.074 A 
ATOM     68  C   UNL A   1      48.626  30.291  27.711  1.00  0.00     0.031 C 
ATOM     69  C   UNL A   1      46.396  31.132  28.394  1.00  0.00     0.037 A 
BRANCH  56  70
ATOM     70  C   UNL A   1      40.468  29.484  29.057  1.00  0.00     0.058 A 
ATOM     71  C   UNL A   1      39.478  29.607  28.068  1.00  0.00     0.135 A 
ATOM     72  C   UNL A   1      40.091  29.724  30.389  1.00  0.00     0.135 A 
ATOM     73  F   UNL A   1      39.784  29.404  26.776  1.00  0.00    -0.206 F 
ATOM     74  C   UNL A   1      38.177  29.983  28.381  1.00  0.00     0.059 A 
ATOM     75  C   UNL A   1      38.787  30.070  30.729  1.00  0.00     0.059 A 
ATOM     76  F   UNL A   1      40.995  29.623  31.376  1.00  0.00    -0.206 F 
ATOM     77  C   UNL A   1      37.839  30.211  29.717  1.00  0.00     0.060 A 
BRANCH  77  78
ATOM     78  S   UNL A   1      36.143  30.687  30.106  1.00  0.00     0.124 S 
ATOM     79  O   UNL A   1      36.357  31.838  30.979  1.00  0.00    -0.237 OA
ATOM     80  O   UNL A   1      35.593  30.985  28.788  1.00  0.00    -0.237 OA
ATOM     81  O   UNL A   1      35.597  29.501  30.758  1.00  0.00    -0.744 OA
ENDBRANCH  77  78
ENDBRANCH  56  70
BRANCH  57  82
ATOM     82  C   UNL A   1      49.624  26.378  26.457  1.00  0.00     0.058 A 
ATOM     83  C   UNL A   1      50.503  25.769  27.365  1.00  0.00     0.135 A 
ATOM     84  C   UNL A   1      50.061  26.534  25.131  1.00  0.00     0.135 A 
ATOM     85  F   UNL A   1      50.135  25.601  28.643  1.00  0.00    -0.206 F 
ATOM     86  C   UNL A   1      51.772  25.345  26.980  1.00  0.00     0.059 A 
ATOM     87  C   UNL A   1      51.313  26.093  24.716  1.00  0.00     0.059 A 
ATOM     88  F   UNL A   1      49.252  27.094  24.217  1.00  0.00    -0.206 F 
ATOM     89  C   UNL A   1      52.165  25.510  25.651  1.00  0.00     0.060 A 
BRANCH  89  90
ATOM     90  S   UNL A   1      53.796  24.913  25.152  1.00  0.00     0.124 S 
ATOM     91  O   UNL A   1      53.566  23.477  25.054  1.00  0.00    -0.237 OA
ATOM     92  O   UNL A   1      54.005  25.617  23.891  1.00  0.00    -0.237 OA
ATOM     93  O   UNL A   1      54.658  25.341  26.250  1.00  0.00    -0.744 OA
ENDBRANCH  89  90
ENDBRANCH  57  82
BRANCH  69  94
ATOM     94  C   UNL A   1      47.024  32.472  28.663  1.00  0.00     0.058 A 
ATOM     95  C   UNL A   1      47.580  32.793  29.912  1.00  0.00     0.135 A 
ATOM     96  C   UNL A   1      47.122  33.427  27.637  1.00  0.00     0.135 A 
ATOM     97  F   UNL A   1      47.509  31.919  30.928  1.00  0.00    -0.206 F 
ATOM     98  C   UNL A   1      48.189  34.022  30.140  1.00  0.00     0.059 A 
ATOM     99  C   UNL A   1      47.755  34.650  27.834  1.00  0.00     0.059 A 
ATOM    100  F   UNL A   1      46.617  33.167  26.420  1.00  0.00    -0.206 F 
ATOM    101  C   UNL A   1      48.275  34.943  29.095  1.00  0.00     0.060 A 
BRANCH 101 102
ATOM    102  S   UNL A   1      49.100  36.519  29.396  1.00  0.00     0.124 S 
ATOM    103  O   UNL A   1      48.532  36.907  30.683  1.00  0.00    -0.237 OA
ATOM    104  O   UNL A   1      50.508  36.136  29.415  1.00  0.00    -0.237 OA
ATOM    105  O   UNL A   1      48.695  37.339  28.259  1.00  0.00    -0.744 OA
ENDBRANCH 101 102
ENDBRANCH  69  94
ENDBRANCH  43  44
ENDBRANCH  35  38
ENDBRANCH  33  34
ENDBRANCH  32  33
ENDBRANCH  31  32
ENDBRANCH   1  31
TORSDOF 21
ENDMDL
