MODEL 1
REMARK VINA RESULT:     -10.9      0.000      0.000
REMARK SMILES O=C(COc1ccccc1/C=N/NC(=O)c1cc(-c2ccc(F)cc2)nc2ccccc12)NCCCCCCNC(=O)c1ccc(-c2c3nc(c(-c4c(F)cc(S(=O)(=O)[O-])cc4F)c4ccc([nH]4)c(-c4c(F)cc(S(=O)(=O)[O-])cc4F)c4nc(c(-c5c(F)cc(S(=O)(=O)[O-])cc5F)c5ccc2[nH]5)C=C4)C=C3)cc1
REMARK SMILES IDX 35 1 34 2 33 3 1 4 2 5 3 7 4 8 5 9 6 10 10 11 7 12 9 13 8 14
REMARK SMILES IDX 11 15 12 16 13 17 14 18 15 20 16 21 17 22 32 23 18 24 27 25
REMARK SMILES IDX 31 26 26 27 28 28 30 29 29 30 19 31 20 32 25 33 21 34 24 35
REMARK SMILES IDX 22 36 23 37 36 38 37 39 38 40 39 41 40 42 41 43 42 45 43 46
REMARK SMILES IDX 44 47 108 48 45 49 107 50 46 51 47 52 48 53 101 54 49 55
REMARK SMILES IDX 106 56 100 57 102 58 50 59 105 60 99 61 98 62 51 64 85 65
REMARK SMILES IDX 64 66 84 67 65 68 68 69 83 70 103 71 66 72 67 73 82 75
REMARK SMILES IDX 104 76 69 77 52 78 53 79 62 80 54 81 55 82 61 83 63 84 56 85
REMARK SMILES IDX 57 86 58 87 59 88 60 89 86 90 87 91 96 92 88 93 89 94 95 95
REMARK SMILES IDX 97 96 90 97 91 98 92 99 93 100 94 101 70 102 71 103 80 104
REMARK SMILES IDX 72 105 73 106 79 107 81 108 74 109 75 110 76 111 77 112
REMARK SMILES IDX 78 113
REMARK H PARENT 33 6 13 19 40 44 102 63 68 74
REMARK Flexibility Score: inf
ROOT
ATOM      1  C   UNL A   1      43.073  29.849  27.680  1.00  0.00     0.021 C 
ENDROOT
BRANCH   1   2
ATOM      2  C   UNL A   1      44.459  29.519  27.182  1.00  0.00     0.116 C 
BRANCH   2   3
ATOM      3  N   UNL A   1      45.468  30.521  27.417  1.00  0.00    -0.353 N 
ATOM      4  O   UNL A   1      45.296  31.919  25.581  1.00  0.00    -0.271 OA
ATOM      5  C   UNL A   1      45.419  31.754  26.789  1.00  0.00     0.257 C 
ATOM      6  H   UNL A   1      46.207  30.325  28.037  1.00  0.00     0.163 HD
BRANCH   5   7
ATOM      7  C   UNL A   1      45.504  32.929  27.747  1.00  0.00     0.329 C 
BRANCH   7   8
ATOM      8  O   UNL A   1      44.407  33.776  27.436  1.00  0.00    -0.483 OA
BRANCH   8   9
ATOM      9  C   UNL A   1      43.531  34.016  28.449  1.00  0.00     0.128 A 
ATOM     10  C   UNL A   1      43.613  33.012  29.434  1.00  0.00     0.047 A 
ATOM     11  C   UNL A   1      42.466  34.925  28.445  1.00  0.00     0.037 A 
ATOM     12  C   UNL A   1      42.629  32.868  30.406  1.00  0.00     0.004 A 
ATOM     13  C   UNL A   1      41.464  34.736  29.428  1.00  0.00     0.013 A 
ATOM     14  C   UNL A   1      41.538  33.719  30.388  1.00  0.00     0.001 A 
BRANCH  11  15
ATOM     15  C   UNL A   1      42.145  36.076  27.537  1.00  0.00     0.145 C 
ATOM     16  N   UNL A   1      42.833  37.147  27.212  1.00  0.00    -0.180 NA
BRANCH  16  17
ATOM     17  N   UNL A   1      42.009  38.075  26.579  1.00  0.00    -0.243 N 
ATOM     18  C   UNL A   1      41.784  39.442  26.716  1.00  0.00     0.272 C 
ATOM     19  H   UNL A   1      41.458  37.671  25.870  1.00  0.00     0.194 HD
ATOM     20  O   UNL A   1      40.782  39.858  26.125  1.00  0.00    -0.267 OA
BRANCH  18  21
ATOM     21  C   UNL A   1      42.669  40.434  27.399  1.00  0.00     0.053 A 
ATOM     22  C   UNL A   1      42.710  40.519  28.794  1.00  0.00     0.043 A 
ATOM     23  C   UNL A   1      43.380  41.432  26.615  1.00  0.00     0.013 A 
ATOM     24  C   UNL A   1      43.604  41.421  29.354  1.00  0.00     0.072 A 
ATOM     25  C   UNL A   1      44.303  42.221  27.316  1.00  0.00     0.072 A 
ATOM     26  C   UNL A   1      43.234  41.780  25.238  1.00  0.00     0.011 A 
ATOM     27  N   UNL A   1      44.472  42.137  28.613  1.00  0.00    -0.248 NA
ATOM     28  C   UNL A   1      45.037  43.235  26.727  1.00  0.00     0.029 A 
ATOM     29  C   UNL A   1      43.920  42.864  24.660  1.00  0.00     0.001 A 
ATOM     30  C   UNL A   1      44.832  43.590  25.407  1.00  0.00     0.002 A 
BRANCH  24  31
ATOM     31  C   UNL A   1      43.668  41.959  30.718  1.00  0.00     0.000 A 
ATOM     32  C   UNL A   1      43.729  41.016  31.769  1.00  0.00     0.013 A 
ATOM     33  C   UNL A   1      43.139  43.233  30.996  1.00  0.00     0.013 A 
ATOM     34  C   UNL A   1      43.154  41.293  33.011  1.00  0.00     0.040 A 
ATOM     35  C   UNL A   1      42.582  43.515  32.246  1.00  0.00     0.040 A 
ATOM     36  C   UNL A   1      42.561  42.530  33.225  1.00  0.00     0.123 A 
ATOM     37  F   UNL A   1      41.909  42.755  34.374  1.00  0.00    -0.207 F 
ENDBRANCH  24  31
ENDBRANCH  18  21
ENDBRANCH  16  17
ENDBRANCH  11  15
ENDBRANCH   8   9
ENDBRANCH   7   8
ENDBRANCH   5   7
ENDBRANCH   2   3
ENDBRANCH   1   2
BRANCH   1  38
ATOM     38  C   UNL A   1      41.959  29.198  26.875  1.00  0.00     0.002 C 
BRANCH  38  39
ATOM     39  C   UNL A   1      42.378  28.628  25.516  1.00  0.00     0.002 C 
BRANCH  39  40
ATOM     40  C   UNL A   1      41.875  27.219  25.184  1.00  0.00     0.021 C 
BRANCH  40  41
ATOM     41  C   UNL A   1      42.904  26.099  25.323  1.00  0.00     0.116 C 
BRANCH  41  42
ATOM     42  N   UNL A   1      42.295  24.832  25.693  1.00  0.00    -0.352 N 
ATOM     43  C   UNL A   1      41.763  24.424  26.886  1.00  0.00     0.251 C 
ATOM     44  H   UNL A   1      42.260  24.163  24.972  1.00  0.00     0.163 HD
ATOM     45  O   UNL A   1      41.452  23.248  27.051  1.00  0.00    -0.269 OA
BRANCH  43  46
ATOM     46  C   UNL A   1      41.587  25.397  27.979  1.00  0.00     0.039 A 
ATOM     47  C   UNL A   1      42.725  25.918  28.600  1.00  0.00     0.014 A 
ATOM     48  C   UNL A   1      40.310  25.788  28.391  1.00  0.00     0.014 A 
ATOM     49  C   UNL A   1      42.584  26.881  29.598  1.00  0.00     0.010 A 
ATOM     50  C   UNL A   1      40.173  26.792  29.344  1.00  0.00     0.010 A 
ATOM     51  C   UNL A   1      41.308  27.347  29.955  1.00  0.00    -0.014 A 
BRANCH  51  52
ATOM     52  C   UNL A   1      41.143  28.427  30.955  1.00  0.00     0.031 A 
ATOM     53  C   UNL A   1      41.968  28.426  32.210  1.00  0.00     0.074 A 
ATOM     54  C   UNL A   1      40.194  29.363  30.764  1.00  0.00     0.049 A 
ATOM     55  N   UNL A   1      41.912  29.236  33.235  1.00  0.00    -0.248 NA
ATOM     56  C   UNL A   1      42.969  27.356  32.341  1.00  0.00     0.031 C 
ATOM     57  C   UNL A   1      39.295  29.431  29.609  1.00  0.00     0.029 A 
ATOM     58  N   UNL A   1      39.811  30.425  31.545  1.00  0.00    -0.354 N 
ATOM     59  C   UNL A   1      42.859  28.770  34.137  1.00  0.00     0.074 A 
ATOM     60  C   UNL A   1      43.441  27.577  33.559  1.00  0.00     0.031 C 
ATOM     61  C   UNL A   1      38.467  30.477  29.758  1.00  0.00     0.029 A 
ATOM     62  C   UNL A   1      38.756  31.136  31.028  1.00  0.00     0.049 A 
ATOM     63  H   UNL A   1      40.252  30.654  32.394  1.00  0.00     0.167 HD
ATOM     64  C   UNL A   1      43.225  29.300  35.329  1.00  0.00     0.037 A 
ATOM     65  C   UNL A   1      38.084  32.189  31.529  1.00  0.00     0.037 A 
ATOM     66  C   UNL A   1      42.648  30.495  35.888  1.00  0.00     0.049 A 
ATOM     67  C   UNL A   1      38.509  32.768  32.849  1.00  0.00     0.074 A 
ATOM     68  C   UNL A   1      42.989  31.151  37.058  1.00  0.00     0.029 A 
ATOM     69  N   UNL A   1      41.603  31.210  35.319  1.00  0.00    -0.354 N 
ATOM     70  N   UNL A   1      39.458  32.360  33.657  1.00  0.00    -0.248 NA
ATOM     71  C   UNL A   1      37.782  33.953  33.322  1.00  0.00     0.031 C 
ATOM     72  C   UNL A   1      42.126  32.241  37.214  1.00  0.00     0.029 A 
ATOM     73  C   UNL A   1      41.272  32.288  36.124  1.00  0.00     0.049 A 
ATOM     74  H   UNL A   1      41.163  30.984  34.468  1.00  0.00     0.167 HD
ATOM     75  C   UNL A   1      39.450  33.243  34.731  1.00  0.00     0.074 A 
ATOM     76  C   UNL A   1      38.413  34.218  34.459  1.00  0.00     0.031 C 
ATOM     77  C   UNL A   1      40.230  33.245  35.840  1.00  0.00     0.037 A 
BRANCH  64  78
ATOM     78  C   UNL A   1      44.297  28.583  36.100  1.00  0.00     0.058 A 
ATOM     79  C   UNL A   1      45.651  28.941  35.982  1.00  0.00     0.135 A 
ATOM     80  C   UNL A   1      43.974  27.527  36.966  1.00  0.00     0.135 A 
ATOM     81  F   UNL A   1      46.018  29.935  35.158  1.00  0.00    -0.206 F 
ATOM     82  C   UNL A   1      46.649  28.247  36.659  1.00  0.00     0.059 A 
ATOM     83  C   UNL A   1      44.953  26.837  37.674  1.00  0.00     0.059 A 
ATOM     84  F   UNL A   1      42.696  27.146  37.119  1.00  0.00    -0.206 F 
ATOM     85  C   UNL A   1      46.291  27.190  37.497  1.00  0.00     0.060 A 
BRANCH  85  86
ATOM     86  S   UNL A   1      47.597  26.281  38.349  1.00  0.00     0.124 S 
ATOM     87  O   UNL A   1      46.910  25.860  39.566  1.00  0.00    -0.237 OA
ATOM     88  O   UNL A   1      47.912  25.219  37.400  1.00  0.00    -0.237 OA
ATOM     89  O   UNL A   1      48.642  27.283  38.534  1.00  0.00    -0.744 OA
ENDBRANCH  85  86
ENDBRANCH  64  78
BRANCH  65  90
ATOM     90  C   UNL A   1      36.946  32.761  30.763  1.00  0.00     0.058 A 
ATOM     91  C   UNL A   1      35.623  32.401  31.056  1.00  0.00     0.135 A 
ATOM     92  C   UNL A   1      37.159  33.722  29.762  1.00  0.00     0.135 A 
ATOM     93  F   UNL A   1      35.371  31.484  32.001  1.00  0.00    -0.206 F 
ATOM     94  C   UNL A   1      34.548  32.974  30.385  1.00  0.00     0.059 A 
ATOM     95  C   UNL A   1      36.100  34.324  29.091  1.00  0.00     0.059 A 
ATOM     96  F   UNL A   1      38.407  34.111  29.458  1.00  0.00    -0.206 F 
ATOM     97  C   UNL A   1      34.797  33.941  29.407  1.00  0.00     0.060 A 
BRANCH  97  98
ATOM     98  S   UNL A   1      33.393  34.742  28.600  1.00  0.00     0.124 S 
ATOM     99  O   UNL A   1      32.952  33.704  27.677  1.00  0.00    -0.237 OA
ATOM    100  O   UNL A   1      32.505  35.016  29.726  1.00  0.00    -0.237 OA
ATOM    101  O   UNL A   1      33.991  35.924  27.985  1.00  0.00    -0.744 OA
ENDBRANCH  97  98
ENDBRANCH  65  90
BRANCH  77 102
ATOM    102  C   UNL A   1      39.997  34.339  36.843  1.00  0.00     0.058 A 
ATOM    103  C   UNL A   1      39.132  34.159  37.934  1.00  0.00     0.135 A 
ATOM    104  C   UNL A   1      40.689  35.555  36.745  1.00  0.00     0.135 A 
ATOM    105  F   UNL A   1      38.440  33.017  38.067  1.00  0.00    -0.206 F 
ATOM    106  C   UNL A   1      38.951  35.156  38.886  1.00  0.00     0.059 A 
ATOM    107  C   UNL A   1      40.541  36.557  37.699  1.00  0.00     0.059 A 
ATOM    108  F   UNL A   1      41.534  35.773  35.725  1.00  0.00    -0.206 F 
ATOM    109  C   UNL A   1      39.662  36.351  38.763  1.00  0.00     0.060 A 
BRANCH 109 110
ATOM    110  S   UNL A   1      39.451  37.619  40.029  1.00  0.00     0.124 S 
ATOM    111  O   UNL A   1      39.263  36.809  41.229  1.00  0.00    -0.237 OA
ATOM    112  O   UNL A   1      40.710  38.354  39.952  1.00  0.00    -0.237 OA
ATOM    113  O   UNL A   1      38.274  38.356  39.578  1.00  0.00    -0.744 OA
ENDBRANCH 109 110
ENDBRANCH  77 102
ENDBRANCH  51  52
ENDBRANCH  43  46
ENDBRANCH  41  42
ENDBRANCH  40  41
ENDBRANCH  39  40
ENDBRANCH  38  39
ENDBRANCH   1  38
TORSDOF 22
ENDMDL
MODEL 2
REMARK VINA RESULT:     -10.7      5.276     12.170
REMARK SMILES O=C(COc1ccccc1/C=N/NC(=O)c1cc(-c2ccc(F)cc2)nc2ccccc12)NCCCCCCNC(=O)c1ccc(-c2c3nc(c(-c4c(F)cc(S(=O)(=O)[O-])cc4F)c4ccc([nH]4)c(-c4c(F)cc(S(=O)(=O)[O-])cc4F)c4nc(c(-c5c(F)cc(S(=O)(=O)[O-])cc5F)c5ccc2[nH]5)C=C4)C=C3)cc1
REMARK SMILES IDX 35 1 34 2 33 3 1 4 2 5 3 7 4 8 5 9 6 10 10 11 7 12 9 13 8 14
REMARK SMILES IDX 11 15 12 16 13 17 14 18 15 20 16 21 17 22 32 23 18 24 27 25
REMARK SMILES IDX 31 26 26 27 28 28 30 29 29 30 19 31 20 32 25 33 21 34 24 35
REMARK SMILES IDX 22 36 23 37 36 38 37 39 38 40 39 41 40 42 41 43 42 45 43 46
REMARK SMILES IDX 44 47 108 48 45 49 107 50 46 51 47 52 48 53 101 54 49 55
REMARK SMILES IDX 106 56 100 57 102 58 50 59 105 60 99 61 98 62 51 64 85 65
REMARK SMILES IDX 64 66 84 67 65 68 68 69 83 70 103 71 66 72 67 73 82 75
REMARK SMILES IDX 104 76 69 77 52 78 53 79 62 80 54 81 55 82 61 83 63 84 56 85
REMARK SMILES IDX 57 86 58 87 59 88 60 89 86 90 87 91 96 92 88 93 89 94 95 95
REMARK SMILES IDX 97 96 90 97 91 98 92 99 93 100 94 101 70 102 71 103 80 104
REMARK SMILES IDX 72 105 73 106 79 107 81 108 74 109 75 110 76 111 77 112
REMARK SMILES IDX 78 113
REMARK H PARENT 33 6 13 19 40 44 102 63 68 74
REMARK Flexibility Score: inf
ROOT
ATOM      1  C   UNL A   1      35.608  32.793  33.620  1.00  0.00     0.021 C 
ENDROOT
BRANCH   1   2
ATOM      2  C   UNL A   1      36.887  33.445  34.088  1.00  0.00     0.116 C 
BRANCH   2   3
ATOM      3  N   UNL A   1      38.058  33.176  33.291  1.00  0.00    -0.353 N 
ATOM      4  O   UNL A   1      37.975  34.784  31.629  1.00  0.00    -0.271 OA
ATOM      5  C   UNL A   1      38.603  34.142  32.464  1.00  0.00     0.257 C 
ATOM      6  H   UNL A   1      38.478  32.287  33.336  1.00  0.00     0.163 HD
BRANCH   5   7
ATOM      7  C   UNL A   1      40.086  34.376  32.695  1.00  0.00     0.329 C 
BRANCH   7   8
ATOM      8  O   UNL A   1      40.496  33.411  33.653  1.00  0.00    -0.483 OA
BRANCH   8   9
ATOM      9  C   UNL A   1      41.028  33.901  34.805  1.00  0.00     0.128 A 
ATOM     10  C   UNL A   1      41.180  35.300  34.735  1.00  0.00     0.047 A 
ATOM     11  C   UNL A   1      41.641  33.168  35.829  1.00  0.00     0.037 A 
ATOM     12  C   UNL A   1      41.966  35.990  35.651  1.00  0.00     0.004 A 
ATOM     13  C   UNL A   1      42.458  33.894  36.729  1.00  0.00     0.013 A 
ATOM     14  C   UNL A   1      42.626  35.281  36.639  1.00  0.00     0.001 A 
BRANCH  11  15
ATOM     15  C   UNL A   1      41.635  31.700  36.142  1.00  0.00     0.145 C 
ATOM     16  N   UNL A   1      41.390  30.650  35.391  1.00  0.00    -0.180 NA
BRANCH  16  17
ATOM     17  N   UNL A   1      41.207  29.521  36.187  1.00  0.00    -0.243 N 
ATOM     18  C   UNL A   1      41.691  28.217  36.164  1.00  0.00     0.272 C 
ATOM     19  H   UNL A   1      40.593  29.683  36.939  1.00  0.00     0.194 HD
ATOM     20  O   UNL A   1      41.094  27.435  36.912  1.00  0.00    -0.267 OA
BRANCH  18  21
ATOM     21  C   UNL A   1      42.891  27.716  35.427  1.00  0.00     0.053 A 
ATOM     22  C   UNL A   1      42.933  26.410  34.928  1.00  0.00     0.043 A 
ATOM     23  C   UNL A   1      44.093  28.531  35.358  1.00  0.00     0.013 A 
ATOM     24  C   UNL A   1      44.054  26.040  34.198  1.00  0.00     0.072 A 
ATOM     25  C   UNL A   1      45.113  28.055  34.522  1.00  0.00     0.072 A 
ATOM     26  C   UNL A   1      44.426  29.723  36.071  1.00  0.00     0.011 A 
ATOM     27  N   UNL A   1      45.041  26.907  33.893  1.00  0.00    -0.248 NA
ATOM     28  C   UNL A   1      46.331  28.693  34.369  1.00  0.00     0.029 A 
ATOM     29  C   UNL A   1      45.694  30.325  35.979  1.00  0.00     0.001 A 
ATOM     30  C   UNL A   1      46.649  29.812  35.116  1.00  0.00     0.002 A 
BRANCH  24  31
ATOM     31  C   UNL A   1      44.534  24.705  33.821  1.00  0.00     0.000 A 
ATOM     32  C   UNL A   1      43.607  23.644  33.932  1.00  0.00     0.013 A 
ATOM     33  C   UNL A   1      45.906  24.402  33.903  1.00  0.00     0.013 A 
ATOM     34  C   UNL A   1      44.034  22.354  34.253  1.00  0.00     0.040 A 
ATOM     35  C   UNL A   1      46.332  23.107  34.205  1.00  0.00     0.040 A 
ATOM     36  C   UNL A   1      45.390  22.107  34.414  1.00  0.00     0.123 A 
ATOM     37  F   UNL A   1      45.792  20.899  34.834  1.00  0.00    -0.207 F 
ENDBRANCH  24  31
ENDBRANCH  18  21
ENDBRANCH  16  17
ENDBRANCH  11  15
ENDBRANCH   8   9
ENDBRANCH   7   8
ENDBRANCH   5   7
ENDBRANCH   2   3
ENDBRANCH   1   2
BRANCH   1  38
ATOM     38  C   UNL A   1      35.727  32.109  32.267  1.00  0.00     0.002 C 
BRANCH  38  39
ATOM     39  C   UNL A   1      34.665  32.503  31.236  1.00  0.00     0.002 C 
BRANCH  39  40
ATOM     40  C   UNL A   1      35.121  33.443  30.115  1.00  0.00     0.021 C 
BRANCH  40  41
ATOM     41  C   UNL A   1      35.369  32.786  28.760  1.00  0.00     0.116 C 
BRANCH  41  42
ATOM     42  N   UNL A   1      34.535  31.613  28.553  1.00  0.00    -0.352 N 
ATOM     43  C   UNL A   1      34.887  30.306  28.345  1.00  0.00     0.251 C 
ATOM     44  H   UNL A   1      33.567  31.785  28.564  1.00  0.00     0.163 HD
ATOM     45  O   UNL A   1      34.036  29.485  28.016  1.00  0.00    -0.269 OA
BRANCH  43  46
ATOM     46  C   UNL A   1      36.295  29.896  28.496  1.00  0.00     0.039 A 
ATOM     47  C   UNL A   1      37.138  29.979  27.387  1.00  0.00     0.014 A 
ATOM     48  C   UNL A   1      36.776  29.426  29.722  1.00  0.00     0.014 A 
ATOM     49  C   UNL A   1      38.486  29.649  27.520  1.00  0.00     0.010 A 
ATOM     50  C   UNL A   1      38.132  29.155  29.869  1.00  0.00     0.010 A 
ATOM     51  C   UNL A   1      38.999  29.264  28.770  1.00  0.00    -0.014 A 
BRANCH  51  52
ATOM     52  C   UNL A   1      40.443  28.987  28.950  1.00  0.00     0.031 A 
ATOM     53  C   UNL A   1      41.002  27.637  28.600  1.00  0.00     0.074 A 
ATOM     54  C   UNL A   1      41.231  29.930  29.501  1.00  0.00     0.049 A 
ATOM     55  N   UNL A   1      42.216  27.181  28.761  1.00  0.00    -0.248 NA
ATOM     56  C   UNL A   1      40.064  26.665  28.018  1.00  0.00     0.031 C 
ATOM     57  C   UNL A   1      40.785  31.257  29.932  1.00  0.00     0.029 A 
ATOM     58  N   UNL A   1      42.567  29.910  29.814  1.00  0.00    -0.354 N 
ATOM     59  C   UNL A   1      42.188  25.867  28.312  1.00  0.00     0.074 A 
ATOM     60  C   UNL A   1      40.824  25.585  27.918  1.00  0.00     0.031 C 
ATOM     61  C   UNL A   1      41.828  31.923  30.452  1.00  0.00     0.029 A 
ATOM     62  C   UNL A   1      43.007  31.063  30.418  1.00  0.00     0.049 A 
ATOM     63  H   UNL A   1      43.153  29.143  29.622  1.00  0.00     0.167 HD
ATOM     64  C   UNL A   1      43.211  24.983  28.217  1.00  0.00     0.037 A 
ATOM     65  C   UNL A   1      44.220  31.384  30.907  1.00  0.00     0.037 A 
ATOM     66  C   UNL A   1      44.567  25.280  28.600  1.00  0.00     0.049 A 
ATOM     67  C   UNL A   1      45.343  30.394  30.786  1.00  0.00     0.074 A 
ATOM     68  C   UNL A   1      45.689  24.478  28.488  1.00  0.00     0.029 A 
ATOM     69  N   UNL A   1      44.983  26.471  29.178  1.00  0.00    -0.354 N 
ATOM     70  N   UNL A   1      45.318  29.179  30.290  1.00  0.00    -0.248 NA
ATOM     71  C   UNL A   1      46.660  30.816  31.280  1.00  0.00     0.031 C 
ATOM     72  C   UNL A   1      46.776  25.171  29.031  1.00  0.00     0.029 A 
ATOM     73  C   UNL A   1      46.341  26.419  29.447  1.00  0.00     0.049 A 
ATOM     74  H   UNL A   1      44.399  27.240  29.367  1.00  0.00     0.167 HD
ATOM     75  C   UNL A   1      46.616  28.695  30.404  1.00  0.00     0.074 A 
ATOM     76  C   UNL A   1      47.405  29.755  30.998  1.00  0.00     0.031 C 
ATOM     77  C   UNL A   1      47.109  27.483  30.047  1.00  0.00     0.037 A 
BRANCH  64  78
ATOM     78  C   UNL A   1      42.891  23.616  27.681  1.00  0.00     0.058 A 
ATOM     79  C   UNL A   1      42.679  22.522  28.537  1.00  0.00     0.135 A 
ATOM     80  C   UNL A   1      42.795  23.393  26.298  1.00  0.00     0.135 A 
ATOM     81  F   UNL A   1      42.772  22.677  29.867  1.00  0.00    -0.206 F 
ATOM     82  C   UNL A   1      42.430  21.247  28.040  1.00  0.00     0.059 A 
ATOM     83  C   UNL A   1      42.520  22.131  25.780  1.00  0.00     0.059 A 
ATOM     84  F   UNL A   1      42.986  24.403  25.436  1.00  0.00    -0.206 F 
ATOM     85  C   UNL A   1      42.361  21.060  26.659  1.00  0.00     0.060 A 
BRANCH  85  86
ATOM     86  S   UNL A   1      42.063  19.395  26.026  1.00  0.00     0.124 S 
ATOM     87  O   UNL A   1      42.419  18.578  27.182  1.00  0.00    -0.237 OA
ATOM     88  O   UNL A   1      40.643  19.434  25.692  1.00  0.00    -0.237 OA
ATOM     89  O   UNL A   1      42.969  19.298  24.886  1.00  0.00    -0.744 OA
ENDBRANCH  85  86
ENDBRANCH  64  78
BRANCH  65  90
ATOM     90  C   UNL A   1      44.422  32.711  31.544  1.00  0.00     0.058 A 
ATOM     91  C   UNL A   1      44.236  32.888  32.922  1.00  0.00     0.135 A 
ATOM     92  C   UNL A   1      44.861  33.814  30.794  1.00  0.00     0.135 A 
ATOM     93  F   UNL A   1      43.814  31.864  33.678  1.00  0.00    -0.206 F 
ATOM     94  C   UNL A   1      44.480  34.111  33.538  1.00  0.00     0.059 A 
ATOM     95  C   UNL A   1      45.130  35.042  31.390  1.00  0.00     0.059 A 
ATOM     96  F   UNL A   1      45.069  33.689  29.474  1.00  0.00    -0.206 F 
ATOM     97  C   UNL A   1      44.933  35.181  32.762  1.00  0.00     0.060 A 
BRANCH  97  98
ATOM     98  S   UNL A   1      45.328  36.742  33.583  1.00  0.00     0.124 S 
ATOM     99  O   UNL A   1      44.109  37.509  33.359  1.00  0.00    -0.237 OA
ATOM    100  O   UNL A   1      45.572  36.315  34.957  1.00  0.00    -0.237 OA
ATOM    101  O   UNL A   1      46.510  37.208  32.863  1.00  0.00    -0.744 OA
ENDBRANCH  97  98
ENDBRANCH  65  90
BRANCH  77 102
ATOM    102  C   UNL A   1      48.571  27.237  30.286  1.00  0.00     0.058 A 
ATOM    103  C   UNL A   1      49.536  27.566  29.321  1.00  0.00     0.135 A 
ATOM    104  C   UNL A   1      49.018  26.725  31.513  1.00  0.00     0.135 A 
ATOM    105  F   UNL A   1      49.160  28.051  28.127  1.00  0.00    -0.206 F 
ATOM    106  C   UNL A   1      50.893  27.380  29.560  1.00  0.00     0.059 A 
ATOM    107  C   UNL A   1      50.371  26.552  31.783  1.00  0.00     0.059 A 
ATOM    108  F   UNL A   1      48.135  26.403  32.473  1.00  0.00    -0.206 F 
ATOM    109  C   UNL A   1      51.302  26.875  30.796  1.00  0.00     0.060 A 
BRANCH 109 110
ATOM    110  S   UNL A   1      53.069  26.681  31.110  1.00  0.00     0.124 S 
ATOM    111  O   UNL A   1      53.097  25.434  31.869  1.00  0.00    -0.237 OA
ATOM    112  O   UNL A   1      53.623  26.615  29.762  1.00  0.00    -0.237 OA
ATOM    113  O   UNL A   1      53.413  27.883  31.864  1.00  0.00    -0.744 OA
ENDBRANCH 109 110
ENDBRANCH  77 102
ENDBRANCH  51  52
ENDBRANCH  43  46
ENDBRANCH  41  42
ENDBRANCH  40  41
ENDBRANCH  39  40
ENDBRANCH  38  39
ENDBRANCH   1  38
TORSDOF 22
ENDMDL
MODEL 3
REMARK VINA RESULT:     -10.3      5.183     12.210
REMARK SMILES O=C(COc1ccccc1/C=N/NC(=O)c1cc(-c2ccc(F)cc2)nc2ccccc12)NCCCCCCNC(=O)c1ccc(-c2c3nc(c(-c4c(F)cc(S(=O)(=O)[O-])cc4F)c4ccc([nH]4)c(-c4c(F)cc(S(=O)(=O)[O-])cc4F)c4nc(c(-c5c(F)cc(S(=O)(=O)[O-])cc5F)c5ccc2[nH]5)C=C4)C=C3)cc1
REMARK SMILES IDX 35 1 34 2 33 3 1 4 2 5 3 7 4 8 5 9 6 10 10 11 7 12 9 13 8 14
REMARK SMILES IDX 11 15 12 16 13 17 14 18 15 20 16 21 17 22 32 23 18 24 27 25
REMARK SMILES IDX 31 26 26 27 28 28 30 29 29 30 19 31 20 32 25 33 21 34 24 35
REMARK SMILES IDX 22 36 23 37 36 38 37 39 38 40 39 41 40 42 41 43 42 45 43 46
REMARK SMILES IDX 44 47 108 48 45 49 107 50 46 51 47 52 48 53 101 54 49 55
REMARK SMILES IDX 106 56 100 57 102 58 50 59 105 60 99 61 98 62 51 64 85 65
REMARK SMILES IDX 64 66 84 67 65 68 68 69 83 70 103 71 66 72 67 73 82 75
REMARK SMILES IDX 104 76 69 77 52 78 53 79 62 80 54 81 55 82 61 83 63 84 56 85
REMARK SMILES IDX 57 86 58 87 59 88 60 89 86 90 87 91 96 92 88 93 89 94 95 95
REMARK SMILES IDX 97 96 90 97 91 98 92 99 93 100 94 101 70 102 71 103 80 104
REMARK SMILES IDX 72 105 73 106 79 107 81 108 74 109 75 110 76 111 77 112
REMARK SMILES IDX 78 113
REMARK H PARENT 33 6 13 19 40 44 102 63 68 74
REMARK Flexibility Score: inf
ROOT
ATOM      1  C   UNL A   1      43.676  24.104  29.276  1.00  0.00     0.021 C 
ENDROOT
BRANCH   1   2
ATOM      2  C   UNL A   1      44.075  23.212  30.427  1.00  0.00     0.116 C 
BRANCH   2   3
ATOM      3  N   UNL A   1      44.362  23.882  31.671  1.00  0.00    -0.353 N 
ATOM      4  O   UNL A   1      46.128  25.282  31.149  1.00  0.00    -0.271 OA
ATOM      5  C   UNL A   1      45.053  25.081  31.701  1.00  0.00     0.257 C 
ATOM      6  H   UNL A   1      44.061  23.478  32.517  1.00  0.00     0.163 HD
BRANCH   5   7
ATOM      7  C   UNL A   1      44.339  26.176  32.474  1.00  0.00     0.329 C 
BRANCH   7   8
ATOM      8  O   UNL A   1      44.567  25.906  33.850  1.00  0.00    -0.483 OA
BRANCH   8   9
ATOM      9  C   UNL A   1      43.458  25.797  34.630  1.00  0.00     0.128 A 
ATOM     10  C   UNL A   1      42.850  27.054  34.819  1.00  0.00     0.047 A 
ATOM     11  C   UNL A   1      43.082  24.698  35.413  1.00  0.00     0.037 A 
ATOM     12  C   UNL A   1      41.891  27.253  35.805  1.00  0.00     0.004 A 
ATOM     13  C   UNL A   1      42.125  24.938  36.428  1.00  0.00     0.013 A 
ATOM     14  C   UNL A   1      41.544  26.196  36.629  1.00  0.00     0.001 A 
BRANCH  11  15
ATOM     15  C   UNL A   1      43.550  23.272  35.414  1.00  0.00     0.145 C 
ATOM     16  N   UNL A   1      44.545  22.681  34.793  1.00  0.00    -0.180 NA
BRANCH  16  17
ATOM     17  N   UNL A   1      44.402  21.296  34.862  1.00  0.00    -0.243 N 
ATOM     18  C   UNL A   1      45.264  20.232  35.109  1.00  0.00     0.272 C 
ATOM     19  H   UNL A   1      43.476  21.003  34.701  1.00  0.00     0.194 HD
ATOM     20  O   UNL A   1      44.797  19.121  34.838  1.00  0.00    -0.267 OA
BRANCH  18  21
ATOM     21  C   UNL A   1      46.615  20.299  35.747  1.00  0.00     0.053 A 
ATOM     22  C   UNL A   1      47.719  20.786  35.042  1.00  0.00     0.043 A 
ATOM     23  C   UNL A   1      46.826  19.708  37.059  1.00  0.00     0.013 A 
ATOM     24  C   UNL A   1      48.924  20.876  35.723  1.00  0.00     0.072 A 
ATOM     25  C   UNL A   1      48.076  19.949  37.648  1.00  0.00     0.072 A 
ATOM     26  C   UNL A   1      45.971  18.856  37.822  1.00  0.00     0.011 A 
ATOM     27  N   UNL A   1      49.038  20.595  37.037  1.00  0.00    -0.248 NA
ATOM     28  C   UNL A   1      48.449  19.434  38.877  1.00  0.00     0.029 A 
ATOM     29  C   UNL A   1      46.383  18.266  39.031  1.00  0.00     0.001 A 
ATOM     30  C   UNL A   1      47.625  18.563  39.565  1.00  0.00     0.002 A 
BRANCH  24  31
ATOM     31  C   UNL A   1      50.288  21.041  35.207  1.00  0.00     0.000 A 
ATOM     32  C   UNL A   1      50.904  22.293  35.431  1.00  0.00     0.013 A 
ATOM     33  C   UNL A   1      50.722  20.272  34.111  1.00  0.00     0.013 A 
ATOM     34  C   UNL A   1      51.817  22.814  34.512  1.00  0.00     0.040 A 
ATOM     35  C   UNL A   1      51.650  20.788  33.203  1.00  0.00     0.040 A 
ATOM     36  C   UNL A   1      52.158  22.067  33.393  1.00  0.00     0.123 A 
ATOM     37  F   UNL A   1      52.944  22.612  32.454  1.00  0.00    -0.207 F 
ENDBRANCH  24  31
ENDBRANCH  18  21
ENDBRANCH  16  17
ENDBRANCH  11  15
ENDBRANCH   8   9
ENDBRANCH   7   8
ENDBRANCH   5   7
ENDBRANCH   2   3
ENDBRANCH   1   2
BRANCH   1  38
ATOM     38  C   UNL A   1      42.968  23.370  28.148  1.00  0.00     0.002 C 
BRANCH  38  39
ATOM     39  C   UNL A   1      41.998  22.269  28.588  1.00  0.00     0.002 C 
BRANCH  39  40
ATOM     40  C   UNL A   1      41.590  21.253  27.516  1.00  0.00     0.021 C 
BRANCH  40  41
ATOM     41  C   UNL A   1      41.225  21.838  26.154  1.00  0.00     0.116 C 
BRANCH  41  42
ATOM     42  N   UNL A   1      39.787  21.907  25.948  1.00  0.00    -0.352 N 
ATOM     43  C   UNL A   1      38.902  22.909  26.238  1.00  0.00     0.251 C 
ATOM     44  H   UNL A   1      39.388  21.107  25.537  1.00  0.00     0.163 HD
ATOM     45  O   UNL A   1      37.694  22.708  26.149  1.00  0.00    -0.269 OA
BRANCH  43  46
ATOM     46  C   UNL A   1      39.404  24.223  26.679  1.00  0.00     0.039 A 
ATOM     47  C   UNL A   1      39.243  24.585  28.018  1.00  0.00     0.014 A 
ATOM     48  C   UNL A   1      40.024  25.093  25.776  1.00  0.00     0.014 A 
ATOM     49  C   UNL A   1      39.760  25.799  28.469  1.00  0.00     0.010 A 
ATOM     50  C   UNL A   1      40.590  26.275  26.240  1.00  0.00     0.010 A 
ATOM     51  C   UNL A   1      40.464  26.638  27.590  1.00  0.00    -0.014 A 
BRANCH  51  52
ATOM     52  C   UNL A   1      41.089  27.892  28.069  1.00  0.00     0.031 A 
ATOM     53  C   UNL A   1      42.582  28.052  28.036  1.00  0.00     0.074 A 
ATOM     54  C   UNL A   1      40.313  28.853  28.605  1.00  0.00     0.049 A 
ATOM     55  N   UNL A   1      43.317  29.037  28.482  1.00  0.00    -0.248 NA
ATOM     56  C   UNL A   1      43.351  26.944  27.448  1.00  0.00     0.031 C 
ATOM     57  C   UNL A   1      38.856  28.783  28.742  1.00  0.00     0.029 A 
ATOM     58  N   UNL A   1      40.640  30.067  29.155  1.00  0.00    -0.354 N 
ATOM     59  C   UNL A   1      44.633  28.666  28.241  1.00  0.00     0.074 A 
ATOM     60  C   UNL A   1      44.598  27.344  27.653  1.00  0.00     0.031 C 
ATOM     61  C   UNL A   1      38.416  29.904  29.335  1.00  0.00     0.029 A 
ATOM     62  C   UNL A   1      39.558  30.757  29.647  1.00  0.00     0.049 A 
ATOM     63  H   UNL A   1      41.561  30.410  29.191  1.00  0.00     0.167 HD
ATOM     64  C   UNL A   1      45.767  29.373  28.469  1.00  0.00     0.037 A 
ATOM     65  C   UNL A   1      39.496  31.936  30.294  1.00  0.00     0.037 A 
ATOM     66  C   UNL A   1      45.788  30.694  29.042  1.00  0.00     0.049 A 
ATOM     67  C   UNL A   1      40.763  32.709  30.530  1.00  0.00     0.074 A 
ATOM     68  C   UNL A   1      46.876  31.521  29.259  1.00  0.00     0.029 A 
ATOM     69  N   UNL A   1      44.669  31.376  29.498  1.00  0.00    -0.354 N 
ATOM     70  N   UNL A   1      41.996  32.377  30.228  1.00  0.00    -0.248 NA
ATOM     71  C   UNL A   1      40.633  34.017  31.186  1.00  0.00     0.031 C 
ATOM     72  C   UNL A   1      46.419  32.689  29.879  1.00  0.00     0.029 A 
ATOM     73  C   UNL A   1      45.042  32.607  30.014  1.00  0.00     0.049 A 
ATOM     74  H   UNL A   1      43.747  31.036  29.459  1.00  0.00     0.167 HD
ATOM     75  C   UNL A   1      42.789  33.439  30.648  1.00  0.00     0.074 A 
ATOM     76  C   UNL A   1      41.893  34.431  31.208  1.00  0.00     0.031 C 
ATOM     77  C   UNL A   1      44.136  33.579  30.575  1.00  0.00     0.037 A 
BRANCH  64  78
ATOM     78  C   UNL A   1      47.069  28.722  28.096  1.00  0.00     0.058 A 
ATOM     79  C   UNL A   1      47.841  28.028  29.044  1.00  0.00     0.135 A 
ATOM     80  C   UNL A   1      47.556  28.791  26.782  1.00  0.00     0.135 A 
ATOM     81  F   UNL A   1      47.429  27.943  30.319  1.00  0.00    -0.206 F 
ATOM     82  C   UNL A   1      49.069  27.466  28.712  1.00  0.00     0.059 A 
ATOM     83  C   UNL A   1      48.769  28.213  26.421  1.00  0.00     0.059 A 
ATOM     84  F   UNL A   1      46.858  29.439  25.836  1.00  0.00    -0.206 F 
ATOM     85  C   UNL A   1      49.529  27.571  27.398  1.00  0.00     0.060 A 
BRANCH  85  86
ATOM     86  S   UNL A   1      51.136  26.861  26.986  1.00  0.00     0.124 S 
ATOM     87  O   UNL A   1      51.645  26.508  28.308  1.00  0.00    -0.237 OA
ATOM     88  O   UNL A   1      50.774  25.738  26.127  1.00  0.00    -0.237 OA
ATOM     89  O   UNL A   1      51.831  27.958  26.319  1.00  0.00    -0.744 OA
ENDBRANCH  85  86
ENDBRANCH  64  78
BRANCH  65  90
ATOM     90  C   UNL A   1      38.178  32.451  30.748  1.00  0.00     0.058 A 
ATOM     91  C   UNL A   1      37.688  32.156  32.027  1.00  0.00     0.135 A 
ATOM     92  C   UNL A   1      37.412  33.297  29.930  1.00  0.00     0.135 A 
ATOM     93  F   UNL A   1      38.384  31.349  32.842  1.00  0.00    -0.206 F 
ATOM     94  C   UNL A   1      36.484  32.680  32.484  1.00  0.00     0.059 A 
ATOM     95  C   UNL A   1      36.214  33.850  30.371  1.00  0.00     0.059 A 
ATOM     96  F   UNL A   1      37.847  33.622  28.703  1.00  0.00    -0.206 F 
ATOM     97  C   UNL A   1      35.756  33.533  31.650  1.00  0.00     0.060 A 
BRANCH  97  98
ATOM     98  S   UNL A   1      34.236  34.277  32.281  1.00  0.00     0.124 S 
ATOM     99  O   UNL A   1      33.678  33.184  33.068  1.00  0.00    -0.237 OA
ATOM    100  O   UNL A   1      34.742  35.417  33.039  1.00  0.00    -0.237 OA
ATOM    101  O   UNL A   1      33.503  34.621  31.066  1.00  0.00    -0.744 OA
ENDBRANCH  97  98
ENDBRANCH  65  90
BRANCH  77 102
ATOM    102  C   UNL A   1      44.725  34.853  31.111  1.00  0.00     0.058 A 
ATOM    103  C   UNL A   1      45.175  34.951  32.437  1.00  0.00     0.135 A 
ATOM    104  C   UNL A   1      44.896  35.966  30.275  1.00  0.00     0.135 A 
ATOM    105  F   UNL A   1      45.026  33.916  33.279  1.00  0.00    -0.206 F 
ATOM    106  C   UNL A   1      45.761  36.116  32.919  1.00  0.00     0.059 A 
ATOM    107  C   UNL A   1      45.500  37.134  30.729  1.00  0.00     0.059 A 
ATOM    108  F   UNL A   1      44.490  35.921  28.996  1.00  0.00    -0.206 F 
ATOM    109  C   UNL A   1      45.923  37.202  32.056  1.00  0.00     0.060 A 
BRANCH 109 110
ATOM    110  S   UNL A   1      46.725  38.693  32.683  1.00  0.00     0.124 S 
ATOM    111  O   UNL A   1      46.566  38.530  34.124  1.00  0.00    -0.237 OA
ATOM    112  O   UNL A   1      48.086  38.555  32.175  1.00  0.00    -0.237 OA
ATOM    113  O   UNL A   1      45.946  39.773  32.084  1.00  0.00    -0.744 OA
ENDBRANCH 109 110
ENDBRANCH  77 102
ENDBRANCH  51  52
ENDBRANCH  43  46
ENDBRANCH  41  42
ENDBRANCH  40  41
ENDBRANCH  39  40
ENDBRANCH  38  39
ENDBRANCH   1  38
TORSDOF 22
ENDMDL
