MODEL 1
REMARK VINA RESULT:     -11.2      0.000      0.000
REMARK SMILES C[C@@H](NC(=O)c1cc(C(=O)NCCCCCCNC(=O)c2ccc(-c3c4nc(c(-c5c(F)cc(S(=O)(=O)[O-])cc5F)c5ccc([nH]5)c(-c5c(F)cc(S(=O)(=O)[O-])cc5F)c5nc(c(-c6c(F)cc(S(=O)(=O)[O-])cc6F)c6ccc3[nH]6)C=C5)C=C4)cc2)n(C)n1)c1ccccc1
REMARK SMILES IDX 14 1 13 2 12 3 11 4 9 5 10 6 8 8 6 9 7 10 89 11 87 12 88 13
REMARK SMILES IDX 4 14 3 15 5 17 2 18 1 19 90 20 91 21 95 22 92 23 94 24 93 25
REMARK SMILES IDX 15 26 16 27 17 28 18 29 19 30 20 32 21 33 22 34 86 35 23 36
REMARK SMILES IDX 85 37 24 38 25 39 26 40 79 41 27 42 84 43 78 44 80 45 28 46
REMARK SMILES IDX 83 47 77 48 76 49 29 51 63 52 42 53 62 54 43 55 46 56 61 57
REMARK SMILES IDX 81 58 44 59 45 60 60 62 82 63 47 64 30 65 31 66 40 67 32 68
REMARK SMILES IDX 33 69 39 70 41 71 34 72 35 73 36 74 37 75 38 76 64 77 65 78
REMARK SMILES IDX 74 79 66 80 67 81 73 82 75 83 68 84 69 85 70 86 71 87 72 88
REMARK SMILES IDX 48 89 49 90 58 91 50 92 51 93 57 94 59 95 52 96 53 97 54 98
REMARK SMILES IDX 55 99 56 100
REMARK H PARENT 11 7 3 16 18 31 80 50 46 61
REMARK Flexibility Score: inf
ROOT
ATOM      1  C   UNL A   1      32.100  28.043  24.500  1.00  0.00     0.002 C 
ENDROOT
BRANCH   1   2
ATOM      2  C   UNL A   1      32.654  27.314  23.269  1.00  0.00     0.021 C 
BRANCH   2   3
ATOM      3  C   UNL A   1      33.647  26.193  23.585  1.00  0.00     0.116 C 
BRANCH   3   4
ATOM      4  N   UNL A   1      33.737  25.247  22.504  1.00  0.00    -0.351 N 
ATOM      5  C   UNL A   1      33.220  24.012  22.245  1.00  0.00     0.269 C 
ATOM      6  O   UNL A   1      33.414  23.659  21.073  1.00  0.00    -0.268 OA
ATOM      7  H   UNL A   1      34.312  25.570  21.774  1.00  0.00     0.163 HD
BRANCH   5   8
ATOM      8  C   UNL A   1      32.523  23.127  23.164  1.00  0.00     0.126 A 
ATOM      9  C   UNL A   1      32.319  21.358  24.548  1.00  0.00     0.151 A 
ATOM     10  C   UNL A   1      33.016  21.846  23.433  1.00  0.00     0.069 A 
ATOM     11  N   UNL A   1      31.294  22.165  24.836  1.00  0.00    -0.167 NA
ATOM     12  N   UNL A   1      31.459  23.238  24.035  1.00  0.00    -0.262 N 
ATOM     13  C   UNL A   1      30.566  24.326  24.337  1.00  0.00     0.174 C 
BRANCH   9  14
ATOM     14  C   UNL A   1      32.591  20.181  25.355  1.00  0.00     0.272 C 
ATOM     15  N   UNL A   1      33.153  20.323  26.598  1.00  0.00    -0.344 N 
ATOM     16  H   UNL A   1      32.911  19.596  27.217  1.00  0.00     0.164 HD
ATOM     17  O   UNL A   1      32.268  19.042  24.994  1.00  0.00    -0.267 OA
BRANCH  15  18
ATOM     18  C   UNL A   1      34.036  21.324  27.205  1.00  0.00     0.109 C 
ATOM     19  C   UNL A   1      33.177  22.330  27.984  1.00  0.00     0.036 C 
BRANCH  18  20
ATOM     20  C   UNL A   1      35.026  22.068  26.332  1.00  0.00    -0.026 A 
ATOM     21  C   UNL A   1      35.001  23.463  26.184  1.00  0.00     0.006 A 
ATOM     22  C   UNL A   1      36.046  21.348  25.681  1.00  0.00     0.006 A 
ATOM     23  C   UNL A   1      35.958  24.114  25.400  1.00  0.00     0.000 A 
ATOM     24  C   UNL A   1      36.997  22.001  24.894  1.00  0.00     0.000 A 
ATOM     25  C   UNL A   1      36.952  23.384  24.752  1.00  0.00     0.000 A 
ENDBRANCH  18  20
ENDBRANCH  15  18
ENDBRANCH   9  14
ENDBRANCH   5   8
ENDBRANCH   3   4
ENDBRANCH   2   3
ENDBRANCH   1   2
BRANCH   1  26
ATOM     26  C   UNL A   1      31.942  27.183  25.759  1.00  0.00     0.002 C 
BRANCH  26  27
ATOM     27  C   UNL A   1      32.948  27.469  26.878  1.00  0.00     0.021 C 
BRANCH  27  28
ATOM     28  C   UNL A   1      34.058  28.443  26.496  1.00  0.00     0.116 C 
BRANCH  28  29
ATOM     29  N   UNL A   1      33.823  29.763  27.057  1.00  0.00    -0.352 N 
ATOM     30  C   UNL A   1      34.589  30.477  27.943  1.00  0.00     0.251 C 
ATOM     31  H   UNL A   1      32.997  30.208  26.760  1.00  0.00     0.163 HD
ATOM     32  O   UNL A   1      34.112  31.461  28.506  1.00  0.00    -0.269 OA
BRANCH  30  33
ATOM     33  C   UNL A   1      35.981  30.063  28.226  1.00  0.00     0.039 A 
ATOM     34  C   UNL A   1      36.944  30.184  27.221  1.00  0.00     0.014 A 
ATOM     35  C   UNL A   1      36.328  29.523  29.468  1.00  0.00     0.014 A 
ATOM     36  C   UNL A   1      38.265  29.808  27.478  1.00  0.00     0.010 A 
ATOM     37  C   UNL A   1      37.657  29.207  29.743  1.00  0.00     0.010 A 
ATOM     38  C   UNL A   1      38.637  29.337  28.748  1.00  0.00    -0.014 A 
BRANCH  38  39
ATOM     39  C   UNL A   1      40.042  28.963  29.051  1.00  0.00     0.031 A 
ATOM     40  C   UNL A   1      40.979  29.977  29.652  1.00  0.00     0.074 A 
ATOM     41  C   UNL A   1      40.490  27.732  28.732  1.00  0.00     0.049 A 
ATOM     42  N   UNL A   1      42.258  29.872  29.905  1.00  0.00    -0.248 NA
ATOM     43  C   UNL A   1      40.408  31.292  29.988  1.00  0.00     0.031 C 
ATOM     44  C   UNL A   1      39.690  26.677  28.105  1.00  0.00     0.029 A 
ATOM     45  N   UNL A   1      41.732  27.164  28.877  1.00  0.00    -0.354 N 
ATOM     46  C   UNL A   1      42.647  31.103  30.419  1.00  0.00     0.074 A 
ATOM     47  C   UNL A   1      41.480  31.958  30.393  1.00  0.00     0.031 C 
ATOM     48  C   UNL A   1      40.458  25.590  27.928  1.00  0.00     0.029 A 
ATOM     49  C   UNL A   1      41.809  25.878  28.397  1.00  0.00     0.049 A 
ATOM     50  H   UNL A   1      42.494  27.633  29.287  1.00  0.00     0.167 HD
ATOM     51  C   UNL A   1      43.858  31.480  30.894  1.00  0.00     0.037 A 
ATOM     52  C   UNL A   1      42.855  25.031  28.332  1.00  0.00     0.037 A 
ATOM     53  C   UNL A   1      45.009  30.618  30.942  1.00  0.00     0.049 A 
ATOM     54  C   UNL A   1      44.188  25.469  28.877  1.00  0.00     0.074 A 
ATOM     55  C   UNL A   1      46.273  30.894  31.434  1.00  0.00     0.029 A 
ATOM     56  N   UNL A   1      45.036  29.307  30.487  1.00  0.00    -0.354 N 
ATOM     57  N   UNL A   1      44.525  26.624  29.399  1.00  0.00    -0.248 NA
ATOM     58  C   UNL A   1      45.281  24.487  28.836  1.00  0.00     0.031 C 
ATOM     59  C   UNL A   1      47.072  29.760  31.251  1.00  0.00     0.029 A 
ATOM     60  C   UNL A   1      46.294  28.763  30.685  1.00  0.00     0.049 A 
ATOM     61  H   UNL A   1      44.273  28.834  30.084  1.00  0.00     0.167 HD
ATOM     62  C   UNL A   1      45.859  26.498  29.773  1.00  0.00     0.074 A 
ATOM     63  C   UNL A   1      46.264  25.151  29.428  1.00  0.00     0.031 C 
ATOM     64  C   UNL A   1      46.674  27.414  30.351  1.00  0.00     0.037 A 
BRANCH  51  65
ATOM     65  C   UNL A   1      43.998  32.883  31.418  1.00  0.00     0.058 A 
ATOM     66  C   UNL A   1      43.746  33.188  32.767  1.00  0.00     0.135 A 
ATOM     67  C   UNL A   1      44.433  33.924  30.582  1.00  0.00     0.135 A 
ATOM     68  F   UNL A   1      43.312  32.235  33.606  1.00  0.00    -0.206 F 
ATOM     69  C   UNL A   1      43.899  34.479  33.261  1.00  0.00     0.059 A 
ATOM     70  C   UNL A   1      44.618  35.217  31.062  1.00  0.00     0.059 A 
ATOM     71  F   UNL A   1      44.686  33.687  29.286  1.00  0.00    -0.206 F 
ATOM     72  C   UNL A   1      44.338  35.487  32.401  1.00  0.00     0.060 A 
BRANCH  72  73
ATOM     73  S   UNL A   1      44.548  37.153  33.064  1.00  0.00     0.124 S 
ATOM     74  O   UNL A   1      45.430  36.905  34.201  1.00  0.00    -0.237 OA
ATOM     75  O   UNL A   1      45.150  37.864  31.941  1.00  0.00    -0.237 OA
ATOM     76  O   UNL A   1      43.187  37.558  33.403  1.00  0.00    -0.744 OA
ENDBRANCH  72  73
ENDBRANCH  51  65
BRANCH  52  77
ATOM     77  C   UNL A   1      42.683  23.677  27.741  1.00  0.00     0.058 A 
ATOM     78  C   UNL A   1      42.379  22.569  28.546  1.00  0.00     0.135 A 
ATOM     79  C   UNL A   1      42.815  23.466  26.360  1.00  0.00     0.135 A 
ATOM     80  F   UNL A   1      42.245  22.721  29.873  1.00  0.00    -0.206 F 
ATOM     81  C   UNL A   1      42.240  21.294  28.008  1.00  0.00     0.059 A 
ATOM     82  C   UNL A   1      42.655  22.205  25.795  1.00  0.00     0.059 A 
ATOM     83  F   UNL A   1      43.084  24.497  25.544  1.00  0.00    -0.206 F 
ATOM     84  C   UNL A   1      42.381  21.122  26.630  1.00  0.00     0.060 A 
BRANCH  84  85
ATOM     85  S   UNL A   1      42.164  19.469  25.934  1.00  0.00     0.124 S 
ATOM     86  O   UNL A   1      43.009  19.538  24.749  1.00  0.00    -0.237 OA
ATOM     87  O   UNL A   1      42.647  18.615  27.015  1.00  0.00    -0.237 OA
ATOM     88  O   UNL A   1      40.727  19.399  25.685  1.00  0.00    -0.744 OA
ENDBRANCH  84  85
ENDBRANCH  52  77
BRANCH  64  89
ATOM     89  C   UNL A   1      48.073  26.981  30.687  1.00  0.00     0.058 A 
ATOM     90  C   UNL A   1      49.167  27.323  29.878  1.00  0.00     0.135 A 
ATOM     91  C   UNL A   1      48.326  26.258  31.864  1.00  0.00     0.135 A 
ATOM     92  F   UNL A   1      48.977  28.008  28.739  1.00  0.00    -0.206 F 
ATOM     93  C   UNL A   1      50.463  26.947  30.214  1.00  0.00     0.059 A 
ATOM     94  C   UNL A   1      49.617  25.893  32.233  1.00  0.00     0.059 A 
ATOM     95  F   UNL A   1      47.316  25.915  32.678  1.00  0.00    -0.206 F 
ATOM     96  C   UNL A   1      50.678  26.232  31.395  1.00  0.00     0.060 A 
BRANCH  96  97
ATOM     97  S   UNL A   1      52.369  25.780  31.838  1.00  0.00     0.124 S 
ATOM     98  O   UNL A   1      52.743  26.877  32.724  1.00  0.00    -0.237 OA
ATOM     99  O   UNL A   1      52.188  24.481  32.479  1.00  0.00    -0.237 OA
ATOM    100  O   UNL A   1      53.059  25.747  30.553  1.00  0.00    -0.744 OA
ENDBRANCH  96  97
ENDBRANCH  64  89
ENDBRANCH  38  39
ENDBRANCH  30  33
ENDBRANCH  28  29
ENDBRANCH  27  28
ENDBRANCH  26  27
ENDBRANCH   1  26
TORSDOF 19
ENDMDL
MODEL 2
REMARK VINA RESULT:     -11.1      2.767      3.643
REMARK SMILES C[C@@H](NC(=O)c1cc(C(=O)NCCCCCCNC(=O)c2ccc(-c3c4nc(c(-c5c(F)cc(S(=O)(=O)[O-])cc5F)c5ccc([nH]5)c(-c5c(F)cc(S(=O)(=O)[O-])cc5F)c5nc(c(-c6c(F)cc(S(=O)(=O)[O-])cc6F)c6ccc3[nH]6)C=C5)C=C4)cc2)n(C)n1)c1ccccc1
REMARK SMILES IDX 14 1 13 2 12 3 11 4 9 5 10 6 8 8 6 9 7 10 89 11 87 12 88 13
REMARK SMILES IDX 4 14 3 15 5 17 2 18 1 19 90 20 91 21 95 22 92 23 94 24 93 25
REMARK SMILES IDX 15 26 16 27 17 28 18 29 19 30 20 32 21 33 22 34 86 35 23 36
REMARK SMILES IDX 85 37 24 38 25 39 26 40 79 41 27 42 84 43 78 44 80 45 28 46
REMARK SMILES IDX 83 47 77 48 76 49 29 51 63 52 42 53 62 54 43 55 46 56 61 57
REMARK SMILES IDX 81 58 44 59 45 60 60 62 82 63 47 64 30 65 31 66 40 67 32 68
REMARK SMILES IDX 33 69 39 70 41 71 34 72 35 73 36 74 37 75 38 76 64 77 65 78
REMARK SMILES IDX 74 79 66 80 67 81 73 82 75 83 68 84 69 85 70 86 71 87 72 88
REMARK SMILES IDX 48 89 49 90 58 91 50 92 51 93 57 94 59 95 52 96 53 97 54 98
REMARK SMILES IDX 55 99 56 100
REMARK H PARENT 11 7 3 16 18 31 80 50 46 61
REMARK Flexibility Score: inf
ROOT
ATOM      1  C   UNL A   1      31.752  27.199  23.793  1.00  0.00     0.002 C 
ENDROOT
BRANCH   1   2
ATOM      2  C   UNL A   1      30.572  26.956  24.742  1.00  0.00     0.021 C 
BRANCH   2   3
ATOM      3  C   UNL A   1      30.968  26.681  26.195  1.00  0.00     0.116 C 
BRANCH   3   4
ATOM      4  N   UNL A   1      30.403  25.447  26.673  1.00  0.00    -0.351 N 
ATOM      5  C   UNL A   1      30.655  24.121  26.479  1.00  0.00     0.269 C 
ATOM      6  O   UNL A   1      30.028  23.404  27.272  1.00  0.00    -0.268 OA
ATOM      7  H   UNL A   1      29.650  25.597  27.290  1.00  0.00     0.163 HD
BRANCH   5   8
ATOM      8  C   UNL A   1      31.523  23.515  25.482  1.00  0.00     0.126 A 
ATOM      9  C   UNL A   1      33.107  22.093  24.737  1.00  0.00     0.151 A 
ATOM     10  C   UNL A   1      32.651  22.785  25.869  1.00  0.00     0.069 A 
ATOM     11  N   UNL A   1      32.463  22.523  23.648  1.00  0.00    -0.167 NA
ATOM     12  N   UNL A   1      31.490  23.332  24.116  1.00  0.00    -0.262 N 
ATOM     13  C   UNL A   1      30.546  23.741  23.108  1.00  0.00     0.174 C 
BRANCH   9  14
ATOM     14  C   UNL A   1      34.104  21.040  24.647  1.00  0.00     0.272 C 
ATOM     15  N   UNL A   1      35.427  21.336  24.853  1.00  0.00    -0.344 N 
ATOM     16  H   UNL A   1      35.945  20.573  25.198  1.00  0.00     0.164 HD
ATOM     17  O   UNL A   1      33.800  19.855  24.461  1.00  0.00    -0.267 OA
BRANCH  15  18
ATOM     18  C   UNL A   1      36.237  22.545  24.669  1.00  0.00     0.109 C 
ATOM     19  C   UNL A   1      36.532  22.716  23.172  1.00  0.00     0.036 C 
BRANCH  18  20
ATOM     20  C   UNL A   1      37.516  22.710  25.463  1.00  0.00    -0.026 A 
ATOM     21  C   UNL A   1      37.818  23.883  26.171  1.00  0.00     0.006 A 
ATOM     22  C   UNL A   1      38.420  21.634  25.543  1.00  0.00     0.006 A 
ATOM     23  C   UNL A   1      38.993  23.980  26.924  1.00  0.00     0.000 A 
ATOM     24  C   UNL A   1      39.595  21.735  26.291  1.00  0.00     0.000 A 
ATOM     25  C   UNL A   1      39.882  22.909  26.981  1.00  0.00     0.000 A 
ENDBRANCH  18  20
ENDBRANCH  15  18
ENDBRANCH   9  14
ENDBRANCH   5   8
ENDBRANCH   3   4
ENDBRANCH   2   3
ENDBRANCH   1   2
BRANCH   1  26
ATOM     26  C   UNL A   1      32.567  28.469  24.067  1.00  0.00     0.002 C 
BRANCH  26  27
ATOM     27  C   UNL A   1      33.986  28.237  24.593  1.00  0.00     0.021 C 
BRANCH  27  28
ATOM     28  C   UNL A   1      34.154  28.487  26.089  1.00  0.00     0.116 C 
BRANCH  28  29
ATOM     29  N   UNL A   1      33.852  29.867  26.433  1.00  0.00    -0.352 N 
ATOM     30  C   UNL A   1      34.411  30.661  27.402  1.00  0.00     0.251 C 
ATOM     31  H   UNL A   1      33.146  30.292  25.895  1.00  0.00     0.163 HD
ATOM     32  O   UNL A   1      33.858  31.712  27.723  1.00  0.00    -0.269 OA
BRANCH  30  33
ATOM     33  C   UNL A   1      35.670  30.254  28.064  1.00  0.00     0.039 A 
ATOM     34  C   UNL A   1      36.885  30.479  27.412  1.00  0.00     0.014 A 
ATOM     35  C   UNL A   1      35.650  29.618  29.309  1.00  0.00     0.014 A 
ATOM     36  C   UNL A   1      38.083  30.110  28.029  1.00  0.00     0.010 A 
ATOM     37  C   UNL A   1      36.847  29.307  29.950  1.00  0.00     0.010 A 
ATOM     38  C   UNL A   1      38.075  29.542  29.313  1.00  0.00    -0.014 A 
BRANCH  38  39
ATOM     39  C   UNL A   1      39.339  29.172  30.001  1.00  0.00     0.031 A 
ATOM     40  C   UNL A   1      39.786  29.938  31.218  1.00  0.00     0.074 A 
ATOM     41  C   UNL A   1      40.111  28.189  29.498  1.00  0.00     0.049 A 
ATOM     42  N   UNL A   1      40.895  29.828  31.902  1.00  0.00    -0.248 NA
ATOM     43  C   UNL A   1      38.877  30.985  31.715  1.00  0.00     0.031 C 
ATOM     44  C   UNL A   1      39.808  27.405  28.299  1.00  0.00     0.029 A 
ATOM     45  N   UNL A   1      41.318  27.691  29.922  1.00  0.00    -0.354 N 
ATOM     46  C   UNL A   1      40.824  30.792  32.901  1.00  0.00     0.074 A 
ATOM     47  C   UNL A   1      39.586  31.514  32.702  1.00  0.00     0.031 C 
ATOM     48  C   UNL A   1      40.796  26.520  28.090  1.00  0.00     0.029 A 
ATOM     49  C   UNL A   1      41.817  26.694  29.117  1.00  0.00     0.049 A 
ATOM     50  H   UNL A   1      41.782  28.017  30.727  1.00  0.00     0.167 HD
ATOM     51  C   UNL A   1      41.697  31.037  33.907  1.00  0.00     0.037 A 
ATOM     52  C   UNL A   1      42.974  26.007  29.192  1.00  0.00     0.037 A 
ATOM     53  C   UNL A   1      42.915  30.299  34.116  1.00  0.00     0.049 A 
ATOM     54  C   UNL A   1      43.923  26.289  30.326  1.00  0.00     0.074 A 
ATOM     55  C   UNL A   1      43.851  30.447  35.124  1.00  0.00     0.029 A 
ATOM     56  N   UNL A   1      43.363  29.266  33.305  1.00  0.00    -0.354 N 
ATOM     57  N   UNL A   1      43.817  27.176  31.287  1.00  0.00    -0.248 NA
ATOM     58  C   UNL A   1      45.141  25.471  30.396  1.00  0.00     0.031 C 
ATOM     59  C   UNL A   1      44.879  29.524  34.907  1.00  0.00     0.029 A 
ATOM     60  C   UNL A   1      44.563  28.771  33.788  1.00  0.00     0.049 A 
ATOM     61  H   UNL A   1      42.897  28.934  32.504  1.00  0.00     0.167 HD
ATOM     62  C   UNL A   1      44.939  27.004  32.089  1.00  0.00     0.074 A 
ATOM     63  C   UNL A   1      45.705  25.920  31.508  1.00  0.00     0.031 C 
ATOM     64  C   UNL A   1      45.303  27.680  33.206  1.00  0.00     0.037 A 
BRANCH  51  65
ATOM     65  C   UNL A   1      41.358  32.138  34.874  1.00  0.00     0.058 A 
ATOM     66  C   UNL A   1      41.821  33.450  34.680  1.00  0.00     0.135 A 
ATOM     67  C   UNL A   1      40.526  31.895  35.979  1.00  0.00     0.135 A 
ATOM     68  F   UNL A   1      42.633  33.736  33.650  1.00  0.00    -0.206 F 
ATOM     69  C   UNL A   1      41.489  34.476  35.557  1.00  0.00     0.059 A 
ATOM     70  C   UNL A   1      40.159  32.911  36.855  1.00  0.00     0.059 A 
ATOM     71  F   UNL A   1      40.057  30.659  36.211  1.00  0.00    -0.206 F 
ATOM     72  C   UNL A   1      40.655  34.197  36.642  1.00  0.00     0.060 A 
BRANCH  72  73
ATOM     73  S   UNL A   1      40.220  35.545  37.762  1.00  0.00     0.124 S 
ATOM     74  O   UNL A   1      41.437  35.664  38.560  1.00  0.00    -0.237 OA
ATOM     75  O   UNL A   1      39.957  36.646  36.841  1.00  0.00    -0.237 OA
ATOM     76  O   UNL A   1      39.052  35.032  38.473  1.00  0.00    -0.744 OA
ENDBRANCH  72  73
ENDBRANCH  51  65
BRANCH  52  77
ATOM     77  C   UNL A   1      43.295  24.974  28.172  1.00  0.00     0.058 A 
ATOM     78  C   UNL A   1      43.061  23.613  28.420  1.00  0.00     0.135 A 
ATOM     79  C   UNL A   1      43.839  25.328  26.927  1.00  0.00     0.135 A 
ATOM     80  F   UNL A   1      42.544  23.226  29.597  1.00  0.00    -0.206 F 
ATOM     81  C   UNL A   1      43.379  22.635  27.483  1.00  0.00     0.059 A 
ATOM     82  C   UNL A   1      44.142  24.370  25.964  1.00  0.00     0.059 A 
ATOM     83  F   UNL A   1      44.062  26.617  26.632  1.00  0.00    -0.206 F 
ATOM     84  C   UNL A   1      43.922  23.025  26.257  1.00  0.00     0.060 A 
BRANCH  84  85
ATOM     85  S   UNL A   1      44.301  21.753  25.032  1.00  0.00     0.124 S 
ATOM     86  O   UNL A   1      43.270  20.761  25.314  1.00  0.00    -0.237 OA
ATOM     87  O   UNL A   1      44.159  22.483  23.776  1.00  0.00    -0.237 OA
ATOM     88  O   UNL A   1      45.666  21.362  25.370  1.00  0.00    -0.744 OA
ENDBRANCH  84  85
ENDBRANCH  52  77
BRANCH  64  89
ATOM     89  C   UNL A   1      46.561  27.244  33.901  1.00  0.00     0.058 A 
ATOM     90  C   UNL A   1      46.554  26.242  34.884  1.00  0.00     0.135 A 
ATOM     91  C   UNL A   1      47.799  27.800  33.538  1.00  0.00     0.135 A 
ATOM     92  F   UNL A   1      45.396  25.683  35.270  1.00  0.00    -0.206 F 
ATOM     93  C   UNL A   1      47.728  25.820  35.498  1.00  0.00     0.059 A 
ATOM     94  C   UNL A   1      48.989  27.376  34.122  1.00  0.00     0.059 A 
ATOM     95  F   UNL A   1      47.862  28.753  32.596  1.00  0.00    -0.206 F 
ATOM     96  C   UNL A   1      48.941  26.393  35.109  1.00  0.00     0.060 A 
BRANCH  96  97
ATOM     97  S   UNL A   1      50.463  25.812  35.889  1.00  0.00     0.124 S 
ATOM     98  O   UNL A   1      51.472  26.273  34.941  1.00  0.00    -0.237 OA
ATOM     99  O   UNL A   1      50.439  26.503  37.175  1.00  0.00    -0.237 OA
ATOM    100  O   UNL A   1      50.278  24.366  35.958  1.00  0.00    -0.744 OA
ENDBRANCH  96  97
ENDBRANCH  64  89
ENDBRANCH  38  39
ENDBRANCH  30  33
ENDBRANCH  28  29
ENDBRANCH  27  28
ENDBRANCH  26  27
ENDBRANCH   1  26
TORSDOF 19
ENDMDL
MODEL 3
REMARK VINA RESULT:     -11.1      4.690     10.371
REMARK SMILES C[C@@H](NC(=O)c1cc(C(=O)NCCCCCCNC(=O)c2ccc(-c3c4nc(c(-c5c(F)cc(S(=O)(=O)[O-])cc5F)c5ccc([nH]5)c(-c5c(F)cc(S(=O)(=O)[O-])cc5F)c5nc(c(-c6c(F)cc(S(=O)(=O)[O-])cc6F)c6ccc3[nH]6)C=C5)C=C4)cc2)n(C)n1)c1ccccc1
REMARK SMILES IDX 14 1 13 2 12 3 11 4 9 5 10 6 8 8 6 9 7 10 89 11 87 12 88 13
REMARK SMILES IDX 4 14 3 15 5 17 2 18 1 19 90 20 91 21 95 22 92 23 94 24 93 25
REMARK SMILES IDX 15 26 16 27 17 28 18 29 19 30 20 32 21 33 22 34 86 35 23 36
REMARK SMILES IDX 85 37 24 38 25 39 26 40 79 41 27 42 84 43 78 44 80 45 28 46
REMARK SMILES IDX 83 47 77 48 76 49 29 51 63 52 42 53 62 54 43 55 46 56 61 57
REMARK SMILES IDX 81 58 44 59 45 60 60 62 82 63 47 64 30 65 31 66 40 67 32 68
REMARK SMILES IDX 33 69 39 70 41 71 34 72 35 73 36 74 37 75 38 76 64 77 65 78
REMARK SMILES IDX 74 79 66 80 67 81 73 82 75 83 68 84 69 85 70 86 71 87 72 88
REMARK SMILES IDX 48 89 49 90 58 91 50 92 51 93 57 94 59 95 52 96 53 97 54 98
REMARK SMILES IDX 55 99 56 100
REMARK H PARENT 11 7 3 16 18 31 80 50 46 61
REMARK Flexibility Score: inf
ROOT
ATOM      1  C   UNL A   1      38.891  21.896  26.085  1.00  0.00     0.002 C 
ENDROOT
BRANCH   1   2
ATOM      2  C   UNL A   1      38.493  23.378  26.122  1.00  0.00     0.021 C 
BRANCH   2   3
ATOM      3  C   UNL A   1      37.118  23.683  25.521  1.00  0.00     0.116 C 
BRANCH   3   4
ATOM      4  N   UNL A   1      36.064  23.466  26.477  1.00  0.00    -0.351 N 
ATOM      5  C   UNL A   1      34.705  23.383  26.425  1.00  0.00     0.269 C 
ATOM      6  O   UNL A   1      34.219  22.975  27.490  1.00  0.00    -0.268 OA
ATOM      7  H   UNL A   1      36.410  23.349  27.391  1.00  0.00     0.163 HD
BRANCH   5   8
ATOM      8  C   UNL A   1      33.833  23.723  25.312  1.00  0.00     0.126 A 
ATOM      9  C   UNL A   1      33.148  24.944  23.543  1.00  0.00     0.151 A 
ATOM     10  C   UNL A   1      33.857  25.005  24.753  1.00  0.00     0.069 A 
ATOM     11  N   UNL A   1      32.517  23.771  23.441  1.00  0.00    -0.167 NA
ATOM     12  N   UNL A   1      32.975  23.037  24.477  1.00  0.00    -0.262 N 
ATOM     13  C   UNL A   1      32.569  21.656  24.430  1.00  0.00     0.174 C 
BRANCH   9  14
ATOM     14  C   UNL A   1      33.059  25.933  22.484  1.00  0.00     0.272 C 
ATOM     15  N   UNL A   1      32.349  27.089  22.689  1.00  0.00    -0.344 N 
ATOM     16  H   UNL A   1      32.679  27.846  22.152  1.00  0.00     0.164 HD
ATOM     17  O   UNL A   1      33.665  25.811  21.411  1.00  0.00    -0.267 OA
BRANCH  15  18
ATOM     18  C   UNL A   1      31.205  27.441  23.537  1.00  0.00     0.109 C 
ATOM     19  C   UNL A   1      30.242  28.318  22.723  1.00  0.00     0.036 C 
BRANCH  18  20
ATOM     20  C   UNL A   1      31.450  28.073  24.891  1.00  0.00    -0.026 A 
ATOM     21  C   UNL A   1      31.803  29.422  25.040  1.00  0.00     0.006 A 
ATOM     22  C   UNL A   1      31.270  27.300  26.054  1.00  0.00     0.006 A 
ATOM     23  C   UNL A   1      31.982  29.977  26.312  1.00  0.00     0.000 A 
ATOM     24  C   UNL A   1      31.454  27.855  27.322  1.00  0.00     0.000 A 
ATOM     25  C   UNL A   1      31.812  29.193  27.451  1.00  0.00     0.000 A 
ENDBRANCH  18  20
ENDBRANCH  15  18
ENDBRANCH   9  14
ENDBRANCH   5   8
ENDBRANCH   3   4
ENDBRANCH   2   3
ENDBRANCH   1   2
BRANCH   1  26
ATOM     26  C   UNL A   1      40.314  21.584  26.563  1.00  0.00     0.002 C 
BRANCH  26  27
ATOM     27  C   UNL A   1      40.742  22.290  27.853  1.00  0.00     0.021 C 
BRANCH  27  28
ATOM     28  C   UNL A   1      42.044  23.076  27.741  1.00  0.00     0.116 C 
BRANCH  28  29
ATOM     29  N   UNL A   1      42.096  23.845  26.509  1.00  0.00    -0.352 N 
ATOM     30  C   UNL A   1      41.773  25.161  26.294  1.00  0.00     0.251 C 
ATOM     31  H   UNL A   1      42.407  23.352  25.715  1.00  0.00     0.163 HD
ATOM     32  O   UNL A   1      41.631  25.574  25.144  1.00  0.00    -0.269 OA
BRANCH  30  33
ATOM     33  C   UNL A   1      41.591  26.080  27.439  1.00  0.00     0.039 A 
ATOM     34  C   UNL A   1      42.582  27.023  27.719  1.00  0.00     0.014 A 
ATOM     35  C   UNL A   1      40.461  25.985  28.258  1.00  0.00     0.014 A 
ATOM     36  C   UNL A   1      42.418  27.905  28.791  1.00  0.00     0.010 A 
ATOM     37  C   UNL A   1      40.270  26.905  29.288  1.00  0.00     0.010 A 
ATOM     38  C   UNL A   1      41.250  27.868  29.570  1.00  0.00    -0.014 A 
BRANCH  38  39
ATOM     39  C   UNL A   1      41.042  28.817  30.694  1.00  0.00     0.031 A 
ATOM     40  C   UNL A   1      41.876  28.702  31.942  1.00  0.00     0.074 A 
ATOM     41  C   UNL A   1      40.065  29.742  30.615  1.00  0.00     0.049 A 
ATOM     42  N   UNL A   1      41.786  29.374  33.061  1.00  0.00    -0.248 NA
ATOM     43  C   UNL A   1      42.934  27.678  31.942  1.00  0.00     0.031 C 
ATOM     44  C   UNL A   1      39.160  29.922  29.477  1.00  0.00     0.029 A 
ATOM     45  N   UNL A   1      39.657  30.694  31.516  1.00  0.00    -0.354 N 
ATOM     46  C   UNL A   1      42.765  28.851  33.898  1.00  0.00     0.074 A 
ATOM     47  C   UNL A   1      43.402  27.770  33.178  1.00  0.00     0.031 C 
ATOM     48  C   UNL A   1      38.312  30.929  29.744  1.00  0.00     0.029 A 
ATOM     49  C   UNL A   1      38.589  31.443  31.081  1.00  0.00     0.049 A 
ATOM     50  H   UNL A   1      40.089  30.829  32.389  1.00  0.00     0.167 HD
ATOM     51  C   UNL A   1      43.117  29.251  35.143  1.00  0.00     0.037 A 
ATOM     52  C   UNL A   1      37.902  32.425  31.696  1.00  0.00     0.037 A 
ATOM     53  C   UNL A   1      42.497  30.344  35.845  1.00  0.00     0.049 A 
ATOM     54  C   UNL A   1      38.320  32.861  33.075  1.00  0.00     0.074 A 
ATOM     55  C   UNL A   1      42.803  30.849  37.096  1.00  0.00     0.029 A 
ATOM     56  N   UNL A   1      41.448  31.107  35.353  1.00  0.00    -0.354 N 
ATOM     57  N   UNL A   1      39.277  32.382  33.834  1.00  0.00    -0.248 NA
ATOM     58  C   UNL A   1      37.576  33.975  33.678  1.00  0.00     0.031 C 
ATOM     59  C   UNL A   1      41.921  31.899  37.374  1.00  0.00     0.029 A 
ATOM     60  C   UNL A   1      41.093  32.076  36.276  1.00  0.00     0.049 A 
ATOM     61  H   UNL A   1      41.019  30.978  34.476  1.00  0.00     0.167 HD
ATOM     62  C   UNL A   1      39.268  33.155  34.991  1.00  0.00     0.074 A 
ATOM     63  C   UNL A   1      38.218  34.139  34.826  1.00  0.00     0.031 C 
ATOM     64  C   UNL A   1      40.056  33.059  36.089  1.00  0.00     0.037 A 
BRANCH  51  65
ATOM     65  C   UNL A   1      44.240  28.515  35.822  1.00  0.00     0.058 A 
ATOM     66  C   UNL A   1      43.993  27.411  36.655  1.00  0.00     0.135 A 
ATOM     67  C   UNL A   1      45.577  28.883  35.604  1.00  0.00     0.135 A 
ATOM     68  F   UNL A   1      42.733  27.026  36.912  1.00  0.00    -0.206 F 
ATOM     69  C   UNL A   1      45.030  26.713  37.264  1.00  0.00     0.059 A 
ATOM     70  C   UNL A   1      46.632  28.183  36.181  1.00  0.00     0.059 A 
ATOM     71  F   UNL A   1      45.869  29.931  34.817  1.00  0.00    -0.206 F 
ATOM     72  C   UNL A   1      46.347  27.105  37.019  1.00  0.00     0.060 A 
BRANCH  72  73
ATOM     73  S   UNL A   1      47.681  26.176  37.804  1.00  0.00     0.124 S 
ATOM     74  O   UNL A   1      47.249  24.800  37.580  1.00  0.00    -0.237 OA
ATOM     75  O   UNL A   1      48.850  26.604  37.043  1.00  0.00    -0.237 OA
ATOM     76  O   UNL A   1      47.639  26.628  39.192  1.00  0.00    -0.744 OA
ENDBRANCH  72  73
ENDBRANCH  51  65
BRANCH  52  77
ATOM     77  C   UNL A   1      36.755  33.076  31.009  1.00  0.00     0.058 A 
ATOM     78  C   UNL A   1      35.439  32.887  31.458  1.00  0.00     0.135 A 
ATOM     79  C   UNL A   1      36.952  33.902  29.891  1.00  0.00     0.135 A 
ATOM     80  F   UNL A   1      35.200  32.104  32.521  1.00  0.00    -0.206 F 
ATOM     81  C   UNL A   1      34.356  33.470  30.809  1.00  0.00     0.059 A 
ATOM     82  C   UNL A   1      35.887  34.518  29.241  1.00  0.00     0.059 A 
ATOM     83  F   UNL A   1      38.193  34.133  29.435  1.00  0.00    -0.206 F 
ATOM     84  C   UNL A   1      34.591  34.284  29.698  1.00  0.00     0.060 A 
BRANCH  84  85
ATOM     85  S   UNL A   1      33.183  35.066  28.882  1.00  0.00     0.124 S 
ATOM     86  O   UNL A   1      32.790  34.036  27.928  1.00  0.00    -0.237 OA
ATOM     87  O   UNL A   1      32.266  35.289  29.996  1.00  0.00    -0.237 OA
ATOM     88  O   UNL A   1      33.762  36.276  28.305  1.00  0.00    -0.744 OA
ENDBRANCH  84  85
ENDBRANCH  52  77
BRANCH  64  89
ATOM     89  C   UNL A   1      39.847  34.068  37.181  1.00  0.00     0.058 A 
ATOM     90  C   UNL A   1      38.951  33.840  38.237  1.00  0.00     0.135 A 
ATOM     91  C   UNL A   1      40.594  35.257  37.199  1.00  0.00     0.135 A 
ATOM     92  F   UNL A   1      38.210  32.721  38.263  1.00  0.00    -0.206 F 
ATOM     93  C   UNL A   1      38.788  34.764  39.263  1.00  0.00     0.059 A 
ATOM     94  C   UNL A   1      40.465  36.185  38.228  1.00  0.00     0.059 A 
ATOM     95  F   UNL A   1      41.472  35.519  36.218  1.00  0.00    -0.206 F 
ATOM     96  C   UNL A   1      39.551  35.934  39.250  1.00  0.00     0.060 A 
BRANCH  96  97
ATOM     97  S   UNL A   1      39.356  37.111  40.605  1.00  0.00     0.124 S 
ATOM     98  O   UNL A   1      38.979  36.231  41.706  1.00  0.00    -0.237 OA
ATOM     99  O   UNL A   1      40.685  37.707  40.697  1.00  0.00    -0.237 OA
ATOM    100  O   UNL A   1      38.306  38.006  40.129  1.00  0.00    -0.744 OA
ENDBRANCH  96  97
ENDBRANCH  64  89
ENDBRANCH  38  39
ENDBRANCH  30  33
ENDBRANCH  28  29
ENDBRANCH  27  28
ENDBRANCH  26  27
ENDBRANCH   1  26
TORSDOF 19
ENDMDL
