MODEL 1
REMARK VINA RESULT:     -11.7      0.000      0.000
REMARK SMILES O=C(NCCCCCCNC(=O)c1csc(CNc2ccc(-n3cccn3)nc2)c1)c1ccc(-c2c3nc(c(-c4c(F)cc(S(=O)(=O)[O-])cc4F)c4ccc([nH]4)c(-c4c(F)cc(S(=O)(=O)[O-])cc4F)c4nc(c(-c5c(F)cc(S(=O)(=O)[O-])cc5F)c5ccc2[nH]5)C=C4)C=C3)cc1
REMARK SMILES IDX 7 1 6 2 5 3 4 4 3 5 1 6 2 7 31 9 32 10 96 11 33 12 95 13
REMARK SMILES IDX 34 14 35 15 36 16 89 17 37 18 94 19 88 20 90 21 38 22 93 23
REMARK SMILES IDX 87 24 86 25 39 27 73 28 52 29 72 30 53 31 56 32 71 33 91 34
REMARK SMILES IDX 54 35 55 36 70 38 92 39 57 40 40 41 41 42 50 43 42 44 43 45
REMARK SMILES IDX 49 46 51 47 44 48 45 49 46 50 47 51 48 52 74 53 75 54 84 55
REMARK SMILES IDX 76 56 77 57 83 58 85 59 78 60 79 61 80 62 81 63 82 64 58 65
REMARK SMILES IDX 59 66 68 67 60 68 61 69 67 70 69 71 62 72 63 73 64 74 65 75
REMARK SMILES IDX 66 76 8 77 9 78 10 79 11 80 12 82 13 83 14 84 30 85 15 86
REMARK SMILES IDX 16 87 17 88 18 89 19 91 20 92 29 93 21 94 28 95 22 96 23 97
REMARK SMILES IDX 24 98 27 99 25 100 26 101
REMARK H PARENT 3 8 90 26 56 37 10 81 18 90
REMARK Flexibility Score: inf
ROOT
ATOM      1  C   UNL A   1      40.085  22.159  27.242  1.00  0.00     0.002 C 
ENDROOT
BRANCH   1   2
ATOM      2  C   UNL A   1      40.954  20.927  27.507  1.00  0.00     0.002 C 
BRANCH   2   3
ATOM      3  C   UNL A   1      41.029  19.911  26.362  1.00  0.00     0.021 C 
BRANCH   3   4
ATOM      4  C   UNL A   1      42.323  19.096  26.309  1.00  0.00     0.116 C 
BRANCH   4   5
ATOM      5  N   UNL A   1      43.205  19.464  25.223  1.00  0.00    -0.352 N 
ATOM      6  O   UNL A   1      44.633  20.506  23.903  1.00  0.00    -0.269 OA
ATOM      7  C   UNL A   1      43.898  20.596  24.892  1.00  0.00     0.251 C 
ATOM      8  H   UNL A   1      43.334  18.736  24.574  1.00  0.00     0.163 HD
BRANCH   7   9
ATOM      9  C   UNL A   1      43.806  21.903  25.606  1.00  0.00     0.039 A 
ATOM     10  C   UNL A   1      44.391  22.202  26.838  1.00  0.00     0.014 A 
ATOM     11  C   UNL A   1      43.049  22.905  24.972  1.00  0.00     0.014 A 
ATOM     12  C   UNL A   1      44.179  23.436  27.449  1.00  0.00     0.010 A 
ATOM     13  C   UNL A   1      42.853  24.150  25.565  1.00  0.00     0.010 A 
ATOM     14  C   UNL A   1      43.399  24.407  26.821  1.00  0.00    -0.014 A 
BRANCH  14  15
ATOM     15  C   UNL A   1      43.256  25.698  27.492  1.00  0.00     0.031 A 
ATOM     16  C   UNL A   1      44.326  26.712  27.237  1.00  0.00     0.074 A 
ATOM     17  C   UNL A   1      42.154  26.053  28.181  1.00  0.00     0.049 A 
ATOM     18  N   UNL A   1      45.057  27.363  28.087  1.00  0.00    -0.248 NA
ATOM     19  C   UNL A   1      44.644  27.009  25.831  1.00  0.00     0.031 C 
ATOM     20  C   UNL A   1      40.878  25.337  28.259  1.00  0.00     0.029 A 
ATOM     21  N   UNL A   1      41.909  27.208  28.864  1.00  0.00    -0.354 N 
ATOM     22  C   UNL A   1      45.798  28.281  27.341  1.00  0.00     0.074 A 
ATOM     23  C   UNL A   1      45.582  27.948  25.956  1.00  0.00     0.031 C 
ATOM     24  C   UNL A   1      39.937  26.170  28.752  1.00  0.00     0.029 A 
ATOM     25  C   UNL A   1      40.568  27.421  29.140  1.00  0.00     0.049 A 
ATOM     26  H   UNL A   1      42.619  27.834  29.135  1.00  0.00     0.167 HD
ATOM     27  C   UNL A   1      46.414  29.364  27.896  1.00  0.00     0.037 A 
ATOM     28  C   UNL A   1      40.001  28.573  29.572  1.00  0.00     0.037 A 
ATOM     29  C   UNL A   1      46.592  29.220  29.314  1.00  0.00     0.049 A 
ATOM     30  C   UNL A   1      41.064  29.415  30.174  1.00  0.00     0.074 A 
ATOM     31  C   UNL A   1      47.260  28.327  30.129  1.00  0.00     0.029 A 
ATOM     32  N   UNL A   1      45.796  29.958  30.153  1.00  0.00    -0.354 N 
ATOM     33  N   UNL A   1      41.702  29.132  31.277  1.00  0.00    -0.248 NA
ATOM     34  C   UNL A   1      41.680  30.442  29.347  1.00  0.00     0.031 C 
ATOM     35  C   UNL A   1      46.484  28.256  31.322  1.00  0.00     0.029 A 
ATOM     36  C   UNL A   1      45.397  29.116  31.159  1.00  0.00     0.049 A 
ATOM     37  H   UNL A   1      45.556  30.907  30.052  1.00  0.00     0.167 HD
ATOM     38  C   UNL A   1      42.977  29.645  31.096  1.00  0.00     0.074 A 
ATOM     39  C   UNL A   1      42.866  30.540  29.952  1.00  0.00     0.031 C 
ATOM     40  C   UNL A   1      44.062  29.093  31.716  1.00  0.00     0.037 A 
BRANCH  27  41
ATOM     41  C   UNL A   1      46.599  30.693  27.197  1.00  0.00     0.058 A 
ATOM     42  C   UNL A   1      47.881  31.281  27.133  1.00  0.00     0.135 A 
ATOM     43  C   UNL A   1      45.524  31.542  26.850  1.00  0.00     0.135 A 
ATOM     44  F   UNL A   1      48.976  30.571  27.446  1.00  0.00    -0.206 F 
ATOM     45  C   UNL A   1      48.073  32.631  26.828  1.00  0.00     0.059 A 
ATOM     46  C   UNL A   1      45.697  32.875  26.492  1.00  0.00     0.059 A 
ATOM     47  F   UNL A   1      44.249  31.142  26.941  1.00  0.00    -0.206 F 
ATOM     48  C   UNL A   1      46.968  33.425  26.534  1.00  0.00     0.060 A 
BRANCH  48  49
ATOM     49  S   UNL A   1      47.189  35.198  26.296  1.00  0.00     0.124 S 
ATOM     50  O   UNL A   1      48.207  35.222  25.251  1.00  0.00    -0.237 OA
ATOM     51  O   UNL A   1      45.852  35.625  25.898  1.00  0.00    -0.237 OA
ATOM     52  O   UNL A   1      47.621  35.660  27.612  1.00  0.00    -0.744 OA
ENDBRANCH  48  49
ENDBRANCH  27  41
BRANCH  28  53
ATOM     53  C   UNL A   1      38.665  29.105  29.201  1.00  0.00     0.058 A 
ATOM     54  C   UNL A   1      37.704  29.417  30.176  1.00  0.00     0.135 A 
ATOM     55  C   UNL A   1      38.396  29.558  27.892  1.00  0.00     0.135 A 
ATOM     56  F   UNL A   1      37.899  29.055  31.454  1.00  0.00    -0.206 F 
ATOM     57  C   UNL A   1      36.556  30.157  29.879  1.00  0.00     0.059 A 
ATOM     58  C   UNL A   1      37.251  30.282  27.569  1.00  0.00     0.059 A 
ATOM     59  F   UNL A   1      39.285  29.391  26.902  1.00  0.00    -0.206 F 
ATOM     60  C   UNL A   1      36.345  30.596  28.571  1.00  0.00     0.060 A 
BRANCH  60  61
ATOM     61  S   UNL A   1      34.944  31.680  28.210  1.00  0.00     0.124 S 
ATOM     62  O   UNL A   1      34.105  30.819  27.385  1.00  0.00    -0.237 OA
ATOM     63  O   UNL A   1      34.434  31.979  29.544  1.00  0.00    -0.237 OA
ATOM     64  O   UNL A   1      35.558  32.807  27.513  1.00  0.00    -0.744 OA
ENDBRANCH  60  61
ENDBRANCH  28  53
BRANCH  40  65
ATOM     65  C   UNL A   1      43.831  28.147  32.864  1.00  0.00     0.058 A 
ATOM     66  C   UNL A   1      43.742  26.753  32.717  1.00  0.00     0.135 A 
ATOM     67  C   UNL A   1      43.889  28.653  34.172  1.00  0.00     0.135 A 
ATOM     68  F   UNL A   1      43.788  26.184  31.503  1.00  0.00    -0.206 F 
ATOM     69  C   UNL A   1      43.684  25.901  33.819  1.00  0.00     0.059 A 
ATOM     70  C   UNL A   1      43.863  27.819  35.288  1.00  0.00     0.059 A 
ATOM     71  F   UNL A   1      44.041  29.972  34.377  1.00  0.00    -0.206 F 
ATOM     72  C   UNL A   1      43.755  26.442  35.103  1.00  0.00     0.060 A 
BRANCH  72  73
ATOM     73  S   UNL A   1      43.815  25.325  36.522  1.00  0.00     0.124 S 
ATOM     74  O   UNL A   1      42.537  25.588  37.174  1.00  0.00    -0.237 OA
ATOM     75  O   UNL A   1      43.945  24.014  35.891  1.00  0.00    -0.237 OA
ATOM     76  O   UNL A   1      44.996  25.770  37.257  1.00  0.00    -0.744 OA
ENDBRANCH  72  73
ENDBRANCH  40  65
ENDBRANCH  14  15
ENDBRANCH   7   9
ENDBRANCH   4   5
ENDBRANCH   3   4
ENDBRANCH   2   3
ENDBRANCH   1   2
BRANCH   1  77
ATOM     77  C   UNL A   1      39.361  22.176  25.890  1.00  0.00     0.021 C 
BRANCH  77  78
ATOM     78  C   UNL A   1      37.844  22.357  25.975  1.00  0.00     0.116 C 
BRANCH  78  79
ATOM     79  N   UNL A   1      37.145  21.268  25.318  1.00  0.00    -0.352 N 
ATOM     80  C   UNL A   1      35.805  21.107  25.111  1.00  0.00     0.252 C 
ATOM     81  H   UNL A   1      37.716  20.545  24.973  1.00  0.00     0.163 HD
ATOM     82  O   UNL A   1      35.371  19.971  24.822  1.00  0.00    -0.269 OA
BRANCH  80  83
ATOM     83  C   UNL A   1      34.905  22.236  25.251  1.00  0.00     0.050 A 
ATOM     84  C   UNL A   1      33.874  22.299  26.171  1.00  0.00     0.079 A 
ATOM     85  C   UNL A   1      35.009  23.469  24.524  1.00  0.00     0.031 A 
ATOM     86  S   UNL A   1      33.012  23.772  26.099  1.00  0.00    -0.146 S 
ATOM     87  C   UNL A   1      34.023  24.378  24.856  1.00  0.00     0.024 A 
BRANCH  87  88
ATOM     88  C   UNL A   1      33.757  25.737  24.273  1.00  0.00     0.159 C 
BRANCH  88  89
ATOM     89  N   UNL A   1      32.888  26.542  25.122  1.00  0.00    -0.379 N 
ATOM     90  H   UNL A   1      32.944  26.454  26.101  1.00  0.00     0.160 HD
BRANCH  89  91
ATOM     91  C   UNL A   1      31.984  27.429  24.562  1.00  0.00     0.053 A 
ATOM     92  C   UNL A   1      31.204  27.110  23.454  1.00  0.00     0.031 A 
ATOM     93  C   UNL A   1      31.853  28.731  25.049  1.00  0.00     0.139 A 
ATOM     94  C   UNL A   1      30.316  28.047  22.917  1.00  0.00     0.051 A 
ATOM     95  N   UNL A   1      31.037  29.678  24.532  1.00  0.00    -0.235 NA
ATOM     96  C   UNL A   1      30.258  29.322  23.480  1.00  0.00     0.153 A 
BRANCH  96  97
ATOM     97  N   UNL A   1      29.358  30.291  22.938  1.00  0.00    -0.223 N 
ATOM     98  C   UNL A   1      29.027  30.484  21.607  1.00  0.00     0.117 A 
ATOM     99  N   UNL A   1      28.692  31.175  23.732  1.00  0.00    -0.175 NA
ATOM    100  C   UNL A   1      28.164  31.551  21.552  1.00  0.00     0.042 A 
ATOM    101  C   UNL A   1      28.020  31.954  22.886  1.00  0.00     0.135 A 
ENDBRANCH  96  97
ENDBRANCH  89  91
ENDBRANCH  88  89
ENDBRANCH  87  88
ENDBRANCH  80  83
ENDBRANCH  78  79
ENDBRANCH  77  78
ENDBRANCH   1  77
TORSDOF 20
ENDMDL
MODEL 2
REMARK VINA RESULT:     -11.0      1.545      2.340
REMARK SMILES O=C(NCCCCCCNC(=O)c1csc(CNc2ccc(-n3cccn3)nc2)c1)c1ccc(-c2c3nc(c(-c4c(F)cc(S(=O)(=O)[O-])cc4F)c4ccc([nH]4)c(-c4c(F)cc(S(=O)(=O)[O-])cc4F)c4nc(c(-c5c(F)cc(S(=O)(=O)[O-])cc5F)c5ccc2[nH]5)C=C4)C=C3)cc1
REMARK SMILES IDX 7 1 6 2 5 3 4 4 3 5 1 6 2 7 31 9 32 10 96 11 33 12 95 13
REMARK SMILES IDX 34 14 35 15 36 16 89 17 37 18 94 19 88 20 90 21 38 22 93 23
REMARK SMILES IDX 87 24 86 25 39 27 73 28 52 29 72 30 53 31 56 32 71 33 91 34
REMARK SMILES IDX 54 35 55 36 70 38 92 39 57 40 40 41 41 42 50 43 42 44 43 45
REMARK SMILES IDX 49 46 51 47 44 48 45 49 46 50 47 51 48 52 74 53 75 54 84 55
REMARK SMILES IDX 76 56 77 57 83 58 85 59 78 60 79 61 80 62 81 63 82 64 58 65
REMARK SMILES IDX 59 66 68 67 60 68 61 69 67 70 69 71 62 72 63 73 64 74 65 75
REMARK SMILES IDX 66 76 8 77 9 78 10 79 11 80 12 82 13 83 14 84 30 85 15 86
REMARK SMILES IDX 16 87 17 88 18 89 19 91 20 92 29 93 21 94 28 95 22 96 23 97
REMARK SMILES IDX 24 98 27 99 25 100 26 101
REMARK H PARENT 3 8 90 26 56 37 10 81 18 90
REMARK Flexibility Score: inf
ROOT
ATOM      1  C   UNL A   1      40.772  20.099  27.018  1.00  0.00     0.002 C 
ENDROOT
BRANCH   1   2
ATOM      2  C   UNL A   1      42.254  19.733  27.138  1.00  0.00     0.002 C 
BRANCH   2   3
ATOM      3  C   UNL A   1      42.684  18.461  26.399  1.00  0.00     0.021 C 
BRANCH   3   4
ATOM      4  C   UNL A   1      44.152  18.432  25.969  1.00  0.00     0.116 C 
BRANCH   4   5
ATOM      5  N   UNL A   1      44.388  18.969  24.647  1.00  0.00    -0.352 N 
ATOM      6  O   UNL A   1      44.854  20.283  22.938  1.00  0.00    -0.269 OA
ATOM      7  C   UNL A   1      44.603  20.223  24.146  1.00  0.00     0.251 C 
ATOM      8  H   UNL A   1      44.394  18.275  23.950  1.00  0.00     0.163 HD
BRANCH   7   9
ATOM      9  C   UNL A   1      44.527  21.490  24.931  1.00  0.00     0.039 A 
ATOM     10  C   UNL A   1      45.380  21.855  25.974  1.00  0.00     0.014 A 
ATOM     11  C   UNL A   1      43.489  22.375  24.582  1.00  0.00     0.014 A 
ATOM     12  C   UNL A   1      45.171  23.034  26.688  1.00  0.00     0.010 A 
ATOM     13  C   UNL A   1      43.290  23.567  25.275  1.00  0.00     0.010 A 
ATOM     14  C   UNL A   1      44.119  23.884  26.350  1.00  0.00    -0.014 A 
BRANCH  14  15
ATOM     15  C   UNL A   1      43.984  25.129  27.106  1.00  0.00     0.031 A 
ATOM     16  C   UNL A   1      45.043  26.164  26.894  1.00  0.00     0.074 A 
ATOM     17  C   UNL A   1      42.896  25.431  27.840  1.00  0.00     0.049 A 
ATOM     18  N   UNL A   1      45.789  26.763  27.769  1.00  0.00    -0.248 NA
ATOM     19  C   UNL A   1      45.328  26.553  25.504  1.00  0.00     0.031 C 
ATOM     20  C   UNL A   1      41.626  24.703  27.899  1.00  0.00     0.029 A 
ATOM     21  N   UNL A   1      42.660  26.538  28.602  1.00  0.00    -0.354 N 
ATOM     22  C   UNL A   1      46.509  27.732  27.068  1.00  0.00     0.074 A 
ATOM     23  C   UNL A   1      46.264  27.488  25.669  1.00  0.00     0.031 C 
ATOM     24  C   UNL A   1      40.692  25.496  28.466  1.00  0.00     0.029 A 
ATOM     25  C   UNL A   1      41.325  26.723  28.921  1.00  0.00     0.049 A 
ATOM     26  H   UNL A   1      43.373  27.149  28.897  1.00  0.00     0.167 HD
ATOM     27  C   UNL A   1      47.132  28.780  27.678  1.00  0.00     0.037 A 
ATOM     28  C   UNL A   1      40.762  27.841  29.438  1.00  0.00     0.037 A 
ATOM     29  C   UNL A   1      47.342  28.547  29.079  1.00  0.00     0.049 A 
ATOM     30  C   UNL A   1      41.833  28.649  30.071  1.00  0.00     0.074 A 
ATOM     31  C   UNL A   1      48.033  27.607  29.820  1.00  0.00     0.029 A 
ATOM     32  N   UNL A   1      46.561  29.223  29.982  1.00  0.00    -0.354 N 
ATOM     33  N   UNL A   1      42.497  28.299  31.139  1.00  0.00    -0.248 NA
ATOM     34  C   UNL A   1      42.426  29.731  29.299  1.00  0.00     0.031 C 
ATOM     35  C   UNL A   1      47.283  27.453  31.023  1.00  0.00     0.029 A 
ATOM     36  C   UNL A   1      46.189  28.315  30.940  1.00  0.00     0.049 A 
ATOM     37  H   UNL A   1      46.314  30.175  29.948  1.00  0.00     0.167 HD
ATOM     38  C   UNL A   1      43.766  28.831  30.964  1.00  0.00     0.074 A 
ATOM     39  C   UNL A   1      43.624  29.798  29.884  1.00  0.00     0.031 C 
ATOM     40  C   UNL A   1      44.866  28.247  31.523  1.00  0.00     0.037 A 
BRANCH  27  41
ATOM     41  C   UNL A   1      47.295  30.154  27.063  1.00  0.00     0.058 A 
ATOM     42  C   UNL A   1      48.556  30.788  27.083  1.00  0.00     0.135 A 
ATOM     43  C   UNL A   1      46.203  30.984  26.722  1.00  0.00     0.135 A 
ATOM     44  F   UNL A   1      49.664  30.098  27.398  1.00  0.00    -0.206 F 
ATOM     45  C   UNL A   1      48.710  32.158  26.863  1.00  0.00     0.059 A 
ATOM     46  C   UNL A   1      46.341  32.341  26.447  1.00  0.00     0.059 A 
ATOM     47  F   UNL A   1      44.941  30.537  26.741  1.00  0.00    -0.206 F 
ATOM     48  C   UNL A   1      47.589  32.930  26.571  1.00  0.00     0.060 A 
BRANCH  48  49
ATOM     49  S   UNL A   1      47.755  34.721  26.442  1.00  0.00     0.124 S 
ATOM     50  O   UNL A   1      49.030  34.939  27.115  1.00  0.00    -0.237 OA
ATOM     51  O   UNL A   1      47.749  34.928  24.998  1.00  0.00    -0.237 OA
ATOM     52  O   UNL A   1      46.575  35.216  27.144  1.00  0.00    -0.744 OA
ENDBRANCH  48  49
ENDBRANCH  27  41
BRANCH  28  53
ATOM     53  C   UNL A   1      39.415  28.388  29.132  1.00  0.00     0.058 A 
ATOM     54  C   UNL A   1      38.418  28.473  30.117  1.00  0.00     0.135 A 
ATOM     55  C   UNL A   1      39.161  29.073  27.926  1.00  0.00     0.135 A 
ATOM     56  F   UNL A   1      38.594  27.880  31.308  1.00  0.00    -0.206 F 
ATOM     57  C   UNL A   1      37.249  29.216  29.929  1.00  0.00     0.059 A 
ATOM     58  C   UNL A   1      37.997  29.805  27.709  1.00  0.00     0.059 A 
ATOM     59  F   UNL A   1      40.081  29.130  26.952  1.00  0.00    -0.206 F 
ATOM     60  C   UNL A   1      37.053  29.890  28.722  1.00  0.00     0.060 A 
BRANCH  60  61
ATOM     61  S   UNL A   1      35.619  30.973  28.529  1.00  0.00     0.124 S 
ATOM     62  O   UNL A   1      35.285  31.278  29.915  1.00  0.00    -0.237 OA
ATOM     63  O   UNL A   1      36.169  32.076  27.748  1.00  0.00    -0.237 OA
ATOM     64  O   UNL A   1      34.654  30.135  27.824  1.00  0.00    -0.744 OA
ENDBRANCH  60  61
ENDBRANCH  28  53
BRANCH  40  65
ATOM     65  C   UNL A   1      44.666  27.228  32.612  1.00  0.00     0.058 A 
ATOM     66  C   UNL A   1      44.529  27.558  33.971  1.00  0.00     0.135 A 
ATOM     67  C   UNL A   1      44.420  25.895  32.247  1.00  0.00     0.135 A 
ATOM     68  F   UNL A   1      44.643  28.828  34.385  1.00  0.00    -0.206 F 
ATOM     69  C   UNL A   1      44.191  26.602  34.928  1.00  0.00     0.059 A 
ATOM     70  C   UNL A   1      44.051  24.930  33.180  1.00  0.00     0.059 A 
ATOM     71  F   UNL A   1      44.471  25.532  30.954  1.00  0.00    -0.206 F 
ATOM     72  C   UNL A   1      43.944  25.291  34.523  1.00  0.00     0.060 A 
BRANCH  72  73
ATOM     73  S   UNL A   1      43.375  24.089  35.746  1.00  0.00     0.124 S 
ATOM     74  O   UNL A   1      42.456  23.268  34.966  1.00  0.00    -0.237 OA
ATOM     75  O   UNL A   1      44.617  23.436  36.154  1.00  0.00    -0.237 OA
ATOM     76  O   UNL A   1      42.754  24.918  36.776  1.00  0.00    -0.744 OA
ENDBRANCH  72  73
ENDBRANCH  40  65
ENDBRANCH  14  15
ENDBRANCH   7   9
ENDBRANCH   4   5
ENDBRANCH   3   4
ENDBRANCH   2   3
ENDBRANCH   1   2
BRANCH   1  77
ATOM     77  C   UNL A   1      40.456  21.264  26.073  1.00  0.00     0.021 C 
BRANCH  77  78
ATOM     78  C   UNL A   1      38.973  21.619  25.962  1.00  0.00     0.116 C 
BRANCH  78  79
ATOM     79  N   UNL A   1      38.695  22.918  26.547  1.00  0.00    -0.352 N 
ATOM     80  C   UNL A   1      37.642  23.758  26.319  1.00  0.00     0.252 C 
ATOM     81  H   UNL A   1      39.358  23.239  27.200  1.00  0.00     0.163 HD
ATOM     82  O   UNL A   1      37.739  24.955  26.664  1.00  0.00    -0.269 OA
BRANCH  80  83
ATOM     83  C   UNL A   1      36.446  23.263  25.663  1.00  0.00     0.050 A 
ATOM     84  C   UNL A   1      36.179  23.417  24.314  1.00  0.00     0.079 A 
ATOM     85  C   UNL A   1      35.423  22.480  26.294  1.00  0.00     0.031 A 
ATOM     86  S   UNL A   1      34.699  22.704  23.847  1.00  0.00    -0.146 S 
ATOM     87  C   UNL A   1      34.396  22.140  25.437  1.00  0.00     0.024 A 
BRANCH  87  88
ATOM     88  C   UNL A   1      33.126  21.392  25.734  1.00  0.00     0.159 C 
BRANCH  88  89
ATOM     89  N   UNL A   1      32.143  22.221  26.420  1.00  0.00    -0.379 N 
ATOM     90  H   UNL A   1      31.743  21.906  27.263  1.00  0.00     0.160 HD
BRANCH  89  91
ATOM     91  C   UNL A   1      31.769  23.446  25.897  1.00  0.00     0.053 A 
ATOM     92  C   UNL A   1      31.951  24.645  26.582  1.00  0.00     0.031 A 
ATOM     93  C   UNL A   1      31.122  23.538  24.663  1.00  0.00     0.139 A 
ATOM     94  C   UNL A   1      31.541  25.856  26.016  1.00  0.00     0.051 A 
ATOM     95  N   UNL A   1      30.675  24.685  24.101  1.00  0.00    -0.235 NA
ATOM     96  C   UNL A   1      30.906  25.840  24.775  1.00  0.00     0.153 A 
BRANCH  96  97
ATOM     97  N   UNL A   1      30.478  27.071  24.185  1.00  0.00    -0.223 N 
ATOM     98  C   UNL A   1      31.100  28.305  24.267  1.00  0.00     0.117 A 
ATOM     99  N   UNL A   1      29.345  27.151  23.435  1.00  0.00    -0.175 NA
ATOM    100  C   UNL A   1      30.312  29.204  23.589  1.00  0.00     0.042 A 
ATOM    101  C   UNL A   1      29.232  28.442  23.125  1.00  0.00     0.135 A 
ENDBRANCH  96  97
ENDBRANCH  89  91
ENDBRANCH  88  89
ENDBRANCH  87  88
ENDBRANCH  80  83
ENDBRANCH  78  79
ENDBRANCH  77  78
ENDBRANCH   1  77
TORSDOF 20
ENDMDL
MODEL 3
REMARK VINA RESULT:     -11.0      2.616      9.766
REMARK SMILES O=C(NCCCCCCNC(=O)c1csc(CNc2ccc(-n3cccn3)nc2)c1)c1ccc(-c2c3nc(c(-c4c(F)cc(S(=O)(=O)[O-])cc4F)c4ccc([nH]4)c(-c4c(F)cc(S(=O)(=O)[O-])cc4F)c4nc(c(-c5c(F)cc(S(=O)(=O)[O-])cc5F)c5ccc2[nH]5)C=C4)C=C3)cc1
REMARK SMILES IDX 7 1 6 2 5 3 4 4 3 5 1 6 2 7 31 9 32 10 96 11 33 12 95 13
REMARK SMILES IDX 34 14 35 15 36 16 89 17 37 18 94 19 88 20 90 21 38 22 93 23
REMARK SMILES IDX 87 24 86 25 39 27 73 28 52 29 72 30 53 31 56 32 71 33 91 34
REMARK SMILES IDX 54 35 55 36 70 38 92 39 57 40 40 41 41 42 50 43 42 44 43 45
REMARK SMILES IDX 49 46 51 47 44 48 45 49 46 50 47 51 48 52 74 53 75 54 84 55
REMARK SMILES IDX 76 56 77 57 83 58 85 59 78 60 79 61 80 62 81 63 82 64 58 65
REMARK SMILES IDX 59 66 68 67 60 68 61 69 67 70 69 71 62 72 63 73 64 74 65 75
REMARK SMILES IDX 66 76 8 77 9 78 10 79 11 80 12 82 13 83 14 84 30 85 15 86
REMARK SMILES IDX 16 87 17 88 18 89 19 91 20 92 29 93 21 94 28 95 22 96 23 97
REMARK SMILES IDX 24 98 27 99 25 100 26 101
REMARK H PARENT 3 8 90 26 56 37 10 81 18 90
REMARK Flexibility Score: inf
ROOT
ATOM      1  C   UNL A   1      31.280  29.759  25.286  1.00  0.00     0.002 C 
ENDROOT
BRANCH   1   2
ATOM      2  C   UNL A   1      31.644  28.624  26.247  1.00  0.00     0.002 C 
BRANCH   2   3
ATOM      3  C   UNL A   1      32.988  28.773  26.969  1.00  0.00     0.021 C 
BRANCH   3   4
ATOM      4  C   UNL A   1      33.762  30.048  26.631  1.00  0.00     0.116 C 
BRANCH   4   5
ATOM      5  N   UNL A   1      33.795  31.017  27.705  1.00  0.00    -0.352 N 
ATOM      6  O   UNL A   1      34.424  32.369  29.331  1.00  0.00    -0.269 OA
ATOM      7  C   UNL A   1      34.750  31.436  28.590  1.00  0.00     0.251 C 
ATOM      8  H   UNL A   1      32.935  31.480  27.826  1.00  0.00     0.163 HD
BRANCH   7   9
ATOM      9  C   UNL A   1      36.109  30.838  28.738  1.00  0.00     0.039 A 
ATOM     10  C   UNL A   1      36.400  29.473  28.770  1.00  0.00     0.014 A 
ATOM     11  C   UNL A   1      37.176  31.747  28.867  1.00  0.00     0.014 A 
ATOM     12  C   UNL A   1      37.701  29.025  28.985  1.00  0.00     0.010 A 
ATOM     13  C   UNL A   1      38.484  31.305  29.058  1.00  0.00     0.010 A 
ATOM     14  C   UNL A   1      38.743  29.939  29.144  1.00  0.00    -0.014 A 
BRANCH  14  15
ATOM     15  C   UNL A   1      40.093  29.404  29.318  1.00  0.00     0.031 A 
ATOM     16  C   UNL A   1      40.596  29.289  30.722  1.00  0.00     0.074 A 
ATOM     17  C   UNL A   1      40.815  28.882  28.308  1.00  0.00     0.049 A 
ATOM     18  N   UNL A   1      41.685  29.763  31.243  1.00  0.00    -0.248 NA
ATOM     19  C   UNL A   1      39.740  28.574  31.682  1.00  0.00     0.031 C 
ATOM     20  C   UNL A   1      40.368  28.599  26.941  1.00  0.00     0.029 A 
ATOM     21  N   UNL A   1      42.082  28.376  28.335  1.00  0.00    -0.354 N 
ATOM     22  C   UNL A   1      41.746  29.257  32.543  1.00  0.00     0.074 A 
ATOM     23  C   UNL A   1      40.477  28.621  32.792  1.00  0.00     0.031 C 
ATOM     24  C   UNL A   1      41.261  27.778  26.349  1.00  0.00     0.029 A 
ATOM     25  C   UNL A   1      42.392  27.586  27.241  1.00  0.00     0.049 A 
ATOM     26  H   UNL A   1      42.716  28.555  29.067  1.00  0.00     0.167 HD
ATOM     27  C   UNL A   1      42.892  29.245  33.282  1.00  0.00     0.037 A 
ATOM     28  C   UNL A   1      43.458  26.760  27.112  1.00  0.00     0.037 A 
ATOM     29  C   UNL A   1      43.871  30.169  32.782  1.00  0.00     0.049 A 
ATOM     30  C   UNL A   1      44.495  27.187  28.085  1.00  0.00     0.074 A 
ATOM     31  C   UNL A   1      43.917  31.537  32.594  1.00  0.00     0.029 A 
ATOM     32  N   UNL A   1      44.966  29.671  32.121  1.00  0.00    -0.354 N 
ATOM     33  N   UNL A   1      45.157  28.310  28.021  1.00  0.00    -0.248 NA
ATOM     34  C   UNL A   1      44.563  26.499  29.365  1.00  0.00     0.031 C 
ATOM     35  C   UNL A   1      44.748  31.730  31.451  1.00  0.00     0.029 A 
ATOM     36  C   UNL A   1      45.160  30.468  31.023  1.00  0.00     0.049 A 
ATOM     37  H   UNL A   1      45.507  28.892  32.385  1.00  0.00     0.167 HD
ATOM     38  C   UNL A   1      45.393  28.664  29.340  1.00  0.00     0.074 A 
ATOM     39  C   UNL A   1      45.116  27.459  30.110  1.00  0.00     0.031 C 
ATOM     40  C   UNL A   1      45.528  29.970  29.715  1.00  0.00     0.037 A 
BRANCH  27  41
ATOM     41  C   UNL A   1      43.244  28.178  34.297  1.00  0.00     0.058 A 
ATOM     42  C   UNL A   1      43.461  28.535  35.645  1.00  0.00     0.135 A 
ATOM     43  C   UNL A   1      43.660  26.876  33.939  1.00  0.00     0.135 A 
ATOM     44  F   UNL A   1      43.110  29.750  36.097  1.00  0.00    -0.206 F 
ATOM     45  C   UNL A   1      44.117  27.694  36.547  1.00  0.00     0.059 A 
ATOM     46  C   UNL A   1      44.267  26.002  34.835  1.00  0.00     0.059 A 
ATOM     47  F   UNL A   1      43.587  26.432  32.677  1.00  0.00    -0.206 F 
ATOM     48  C   UNL A   1      44.539  26.438  36.122  1.00  0.00     0.060 A 
BRANCH  48  49
ATOM     49  S   UNL A   1      45.523  25.411  37.229  1.00  0.00     0.124 S 
ATOM     50  O   UNL A   1      44.862  25.653  38.507  1.00  0.00    -0.237 OA
ATOM     51  O   UNL A   1      45.344  24.081  36.657  1.00  0.00    -0.237 OA
ATOM     52  O   UNL A   1      46.866  25.968  37.096  1.00  0.00    -0.744 OA
ENDBRANCH  48  49
ENDBRANCH  27  41
BRANCH  28  53
ATOM     53  C   UNL A   1      43.492  25.444  26.426  1.00  0.00     0.058 A 
ATOM     54  C   UNL A   1      44.327  25.215  25.320  1.00  0.00     0.135 A 
ATOM     55  C   UNL A   1      42.890  24.304  27.000  1.00  0.00     0.135 A 
ATOM     56  F   UNL A   1      44.967  26.240  24.736  1.00  0.00    -0.206 F 
ATOM     57  C   UNL A   1      44.573  23.930  24.828  1.00  0.00     0.059 A 
ATOM     58  C   UNL A   1      43.107  23.017  26.517  1.00  0.00     0.059 A 
ATOM     59  F   UNL A   1      42.143  24.397  28.110  1.00  0.00    -0.206 F 
ATOM     60  C   UNL A   1      43.966  22.834  25.443  1.00  0.00     0.060 A 
BRANCH  60  61
ATOM     61  S   UNL A   1      44.397  21.161  24.910  1.00  0.00     0.124 S 
ATOM     62  O   UNL A   1      45.616  20.910  25.670  1.00  0.00    -0.237 OA
ATOM     63  O   UNL A   1      43.223  20.397  25.315  1.00  0.00    -0.237 OA
ATOM     64  O   UNL A   1      44.580  21.301  23.467  1.00  0.00    -0.744 OA
ENDBRANCH  60  61
ENDBRANCH  28  53
BRANCH  40  65
ATOM     65  C   UNL A   1      45.765  31.004  28.647  1.00  0.00     0.058 A 
ATOM     66  C   UNL A   1      44.738  31.585  27.884  1.00  0.00     0.135 A 
ATOM     67  C   UNL A   1      47.049  31.559  28.523  1.00  0.00     0.135 A 
ATOM     68  F   UNL A   1      43.466  31.184  28.024  1.00  0.00    -0.206 F 
ATOM     69  C   UNL A   1      44.980  32.649  27.016  1.00  0.00     0.059 A 
ATOM     70  C   UNL A   1      47.309  32.641  27.686  1.00  0.00     0.059 A 
ATOM     71  F   UNL A   1      48.059  31.090  29.275  1.00  0.00    -0.206 F 
ATOM     72  C   UNL A   1      46.268  33.178  26.930  1.00  0.00     0.060 A 
BRANCH  72  73
ATOM     73  S   UNL A   1      46.546  34.640  25.906  1.00  0.00     0.124 S 
ATOM     74  O   UNL A   1      47.887  34.399  25.384  1.00  0.00    -0.237 OA
ATOM     75  O   UNL A   1      45.463  34.559  24.931  1.00  0.00    -0.237 OA
ATOM     76  O   UNL A   1      46.434  35.746  26.854  1.00  0.00    -0.744 OA
ENDBRANCH  72  73
ENDBRANCH  40  65
ENDBRANCH  14  15
ENDBRANCH   7   9
ENDBRANCH   4   5
ENDBRANCH   3   4
ENDBRANCH   2   3
ENDBRANCH   1   2
BRANCH   1  77
ATOM     77  C   UNL A   1      30.731  29.318  23.924  1.00  0.00     0.021 C 
BRANCH  77  78
ATOM     78  C   UNL A   1      31.796  28.943  22.892  1.00  0.00     0.116 C 
BRANCH  78  79
ATOM     79  N   UNL A   1      31.314  27.919  21.983  1.00  0.00    -0.352 N 
ATOM     80  C   UNL A   1      31.682  26.608  21.890  1.00  0.00     0.252 C 
ATOM     81  H   UNL A   1      30.624  28.212  21.344  1.00  0.00     0.163 HD
ATOM     82  O   UNL A   1      31.400  25.974  20.851  1.00  0.00    -0.269 OA
BRANCH  80  83
ATOM     83  C   UNL A   1      32.412  25.978  22.974  1.00  0.00     0.050 A 
ATOM     84  C   UNL A   1      33.724  25.551  22.883  1.00  0.00     0.079 A 
ATOM     85  C   UNL A   1      31.911  25.789  24.306  1.00  0.00     0.031 A 
ATOM     86  S   UNL A   1      34.302  24.871  24.339  1.00  0.00    -0.146 S 
ATOM     87  C   UNL A   1      32.816  25.165  25.141  1.00  0.00     0.024 A 
BRANCH  87  88
ATOM     88  C   UNL A   1      32.641  24.737  26.571  1.00  0.00     0.159 C 
BRANCH  88  89
ATOM     89  N   UNL A   1      31.832  23.531  26.693  1.00  0.00    -0.379 N 
ATOM     90  H   UNL A   1      30.967  23.568  27.163  1.00  0.00     0.160 HD
BRANCH  89  91
ATOM     91  C   UNL A   1      32.270  22.333  26.154  1.00  0.00     0.053 A 
ATOM     92  C   UNL A   1      33.337  21.614  26.686  1.00  0.00     0.031 A 
ATOM     93  C   UNL A   1      31.696  21.810  24.995  1.00  0.00     0.139 A 
ATOM     94  C   UNL A   1      33.751  20.416  26.095  1.00  0.00     0.051 A 
ATOM     95  N   UNL A   1      32.094  20.677  24.371  1.00  0.00    -0.235 NA
ATOM     96  C   UNL A   1      33.108  19.977  24.939  1.00  0.00     0.153 A 
BRANCH  96  97
ATOM     97  N   UNL A   1      33.524  18.755  24.322  1.00  0.00    -0.223 N 
ATOM     98  C   UNL A   1      32.819  17.990  23.409  1.00  0.00     0.117 A 
ATOM     99  N   UNL A   1      34.735  18.193  24.588  1.00  0.00    -0.175 NA
ATOM    100  C   UNL A   1      33.585  16.885  23.126  1.00  0.00     0.042 A 
ATOM    101  C   UNL A   1      34.738  17.050  23.904  1.00  0.00     0.135 A 
ENDBRANCH  96  97
ENDBRANCH  89  91
ENDBRANCH  88  89
ENDBRANCH  87  88
ENDBRANCH  80  83
ENDBRANCH  78  79
ENDBRANCH  77  78
ENDBRANCH   1  77
TORSDOF 20
ENDMDL
