MODEL 1
REMARK VINA RESULT:     -10.4      0.000      0.000
REMARK SMILES CC[C@]1(C(=O)NCCCCCCNC(=O)c2ccc(-c3c4nc(c(-c5c(F)cc(S(=O)(=O)[O-])cc5F)c5ccc([nH]5)c(-c5c(F)cc(S(=O)(=O)[O-])cc5F)c5nc(c(-c6c(F)cc(S(=O)(=O)[O-])cc6F)c6ccc3[nH]6)C=C5)C=C4)cc2)CC[N@@H+](Cc2ccc(CC(C)C)cc2)C1
REMARK SMILES IDX 9 1 8 2 7 3 6 4 4 5 5 6 3 8 82 9 96 10 83 11 84 12 2 14 1 15
REMARK SMILES IDX 85 16 86 17 87 18 95 19 88 20 94 21 89 22 90 23 91 24 92 25
REMARK SMILES IDX 93 26 10 27 11 28 12 29 13 30 14 31 15 33 16 34 17 35 81 36
REMARK SMILES IDX 18 37 80 38 19 39 20 40 21 41 74 42 22 43 79 44 73 45 75 46
REMARK SMILES IDX 23 47 78 48 72 49 71 50 24 52 58 53 37 54 57 55 38 56 41 57
REMARK SMILES IDX 56 58 76 59 39 60 40 61 55 63 77 64 42 65 25 66 26 67 35 68
REMARK SMILES IDX 27 69 28 70 34 71 36 72 29 73 30 74 31 75 32 76 33 77 59 78
REMARK SMILES IDX 60 79 69 80 61 81 62 82 68 83 70 84 63 85 64 86 65 87 66 88
REMARK SMILES IDX 67 89 43 90 44 91 53 92 45 93 46 94 52 95 54 96 47 97 48 98
REMARK SMILES IDX 49 99 50 100 51 101
REMARK H PARENT 6 7 84 13 13 32 75 51 41 62
REMARK Flexibility Score: inf
ROOT
ATOM      1  C   UNL A   1      38.898  22.929  26.609  1.00  0.00     0.002 C 
ENDROOT
BRANCH   1   2
ATOM      2  C   UNL A   1      37.920  22.465  25.525  1.00  0.00     0.021 C 
BRANCH   2   3
ATOM      3  C   UNL A   1      36.492  23.046  25.556  1.00  0.00     0.116 C 
BRANCH   3   4
ATOM      4  N   UNL A   1      35.896  23.381  24.254  1.00  0.00    -0.355 N 
ATOM      5  C   UNL A   1      34.687  23.404  23.620  1.00  0.00     0.232 C 
ATOM      6  O   UNL A   1      34.802  23.800  22.447  1.00  0.00    -0.274 OA
ATOM      7  H   UNL A   1      36.599  23.689  23.637  1.00  0.00     0.163 HD
BRANCH   5   8
ATOM      8  C   UNL A   1      33.251  22.946  24.122  1.00  0.00     0.103 C 
ATOM      9  C   UNL A   1      32.494  23.851  25.167  1.00  0.00     0.084 C 
ATOM     10  C   UNL A   1      32.198  22.856  23.009  1.00  0.00     0.279 C 
ATOM     11  C   UNL A   1      31.124  24.182  24.580  1.00  0.00     0.263 C 
ATOM     12  N   UNL A   1      31.277  23.993  23.156  1.00  0.00    -0.330 N 
ATOM     13  H   UNL A   1      30.431  23.713  22.659  1.00  0.00     0.348 HD
BRANCH   8  14
ATOM     14  C   UNL A   1      33.487  21.577  24.863  1.00  0.00     0.020 C 
ATOM     15  C   UNL A   1      32.226  20.890  25.439  1.00  0.00     0.005 C 
ENDBRANCH   8  14
BRANCH  12  16
ATOM     16  C   UNL A   1      31.403  25.237  22.376  1.00  0.00     0.299 C 
BRANCH  16  17
ATOM     17  C   UNL A   1      31.666  26.591  23.042  1.00  0.00     0.006 A 
ATOM     18  C   UNL A   1      32.954  27.029  23.357  1.00  0.00     0.010 A 
ATOM     19  C   UNL A   1      30.644  27.389  23.540  1.00  0.00     0.010 A 
ATOM     20  C   UNL A   1      33.158  28.154  24.188  1.00  0.00     0.004 A 
ATOM     21  C   UNL A   1      30.812  28.483  24.374  1.00  0.00     0.004 A 
ATOM     22  C   UNL A   1      32.083  28.848  24.764  1.00  0.00    -0.048 A 
BRANCH  22  23
ATOM     23  C   UNL A   1      32.205  29.927  25.811  1.00  0.00     0.038 C 
BRANCH  23  24
ATOM     24  C   UNL A   1      32.583  29.399  27.208  1.00  0.00    -0.013 C 
ATOM     25  C   UNL A   1      31.734  28.189  27.588  1.00  0.00     0.008 C 
ATOM     26  C   UNL A   1      34.068  29.032  27.267  1.00  0.00     0.008 C 
ENDBRANCH  23  24
ENDBRANCH  22  23
ENDBRANCH  16  17
ENDBRANCH  12  16
ENDBRANCH   5   8
ENDBRANCH   3   4
ENDBRANCH   2   3
ENDBRANCH   1   2
BRANCH   1  27
ATOM     27  C   UNL A   1      40.217  22.139  26.651  1.00  0.00     0.002 C 
BRANCH  27  28
ATOM     28  C   UNL A   1      40.988  22.119  27.982  1.00  0.00     0.021 C 
BRANCH  28  29
ATOM     29  C   UNL A   1      42.335  22.840  27.993  1.00  0.00     0.116 C 
BRANCH  29  30
ATOM     30  N   UNL A   1      42.586  23.535  26.737  1.00  0.00    -0.352 N 
ATOM     31  C   UNL A   1      42.305  24.835  26.404  1.00  0.00     0.251 C 
ATOM     32  H   UNL A   1      43.015  22.998  26.032  1.00  0.00     0.163 HD
ATOM     33  O   UNL A   1      42.358  25.199  25.223  1.00  0.00    -0.269 OA
BRANCH  31  34
ATOM     34  C   UNL A   1      41.943  25.807  27.454  1.00  0.00     0.039 A 
ATOM     35  C   UNL A   1      40.709  25.708  28.099  1.00  0.00     0.014 A 
ATOM     36  C   UNL A   1      42.832  26.830  27.794  1.00  0.00     0.014 A 
ATOM     37  C   UNL A   1      40.397  26.598  29.133  1.00  0.00     0.010 A 
ATOM     38  C   UNL A   1      42.538  27.693  28.847  1.00  0.00     0.010 A 
ATOM     39  C   UNL A   1      41.323  27.577  29.535  1.00  0.00    -0.014 A 
BRANCH  39  40
ATOM     40  C   UNL A   1      41.069  28.440  30.716  1.00  0.00     0.031 A 
ATOM     41  C   UNL A   1      39.978  29.475  30.694  1.00  0.00     0.074 A 
ATOM     42  C   UNL A   1      41.890  28.344  31.780  1.00  0.00     0.049 A 
ATOM     43  N   UNL A   1      39.643  30.337  31.619  1.00  0.00    -0.248 NA
ATOM     44  C   UNL A   1      39.175  29.568  29.466  1.00  0.00     0.031 C 
ATOM     45  C   UNL A   1      43.027  27.427  31.884  1.00  0.00     0.029 A 
ATOM     46  N   UNL A   1      41.910  29.033  32.966  1.00  0.00    -0.354 N 
ATOM     47  C   UNL A   1      38.594  31.078  31.087  1.00  0.00     0.074 A 
ATOM     48  C   UNL A   1      38.381  30.595  29.739  1.00  0.00     0.031 C 
ATOM     49  C   UNL A   1      43.623  27.598  33.074  1.00  0.00     0.029 A 
ATOM     50  C   UNL A   1      42.934  28.659  33.804  1.00  0.00     0.049 A 
ATOM     51  H   UNL A   1      41.252  29.729  33.196  1.00  0.00     0.167 HD
ATOM     52  C   UNL A   1      37.866  32.057  31.677  1.00  0.00     0.037 A 
ATOM     53  C   UNL A   1      43.287  29.122  35.019  1.00  0.00     0.037 A 
ATOM     54  C   UNL A   1      38.085  32.525  33.023  1.00  0.00     0.049 A 
ATOM     55  C   UNL A   1      42.464  30.211  35.652  1.00  0.00     0.074 A 
ATOM     56  C   UNL A   1      37.354  33.456  33.740  1.00  0.00     0.029 A 
ATOM     57  N   UNL A   1      39.121  32.111  33.849  1.00  0.00    -0.354 N 
ATOM     58  N   UNL A   1      41.412  30.831  35.175  1.00  0.00    -0.248 NA
ATOM     59  C   UNL A   1      42.872  30.658  36.990  1.00  0.00     0.031 C 
ATOM     60  C   UNL A   1      37.981  33.646  34.977  1.00  0.00     0.029 A 
ATOM     61  C   UNL A   1      39.070  32.794  35.054  1.00  0.00     0.049 A 
ATOM     62  H   UNL A   1      39.794  31.433  33.613  1.00  0.00     0.167 HD
ATOM     63  C   UNL A   1      41.022  31.732  36.159  1.00  0.00     0.074 A 
ATOM     64  C   UNL A   1      41.940  31.560  37.268  1.00  0.00     0.031 C 
ATOM     65  C   UNL A   1      39.998  32.621  36.146  1.00  0.00     0.037 A 
BRANCH  52  66
ATOM     66  C   UNL A   1      36.763  32.691  30.872  1.00  0.00     0.058 A 
ATOM     67  C   UNL A   1      36.988  33.825  30.074  1.00  0.00     0.135 A 
ATOM     68  C   UNL A   1      35.471  32.137  30.865  1.00  0.00     0.135 A 
ATOM     69  F   UNL A   1      38.199  34.403  30.048  1.00  0.00    -0.206 F 
ATOM     70  C   UNL A   1      35.968  34.406  29.326  1.00  0.00     0.059 A 
ATOM     71  C   UNL A   1      34.443  32.684  30.103  1.00  0.00     0.059 A 
ATOM     72  F   UNL A   1      35.198  31.051  31.606  1.00  0.00    -0.206 F 
ATOM     73  C   UNL A   1      34.697  33.828  29.349  1.00  0.00     0.060 A 
BRANCH  73  74
ATOM     74  S   UNL A   1      33.385  34.597  28.375  1.00  0.00     0.124 S 
ATOM     75  O   UNL A   1      34.145  35.528  27.548  1.00  0.00    -0.237 OA
ATOM     76  O   UNL A   1      32.806  33.455  27.675  1.00  0.00    -0.237 OA
ATOM     77  O   UNL A   1      32.527  35.211  29.384  1.00  0.00    -0.744 OA
ENDBRANCH  73  74
ENDBRANCH  52  66
BRANCH  53  78
ATOM     78  C   UNL A   1      44.465  28.541  35.715  1.00  0.00     0.058 A 
ATOM     79  C   UNL A   1      44.321  27.455  36.592  1.00  0.00     0.135 A 
ATOM     80  C   UNL A   1      45.759  29.033  35.489  1.00  0.00     0.135 A 
ATOM     81  F   UNL A   1      43.104  26.953  36.846  1.00  0.00    -0.206 F 
ATOM     82  C   UNL A   1      45.420  26.883  37.228  1.00  0.00     0.059 A 
ATOM     83  C   UNL A   1      46.875  28.460  36.092  1.00  0.00     0.059 A 
ATOM     84  F   UNL A   1      45.951  30.058  34.645  1.00  0.00    -0.206 F 
ATOM     85  C   UNL A   1      46.693  27.390  36.966  1.00  0.00     0.060 A 
BRANCH  85  86
ATOM     86  S   UNL A   1      48.117  26.595  37.742  1.00  0.00     0.124 S 
ATOM     87  O   UNL A   1      49.091  26.611  36.657  1.00  0.00    -0.237 OA
ATOM     88  O   UNL A   1      48.392  27.491  38.862  1.00  0.00    -0.237 OA
ATOM     89  O   UNL A   1      47.606  25.279  38.114  1.00  0.00    -0.744 OA
ENDBRANCH  85  86
ENDBRANCH  53  78
BRANCH  65  90
ATOM     90  C   UNL A   1      39.810  33.476  37.369  1.00  0.00     0.058 A 
ATOM     91  C   UNL A   1      40.491  34.693  37.529  1.00  0.00     0.135 A 
ATOM     92  C   UNL A   1      38.899  33.099  38.370  1.00  0.00     0.135 A 
ATOM     93  F   UNL A   1      41.379  35.095  36.605  1.00  0.00    -0.206 F 
ATOM     94  C   UNL A   1      40.293  35.496  38.646  1.00  0.00     0.059 A 
ATOM     95  C   UNL A   1      38.663  33.901  39.482  1.00  0.00     0.059 A 
ATOM     96  F   UNL A   1      38.215  31.949  38.265  1.00  0.00    -0.206 F 
ATOM     97  C   UNL A   1      39.374  35.094  39.617  1.00  0.00     0.060 A 
BRANCH  97  98
ATOM     98  S   UNL A   1      39.099  36.165  41.044  1.00  0.00     0.124 S 
ATOM     99  O   UNL A   1      40.210  35.789  41.912  1.00  0.00    -0.237 OA
ATOM    100  O   UNL A   1      39.178  37.497  40.453  1.00  0.00    -0.237 OA
ATOM    101  O   UNL A   1      37.774  35.773  41.514  1.00  0.00    -0.744 OA
ENDBRANCH  97  98
ENDBRANCH  65  90
ENDBRANCH  39  40
ENDBRANCH  31  34
ENDBRANCH  29  30
ENDBRANCH  28  29
ENDBRANCH  27  28
ENDBRANCH   1  27
TORSDOF 21
ENDMDL
MODEL 2
REMARK VINA RESULT:     -10.4      0.912      8.158
REMARK SMILES CC[C@]1(C(=O)NCCCCCCNC(=O)c2ccc(-c3c4nc(c(-c5c(F)cc(S(=O)(=O)[O-])cc5F)c5ccc([nH]5)c(-c5c(F)cc(S(=O)(=O)[O-])cc5F)c5nc(c(-c6c(F)cc(S(=O)(=O)[O-])cc6F)c6ccc3[nH]6)C=C5)C=C4)cc2)CC[N@@H+](Cc2ccc(CC(C)C)cc2)C1
REMARK SMILES IDX 9 1 8 2 7 3 6 4 4 5 5 6 3 8 82 9 96 10 83 11 84 12 2 14 1 15
REMARK SMILES IDX 85 16 86 17 87 18 95 19 88 20 94 21 89 22 90 23 91 24 92 25
REMARK SMILES IDX 93 26 10 27 11 28 12 29 13 30 14 31 15 33 16 34 17 35 81 36
REMARK SMILES IDX 18 37 80 38 19 39 20 40 21 41 74 42 22 43 79 44 73 45 75 46
REMARK SMILES IDX 23 47 78 48 72 49 71 50 24 52 58 53 37 54 57 55 38 56 41 57
REMARK SMILES IDX 56 58 76 59 39 60 40 61 55 63 77 64 42 65 25 66 26 67 35 68
REMARK SMILES IDX 27 69 28 70 34 71 36 72 29 73 30 74 31 75 32 76 33 77 59 78
REMARK SMILES IDX 60 79 69 80 61 81 62 82 68 83 70 84 63 85 64 86 65 87 66 88
REMARK SMILES IDX 67 89 43 90 44 91 53 92 45 93 46 94 52 95 54 96 47 97 48 98
REMARK SMILES IDX 49 99 50 100 51 101
REMARK H PARENT 6 7 84 13 13 32 75 51 41 62
REMARK Flexibility Score: inf
ROOT
ATOM      1  C   UNL A   1      37.824  22.625  25.179  1.00  0.00     0.002 C 
ENDROOT
BRANCH   1   2
ATOM      2  C   UNL A   1      36.493  23.155  25.719  1.00  0.00     0.021 C 
BRANCH   2   3
ATOM      3  C   UNL A   1      35.688  24.113  24.817  1.00  0.00     0.116 C 
BRANCH   3   4
ATOM      4  N   UNL A   1      34.610  24.872  25.469  1.00  0.00    -0.355 N 
ATOM      5  C   UNL A   1      33.248  24.908  25.559  1.00  0.00     0.232 C 
ATOM      6  O   UNL A   1      32.871  25.830  26.304  1.00  0.00    -0.274 OA
ATOM      7  H   UNL A   1      34.997  25.588  26.023  1.00  0.00     0.163 HD
BRANCH   5   8
ATOM      8  C   UNL A   1      32.143  24.037  24.822  1.00  0.00     0.103 C 
ATOM      9  C   UNL A   1      30.689  24.629  24.678  1.00  0.00     0.084 C 
ATOM     10  C   UNL A   1      32.468  23.724  23.354  1.00  0.00     0.279 C 
ATOM     11  C   UNL A   1      30.326  24.599  23.195  1.00  0.00     0.263 C 
ATOM     12  N   UNL A   1      31.594  24.547  22.505  1.00  0.00    -0.330 N 
ATOM     13  H   UNL A   1      31.581  24.072  21.602  1.00  0.00     0.348 HD
BRANCH   8  14
ATOM     14  C   UNL A   1      31.972  22.746  25.707  1.00  0.00     0.020 C 
ATOM     15  C   UNL A   1      30.614  22.597  26.434  1.00  0.00     0.005 C 
ENDBRANCH   8  14
BRANCH  12  16
ATOM     16  C   UNL A   1      32.025  25.821  21.904  1.00  0.00     0.299 C 
BRANCH  16  17
ATOM     17  C   UNL A   1      32.108  27.117  22.717  1.00  0.00     0.006 A 
ATOM     18  C   UNL A   1      33.315  27.595  23.234  1.00  0.00     0.010 A 
ATOM     19  C   UNL A   1      30.980  27.802  23.147  1.00  0.00     0.010 A 
ATOM     20  C   UNL A   1      33.336  28.643  24.182  1.00  0.00     0.004 A 
ATOM     21  C   UNL A   1      30.968  28.818  24.091  1.00  0.00     0.004 A 
ATOM     22  C   UNL A   1      32.153  29.215  24.674  1.00  0.00    -0.048 A 
BRANCH  22  23
ATOM     23  C   UNL A   1      32.069  30.192  25.821  1.00  0.00     0.038 C 
BRANCH  23  24
ATOM     24  C   UNL A   1      32.409  29.573  27.191  1.00  0.00    -0.013 C 
ATOM     25  C   UNL A   1      31.524  28.364  27.483  1.00  0.00     0.008 C 
ATOM     26  C   UNL A   1      33.883  29.169  27.254  1.00  0.00     0.008 C 
ENDBRANCH  23  24
ENDBRANCH  22  23
ENDBRANCH  16  17
ENDBRANCH  12  16
ENDBRANCH   5   8
ENDBRANCH   3   4
ENDBRANCH   2   3
ENDBRANCH   1   2
BRANCH   1  27
ATOM     27  C   UNL A   1      38.558  21.667  26.133  1.00  0.00     0.002 C 
BRANCH  27  28
ATOM     28  C   UNL A   1      40.016  22.004  26.491  1.00  0.00     0.021 C 
BRANCH  28  29
ATOM     29  C   UNL A   1      40.329  23.482  26.721  1.00  0.00     0.116 C 
BRANCH  29  30
ATOM     30  N   UNL A   1      41.538  23.894  26.021  1.00  0.00    -0.352 N 
ATOM     31  C   UNL A   1      42.307  25.011  26.218  1.00  0.00     0.251 C 
ATOM     32  H   UNL A   1      41.845  23.287  25.308  1.00  0.00     0.163 HD
ATOM     33  O   UNL A   1      43.158  25.337  25.382  1.00  0.00    -0.269 OA
BRANCH  31  34
ATOM     34  C   UNL A   1      42.125  25.830  27.433  1.00  0.00     0.039 A 
ATOM     35  C   UNL A   1      43.208  26.526  27.973  1.00  0.00     0.014 A 
ATOM     36  C   UNL A   1      40.872  25.898  28.047  1.00  0.00     0.014 A 
ATOM     37  C   UNL A   1      43.014  27.344  29.091  1.00  0.00     0.010 A 
ATOM     38  C   UNL A   1      40.670  26.741  29.138  1.00  0.00     0.010 A 
ATOM     39  C   UNL A   1      41.737  27.481  29.662  1.00  0.00    -0.014 A 
BRANCH  39  40
ATOM     40  C   UNL A   1      41.483  28.448  30.761  1.00  0.00     0.031 A 
ATOM     41  C   UNL A   1      42.266  28.381  32.043  1.00  0.00     0.074 A 
ATOM     42  C   UNL A   1      40.477  29.333  30.628  1.00  0.00     0.049 A 
ATOM     43  N   UNL A   1      42.152  29.117  33.118  1.00  0.00    -0.248 NA
ATOM     44  C   UNL A   1      43.297  27.336  32.138  1.00  0.00     0.031 C 
ATOM     45  C   UNL A   1      39.601  29.442  29.459  1.00  0.00     0.029 A 
ATOM     46  N   UNL A   1      40.005  30.295  31.486  1.00  0.00    -0.354 N 
ATOM     47  C   UNL A   1      43.090  28.627  34.019  1.00  0.00     0.074 A 
ATOM     48  C   UNL A   1      43.731  27.497  33.381  1.00  0.00     0.031 C 
ATOM     49  C   UNL A   1      38.712  30.426  29.665  1.00  0.00     0.029 A 
ATOM     50  C   UNL A   1      38.929  30.994  30.993  1.00  0.00     0.049 A 
ATOM     51  H   UNL A   1      40.402  30.469  32.371  1.00  0.00     0.167 HD
ATOM     52  C   UNL A   1      43.397  29.089  35.255  1.00  0.00     0.037 A 
ATOM     53  C   UNL A   1      38.192  31.976  31.548  1.00  0.00     0.037 A 
ATOM     54  C   UNL A   1      42.752  30.219  35.876  1.00  0.00     0.049 A 
ATOM     55  C   UNL A   1      38.551  32.470  32.922  1.00  0.00     0.074 A 
ATOM     56  C   UNL A   1      43.044  30.814  37.091  1.00  0.00     0.029 A 
ATOM     57  N   UNL A   1      41.677  30.914  35.340  1.00  0.00    -0.354 N 
ATOM     58  N   UNL A   1      39.508  32.061  33.720  1.00  0.00    -0.248 NA
ATOM     59  C   UNL A   1      37.737  33.564  33.468  1.00  0.00     0.031 C 
ATOM     60  C   UNL A   1      42.109  31.832  37.315  1.00  0.00     0.029 A 
ATOM     61  C   UNL A   1      41.269  31.908  36.215  1.00  0.00     0.049 A 
ATOM     62  H   UNL A   1      41.264  30.727  34.466  1.00  0.00     0.167 HD
ATOM     63  C   UNL A   1      39.421  32.856  34.858  1.00  0.00     0.074 A 
ATOM     64  C   UNL A   1      38.330  33.784  34.634  1.00  0.00     0.031 C 
ATOM     65  C   UNL A   1      40.174  32.819  35.985  1.00  0.00     0.037 A 
BRANCH  52  66
ATOM     66  C   UNL A   1      44.477  28.373  36.021  1.00  0.00     0.058 A 
ATOM     67  C   UNL A   1      45.831  28.725  35.894  1.00  0.00     0.135 A 
ATOM     68  C   UNL A   1      44.154  27.349  36.927  1.00  0.00     0.135 A 
ATOM     69  F   UNL A   1      46.200  29.691  35.038  1.00  0.00    -0.206 F 
ATOM     70  C   UNL A   1      46.827  28.066  36.608  1.00  0.00     0.059 A 
ATOM     71  C   UNL A   1      45.131  26.695  37.673  1.00  0.00     0.059 A 
ATOM     72  F   UNL A   1      42.876  26.972  37.093  1.00  0.00    -0.206 F 
ATOM     73  C   UNL A   1      46.467  27.050  37.495  1.00  0.00     0.060 A 
BRANCH  73  74
ATOM     74  S   UNL A   1      47.772  26.204  38.411  1.00  0.00     0.124 S 
ATOM     75  O   UNL A   1      48.825  26.119  37.404  1.00  0.00    -0.237 OA
ATOM     76  O   UNL A   1      48.025  27.123  39.516  1.00  0.00    -0.237 OA
ATOM     77  O   UNL A   1      47.159  24.934  38.784  1.00  0.00    -0.744 OA
ENDBRANCH  73  74
ENDBRANCH  52  66
BRANCH  53  78
ATOM     78  C   UNL A   1      37.055  32.561  30.789  1.00  0.00     0.058 A 
ATOM     79  C   UNL A   1      37.265  33.574  29.842  1.00  0.00     0.135 A 
ATOM     80  C   UNL A   1      35.744  32.095  30.970  1.00  0.00     0.135 A 
ATOM     81  F   UNL A   1      38.499  34.057  29.638  1.00  0.00    -0.206 F 
ATOM     82  C   UNL A   1      36.213  34.110  29.105  1.00  0.00     0.059 A 
ATOM     83  C   UNL A   1      34.680  32.597  30.226  1.00  0.00     0.059 A 
ATOM     84  F   UNL A   1      35.493  31.114  31.851  1.00  0.00    -0.206 F 
ATOM     85  C   UNL A   1      34.925  33.609  29.300  1.00  0.00     0.060 A 
BRANCH  85  86
ATOM     86  S   UNL A   1      33.579  34.264  28.289  1.00  0.00     0.124 S 
ATOM     87  O   UNL A   1      34.310  35.036  27.291  1.00  0.00    -0.237 OA
ATOM     88  O   UNL A   1      32.936  33.043  27.810  1.00  0.00    -0.237 OA
ATOM     89  O   UNL A   1      32.793  35.044  29.241  1.00  0.00    -0.744 OA
ENDBRANCH  85  86
ENDBRANCH  53  78
BRANCH  65  90
ATOM     90  C   UNL A   1      39.850  33.815  37.064  1.00  0.00     0.058 A 
ATOM     91  C   UNL A   1      38.989  33.496  38.126  1.00  0.00     0.135 A 
ATOM     92  C   UNL A   1      40.448  35.086  37.066  1.00  0.00     0.135 A 
ATOM     93  F   UNL A   1      38.385  32.297  38.167  1.00  0.00    -0.206 F 
ATOM     94  C   UNL A   1      38.715  34.407  39.140  1.00  0.00     0.059 A 
ATOM     95  C   UNL A   1      40.210  36.004  38.085  1.00  0.00     0.059 A 
ATOM     96  F   UNL A   1      41.285  35.441  36.079  1.00  0.00    -0.206 F 
ATOM     97  C   UNL A   1      39.333  35.659  39.113  1.00  0.00     0.060 A 
BRANCH  97  98
ATOM     98  S   UNL A   1      38.996  36.818  40.454  1.00  0.00     0.124 S 
ATOM     99  O   UNL A   1      40.322  36.980  41.042  1.00  0.00    -0.237 OA
ATOM    100  O   UNL A   1      38.474  37.979  39.739  1.00  0.00    -0.237 OA
ATOM    101  O   UNL A   1      38.025  36.110  41.281  1.00  0.00    -0.744 OA
ENDBRANCH  97  98
ENDBRANCH  65  90
ENDBRANCH  39  40
ENDBRANCH  31  34
ENDBRANCH  29  30
ENDBRANCH  28  29
ENDBRANCH  27  28
ENDBRANCH   1  27
TORSDOF 21
ENDMDL
MODEL 3
REMARK VINA RESULT:     -10.2      6.283     12.046
REMARK SMILES CC[C@]1(C(=O)NCCCCCCNC(=O)c2ccc(-c3c4nc(c(-c5c(F)cc(S(=O)(=O)[O-])cc5F)c5ccc([nH]5)c(-c5c(F)cc(S(=O)(=O)[O-])cc5F)c5nc(c(-c6c(F)cc(S(=O)(=O)[O-])cc6F)c6ccc3[nH]6)C=C5)C=C4)cc2)CC[N@@H+](Cc2ccc(CC(C)C)cc2)C1
REMARK SMILES IDX 9 1 8 2 7 3 6 4 4 5 5 6 3 8 82 9 96 10 83 11 84 12 2 14 1 15
REMARK SMILES IDX 85 16 86 17 87 18 95 19 88 20 94 21 89 22 90 23 91 24 92 25
REMARK SMILES IDX 93 26 10 27 11 28 12 29 13 30 14 31 15 33 16 34 17 35 81 36
REMARK SMILES IDX 18 37 80 38 19 39 20 40 21 41 74 42 22 43 79 44 73 45 75 46
REMARK SMILES IDX 23 47 78 48 72 49 71 50 24 52 58 53 37 54 57 55 38 56 41 57
REMARK SMILES IDX 56 58 76 59 39 60 40 61 55 63 77 64 42 65 25 66 26 67 35 68
REMARK SMILES IDX 27 69 28 70 34 71 36 72 29 73 30 74 31 75 32 76 33 77 59 78
REMARK SMILES IDX 60 79 69 80 61 81 62 82 68 83 70 84 63 85 64 86 65 87 66 88
REMARK SMILES IDX 67 89 43 90 44 91 53 92 45 93 46 94 52 95 54 96 47 97 48 98
REMARK SMILES IDX 49 99 50 100 51 101
REMARK H PARENT 6 7 84 13 13 32 75 51 41 62
REMARK Flexibility Score: inf
ROOT
ATOM      1  C   UNL A   1      33.946  30.146  26.937  1.00  0.00     0.002 C 
ENDROOT
BRANCH   1   2
ATOM      2  C   UNL A   1      32.709  29.841  26.087  1.00  0.00     0.021 C 
BRANCH   2   3
ATOM      3  C   UNL A   1      32.937  29.267  24.674  1.00  0.00     0.116 C 
BRANCH   3   4
ATOM      4  N   UNL A   1      33.496  27.908  24.605  1.00  0.00    -0.355 N 
ATOM      5  C   UNL A   1      33.101  26.609  24.461  1.00  0.00     0.232 C 
ATOM      6  O   UNL A   1      34.076  25.837  24.482  1.00  0.00    -0.274 OA
ATOM      7  H   UNL A   1      34.476  27.948  24.692  1.00  0.00     0.163 HD
BRANCH   5   8
ATOM      8  C   UNL A   1      31.646  25.980  24.355  1.00  0.00     0.103 C 
ATOM      9  C   UNL A   1      31.184  25.378  22.974  1.00  0.00     0.084 C 
ATOM     10  C   UNL A   1      31.415  24.777  25.281  1.00  0.00     0.279 C 
ATOM     11  C   UNL A   1      30.743  23.938  23.226  1.00  0.00     0.263 C 
ATOM     12  N   UNL A   1      31.399  23.560  24.456  1.00  0.00    -0.330 N 
ATOM     13  H   UNL A   1      30.907  22.866  25.020  1.00  0.00     0.348 HD
BRANCH   8  14
ATOM     14  C   UNL A   1      30.656  27.173  24.631  1.00  0.00     0.020 C 
ATOM     15  C   UNL A   1      29.487  27.330  23.630  1.00  0.00     0.005 C 
ENDBRANCH   8  14
BRANCH  12  16
ATOM     16  C   UNL A   1      32.574  22.687  24.289  1.00  0.00     0.299 C 
BRANCH  16  17
ATOM     17  C   UNL A   1      32.459  21.160  24.278  1.00  0.00     0.006 A 
ATOM     18  C   UNL A   1      32.648  20.391  25.429  1.00  0.00     0.010 A 
ATOM     19  C   UNL A   1      32.341  20.428  23.104  1.00  0.00     0.010 A 
ATOM     20  C   UNL A   1      32.785  18.986  25.351  1.00  0.00     0.004 A 
ATOM     21  C   UNL A   1      32.493  19.055  22.994  1.00  0.00     0.004 A 
ATOM     22  C   UNL A   1      32.782  18.313  24.119  1.00  0.00    -0.048 A 
BRANCH  22  23
ATOM     23  C   UNL A   1      33.116  16.855  23.923  1.00  0.00     0.038 C 
BRANCH  23  24
ATOM     24  C   UNL A   1      33.505  16.126  25.224  1.00  0.00    -0.013 C 
ATOM     25  C   UNL A   1      32.658  14.872  25.425  1.00  0.00     0.008 C 
ATOM     26  C   UNL A   1      34.990  15.756  25.217  1.00  0.00     0.008 C 
ENDBRANCH  23  24
ENDBRANCH  22  23
ENDBRANCH  16  17
ENDBRANCH  12  16
ENDBRANCH   5   8
ENDBRANCH   3   4
ENDBRANCH   2   3
ENDBRANCH   1   2
BRANCH   1  27
ATOM     27  C   UNL A   1      33.900  31.504  27.657  1.00  0.00     0.002 C 
BRANCH  27  28
ATOM     28  C   UNL A   1      35.156  31.937  28.433  1.00  0.00     0.021 C 
BRANCH  28  29
ATOM     29  C   UNL A   1      35.784  30.881  29.341  1.00  0.00     0.116 C 
BRANCH  29  30
ATOM     30  N   UNL A   1      36.120  31.424  30.651  1.00  0.00    -0.352 N 
ATOM     31  C   UNL A   1      37.269  31.260  31.381  1.00  0.00     0.251 C 
ATOM     32  H   UNL A   1      35.428  31.986  31.069  1.00  0.00     0.163 HD
ATOM     33  O   UNL A   1      37.300  31.585  32.573  1.00  0.00    -0.269 OA
BRANCH  31  34
ATOM     34  C   UNL A   1      38.476  30.697  30.744  1.00  0.00     0.039 A 
ATOM     35  C   UNL A   1      38.624  30.756  29.357  1.00  0.00     0.014 A 
ATOM     36  C   UNL A   1      39.465  30.099  31.529  1.00  0.00     0.014 A 
ATOM     37  C   UNL A   1      39.796  30.272  28.766  1.00  0.00     0.010 A 
ATOM     38  C   UNL A   1      40.648  29.651  30.946  1.00  0.00     0.010 A 
ATOM     39  C   UNL A   1      40.830  29.745  29.561  1.00  0.00    -0.014 A 
BRANCH  39  40
ATOM     40  C   UNL A   1      42.135  29.354  28.968  1.00  0.00     0.031 A 
ATOM     41  C   UNL A   1      42.370  27.951  28.481  1.00  0.00     0.074 A 
ATOM     42  C   UNL A   1      43.138  30.253  28.955  1.00  0.00     0.049 A 
ATOM     43  N   UNL A   1      43.456  27.427  27.973  1.00  0.00    -0.248 NA
ATOM     44  C   UNL A   1      41.247  27.008  28.601  1.00  0.00     0.031 C 
ATOM     45  C   UNL A   1      43.047  31.622  29.468  1.00  0.00     0.029 A 
ATOM     46  N   UNL A   1      44.432  30.150  28.513  1.00  0.00    -0.354 N 
ATOM     47  C   UNL A   1      43.153  26.095  27.715  1.00  0.00     0.074 A 
ATOM     48  C   UNL A   1      41.795  25.880  28.169  1.00  0.00     0.031 C 
ATOM     49  C   UNL A   1      44.228  32.235  29.296  1.00  0.00     0.029 A 
ATOM     50  C   UNL A   1      45.170  31.296  28.694  1.00  0.00     0.049 A 
ATOM     51  H   UNL A   1      44.798  29.332  28.103  1.00  0.00     0.167 HD
ATOM     52  C   UNL A   1      43.930  25.148  27.137  1.00  0.00     0.037 A 
ATOM     53  C   UNL A   1      46.462  31.560  28.417  1.00  0.00     0.037 A 
ATOM     54  C   UNL A   1      45.280  25.378  26.685  1.00  0.00     0.049 A 
ATOM     55  C   UNL A   1      47.305  30.492  27.777  1.00  0.00     0.074 A 
ATOM     56  C   UNL A   1      46.123  24.507  26.017  1.00  0.00     0.029 A 
ATOM     57  N   UNL A   1      45.989  26.556  26.869  1.00  0.00    -0.354 N 
ATOM     58  N   UNL A   1      46.971  29.267  27.447  1.00  0.00    -0.248 NA
ATOM     59  C   UNL A   1      48.697  30.842  27.465  1.00  0.00     0.031 C 
ATOM     60  C   UNL A   1      47.360  25.140  25.848  1.00  0.00     0.029 A 
ATOM     61  C   UNL A   1      47.271  26.424  26.361  1.00  0.00     0.049 A 
ATOM     62  H   UNL A   1      45.633  27.368  27.299  1.00  0.00     0.167 HD
ATOM     63  C   UNL A   1      48.106  28.704  26.876  1.00  0.00     0.074 A 
ATOM     64  C   UNL A   1      49.130  29.730  26.886  1.00  0.00     0.031 C 
ATOM     65  C   UNL A   1      48.285  27.451  26.388  1.00  0.00     0.037 A 
BRANCH  52  66
ATOM     66  C   UNL A   1      43.343  23.773  26.959  1.00  0.00     0.058 A 
ATOM     67  C   UNL A   1      43.439  22.793  27.961  1.00  0.00     0.135 A 
ATOM     68  C   UNL A   1      42.638  23.440  25.790  1.00  0.00     0.135 A 
ATOM     69  F   UNL A   1      44.108  23.051  29.096  1.00  0.00    -0.206 F 
ATOM     70  C   UNL A   1      42.890  21.525  27.797  1.00  0.00     0.059 A 
ATOM     71  C   UNL A   1      42.056  22.187  25.616  1.00  0.00     0.059 A 
ATOM     72  F   UNL A   1      42.510  24.338  24.799  1.00  0.00    -0.206 F 
ATOM     73  C   UNL A   1      42.202  21.231  26.619  1.00  0.00     0.060 A 
BRANCH  73  74
ATOM     74  S   UNL A   1      41.499  19.579  26.421  1.00  0.00     0.124 S 
ATOM     75  O   UNL A   1      42.348  19.026  25.371  1.00  0.00    -0.237 OA
ATOM     76  O   UNL A   1      41.679  19.003  27.750  1.00  0.00    -0.237 OA
ATOM     77  O   UNL A   1      40.116  19.841  26.037  1.00  0.00    -0.744 OA
ENDBRANCH  73  74
ENDBRANCH  52  66
BRANCH  53  78
ATOM     78  C   UNL A   1      47.022  32.902  28.729  1.00  0.00     0.058 A 
ATOM     79  C   UNL A   1      47.625  33.160  29.969  1.00  0.00     0.135 A 
ATOM     80  C   UNL A   1      46.997  33.939  27.784  1.00  0.00     0.135 A 
ATOM     81  F   UNL A   1      47.668  32.204  30.908  1.00  0.00    -0.206 F 
ATOM     82  C   UNL A   1      48.179  34.403  30.263  1.00  0.00     0.059 A 
ATOM     83  C   UNL A   1      47.567  35.180  28.046  1.00  0.00     0.059 A 
ATOM     84  F   UNL A   1      46.447  33.736  26.577  1.00  0.00    -0.206 F 
ATOM     85  C   UNL A   1      48.150  35.405  29.292  1.00  0.00     0.060 A 
BRANCH  85  86
ATOM     86  S   UNL A   1      48.933  36.991  29.660  1.00  0.00     0.124 S 
ATOM     87  O   UNL A   1      49.913  36.608  30.669  1.00  0.00    -0.237 OA
ATOM     88  O   UNL A   1      49.470  37.375  28.358  1.00  0.00    -0.237 OA
ATOM     89  O   UNL A   1      47.822  37.810  30.136  1.00  0.00    -0.744 OA
ENDBRANCH  85  86
ENDBRANCH  53  78
BRANCH  65  90
ATOM     90  C   UNL A   1      49.637  27.118  25.819  1.00  0.00     0.058 A 
ATOM     91  C   UNL A   1      49.930  27.308  24.459  1.00  0.00     0.135 A 
ATOM     92  C   UNL A   1      50.668  26.653  26.652  1.00  0.00     0.135 A 
ATOM     93  F   UNL A   1      48.978  27.742  23.618  1.00  0.00    -0.206 F 
ATOM     94  C   UNL A   1      51.190  27.029  23.941  1.00  0.00     0.059 A 
ATOM     95  C   UNL A   1      51.944  26.394  26.161  1.00  0.00     0.059 A 
ATOM     96  F   UNL A   1      50.445  26.461  27.962  1.00  0.00    -0.206 F 
ATOM     97  C   UNL A   1      52.193  26.575  24.801  1.00  0.00     0.060 A 
BRANCH  97  98
ATOM     98  S   UNL A   1      53.833  26.252  24.122  1.00  0.00     0.124 S 
ATOM     99  O   UNL A   1      53.542  26.122  22.698  1.00  0.00    -0.237 OA
ATOM    100  O   UNL A   1      54.573  27.449  24.510  1.00  0.00    -0.237 OA
ATOM    101  O   UNL A   1      54.245  25.024  24.793  1.00  0.00    -0.744 OA
ENDBRANCH  97  98
ENDBRANCH  65  90
ENDBRANCH  39  40
ENDBRANCH  31  34
ENDBRANCH  29  30
ENDBRANCH  28  29
ENDBRANCH  27  28
ENDBRANCH   1  27
TORSDOF 21
ENDMDL
