MODEL 1
REMARK VINA RESULT:     -13.3      0.000      0.000
REMARK SMILES Cc1c(C(=O)NCCCCCCNC(=O)c2ccc(-c3c4nc(c(-c5c(F)cc(S(=O)(=O)[O-])cc5F)c5ccc([nH]5)c(-c5c(F)cc(S(=O)(=O)[O-])cc5F)c5nc(c(-c6c(F)cc(S(=O)(=O)[O-])cc6F)c6ccc3[nH]6)C=C5)C=C4)cc2)oc2c1/C(=N/NC(=O)C(c1ccccc1)c1ccccc1)CCC2
REMARK SMILES IDX 9 1 8 2 7 3 6 4 4 5 5 6 3 8 1 9 2 10 84 11 82 12 83 13 85 14
REMARK SMILES IDX 105 15 86 16 103 17 104 18 87 19 88 20 89 22 90 23 91 24
REMARK SMILES IDX 92 25 96 26 93 27 95 28 94 29 97 30 98 31 102 32 99 33
REMARK SMILES IDX 101 34 100 35 10 36 11 37 12 38 13 39 14 40 15 42 16 43
REMARK SMILES IDX 17 44 81 45 18 46 80 47 19 48 20 49 21 50 74 51 22 52 79 53
REMARK SMILES IDX 73 54 75 55 23 56 78 57 72 58 71 59 24 61 58 62 37 63 57 64
REMARK SMILES IDX 38 65 41 66 56 67 76 68 39 69 40 70 55 72 77 73 42 74 25 75
REMARK SMILES IDX 26 76 35 77 27 78 28 79 34 80 36 81 29 82 30 83 31 84 32 85
REMARK SMILES IDX 33 86 59 87 60 88 69 89 61 90 62 91 68 92 70 93 63 94 64 95
REMARK SMILES IDX 65 96 66 97 67 98 43 99 44 100 53 101 45 102 46 103 52 104
REMARK SMILES IDX 54 105 47 106 48 107 49 108 50 109 51 110
REMARK H PARENT 6 7 87 21 13 41 75 60 41 71
REMARK Flexibility Score: inf
ROOT
ATOM      1  C   UNL A   1      39.470  23.281  26.562  1.00  0.00     0.002 C 
ENDROOT
BRANCH   1   2
ATOM      2  C   UNL A   1      38.412  24.386  26.491  1.00  0.00     0.021 C 
BRANCH   2   3
ATOM      3  C   UNL A   1      37.079  23.873  25.942  1.00  0.00     0.116 C 
BRANCH   3   4
ATOM      4  N   UNL A   1      37.197  23.382  24.564  1.00  0.00    -0.349 N 
ATOM      5  C   UNL A   1      36.239  23.161  23.576  1.00  0.00     0.287 C 
ATOM      6  O   UNL A   1      36.633  22.850  22.457  1.00  0.00    -0.266 OA
ATOM      7  H   UNL A   1      38.119  23.172  24.287  1.00  0.00     0.163 HD
BRANCH   5   8
ATOM      8  C   UNL A   1      34.849  23.381  23.909  1.00  0.00     0.195 A 
ATOM      9  C   UNL A   1      33.911  25.300  22.441  1.00  0.00     0.049 C 
ATOM     10  C   UNL A   1      33.856  24.292  23.528  1.00  0.00     0.010 A 
ATOM     11  C   UNL A   1      32.818  24.137  24.509  1.00  0.00     0.043 A 
ATOM     12  O   UNL A   1      34.360  22.571  24.875  1.00  0.00    -0.455 OA
ATOM     13  C   UNL A   1      33.277  23.154  25.356  1.00  0.00     0.114 A 
ATOM     14  C   UNL A   1      31.563  24.807  24.847  1.00  0.00     0.072 C 
ATOM     15  C   UNL A   1      32.852  22.732  26.698  1.00  0.00     0.076 C 
ATOM     16  N   UNL A   1      30.988  25.463  23.881  1.00  0.00    -0.177 NA
ATOM     17  C   UNL A   1      31.266  24.606  26.327  1.00  0.00     0.059 C 
ATOM     18  C   UNL A   1      31.427  23.176  26.851  1.00  0.00     0.014 C 
BRANCH  16  19
ATOM     19  N   UNL A   1      29.824  26.177  23.709  1.00  0.00    -0.246 N 
ATOM     20  C   UNL A   1      29.408  27.480  23.479  1.00  0.00     0.252 C 
ATOM     21  H   UNL A   1      29.045  25.577  23.768  1.00  0.00     0.193 HD
ATOM     22  O   UNL A   1      28.186  27.700  23.481  1.00  0.00    -0.272 OA
BRANCH  20  23
ATOM     23  C   UNL A   1      30.386  28.622  23.171  1.00  0.00     0.140 C 
BRANCH  23  24
ATOM     24  C   UNL A   1      29.513  29.883  22.763  1.00  0.00    -0.031 A 
ATOM     25  C   UNL A   1      28.971  30.096  21.485  1.00  0.00     0.005 A 
ATOM     26  C   UNL A   1      29.245  30.918  23.710  1.00  0.00     0.005 A 
ATOM     27  C   UNL A   1      28.338  31.320  21.157  1.00  0.00     0.000 A 
ATOM     28  C   UNL A   1      28.669  32.147  23.376  1.00  0.00     0.000 A 
ATOM     29  C   UNL A   1      28.223  32.356  22.087  1.00  0.00     0.000 A 
ENDBRANCH  23  24
BRANCH  23  30
ATOM     30  C   UNL A   1      31.487  28.577  24.326  1.00  0.00    -0.031 A 
ATOM     31  C   UNL A   1      31.197  28.537  25.700  1.00  0.00     0.005 A 
ATOM     32  C   UNL A   1      32.865  28.420  23.989  1.00  0.00     0.005 A 
ATOM     33  C   UNL A   1      32.186  28.142  26.631  1.00  0.00     0.000 A 
ATOM     34  C   UNL A   1      33.831  27.984  24.898  1.00  0.00     0.000 A 
ATOM     35  C   UNL A   1      33.481  27.813  26.223  1.00  0.00     0.000 A 
ENDBRANCH  23  30
ENDBRANCH  20  23
ENDBRANCH  16  19
ENDBRANCH   5   8
ENDBRANCH   3   4
ENDBRANCH   2   3
ENDBRANCH   1   2
BRANCH   1  36
ATOM     36  C   UNL A   1      40.175  23.142  27.924  1.00  0.00     0.002 C 
BRANCH  36  37
ATOM     37  C   UNL A   1      41.200  22.003  28.047  1.00  0.00     0.021 C 
BRANCH  37  38
ATOM     38  C   UNL A   1      42.636  22.496  28.076  1.00  0.00     0.116 C 
BRANCH  38  39
ATOM     39  N   UNL A   1      43.216  22.594  26.735  1.00  0.00    -0.352 N 
ATOM     40  C   UNL A   1      43.196  23.669  25.863  1.00  0.00     0.251 C 
ATOM     41  H   UNL A   1      43.680  21.788  26.411  1.00  0.00     0.163 HD
ATOM     42  O   UNL A   1      43.389  23.510  24.670  1.00  0.00    -0.269 OA
BRANCH  40  43
ATOM     43  C   UNL A   1      42.941  25.010  26.419  1.00  0.00     0.039 A 
ATOM     44  C   UNL A   1      41.916  25.828  25.939  1.00  0.00     0.014 A 
ATOM     45  C   UNL A   1      43.740  25.424  27.479  1.00  0.00     0.014 A 
ATOM     46  C   UNL A   1      41.669  27.034  26.593  1.00  0.00     0.010 A 
ATOM     47  C   UNL A   1      43.356  26.486  28.246  1.00  0.00     0.010 A 
ATOM     48  C   UNL A   1      42.384  27.345  27.763  1.00  0.00    -0.014 A 
BRANCH  48  49
ATOM     49  C   UNL A   1      42.072  28.526  28.557  1.00  0.00     0.031 A 
ATOM     50  C   UNL A   1      43.099  29.597  28.475  1.00  0.00     0.074 A 
ATOM     51  C   UNL A   1      40.875  28.724  29.155  1.00  0.00     0.049 A 
ATOM     52  N   UNL A   1      43.923  29.962  29.400  1.00  0.00    -0.248 NA
ATOM     53  C   UNL A   1      43.366  30.217  27.166  1.00  0.00     0.031 C 
ATOM     54  C   UNL A   1      39.654  27.910  29.079  1.00  0.00     0.029 A 
ATOM     55  N   UNL A   1      40.470  29.777  29.910  1.00  0.00    -0.354 N 
ATOM     56  C   UNL A   1      44.649  31.022  28.870  1.00  0.00     0.074 A 
ATOM     57  C   UNL A   1      44.410  31.000  27.450  1.00  0.00     0.031 C 
ATOM     58  C   UNL A   1      38.602  28.615  29.554  1.00  0.00     0.029 A 
ATOM     59  C   UNL A   1      39.098  29.847  30.135  1.00  0.00     0.049 A 
ATOM     60  H   UNL A   1      41.099  30.442  30.273  1.00  0.00     0.167 HD
ATOM     61  C   UNL A   1      45.192  31.973  29.680  1.00  0.00     0.037 A 
ATOM     62  C   UNL A   1      38.424  30.856  30.746  1.00  0.00     0.037 A 
ATOM     63  C   UNL A   1      45.236  31.520  31.050  1.00  0.00     0.049 A 
ATOM     64  C   UNL A   1      39.423  31.589  31.572  1.00  0.00     0.074 A 
ATOM     65  C   UNL A   1      45.823  30.440  31.685  1.00  0.00     0.029 A 
ATOM     66  N   UNL A   1      44.260  31.968  31.909  1.00  0.00    -0.354 N 
ATOM     67  N   UNL A   1      40.031  31.061  32.601  1.00  0.00    -0.248 NA
ATOM     68  C   UNL A   1      40.112  32.707  30.947  1.00  0.00     0.031 C 
ATOM     69  C   UNL A   1      44.840  29.989  32.617  1.00  0.00     0.029 A 
ATOM     70  C   UNL A   1      43.760  30.870  32.567  1.00  0.00     0.049 A 
ATOM     71  H   UNL A   1      43.972  32.902  32.029  1.00  0.00     0.167 HD
ATOM     72  C   UNL A   1      41.350  31.479  32.490  1.00  0.00     0.074 A 
ATOM     73  C   UNL A   1      41.325  32.541  31.482  1.00  0.00     0.031 C 
ATOM     74  C   UNL A   1      42.383  30.741  32.998  1.00  0.00     0.037 A 
BRANCH  61  75
ATOM     75  C   UNL A   1      45.351  33.425  29.300  1.00  0.00     0.058 A 
ATOM     76  C   UNL A   1      44.218  34.169  28.909  1.00  0.00     0.135 A 
ATOM     77  C   UNL A   1      46.598  34.041  29.048  1.00  0.00     0.135 A 
ATOM     78  F   UNL A   1      42.982  33.676  29.089  1.00  0.00    -0.206 F 
ATOM     79  C   UNL A   1      44.320  35.401  28.262  1.00  0.00     0.059 A 
ATOM     80  C   UNL A   1      46.720  35.291  28.454  1.00  0.00     0.059 A 
ATOM     81  F   UNL A   1      47.762  33.422  29.275  1.00  0.00    -0.206 F 
ATOM     82  C   UNL A   1      45.578  35.948  28.030  1.00  0.00     0.060 A 
BRANCH  82  83
ATOM     83  S   UNL A   1      45.717  37.497  27.123  1.00  0.00     0.124 S 
ATOM     84  O   UNL A   1      46.394  38.345  28.097  1.00  0.00    -0.237 OA
ATOM     85  O   UNL A   1      46.509  37.095  25.963  1.00  0.00    -0.237 OA
ATOM     86  O   UNL A   1      44.329  37.844  26.836  1.00  0.00    -0.744 OA
ENDBRANCH  82  83
ENDBRANCH  61  75
BRANCH  62  87
ATOM     87  C   UNL A   1      37.111  31.442  30.352  1.00  0.00     0.058 A 
ATOM     88  C   UNL A   1      36.164  31.837  31.316  1.00  0.00     0.135 A 
ATOM     89  C   UNL A   1      36.876  31.894  29.037  1.00  0.00     0.135 A 
ATOM     90  F   UNL A   1      36.315  31.470  32.598  1.00  0.00    -0.206 F 
ATOM     91  C   UNL A   1      35.081  32.672  31.006  1.00  0.00     0.059 A 
ATOM     92  C   UNL A   1      35.801  32.719  28.703  1.00  0.00     0.059 A 
ATOM     93  F   UNL A   1      37.740  31.623  28.048  1.00  0.00    -0.206 F 
ATOM     94  C   UNL A   1      34.922  33.128  29.697  1.00  0.00     0.060 A 
BRANCH  94  95
ATOM     95  S   UNL A   1      33.641  34.351  29.320  1.00  0.00     0.124 S 
ATOM     96  O   UNL A   1      32.708  33.573  28.513  1.00  0.00    -0.237 OA
ATOM     97  O   UNL A   1      33.175  34.728  30.651  1.00  0.00    -0.237 OA
ATOM     98  O   UNL A   1      34.371  35.393  28.602  1.00  0.00    -0.744 OA
ENDBRANCH  94  95
ENDBRANCH  62  87
BRANCH  74  99
ATOM     99  C   UNL A   1      42.065  29.578  33.910  1.00  0.00     0.058 A 
ATOM    100  C   UNL A   1      41.816  28.260  33.480  1.00  0.00     0.135 A 
ATOM    101  C   UNL A   1      42.184  29.777  35.294  1.00  0.00     0.135 A 
ATOM    102  F   UNL A   1      41.786  27.954  32.177  1.00  0.00    -0.206 F 
ATOM    103  C   UNL A   1      41.656  27.204  34.383  1.00  0.00     0.059 A 
ATOM    104  C   UNL A   1      42.061  28.736  36.210  1.00  0.00     0.059 A 
ATOM    105  F   UNL A   1      42.481  30.997  35.773  1.00  0.00    -0.206 F 
ATOM    106  C   UNL A   1      41.782  27.452  35.748  1.00  0.00     0.060 A 
BRANCH 106 107
ATOM    107  S   UNL A   1      41.640  26.080  36.916  1.00  0.00     0.124 S 
ATOM    108  O   UNL A   1      41.855  24.922  36.055  1.00  0.00    -0.237 OA
ATOM    109  O   UNL A   1      42.705  26.364  37.872  1.00  0.00    -0.237 OA
ATOM    110  O   UNL A   1      40.285  26.220  37.445  1.00  0.00    -0.744 OA
ENDBRANCH 106 107
ENDBRANCH  74  99
ENDBRANCH  48  49
ENDBRANCH  40  43
ENDBRANCH  38  39
ENDBRANCH  37  38
ENDBRANCH  36  37
ENDBRANCH   1  36
TORSDOF 20
ENDMDL
MODEL 2
REMARK VINA RESULT:     -12.3      3.252      9.850
REMARK SMILES Cc1c(C(=O)NCCCCCCNC(=O)c2ccc(-c3c4nc(c(-c5c(F)cc(S(=O)(=O)[O-])cc5F)c5ccc([nH]5)c(-c5c(F)cc(S(=O)(=O)[O-])cc5F)c5nc(c(-c6c(F)cc(S(=O)(=O)[O-])cc6F)c6ccc3[nH]6)C=C5)C=C4)cc2)oc2c1/C(=N/NC(=O)C(c1ccccc1)c1ccccc1)CCC2
REMARK SMILES IDX 9 1 8 2 7 3 6 4 4 5 5 6 3 8 1 9 2 10 84 11 82 12 83 13 85 14
REMARK SMILES IDX 105 15 86 16 103 17 104 18 87 19 88 20 89 22 90 23 91 24
REMARK SMILES IDX 92 25 96 26 93 27 95 28 94 29 97 30 98 31 102 32 99 33
REMARK SMILES IDX 101 34 100 35 10 36 11 37 12 38 13 39 14 40 15 42 16 43
REMARK SMILES IDX 17 44 81 45 18 46 80 47 19 48 20 49 21 50 74 51 22 52 79 53
REMARK SMILES IDX 73 54 75 55 23 56 78 57 72 58 71 59 24 61 58 62 37 63 57 64
REMARK SMILES IDX 38 65 41 66 56 67 76 68 39 69 40 70 55 72 77 73 42 74 25 75
REMARK SMILES IDX 26 76 35 77 27 78 28 79 34 80 36 81 29 82 30 83 31 84 32 85
REMARK SMILES IDX 33 86 59 87 60 88 69 89 61 90 62 91 68 92 70 93 63 94 64 95
REMARK SMILES IDX 65 96 66 97 67 98 43 99 44 100 53 101 45 102 46 103 52 104
REMARK SMILES IDX 54 105 47 106 48 107 49 108 50 109 51 110
REMARK H PARENT 6 7 87 21 13 41 75 60 41 71
REMARK Flexibility Score: inf
ROOT
ATOM      1  C   UNL A   1      31.818  29.897  26.655  1.00  0.00     0.002 C 
ENDROOT
BRANCH   1   2
ATOM      2  C   UNL A   1      31.060  30.399  25.422  1.00  0.00     0.021 C 
BRANCH   2   3
ATOM      3  C   UNL A   1      31.211  29.453  24.229  1.00  0.00     0.116 C 
BRANCH   3   4
ATOM      4  N   UNL A   1      32.535  29.553  23.604  1.00  0.00    -0.349 N 
ATOM      5  C   UNL A   1      33.506  28.589  23.336  1.00  0.00     0.287 C 
ATOM      6  O   UNL A   1      34.490  28.934  22.691  1.00  0.00    -0.266 OA
ATOM      7  H   UNL A   1      32.782  30.464  23.324  1.00  0.00     0.163 HD
BRANCH   5   8
ATOM      8  C   UNL A   1      33.259  27.231  23.769  1.00  0.00     0.195 A 
ATOM      9  C   UNL A   1      33.243  25.665  21.702  1.00  0.00     0.049 C 
ATOM     10  C   UNL A   1      33.071  25.995  23.139  1.00  0.00     0.010 A 
ATOM     11  C   UNL A   1      32.535  25.139  24.161  1.00  0.00     0.043 A 
ATOM     12  O   UNL A   1      33.097  27.079  25.101  1.00  0.00    -0.455 OA
ATOM     13  C   UNL A   1      32.473  25.930  25.286  1.00  0.00     0.114 A 
ATOM     14  C   UNL A   1      31.982  23.788  24.238  1.00  0.00     0.072 C 
ATOM     15  C   UNL A   1      31.770  25.769  26.567  1.00  0.00     0.076 C 
ATOM     16  N   UNL A   1      32.356  22.964  23.302  1.00  0.00    -0.177 NA
ATOM     17  C   UNL A   1      31.019  23.702  25.414  1.00  0.00     0.059 C 
ATOM     18  C   UNL A   1      31.520  24.299  26.732  1.00  0.00     0.014 C 
BRANCH  16  19
ATOM     19  N   UNL A   1      32.154  21.637  22.995  1.00  0.00    -0.246 N 
ATOM     20  C   UNL A   1      32.501  20.379  23.466  1.00  0.00     0.252 C 
ATOM     21  H   UNL A   1      31.588  21.556  22.194  1.00  0.00     0.193 HD
ATOM     22  O   UNL A   1      32.152  19.399  22.791  1.00  0.00    -0.272 OA
BRANCH  20  23
ATOM     23  C   UNL A   1      33.238  20.165  24.795  1.00  0.00     0.140 C 
BRANCH  23  24
ATOM     24  C   UNL A   1      33.488  18.604  24.939  1.00  0.00    -0.031 A 
ATOM     25  C   UNL A   1      34.550  17.909  24.337  1.00  0.00     0.005 A 
ATOM     26  C   UNL A   1      32.593  17.792  25.700  1.00  0.00     0.005 A 
ATOM     27  C   UNL A   1      34.614  16.495  24.384  1.00  0.00     0.000 A 
ATOM     28  C   UNL A   1      32.622  16.395  25.703  1.00  0.00     0.000 A 
ATOM     29  C   UNL A   1      33.633  15.739  25.031  1.00  0.00     0.000 A 
ENDBRANCH  23  24
BRANCH  23  30
ATOM     30  C   UNL A   1      34.354  21.304  24.865  1.00  0.00    -0.031 A 
ATOM     31  C   UNL A   1      35.154  21.701  23.781  1.00  0.00     0.005 A 
ATOM     32  C   UNL A   1      34.486  22.098  26.044  1.00  0.00     0.005 A 
ATOM     33  C   UNL A   1      35.851  22.932  23.816  1.00  0.00     0.000 A 
ATOM     34  C   UNL A   1      35.133  23.335  26.065  1.00  0.00     0.000 A 
ATOM     35  C   UNL A   1      35.794  23.770  24.933  1.00  0.00     0.000 A 
ENDBRANCH  23  30
ENDBRANCH  20  23
ENDBRANCH  16  19
ENDBRANCH   5   8
ENDBRANCH   3   4
ENDBRANCH   2   3
ENDBRANCH   1   2
BRANCH   1  36
ATOM     36  C   UNL A   1      33.057  30.728  27.040  1.00  0.00     0.002 C 
BRANCH  36  37
ATOM     37  C   UNL A   1      34.338  29.937  27.349  1.00  0.00     0.021 C 
BRANCH  37  38
ATOM     38  C   UNL A   1      35.485  30.819  27.809  1.00  0.00     0.116 C 
BRANCH  38  39
ATOM     39  N   UNL A   1      35.160  31.561  29.029  1.00  0.00    -0.352 N 
ATOM     40  C   UNL A   1      35.684  31.403  30.300  1.00  0.00     0.251 C 
ATOM     41  H   UNL A   1      34.477  32.263  28.931  1.00  0.00     0.163 HD
ATOM     42  O   UNL A   1      35.088  31.819  31.279  1.00  0.00    -0.269 OA
BRANCH  40  43
ATOM     43  C   UNL A   1      36.985  30.723  30.435  1.00  0.00     0.039 A 
ATOM     44  C   UNL A   1      37.089  29.334  30.526  1.00  0.00     0.014 A 
ATOM     45  C   UNL A   1      38.125  31.520  30.429  1.00  0.00     0.014 A 
ATOM     46  C   UNL A   1      38.360  28.763  30.538  1.00  0.00     0.010 A 
ATOM     47  C   UNL A   1      39.349  30.954  30.218  1.00  0.00     0.010 A 
ATOM     48  C   UNL A   1      39.488  29.584  30.362  1.00  0.00    -0.014 A 
BRANCH  48  49
ATOM     49  C   UNL A   1      40.827  29.024  30.234  1.00  0.00     0.031 A 
ATOM     50  C   UNL A   1      41.539  28.860  31.528  1.00  0.00     0.074 A 
ATOM     51  C   UNL A   1      41.310  28.514  29.078  1.00  0.00     0.049 A 
ATOM     52  N   UNL A   1      42.545  29.545  31.959  1.00  0.00    -0.248 NA
ATOM     53  C   UNL A   1      40.965  27.952  32.536  1.00  0.00     0.031 C 
ATOM     54  C   UNL A   1      40.628  28.321  27.792  1.00  0.00     0.029 A 
ATOM     55  N   UNL A   1      42.530  27.967  28.840  1.00  0.00    -0.354 N 
ATOM     56  C   UNL A   1      42.885  28.994  33.189  1.00  0.00     0.074 A 
ATOM     57  C   UNL A   1      41.771  28.168  33.578  1.00  0.00     0.031 C 
ATOM     58  C   UNL A   1      41.357  27.498  27.004  1.00  0.00     0.029 A 
ATOM     59  C   UNL A   1      42.634  27.256  27.647  1.00  0.00     0.049 A 
ATOM     60  H   UNL A   1      43.286  28.065  29.464  1.00  0.00     0.167 HD
ATOM     61  C   UNL A   1      44.158  29.078  33.666  1.00  0.00     0.037 A 
ATOM     62  C   UNL A   1      43.694  26.514  27.232  1.00  0.00     0.037 A 
ATOM     63  C   UNL A   1      44.911  30.081  32.953  1.00  0.00     0.049 A 
ATOM     64  C   UNL A   1      44.875  27.007  27.991  1.00  0.00     0.074 A 
ATOM     65  C   UNL A   1      44.747  31.439  32.748  1.00  0.00     0.029 A 
ATOM     66  N   UNL A   1      45.773  29.661  31.967  1.00  0.00    -0.354 N 
ATOM     67  N   UNL A   1      45.368  28.210  27.854  1.00  0.00    -0.248 NA
ATOM     68  C   UNL A   1      45.177  26.350  29.254  1.00  0.00     0.031 C 
ATOM     69  C   UNL A   1      45.084  31.644  31.376  1.00  0.00     0.029 A 
ATOM     70  C   UNL A   1      45.525  30.428  30.854  1.00  0.00     0.049 A 
ATOM     71  H   UNL A   1      46.442  28.944  32.043  1.00  0.00     0.167 HD
ATOM     72  C   UNL A   1      45.661  28.625  29.146  1.00  0.00     0.074 A 
ATOM     73  C   UNL A   1      45.577  27.412  29.960  1.00  0.00     0.031 C 
ATOM     74  C   UNL A   1      45.656  29.948  29.493  1.00  0.00     0.037 A 
BRANCH  61  75
ATOM     75  C   UNL A   1      44.817  28.023  34.521  1.00  0.00     0.058 A 
ATOM     76  C   UNL A   1      44.975  26.717  34.014  1.00  0.00     0.135 A 
ATOM     77  C   UNL A   1      45.059  28.170  35.906  1.00  0.00     0.135 A 
ATOM     78  F   UNL A   1      44.758  26.458  32.714  1.00  0.00    -0.206 F 
ATOM     79  C   UNL A   1      45.287  25.630  34.832  1.00  0.00     0.059 A 
ATOM     80  C   UNL A   1      45.424  27.111  36.729  1.00  0.00     0.059 A 
ATOM     81  F   UNL A   1      44.859  29.325  36.550  1.00  0.00    -0.206 F 
ATOM     82  C   UNL A   1      45.499  25.837  36.191  1.00  0.00     0.060 A 
BRANCH  82  83
ATOM     83  S   UNL A   1      45.821  24.428  37.264  1.00  0.00     0.124 S 
ATOM     84  O   UNL A   1      44.672  23.576  36.977  1.00  0.00    -0.237 OA
ATOM     85  O   UNL A   1      47.109  23.957  36.763  1.00  0.00    -0.237 OA
ATOM     86  O   UNL A   1      45.852  25.021  38.597  1.00  0.00    -0.744 OA
ENDBRANCH  82  83
ENDBRANCH  61  75
BRANCH  62  87
ATOM     87  C   UNL A   1      43.664  25.190  26.547  1.00  0.00     0.058 A 
ATOM     88  C   UNL A   1      44.341  24.976  25.333  1.00  0.00     0.135 A 
ATOM     89  C   UNL A   1      43.213  24.032  27.213  1.00  0.00     0.135 A 
ATOM     90  F   UNL A   1      44.824  26.018  24.637  1.00  0.00    -0.206 F 
ATOM     91  C   UNL A   1      44.604  23.691  24.836  1.00  0.00     0.059 A 
ATOM     92  C   UNL A   1      43.455  22.744  26.735  1.00  0.00     0.059 A 
ATOM     93  F   UNL A   1      42.601  24.113  28.404  1.00  0.00    -0.206 F 
ATOM     94  C   UNL A   1      44.175  22.578  25.559  1.00  0.00     0.060 A 
BRANCH  94  95
ATOM     95  S   UNL A   1      44.665  20.917  25.029  1.00  0.00     0.124 S 
ATOM     96  O   UNL A   1      44.564  21.021  23.577  1.00  0.00    -0.237 OA
ATOM     97  O   UNL A   1      46.017  20.809  25.569  1.00  0.00    -0.237 OA
ATOM     98  O   UNL A   1      43.673  20.054  25.665  1.00  0.00    -0.744 OA
ENDBRANCH  94  95
ENDBRANCH  62  87
BRANCH  74  99
ATOM     99  C   UNL A   1      45.574  30.987  28.398  1.00  0.00     0.058 A 
ATOM    100  C   UNL A   1      44.383  31.419  27.784  1.00  0.00     0.135 A 
ATOM    101  C   UNL A   1      46.743  31.695  28.076  1.00  0.00     0.135 A 
ATOM    102  F   UNL A   1      43.204  30.872  28.103  1.00  0.00    -0.206 F 
ATOM    103  C   UNL A   1      44.363  32.476  26.868  1.00  0.00     0.059 A 
ATOM    104  C   UNL A   1      46.741  32.771  27.192  1.00  0.00     0.059 A 
ATOM    105  F   UNL A   1      47.905  31.377  28.670  1.00  0.00    -0.206 F 
ATOM    106  C   UNL A   1      45.550  33.148  26.580  1.00  0.00     0.060 A 
BRANCH 106 107
ATOM    107  S   UNL A   1      45.519  34.556  25.446  1.00  0.00     0.124 S 
ATOM    108  O   UNL A   1      44.585  34.102  24.421  1.00  0.00    -0.237 OA
ATOM    109  O   UNL A   1      45.046  35.641  26.299  1.00  0.00    -0.237 OA
ATOM    110  O   UNL A   1      46.909  34.676  25.013  1.00  0.00    -0.744 OA
ENDBRANCH 106 107
ENDBRANCH  74  99
ENDBRANCH  48  49
ENDBRANCH  40  43
ENDBRANCH  38  39
ENDBRANCH  37  38
ENDBRANCH  36  37
ENDBRANCH   1  36
TORSDOF 20
ENDMDL
MODEL 3
REMARK VINA RESULT:     -12.3      2.880      9.757
REMARK SMILES Cc1c(C(=O)NCCCCCCNC(=O)c2ccc(-c3c4nc(c(-c5c(F)cc(S(=O)(=O)[O-])cc5F)c5ccc([nH]5)c(-c5c(F)cc(S(=O)(=O)[O-])cc5F)c5nc(c(-c6c(F)cc(S(=O)(=O)[O-])cc6F)c6ccc3[nH]6)C=C5)C=C4)cc2)oc2c1/C(=N/NC(=O)C(c1ccccc1)c1ccccc1)CCC2
REMARK SMILES IDX 9 1 8 2 7 3 6 4 4 5 5 6 3 8 1 9 2 10 84 11 82 12 83 13 85 14
REMARK SMILES IDX 105 15 86 16 103 17 104 18 87 19 88 20 89 22 90 23 91 24
REMARK SMILES IDX 92 25 96 26 93 27 95 28 94 29 97 30 98 31 102 32 99 33
REMARK SMILES IDX 101 34 100 35 10 36 11 37 12 38 13 39 14 40 15 42 16 43
REMARK SMILES IDX 17 44 81 45 18 46 80 47 19 48 20 49 21 50 74 51 22 52 79 53
REMARK SMILES IDX 73 54 75 55 23 56 78 57 72 58 71 59 24 61 58 62 37 63 57 64
REMARK SMILES IDX 38 65 41 66 56 67 76 68 39 69 40 70 55 72 77 73 42 74 25 75
REMARK SMILES IDX 26 76 35 77 27 78 28 79 34 80 36 81 29 82 30 83 31 84 32 85
REMARK SMILES IDX 33 86 59 87 60 88 69 89 61 90 62 91 68 92 70 93 63 94 64 95
REMARK SMILES IDX 65 96 66 97 67 98 43 99 44 100 53 101 45 102 46 103 52 104
REMARK SMILES IDX 54 105 47 106 48 107 49 108 50 109 51 110
REMARK H PARENT 6 7 87 21 13 41 75 60 41 71
REMARK Flexibility Score: inf
ROOT
ATOM      1  C   UNL A   1      31.492  30.083  25.894  1.00  0.00     0.002 C 
ENDROOT
BRANCH   1   2
ATOM      2  C   UNL A   1      30.837  30.936  24.803  1.00  0.00     0.021 C 
BRANCH   2   3
ATOM      3  C   UNL A   1      29.363  30.579  24.600  1.00  0.00     0.116 C 
BRANCH   3   4
ATOM      4  N   UNL A   1      28.975  30.602  23.185  1.00  0.00    -0.349 N 
ATOM      5  C   UNL A   1      29.162  29.676  22.160  1.00  0.00     0.287 C 
ATOM      6  O   UNL A   1      28.627  29.903  21.080  1.00  0.00    -0.266 OA
ATOM      7  H   UNL A   1      28.498  31.418  22.910  1.00  0.00     0.163 HD
BRANCH   5   8
ATOM      8  C   UNL A   1      29.909  28.472  22.453  1.00  0.00     0.195 A 
ATOM      9  C   UNL A   1      28.469  26.913  23.942  1.00  0.00     0.049 C 
ATOM     10  C   UNL A   1      29.707  27.330  23.237  1.00  0.00     0.010 A 
ATOM     11  C   UNL A   1      31.001  26.713  23.331  1.00  0.00     0.043 A 
ATOM     12  O   UNL A   1      31.145  28.423  21.909  1.00  0.00    -0.455 OA
ATOM     13  C   UNL A   1      31.832  27.525  22.591  1.00  0.00     0.114 A 
ATOM     14  C   UNL A   1      31.599  25.596  24.060  1.00  0.00     0.072 C 
ATOM     15  C   UNL A   1      33.296  27.630  22.517  1.00  0.00     0.076 C 
ATOM     16  N   UNL A   1      30.779  24.666  24.453  1.00  0.00    -0.177 NA
ATOM     17  C   UNL A   1      33.091  25.849  24.235  1.00  0.00     0.059 C 
ATOM     18  C   UNL A   1      33.840  26.311  22.982  1.00  0.00     0.014 C 
BRANCH  16  19
ATOM     19  N   UNL A   1      30.873  23.453  25.097  1.00  0.00    -0.246 N 
ATOM     20  C   UNL A   1      31.516  22.231  24.960  1.00  0.00     0.252 C 
ATOM     21  H   UNL A   1      30.310  23.453  25.905  1.00  0.00     0.193 HD
ATOM     22  O   UNL A   1      31.226  21.338  25.771  1.00  0.00    -0.272 OA
BRANCH  20  23
ATOM     23  C   UNL A   1      32.591  21.974  23.895  1.00  0.00     0.140 C 
BRANCH  23  24
ATOM     24  C   UNL A   1      33.959  22.535  24.474  1.00  0.00    -0.031 A 
ATOM     25  C   UNL A   1      34.183  22.847  25.825  1.00  0.00     0.005 A 
ATOM     26  C   UNL A   1      35.066  22.785  23.607  1.00  0.00     0.005 A 
ATOM     27  C   UNL A   1      35.376  23.491  26.235  1.00  0.00     0.000 A 
ATOM     28  C   UNL A   1      36.220  23.469  23.998  1.00  0.00     0.000 A 
ATOM     29  C   UNL A   1      36.374  23.836  25.319  1.00  0.00     0.000 A 
ENDBRANCH  23  24
BRANCH  23  30
ATOM     30  C   UNL A   1      32.336  20.490  23.365  1.00  0.00    -0.031 A 
ATOM     31  C   UNL A   1      31.984  20.168  22.044  1.00  0.00     0.005 A 
ATOM     32  C   UNL A   1      32.611  19.376  24.213  1.00  0.00     0.005 A 
ATOM     33  C   UNL A   1      32.125  18.843  21.567  1.00  0.00     0.000 A 
ATOM     34  C   UNL A   1      32.796  18.077  23.734  1.00  0.00     0.000 A 
ATOM     35  C   UNL A   1      32.583  17.815  22.395  1.00  0.00     0.000 A 
ENDBRANCH  23  30
ENDBRANCH  20  23
ENDBRANCH  16  19
ENDBRANCH   5   8
ENDBRANCH   3   4
ENDBRANCH   2   3
ENDBRANCH   1   2
BRANCH   1  36
ATOM     36  C   UNL A   1      32.923  29.608  25.578  1.00  0.00     0.002 C 
BRANCH  36  37
ATOM     37  C   UNL A   1      33.493  28.512  26.491  1.00  0.00     0.021 C 
BRANCH  37  38
ATOM     38  C   UNL A   1      34.329  29.064  27.632  1.00  0.00     0.116 C 
BRANCH  38  39
ATOM     39  N   UNL A   1      34.182  30.514  27.775  1.00  0.00    -0.352 N 
ATOM     40  C   UNL A   1      35.067  31.420  28.335  1.00  0.00     0.251 C 
ATOM     41  H   UNL A   1      33.343  30.894  27.428  1.00  0.00     0.163 HD
ATOM     42  O   UNL A   1      34.686  32.514  28.714  1.00  0.00    -0.269 OA
BRANCH  40  43
ATOM     43  C   UNL A   1      36.483  31.026  28.453  1.00  0.00     0.039 A 
ATOM     44  C   UNL A   1      37.361  31.673  29.324  1.00  0.00     0.014 A 
ATOM     45  C   UNL A   1      36.910  29.947  27.687  1.00  0.00     0.014 A 
ATOM     46  C   UNL A   1      38.653  31.168  29.460  1.00  0.00     0.010 A 
ATOM     47  C   UNL A   1      38.090  29.327  27.985  1.00  0.00     0.010 A 
ATOM     48  C   UNL A   1      39.002  29.977  28.799  1.00  0.00    -0.014 A 
BRANCH  48  49
ATOM     49  C   UNL A   1      40.294  29.336  29.011  1.00  0.00     0.031 A 
ATOM     50  C   UNL A   1      40.631  29.115  30.441  1.00  0.00     0.074 A 
ATOM     51  C   UNL A   1      41.033  28.808  28.009  1.00  0.00     0.049 A 
ATOM     52  N   UNL A   1      41.525  29.733  31.137  1.00  0.00    -0.248 NA
ATOM     53  C   UNL A   1      39.761  28.236  31.241  1.00  0.00     0.031 C 
ATOM     54  C   UNL A   1      40.702  28.670  26.585  1.00  0.00     0.029 A 
ATOM     55  N   UNL A   1      42.239  28.188  28.084  1.00  0.00    -0.354 N 
ATOM     56  C   UNL A   1      41.499  29.151  32.399  1.00  0.00     0.074 A 
ATOM     57  C   UNL A   1      40.276  28.392  32.463  1.00  0.00     0.031 C 
ATOM     58  C   UNL A   1      41.563  27.810  25.994  1.00  0.00     0.029 A 
ATOM     59  C   UNL A   1      42.610  27.483  26.942  1.00  0.00     0.049 A 
ATOM     60  H   UNL A   1      42.809  28.233  28.886  1.00  0.00     0.167 HD
ATOM     61  C   UNL A   1      42.604  29.150  33.194  1.00  0.00     0.037 A 
ATOM     62  C   UNL A   1      43.698  26.681  26.799  1.00  0.00     0.037 A 
ATOM     63  C   UNL A   1      43.575  30.112  32.728  1.00  0.00     0.049 A 
ATOM     64  C   UNL A   1      44.665  27.092  27.853  1.00  0.00     0.074 A 
ATOM     65  C   UNL A   1      43.549  31.479  32.522  1.00  0.00     0.029 A 
ATOM     66  N   UNL A   1      44.640  29.648  31.991  1.00  0.00    -0.354 N 
ATOM     67  N   UNL A   1      45.244  28.263  27.880  1.00  0.00    -0.248 NA
ATOM     68  C   UNL A   1      44.586  26.406  29.134  1.00  0.00     0.031 C 
ATOM     69  C   UNL A   1      44.245  31.675  31.291  1.00  0.00     0.029 A 
ATOM     70  C   UNL A   1      44.737  30.439  30.872  1.00  0.00     0.049 A 
ATOM     71  H   UNL A   1      45.223  28.889  32.222  1.00  0.00     0.167 HD
ATOM     72  C   UNL A   1      45.212  28.647  29.214  1.00  0.00     0.074 A 
ATOM     73  C   UNL A   1      44.848  27.434  29.947  1.00  0.00     0.031 C 
ATOM     74  C   UNL A   1      45.193  29.965  29.581  1.00  0.00     0.037 A 
BRANCH  61  75
ATOM     75  C   UNL A   1      42.955  28.049  34.165  1.00  0.00     0.058 A 
ATOM     76  C   UNL A   1      43.018  28.334  35.545  1.00  0.00     0.135 A 
ATOM     77  C   UNL A   1      43.487  26.798  33.779  1.00  0.00     0.135 A 
ATOM     78  F   UNL A   1      42.553  29.499  36.023  1.00  0.00    -0.206 F 
ATOM     79  C   UNL A   1      43.620  27.470  36.460  1.00  0.00     0.059 A 
ATOM     80  C   UNL A   1      44.042  25.899  34.681  1.00  0.00     0.059 A 
ATOM     81  F   UNL A   1      43.584  26.425  32.497  1.00  0.00    -0.206 F 
ATOM     82  C   UNL A   1      44.139  26.258  36.014  1.00  0.00     0.060 A 
BRANCH  82  83
ATOM     83  S   UNL A   1      44.990  25.177  37.175  1.00  0.00     0.124 S 
ATOM     84  O   UNL A   1      46.381  25.566  36.969  1.00  0.00    -0.237 OA
ATOM     85  O   UNL A   1      44.395  25.576  38.448  1.00  0.00    -0.237 OA
ATOM     86  O   UNL A   1      44.631  23.840  36.714  1.00  0.00    -0.744 OA
ENDBRANCH  82  83
ENDBRANCH  61  75
BRANCH  62  87
ATOM     87  C   UNL A   1      43.772  25.368  26.097  1.00  0.00     0.058 A 
ATOM     88  C   UNL A   1      44.848  25.048  25.248  1.00  0.00     0.135 A 
ATOM     89  C   UNL A   1      42.941  24.290  26.469  1.00  0.00     0.135 A 
ATOM     90  F   UNL A   1      45.703  26.006  24.856  1.00  0.00    -0.206 F 
ATOM     91  C   UNL A   1      45.116  23.735  24.837  1.00  0.00     0.059 A 
ATOM     92  C   UNL A   1      43.183  22.977  26.067  1.00  0.00     0.059 A 
ATOM     93  F   UNL A   1      41.917  24.468  27.317  1.00  0.00    -0.206 F 
ATOM     94  C   UNL A   1      44.288  22.700  25.273  1.00  0.00     0.060 A 
BRANCH  94  95
ATOM     95  S   UNL A   1      44.727  20.982  24.905  1.00  0.00     0.124 S 
ATOM     96  O   UNL A   1      43.682  20.246  25.609  1.00  0.00    -0.237 OA
ATOM     97  O   UNL A   1      44.658  20.952  23.447  1.00  0.00    -0.237 OA
ATOM     98  O   UNL A   1      46.070  20.850  25.464  1.00  0.00    -0.744 OA
ENDBRANCH  94  95
ENDBRANCH  62  87
BRANCH  74  99
ATOM     99  C   UNL A   1      45.461  31.017  28.529  1.00  0.00     0.058 A 
ATOM    100  C   UNL A   1      44.483  31.590  27.694  1.00  0.00     0.135 A 
ATOM    101  C   UNL A   1      46.742  31.588  28.484  1.00  0.00     0.135 A 
ATOM    102  F   UNL A   1      43.209  31.180  27.741  1.00  0.00    -0.206 F 
ATOM    103  C   UNL A   1      44.775  32.652  26.831  1.00  0.00     0.059 A 
ATOM    104  C   UNL A   1      47.048  32.665  27.656  1.00  0.00     0.059 A 
ATOM    105  F   UNL A   1      47.709  31.131  29.297  1.00  0.00    -0.206 F 
ATOM    106  C   UNL A   1      46.063  33.184  26.821  1.00  0.00     0.060 A 
BRANCH 106 107
ATOM    107  S   UNL A   1      46.430  34.597  25.755  1.00  0.00     0.124 S 
ATOM    108  O   UNL A   1      45.511  34.386  24.641  1.00  0.00    -0.237 OA
ATOM    109  O   UNL A   1      46.129  35.734  26.619  1.00  0.00    -0.237 OA
ATOM    110  O   UNL A   1      47.845  34.425  25.435  1.00  0.00    -0.744 OA
ENDBRANCH 106 107
ENDBRANCH  74  99
ENDBRANCH  48  49
ENDBRANCH  40  43
ENDBRANCH  38  39
ENDBRANCH  37  38
ENDBRANCH  36  37
ENDBRANCH   1  36
TORSDOF 20
ENDMDL
