MODEL 1
REMARK VINA RESULT:     -12.9      0.000      0.000
REMARK SMILES O=C(NCCCCCCNC(=O)[C@@H]1CC2(CC[NH2+]CC2)C[N@@H+]1Cc1cccc2nonc12)c1ccc(-c2c3nc(c(-c4c(F)cc(S(=O)(=O)[O-])cc4F)c4ccc([nH]4)c(-c4c(F)cc(S(=O)(=O)[O-])cc4F)c4nc(c(-c5c(F)cc(S(=O)(=O)[O-])cc5F)c5ccc2[nH]5)C=C4)C=C3)cc1
REMARK SMILES IDX 6 1 5 2 4 3 3 4 1 5 2 6 33 8 34 9 98 10 35 11 97 12 36 13
REMARK SMILES IDX 37 14 38 15 91 16 39 17 96 18 90 19 92 20 40 21 95 22 89 23
REMARK SMILES IDX 88 24 41 26 75 27 54 28 74 29 55 30 58 31 73 32 93 33 56 34
REMARK SMILES IDX 57 35 72 37 94 38 59 39 42 40 43 41 52 42 44 43 45 44 51 45
REMARK SMILES IDX 53 46 46 47 47 48 48 49 49 50 50 51 76 52 77 53 86 54 78 55
REMARK SMILES IDX 79 56 85 57 87 58 80 59 81 60 82 61 83 62 84 63 60 64 61 65
REMARK SMILES IDX 70 66 62 67 63 68 69 69 71 70 64 71 65 72 66 73 67 74 68 75
REMARK SMILES IDX 7 76 8 77 9 78 10 79 11 80 12 82 13 83 14 84 22 85 15 86
REMARK SMILES IDX 21 87 16 89 20 90 17 91 19 92 18 93 23 96 24 97 25 98 32 99
REMARK SMILES IDX 26 100 28 101 31 102 27 103 29 104 30 105
REMARK H PARENT 3 7 92 25 58 36 10 81 22 88 18 94 18 95
REMARK Flexibility Score: inf
ROOT
ATOM      1  C   UNL A   1      36.917  21.982  23.916  1.00  0.00     0.002 C 
ENDROOT
BRANCH   1   2
ATOM      2  C   UNL A   1      37.267  21.822  25.404  1.00  0.00     0.021 C 
BRANCH   2   3
ATOM      3  C   UNL A   1      38.551  22.542  25.841  1.00  0.00     0.116 C 
BRANCH   3   4
ATOM      4  N   UNL A   1      39.255  21.735  26.820  1.00  0.00    -0.352 N 
ATOM      5  O   UNL A   1      41.066  20.881  27.786  1.00  0.00    -0.269 OA
ATOM      6  C   UNL A   1      40.491  21.890  27.380  1.00  0.00     0.251 C 
ATOM      7  H   UNL A   1      38.760  20.943  27.133  1.00  0.00     0.163 HD
BRANCH   6   8
ATOM      8  C   UNL A   1      41.131  23.215  27.556  1.00  0.00     0.039 A 
ATOM      9  C   UNL A   1      40.435  24.162  28.318  1.00  0.00     0.014 A 
ATOM     10  C   UNL A   1      42.274  23.603  26.849  1.00  0.00     0.014 A 
ATOM     11  C   UNL A   1      40.864  25.486  28.365  1.00  0.00     0.010 A 
ATOM     12  C   UNL A   1      42.710  24.933  26.904  1.00  0.00     0.010 A 
ATOM     13  C   UNL A   1      42.003  25.884  27.654  1.00  0.00    -0.014 A 
BRANCH  13  14
ATOM     14  C   UNL A   1      42.430  27.295  27.767  1.00  0.00     0.031 A 
ATOM     15  C   UNL A   1      41.339  28.307  27.663  1.00  0.00     0.074 A 
ATOM     16  C   UNL A   1      43.575  27.642  28.399  1.00  0.00     0.049 A 
ATOM     17  N   UNL A   1      40.546  28.572  28.659  1.00  0.00    -0.248 NA
ATOM     18  C   UNL A   1      40.911  28.899  26.396  1.00  0.00     0.031 C 
ATOM     19  C   UNL A   1      44.171  26.847  29.481  1.00  0.00     0.029 A 
ATOM     20  N   UNL A   1      44.297  28.815  28.407  1.00  0.00    -0.354 N 
ATOM     21  C   UNL A   1      39.506  29.337  28.171  1.00  0.00     0.074 A 
ATOM     22  C   UNL A   1      39.776  29.521  26.761  1.00  0.00     0.031 C 
ATOM     23  C   UNL A   1      45.045  27.621  30.157  1.00  0.00     0.029 A 
ATOM     24  C   UNL A   1      45.195  28.905  29.474  1.00  0.00     0.049 A 
ATOM     25  H   UNL A   1      44.193  29.519  27.728  1.00  0.00     0.167 HD
ATOM     26  C   UNL A   1      38.486  29.769  28.958  1.00  0.00     0.037 A 
ATOM     27  C   UNL A   1      45.545  30.055  30.119  1.00  0.00     0.037 A 
ATOM     28  C   UNL A   1      38.580  29.396  30.339  1.00  0.00     0.049 A 
ATOM     29  C   UNL A   1      44.230  30.464  30.733  1.00  0.00     0.074 A 
ATOM     30  C   UNL A   1      38.126  28.374  31.144  1.00  0.00     0.029 A 
ATOM     31  N   UNL A   1      39.385  30.155  31.156  1.00  0.00    -0.354 N 
ATOM     32  N   UNL A   1      43.704  29.970  31.822  1.00  0.00    -0.248 NA
ATOM     33  C   UNL A   1      43.297  31.215  29.889  1.00  0.00     0.031 C 
ATOM     34  C   UNL A   1      39.045  28.317  32.239  1.00  0.00     0.029 A 
ATOM     35  C   UNL A   1      40.021  29.285  32.006  1.00  0.00     0.049 A 
ATOM     36  H   UNL A   1      39.487  31.134  31.135  1.00  0.00     0.167 HD
ATOM     37  C   UNL A   1      42.324  30.114  31.664  1.00  0.00     0.074 A 
ATOM     38  C   UNL A   1      42.144  30.896  30.458  1.00  0.00     0.031 C 
ATOM     39  C   UNL A   1      41.398  29.449  32.413  1.00  0.00     0.037 A 
BRANCH  26  40
ATOM     40  C   UNL A   1      37.424  30.702  28.539  1.00  0.00     0.058 A 
ATOM     41  C   UNL A   1      37.608  32.069  28.794  1.00  0.00     0.135 A 
ATOM     42  C   UNL A   1      36.159  30.267  28.130  1.00  0.00     0.135 A 
ATOM     43  F   UNL A   1      38.808  32.516  29.205  1.00  0.00    -0.206 F 
ATOM     44  C   UNL A   1      36.561  32.973  28.705  1.00  0.00     0.059 A 
ATOM     45  C   UNL A   1      35.091  31.158  28.025  1.00  0.00     0.059 A 
ATOM     46  F   UNL A   1      35.935  28.966  27.885  1.00  0.00    -0.206 F 
ATOM     47  C   UNL A   1      35.299  32.503  28.343  1.00  0.00     0.060 A 
BRANCH  47  48
ATOM     48  S   UNL A   1      33.927  33.677  28.353  1.00  0.00     0.124 S 
ATOM     49  O   UNL A   1      34.506  34.822  27.658  1.00  0.00    -0.237 OA
ATOM     50  O   UNL A   1      32.898  32.943  27.624  1.00  0.00    -0.237 OA
ATOM     51  O   UNL A   1      33.662  33.876  29.775  1.00  0.00    -0.744 OA
ENDBRANCH  47  48
ENDBRANCH  26  40
BRANCH  27  52
ATOM     52  C   UNL A   1      46.426  31.004  29.360  1.00  0.00     0.058 A 
ATOM     53  C   UNL A   1      47.270  30.491  28.351  1.00  0.00     0.135 A 
ATOM     54  C   UNL A   1      46.506  32.390  29.577  1.00  0.00     0.135 A 
ATOM     55  F   UNL A   1      47.372  29.166  28.161  1.00  0.00    -0.206 F 
ATOM     56  C   UNL A   1      48.019  31.313  27.511  1.00  0.00     0.059 A 
ATOM     57  C   UNL A   1      47.227  33.239  28.732  1.00  0.00     0.059 A 
ATOM     58  F   UNL A   1      45.869  32.967  30.605  1.00  0.00    -0.206 F 
ATOM     59  C   UNL A   1      47.954  32.692  27.679  1.00  0.00     0.060 A 
BRANCH  59  60
ATOM     60  S   UNL A   1      48.772  33.753  26.470  1.00  0.00     0.124 S 
ATOM     61  O   UNL A   1      47.671  34.092  25.571  1.00  0.00    -0.237 OA
ATOM     62  O   UNL A   1      49.257  34.844  27.313  1.00  0.00    -0.237 OA
ATOM     63  O   UNL A   1      49.804  32.897  25.908  1.00  0.00    -0.744 OA
ENDBRANCH  59  60
ENDBRANCH  27  52
BRANCH  39  64
ATOM     64  C   UNL A   1      41.908  28.690  33.590  1.00  0.00     0.058 A 
ATOM     65  C   UNL A   1      41.728  29.201  34.882  1.00  0.00     0.135 A 
ATOM     66  C   UNL A   1      42.469  27.409  33.460  1.00  0.00     0.135 A 
ATOM     67  F   UNL A   1      41.189  30.418  35.060  1.00  0.00    -0.206 F 
ATOM     68  C   UNL A   1      42.037  28.446  36.009  1.00  0.00     0.059 A 
ATOM     69  C   UNL A   1      42.767  26.628  34.575  1.00  0.00     0.059 A 
ATOM     70  F   UNL A   1      42.680  26.872  32.247  1.00  0.00    -0.206 F 
ATOM     71  C   UNL A   1      42.530  27.151  35.846  1.00  0.00     0.060 A 
BRANCH  71  72
ATOM     72  S   UNL A   1      42.760  26.129  37.316  1.00  0.00     0.124 S 
ATOM     73  O   UNL A   1      43.691  26.929  38.104  1.00  0.00    -0.237 OA
ATOM     74  O   UNL A   1      41.400  26.037  37.842  1.00  0.00    -0.237 OA
ATOM     75  O   UNL A   1      43.300  24.879  36.787  1.00  0.00    -0.744 OA
ENDBRANCH  71  72
ENDBRANCH  39  64
ENDBRANCH  13  14
ENDBRANCH   6   8
ENDBRANCH   3   4
ENDBRANCH   2   3
ENDBRANCH   1   2
BRANCH   1  76
ATOM     76  C   UNL A   1      35.885  23.072  23.615  1.00  0.00     0.002 C 
BRANCH  76  77
ATOM     77  C   UNL A   1      34.682  22.609  22.779  1.00  0.00     0.021 C 
BRANCH  77  78
ATOM     78  C   UNL A   1      33.463  23.540  22.850  1.00  0.00     0.116 C 
BRANCH  78  79
ATOM     79  N   UNL A   1      33.881  24.911  22.653  1.00  0.00    -0.351 N 
ATOM     80  C   UNL A   1      33.039  25.983  22.568  1.00  0.00     0.278 C 
ATOM     81  H   UNL A   1      34.846  25.084  22.574  1.00  0.00     0.163 HD
ATOM     82  O   UNL A   1      33.267  26.789  21.666  1.00  0.00    -0.268 OA
BRANCH  80  83
ATOM     83  C   UNL A   1      31.900  26.101  23.601  1.00  0.00     0.275 C 
ATOM     84  C   UNL A   1      30.755  26.965  23.074  1.00  0.00     0.089 C 
ATOM     85  N   UNL A   1      32.273  26.770  24.847  1.00  0.00    -0.320 N 
ATOM     86  C   UNL A   1      30.973  28.372  23.677  1.00  0.00     0.036 C 
ATOM     87  C   UNL A   1      31.644  28.059  25.024  1.00  0.00     0.270 C 
ATOM     88  H   UNL A   1      31.975  26.112  25.567  1.00  0.00     0.349 HD
ATOM     89  C   UNL A   1      29.641  29.123  23.863  1.00  0.00     0.074 C 
ATOM     90  C   UNL A   1      31.885  29.270  22.804  1.00  0.00     0.074 C 
ATOM     91  C   UNL A   1      29.031  29.536  22.521  1.00  0.00     0.261 C 
ATOM     92  C   UNL A   1      31.217  29.680  21.492  1.00  0.00     0.261 C 
ATOM     93  N   UNL A   1      29.945  30.363  21.734  1.00  0.00    -0.346 N 
ATOM     94  H   UNL A   1      30.126  31.230  22.241  1.00  0.00     0.346 HD
ATOM     95  H   UNL A   1      29.508  30.551  20.832  1.00  0.00     0.346 HD
BRANCH  85  96
ATOM     96  C   UNL A   1      33.353  26.325  25.700  1.00  0.00     0.302 C 
BRANCH  96  97
ATOM     97  C   UNL A   1      33.118  24.979  26.322  1.00  0.00     0.038 A 
ATOM     98  C   UNL A   1      34.144  24.000  26.415  1.00  0.00     0.012 A 
ATOM     99  C   UNL A   1      31.845  24.488  26.704  1.00  0.00     0.144 A 
ATOM    100  C   UNL A   1      33.916  22.641  26.762  1.00  0.00     0.003 A 
ATOM    101  C   UNL A   1      31.615  23.093  27.062  1.00  0.00     0.135 A 
ATOM    102  N   UNL A   1      30.668  25.130  26.763  1.00  0.00    -0.049 NA
ATOM    103  C   UNL A   1      32.645  22.136  27.079  1.00  0.00     0.034 A 
ATOM    104  N   UNL A   1      30.312  22.934  27.325  1.00  0.00    -0.050 NA
ATOM    105  O   UNL A   1      29.736  24.177  27.134  1.00  0.00    -0.243 OA
ENDBRANCH  96  97
ENDBRANCH  85  96
ENDBRANCH  80  83
ENDBRANCH  78  79
ENDBRANCH  77  78
ENDBRANCH  76  77
ENDBRANCH   1  76
TORSDOF 18
ENDMDL
MODEL 2
REMARK VINA RESULT:     -12.5      5.046     11.206
REMARK SMILES O=C(NCCCCCCNC(=O)[C@@H]1CC2(CC[NH2+]CC2)C[N@@H+]1Cc1cccc2nonc12)c1ccc(-c2c3nc(c(-c4c(F)cc(S(=O)(=O)[O-])cc4F)c4ccc([nH]4)c(-c4c(F)cc(S(=O)(=O)[O-])cc4F)c4nc(c(-c5c(F)cc(S(=O)(=O)[O-])cc5F)c5ccc2[nH]5)C=C4)C=C3)cc1
REMARK SMILES IDX 6 1 5 2 4 3 3 4 1 5 2 6 33 8 34 9 98 10 35 11 97 12 36 13
REMARK SMILES IDX 37 14 38 15 91 16 39 17 96 18 90 19 92 20 40 21 95 22 89 23
REMARK SMILES IDX 88 24 41 26 75 27 54 28 74 29 55 30 58 31 73 32 93 33 56 34
REMARK SMILES IDX 57 35 72 37 94 38 59 39 42 40 43 41 52 42 44 43 45 44 51 45
REMARK SMILES IDX 53 46 46 47 47 48 48 49 49 50 50 51 76 52 77 53 86 54 78 55
REMARK SMILES IDX 79 56 85 57 87 58 80 59 81 60 82 61 83 62 84 63 60 64 61 65
REMARK SMILES IDX 70 66 62 67 63 68 69 69 71 70 64 71 65 72 66 73 67 74 68 75
REMARK SMILES IDX 7 76 8 77 9 78 10 79 11 80 12 82 13 83 14 84 22 85 15 86
REMARK SMILES IDX 21 87 16 89 20 90 17 91 19 92 18 93 23 96 24 97 25 98 32 99
REMARK SMILES IDX 26 100 28 101 31 102 27 103 29 104 30 105
REMARK H PARENT 3 7 92 25 58 36 10 81 22 88 18 94 18 95
REMARK Flexibility Score: inf
ROOT
ATOM      1  C   UNL A   1      41.420  35.643  28.747  1.00  0.00     0.002 C 
ENDROOT
BRANCH   1   2
ATOM      2  C   UNL A   1      42.531  36.376  27.978  1.00  0.00     0.021 C 
BRANCH   2   3
ATOM      3  C   UNL A   1      42.891  35.751  26.623  1.00  0.00     0.116 C 
BRANCH   3   4
ATOM      4  N   UNL A   1      44.320  35.868  26.394  1.00  0.00    -0.352 N 
ATOM      5  O   UNL A   1      46.462  35.485  26.848  1.00  0.00    -0.269 OA
ATOM      6  C   UNL A   1      45.340  35.007  26.677  1.00  0.00     0.251 C 
ATOM      7  H   UNL A   1      44.599  36.707  25.962  1.00  0.00     0.163 HD
BRANCH   6   8
ATOM      8  C   UNL A   1      45.157  33.537  26.737  1.00  0.00     0.039 A 
ATOM      9  C   UNL A   1      44.063  33.061  27.470  1.00  0.00     0.014 A 
ATOM     10  C   UNL A   1      46.117  32.635  26.266  1.00  0.00     0.014 A 
ATOM     11  C   UNL A   1      43.932  31.702  27.744  1.00  0.00     0.010 A 
ATOM     12  C   UNL A   1      45.981  31.267  26.535  1.00  0.00     0.010 A 
ATOM     13  C   UNL A   1      44.893  30.793  27.283  1.00  0.00    -0.014 A 
BRANCH  13  14
ATOM     14  C   UNL A   1      44.686  29.360  27.577  1.00  0.00     0.031 A 
ATOM     15  C   UNL A   1      44.999  28.938  28.973  1.00  0.00     0.074 A 
ATOM     16  C   UNL A   1      43.835  28.602  26.849  1.00  0.00     0.049 A 
ATOM     17  N   UNL A   1      44.180  29.155  29.960  1.00  0.00    -0.248 NA
ATOM     18  C   UNL A   1      46.321  28.479  29.397  1.00  0.00     0.031 C 
ATOM     19  C   UNL A   1      42.661  29.148  26.154  1.00  0.00     0.029 A 
ATOM     20  N   UNL A   1      43.673  27.236  26.757  1.00  0.00    -0.354 N 
ATOM     21  C   UNL A   1      44.860  28.892  31.132  1.00  0.00     0.074 A 
ATOM     22  C   UNL A   1      46.186  28.469  30.734  1.00  0.00     0.031 C 
ATOM     23  C   UNL A   1      41.819  28.136  25.864  1.00  0.00     0.029 A 
ATOM     24  C   UNL A   1      42.447  26.860  26.202  1.00  0.00     0.049 A 
ATOM     25  H   UNL A   1      44.354  26.590  27.052  1.00  0.00     0.167 HD
ATOM     26  C   UNL A   1      44.290  29.042  32.355  1.00  0.00     0.037 A 
ATOM     27  C   UNL A   1      41.737  25.745  26.537  1.00  0.00     0.037 A 
ATOM     28  C   UNL A   1      42.921  29.469  32.344  1.00  0.00     0.049 A 
ATOM     29  C   UNL A   1      41.395  26.030  27.977  1.00  0.00     0.074 A 
ATOM     30  C   UNL A   1      42.231  30.659  32.412  1.00  0.00     0.029 A 
ATOM     31  N   UNL A   1      41.953  28.513  32.133  1.00  0.00    -0.354 N 
ATOM     32  N   UNL A   1      40.437  26.811  28.400  1.00  0.00    -0.248 NA
ATOM     33  C   UNL A   1      42.403  25.697  28.987  1.00  0.00     0.031 C 
ATOM     34  C   UNL A   1      40.974  30.406  31.777  1.00  0.00     0.029 A 
ATOM     35  C   UNL A   1      41.000  29.087  31.328  1.00  0.00     0.049 A 
ATOM     36  H   UNL A   1      41.946  27.596  32.488  1.00  0.00     0.167 HD
ATOM     37  C   UNL A   1      40.867  27.285  29.641  1.00  0.00     0.074 A 
ATOM     38  C   UNL A   1      42.079  26.552  29.945  1.00  0.00     0.031 C 
ATOM     39  C   UNL A   1      40.324  28.365  30.274  1.00  0.00     0.037 A 
BRANCH  26  40
ATOM     40  C   UNL A   1      44.906  28.647  33.636  1.00  0.00     0.058 A 
ATOM     41  C   UNL A   1      44.812  27.303  34.025  1.00  0.00     0.135 A 
ATOM     42  C   UNL A   1      45.354  29.582  34.575  1.00  0.00     0.135 A 
ATOM     43  F   UNL A   1      44.369  26.383  33.151  1.00  0.00    -0.206 F 
ATOM     44  C   UNL A   1      45.097  26.900  35.321  1.00  0.00     0.059 A 
ATOM     45  C   UNL A   1      45.654  29.200  35.883  1.00  0.00     0.059 A 
ATOM     46  F   UNL A   1      45.448  30.880  34.249  1.00  0.00    -0.206 F 
ATOM     47  C   UNL A   1      45.495  27.861  36.250  1.00  0.00     0.060 A 
BRANCH  47  48
ATOM     48  S   UNL A   1      45.741  27.331  37.959  1.00  0.00     0.124 S 
ATOM     49  O   UNL A   1      46.978  28.019  38.311  1.00  0.00    -0.237 OA
ATOM     50  O   UNL A   1      44.530  27.827  38.604  1.00  0.00    -0.237 OA
ATOM     51  O   UNL A   1      45.840  25.879  37.852  1.00  0.00    -0.744 OA
ENDBRANCH  47  48
ENDBRANCH  26  40
BRANCH  27  52
ATOM     52  C   UNL A   1      42.296  24.431  26.071  1.00  0.00     0.058 A 
ATOM     53  C   UNL A   1      43.375  24.436  25.159  1.00  0.00     0.135 A 
ATOM     54  C   UNL A   1      41.824  23.165  26.452  1.00  0.00     0.135 A 
ATOM     55  F   UNL A   1      43.807  25.589  24.626  1.00  0.00    -0.206 F 
ATOM     56  C   UNL A   1      44.039  23.271  24.780  1.00  0.00     0.059 A 
ATOM     57  C   UNL A   1      42.489  21.984  26.109  1.00  0.00     0.059 A 
ATOM     58  F   UNL A   1      40.713  23.034  27.190  1.00  0.00    -0.206 F 
ATOM     59  C   UNL A   1      43.617  22.052  25.298  1.00  0.00     0.060 A 
BRANCH  59  60
ATOM     60  S   UNL A   1      44.599  20.577  24.954  1.00  0.00     0.124 S 
ATOM     61  O   UNL A   1      43.855  19.544  25.671  1.00  0.00    -0.237 OA
ATOM     62  O   UNL A   1      44.530  20.508  23.495  1.00  0.00    -0.237 OA
ATOM     63  O   UNL A   1      45.907  20.903  25.498  1.00  0.00    -0.744 OA
ENDBRANCH  59  60
ENDBRANCH  27  52
BRANCH  39  64
ATOM     64  C   UNL A   1      39.075  28.927  29.687  1.00  0.00     0.058 A 
ATOM     65  C   UNL A   1      37.842  28.684  30.306  1.00  0.00     0.135 A 
ATOM     66  C   UNL A   1      39.100  29.799  28.587  1.00  0.00     0.135 A 
ATOM     67  F   UNL A   1      37.766  27.863  31.366  1.00  0.00    -0.206 F 
ATOM     68  C   UNL A   1      36.682  29.328  29.887  1.00  0.00     0.059 A 
ATOM     69  C   UNL A   1      37.954  30.470  28.163  1.00  0.00     0.059 A 
ATOM     70  F   UNL A   1      40.249  30.059  27.943  1.00  0.00    -0.206 F 
ATOM     71  C   UNL A   1      36.753  30.240  28.833  1.00  0.00     0.060 A 
BRANCH  71  72
ATOM     72  S   UNL A   1      35.275  31.191  28.420  1.00  0.00     0.124 S 
ATOM     73  O   UNL A   1      34.475  30.214  27.691  1.00  0.00    -0.237 OA
ATOM     74  O   UNL A   1      34.771  31.564  29.739  1.00  0.00    -0.237 OA
ATOM     75  O   UNL A   1      35.790  32.300  27.622  1.00  0.00    -0.744 OA
ENDBRANCH  71  72
ENDBRANCH  39  64
ENDBRANCH  13  14
ENDBRANCH   6   8
ENDBRANCH   3   4
ENDBRANCH   2   3
ENDBRANCH   1   2
BRANCH   1  76
ATOM     76  C   UNL A   1      41.918  34.582  29.733  1.00  0.00     0.002 C 
BRANCH  76  77
ATOM     77  C   UNL A   1      40.809  33.788  30.441  1.00  0.00     0.021 C 
BRANCH  77  78
ATOM     78  C   UNL A   1      39.403  34.388  30.289  1.00  0.00     0.116 C 
BRANCH  78  79
ATOM     79  N   UNL A   1      38.406  33.358  30.480  1.00  0.00    -0.351 N 
ATOM     80  C   UNL A   1      37.935  32.937  31.690  1.00  0.00     0.278 C 
ATOM     81  H   UNL A   1      38.039  32.927  29.675  1.00  0.00     0.163 HD
ATOM     82  O   UNL A   1      37.840  31.720  31.849  1.00  0.00    -0.268 OA
BRANCH  80  83
ATOM     83  C   UNL A   1      37.552  34.004  32.736  1.00  0.00     0.275 C 
ATOM     84  C   UNL A   1      38.504  33.983  33.931  1.00  0.00     0.089 C 
ATOM     85  N   UNL A   1      36.241  33.809  33.355  1.00  0.00    -0.320 N 
ATOM     86  C   UNL A   1      37.791  33.159  35.027  1.00  0.00     0.036 C 
ATOM     87  C   UNL A   1      36.307  33.449  34.753  1.00  0.00     0.270 C 
ATOM     88  H   UNL A   1      35.783  34.712  33.227  1.00  0.00     0.349 HD
ATOM     89  C   UNL A   1      38.210  33.611  36.439  1.00  0.00     0.074 C 
ATOM     90  C   UNL A   1      38.082  31.640  34.929  1.00  0.00     0.074 C 
ATOM     91  C   UNL A   1      39.655  33.218  36.755  1.00  0.00     0.261 C 
ATOM     92  C   UNL A   1      39.529  31.299  35.285  1.00  0.00     0.261 C 
ATOM     93  N   UNL A   1      39.873  31.778  36.625  1.00  0.00    -0.346 N 
ATOM     94  H   UNL A   1      39.293  31.292  37.309  1.00  0.00     0.346 HD
ATOM     95  H   UNL A   1      40.862  31.589  36.786  1.00  0.00     0.346 HD
BRANCH  85  96
ATOM     96  C   UNL A   1      35.008  33.727  32.604  1.00  0.00     0.302 C 
BRANCH  96  97
ATOM     97  C   UNL A   1      34.487  35.059  32.145  1.00  0.00     0.038 A 
ATOM     98  C   UNL A   1      34.472  36.197  32.995  1.00  0.00     0.012 A 
ATOM     99  C   UNL A   1      33.809  35.270  30.919  1.00  0.00     0.144 A 
ATOM    100  C   UNL A   1      33.772  37.398  32.701  1.00  0.00     0.003 A 
ATOM    101  C   UNL A   1      33.094  36.506  30.620  1.00  0.00     0.135 A 
ATOM    102  N   UNL A   1      33.647  34.436  29.881  1.00  0.00    -0.049 NA
ATOM    103  C   UNL A   1      33.045  37.589  31.515  1.00  0.00     0.034 A 
ATOM    104  N   UNL A   1      32.523  36.381  29.416  1.00  0.00    -0.050 NA
ATOM    105  O   UNL A   1      32.855  35.115  28.971  1.00  0.00    -0.243 OA
ENDBRANCH  96  97
ENDBRANCH  85  96
ENDBRANCH  80  83
ENDBRANCH  78  79
ENDBRANCH  77  78
ENDBRANCH  76  77
ENDBRANCH   1  76
TORSDOF 18
ENDMDL
MODEL 3
REMARK VINA RESULT:     -12.4      1.333      1.836
REMARK SMILES O=C(NCCCCCCNC(=O)[C@@H]1CC2(CC[NH2+]CC2)C[N@@H+]1Cc1cccc2nonc12)c1ccc(-c2c3nc(c(-c4c(F)cc(S(=O)(=O)[O-])cc4F)c4ccc([nH]4)c(-c4c(F)cc(S(=O)(=O)[O-])cc4F)c4nc(c(-c5c(F)cc(S(=O)(=O)[O-])cc5F)c5ccc2[nH]5)C=C4)C=C3)cc1
REMARK SMILES IDX 6 1 5 2 4 3 3 4 1 5 2 6 33 8 34 9 98 10 35 11 97 12 36 13
REMARK SMILES IDX 37 14 38 15 91 16 39 17 96 18 90 19 92 20 40 21 95 22 89 23
REMARK SMILES IDX 88 24 41 26 75 27 54 28 74 29 55 30 58 31 73 32 93 33 56 34
REMARK SMILES IDX 57 35 72 37 94 38 59 39 42 40 43 41 52 42 44 43 45 44 51 45
REMARK SMILES IDX 53 46 46 47 47 48 48 49 49 50 50 51 76 52 77 53 86 54 78 55
REMARK SMILES IDX 79 56 85 57 87 58 80 59 81 60 82 61 83 62 84 63 60 64 61 65
REMARK SMILES IDX 70 66 62 67 63 68 69 69 71 70 64 71 65 72 66 73 67 74 68 75
REMARK SMILES IDX 7 76 8 77 9 78 10 79 11 80 12 82 13 83 14 84 22 85 15 86
REMARK SMILES IDX 21 87 16 89 20 90 17 91 19 92 18 93 23 96 24 97 25 98 32 99
REMARK SMILES IDX 26 100 28 101 31 102 27 103 29 104 30 105
REMARK H PARENT 3 7 92 25 58 36 10 81 22 88 18 94 18 95
REMARK Flexibility Score: inf
ROOT
ATOM      1  C   UNL A   1      37.164  21.039  24.639  1.00  0.00     0.002 C 
ENDROOT
BRANCH   1   2
ATOM      2  C   UNL A   1      38.456  20.517  25.289  1.00  0.00     0.021 C 
BRANCH   2   3
ATOM      3  C   UNL A   1      39.089  21.472  26.312  1.00  0.00     0.116 C 
BRANCH   3   4
ATOM      4  N   UNL A   1      40.395  20.974  26.703  1.00  0.00    -0.352 N 
ATOM      5  O   UNL A   1      42.615  20.891  26.627  1.00  0.00    -0.269 OA
ATOM      6  C   UNL A   1      41.611  21.594  26.738  1.00  0.00     0.251 C 
ATOM      7  H   UNL A   1      40.406  20.032  26.990  1.00  0.00     0.163 HD
BRANCH   6   8
ATOM      8  C   UNL A   1      41.761  23.052  26.952  1.00  0.00     0.039 A 
ATOM      9  C   UNL A   1      42.412  23.779  25.946  1.00  0.00     0.014 A 
ATOM     10  C   UNL A   1      41.461  23.675  28.168  1.00  0.00     0.014 A 
ATOM     11  C   UNL A   1      42.773  25.108  26.154  1.00  0.00     0.010 A 
ATOM     12  C   UNL A   1      41.817  25.014  28.374  1.00  0.00     0.010 A 
ATOM     13  C   UNL A   1      42.483  25.736  27.372  1.00  0.00    -0.014 A 
BRANCH  13  14
ATOM     14  C   UNL A   1      42.861  27.157  27.524  1.00  0.00     0.031 A 
ATOM     15  C   UNL A   1      41.734  28.132  27.451  1.00  0.00     0.074 A 
ATOM     16  C   UNL A   1      43.994  27.526  28.163  1.00  0.00     0.049 A 
ATOM     17  N   UNL A   1      40.936  28.341  28.456  1.00  0.00    -0.248 NA
ATOM     18  C   UNL A   1      41.281  28.744  26.203  1.00  0.00     0.031 C 
ATOM     19  C   UNL A   1      44.622  26.722  29.220  1.00  0.00     0.029 A 
ATOM     20  N   UNL A   1      44.675  28.723  28.202  1.00  0.00    -0.354 N 
ATOM     21  C   UNL A   1      39.868  29.083  27.993  1.00  0.00     0.074 A 
ATOM     22  C   UNL A   1      40.126  29.315  26.589  1.00  0.00     0.031 C 
ATOM     23  C   UNL A   1      45.471  27.507  29.915  1.00  0.00     0.029 A 
ATOM     24  C   UNL A   1      45.573  28.814  29.268  1.00  0.00     0.049 A 
ATOM     25  H   UNL A   1      44.544  29.442  27.543  1.00  0.00     0.167 HD
ATOM     26  C   UNL A   1      38.837  29.456  28.795  1.00  0.00     0.037 A 
ATOM     27  C   UNL A   1      45.885  29.957  29.945  1.00  0.00     0.037 A 
ATOM     28  C   UNL A   1      38.948  29.047  30.165  1.00  0.00     0.049 A 
ATOM     29  C   UNL A   1      44.559  30.302  30.574  1.00  0.00     0.074 A 
ATOM     30  C   UNL A   1      38.533  27.988  30.941  1.00  0.00     0.029 A 
ATOM     31  N   UNL A   1      39.729  29.811  31.001  1.00  0.00    -0.354 N 
ATOM     32  N   UNL A   1      44.054  29.760  31.650  1.00  0.00    -0.248 NA
ATOM     33  C   UNL A   1      43.597  31.043  29.754  1.00  0.00     0.031 C 
ATOM     34  C   UNL A   1      39.458  27.932  32.032  1.00  0.00     0.029 A 
ATOM     35  C   UNL A   1      40.398  28.940  31.824  1.00  0.00     0.049 A 
ATOM     36  H   UNL A   1      39.796  30.793  31.007  1.00  0.00     0.167 HD
ATOM     37  C   UNL A   1      42.670  29.859  31.500  1.00  0.00     0.074 A 
ATOM     38  C   UNL A   1      42.458  30.668  30.317  1.00  0.00     0.031 C 
ATOM     39  C   UNL A   1      41.770  29.140  32.232  1.00  0.00     0.037 A 
BRANCH  26  40
ATOM     40  C   UNL A   1      37.740  30.363  28.405  1.00  0.00     0.058 A 
ATOM     41  C   UNL A   1      37.852  31.718  28.750  1.00  0.00     0.135 A 
ATOM     42  C   UNL A   1      36.509  29.894  27.936  1.00  0.00     0.135 A 
ATOM     43  F   UNL A   1      39.018  32.194  29.219  1.00  0.00    -0.206 F 
ATOM     44  C   UNL A   1      36.764  32.575  28.688  1.00  0.00     0.059 A 
ATOM     45  C   UNL A   1      35.401  30.739  27.858  1.00  0.00     0.059 A 
ATOM     46  F   UNL A   1      36.354  28.603  27.606  1.00  0.00    -0.206 F 
ATOM     47  C   UNL A   1      35.535  32.070  28.263  1.00  0.00     0.060 A 
BRANCH  47  48
ATOM     48  S   UNL A   1      34.108  33.175  28.308  1.00  0.00     0.124 S 
ATOM     49  O   UNL A   1      33.099  32.393  27.603  1.00  0.00    -0.237 OA
ATOM     50  O   UNL A   1      33.900  33.338  29.743  1.00  0.00    -0.237 OA
ATOM     51  O   UNL A   1      34.580  34.366  27.608  1.00  0.00    -0.744 OA
ENDBRANCH  47  48
ENDBRANCH  26  40
BRANCH  27  52
ATOM     52  C   UNL A   1      46.730  30.958  29.211  1.00  0.00     0.058 A 
ATOM     53  C   UNL A   1      47.530  30.516  28.134  1.00  0.00     0.135 A 
ATOM     54  C   UNL A   1      46.816  32.327  29.513  1.00  0.00     0.135 A 
ATOM     55  F   UNL A   1      47.626  29.206  27.856  1.00  0.00    -0.206 F 
ATOM     56  C   UNL A   1      48.238  31.394  27.318  1.00  0.00     0.059 A 
ATOM     57  C   UNL A   1      47.496  33.233  28.694  1.00  0.00     0.059 A 
ATOM     58  F   UNL A   1      46.223  32.834  30.603  1.00  0.00    -0.206 F 
ATOM     59  C   UNL A   1      48.177  32.759  27.577  1.00  0.00     0.060 A 
BRANCH  59  60
ATOM     60  S   UNL A   1      48.939  33.899  26.404  1.00  0.00     0.124 S 
ATOM     61  O   UNL A   1      50.052  33.106  25.889  1.00  0.00    -0.237 OA
ATOM     62  O   UNL A   1      47.843  34.134  25.465  1.00  0.00    -0.237 OA
ATOM     63  O   UNL A   1      49.305  35.040  27.227  1.00  0.00    -0.744 OA
ENDBRANCH  59  60
ENDBRANCH  27  52
BRANCH  39  64
ATOM     64  C   UNL A   1      42.311  28.367  33.385  1.00  0.00     0.058 A 
ATOM     65  C   UNL A   1      42.095  28.821  34.693  1.00  0.00     0.135 A 
ATOM     66  C   UNL A   1      42.939  27.122  33.215  1.00  0.00     0.135 A 
ATOM     67  F   UNL A   1      41.492  30.001  34.910  1.00  0.00    -0.206 F 
ATOM     68  C   UNL A   1      42.435  28.043  35.795  1.00  0.00     0.059 A 
ATOM     69  C   UNL A   1      43.270  26.318  34.304  1.00  0.00     0.059 A 
ATOM     70  F   UNL A   1      43.187  26.642  31.985  1.00  0.00    -0.206 F 
ATOM     71  C   UNL A   1      42.997  26.781  35.590  1.00  0.00     0.060 A 
BRANCH  71  72
ATOM     72  S   UNL A   1      43.269  25.720  37.025  1.00  0.00     0.124 S 
ATOM     73  O   UNL A   1      41.930  25.205  37.285  1.00  0.00    -0.237 OA
ATOM     74  O   UNL A   1      44.232  24.749  36.510  1.00  0.00    -0.237 OA
ATOM     75  O   UNL A   1      43.797  26.634  38.034  1.00  0.00    -0.744 OA
ENDBRANCH  71  72
ENDBRANCH  39  64
ENDBRANCH  13  14
ENDBRANCH   6   8
ENDBRANCH   3   4
ENDBRANCH   2   3
ENDBRANCH   1   2
BRANCH   1  76
ATOM     76  C   UNL A   1      37.172  22.534  24.311  1.00  0.00     0.002 C 
BRANCH  76  77
ATOM     77  C   UNL A   1      36.397  23.417  25.301  1.00  0.00     0.021 C 
BRANCH  77  78
ATOM     78  C   UNL A   1      35.245  24.215  24.673  1.00  0.00     0.116 C 
BRANCH  78  79
ATOM     79  N   UNL A   1      34.681  25.116  25.653  1.00  0.00    -0.351 N 
ATOM     80  C   UNL A   1      33.675  26.009  25.411  1.00  0.00     0.278 C 
ATOM     81  H   UNL A   1      35.049  25.083  26.565  1.00  0.00     0.163 HD
ATOM     82  O   UNL A   1      33.829  27.143  25.863  1.00  0.00    -0.268 OA
BRANCH  80  83
ATOM     83  C   UNL A   1      32.444  25.525  24.618  1.00  0.00     0.275 C 
ATOM     84  C   UNL A   1      31.893  26.626  23.714  1.00  0.00     0.089 C 
ATOM     85  N   UNL A   1      31.290  25.166  25.442  1.00  0.00    -0.320 N 
ATOM     86  C   UNL A   1      30.711  27.257  24.484  1.00  0.00     0.036 C 
ATOM     87  C   UNL A   1      30.172  26.071  25.300  1.00  0.00     0.270 C 
ATOM     88  H   UNL A   1      31.051  24.229  25.119  1.00  0.00     0.349 HD
ATOM     89  C   UNL A   1      29.646  27.822  23.525  1.00  0.00     0.074 C 
ATOM     90  C   UNL A   1      31.145  28.414  25.418  1.00  0.00     0.074 C 
ATOM     91  C   UNL A   1      30.144  29.073  22.798  1.00  0.00     0.261 C 
ATOM     92  C   UNL A   1      31.602  29.650  24.642  1.00  0.00     0.261 C 
ATOM     93  N   UNL A   1      30.559  30.121  23.730  1.00  0.00    -0.346 N 
ATOM     94  H   UNL A   1      29.750  30.416  24.278  1.00  0.00     0.346 HD
ATOM     95  H   UNL A   1      30.936  30.898  23.189  1.00  0.00     0.346 HD
BRANCH  85  96
ATOM     96  C   UNL A   1      31.335  24.168  26.488  1.00  0.00     0.302 C 
BRANCH  96  97
ATOM     97  C   UNL A   1      31.979  22.878  26.068  1.00  0.00     0.038 A 
ATOM     98  C   UNL A   1      32.886  22.177  26.908  1.00  0.00     0.012 A 
ATOM     99  C   UNL A   1      31.898  22.336  24.761  1.00  0.00     0.144 A 
ATOM    100  C   UNL A   1      33.704  21.102  26.471  1.00  0.00     0.003 A 
ATOM    101  C   UNL A   1      32.739  21.229  24.318  1.00  0.00     0.135 A 
ATOM    102  N   UNL A   1      31.139  22.720  23.725  1.00  0.00    -0.049 NA
ATOM    103  C   UNL A   1      33.674  20.602  25.159  1.00  0.00     0.034 A 
ATOM    104  N   UNL A   1      32.462  20.980  23.031  1.00  0.00    -0.050 NA
ATOM    105  O   UNL A   1      31.492  21.896  22.671  1.00  0.00    -0.243 OA
ENDBRANCH  96  97
ENDBRANCH  85  96
ENDBRANCH  80  83
ENDBRANCH  78  79
ENDBRANCH  77  78
ENDBRANCH  76  77
ENDBRANCH   1  76
TORSDOF 18
ENDMDL
