MODEL 1
REMARK VINA RESULT:     -12.2      0.000      0.000
REMARK SMILES Cc1ccc(NC(=O)C[C@H]2SC[C@H](C(=O)NCCCCCCNC(=O)c3ccc(-c4c5nc(c(-c6c(F)cc(S(=O)(=O)[O-])cc6F)c6ccc([nH]6)c(-c6c(F)cc(S(=O)(=O)[O-])cc6F)c6nc(c(-c7c(F)cc(S(=O)(=O)[O-])cc7F)c7ccc4[nH]7)C=C6)C=C5)cc3)NC2=O)cc1
REMARK SMILES IDX 19 1 18 2 17 3 16 4 14 5 15 6 13 8 10 9 11 10 93 11 12 12
REMARK SMILES IDX 92 13 94 14 9 16 7 17 6 18 8 20 5 21 1 22 2 23 3 24 96 25
REMARK SMILES IDX 4 26 95 27 20 28 21 29 22 30 23 31 24 32 25 34 26 35 27 36
REMARK SMILES IDX 91 37 28 38 90 39 29 40 30 41 31 42 84 43 32 44 89 45 83 46
REMARK SMILES IDX 85 47 33 48 88 49 82 50 81 51 34 53 68 54 47 55 67 56 48 57
REMARK SMILES IDX 51 58 66 59 86 60 49 61 50 62 65 64 87 65 52 66 35 67 36 68
REMARK SMILES IDX 45 69 37 70 38 71 44 72 46 73 39 74 40 75 41 76 42 77 43 78
REMARK SMILES IDX 69 79 70 80 79 81 71 82 72 83 78 84 80 85 73 86 74 87 75 88
REMARK SMILES IDX 76 89 77 90 53 91 54 92 63 93 55 94 56 95 62 96 64 97 57 98
REMARK SMILES IDX 58 99 59 100 60 101 61 102
REMARK H PARENT 16 7 92 15 6 19 23 33 85 52 51 63
REMARK Flexibility Score: inf
ROOT
ATOM      1  C   UNL A   1      37.521  22.097  25.169  1.00  0.00     0.002 C 
ENDROOT
BRANCH   1   2
ATOM      2  C   UNL A   1      36.873  23.451  24.840  1.00  0.00     0.021 C 
BRANCH   2   3
ATOM      3  C   UNL A   1      35.478  23.667  25.432  1.00  0.00     0.116 C 
BRANCH   3   4
ATOM      4  N   UNL A   1      34.512  22.747  24.862  1.00  0.00    -0.354 N 
ATOM      5  C   UNL A   1      33.339  22.966  24.207  1.00  0.00     0.243 C 
ATOM      6  O   UNL A   1      32.720  21.979  23.798  1.00  0.00    -0.273 OA
ATOM      7  H   UNL A   1      34.746  21.796  24.967  1.00  0.00     0.163 HD
BRANCH   5   8
ATOM      8  C   UNL A   1      32.819  24.381  23.911  1.00  0.00     0.181 C 
ATOM      9  C   UNL A   1      30.450  26.247  23.601  1.00  0.00     0.145 C 
ATOM     10  S   UNL A   1      31.662  26.233  22.209  1.00  0.00    -0.145 SA
ATOM     11  C   UNL A   1      31.175  25.964  24.924  1.00  0.00     0.234 C 
ATOM     12  C   UNL A   1      32.323  24.554  22.478  1.00  0.00     0.105 C 
ATOM     13  N   UNL A   1      31.920  24.810  24.980  1.00  0.00    -0.343 N 
ATOM     14  O   UNL A   1      31.054  26.618  25.956  1.00  0.00    -0.274 OA
ATOM     15  H   UNL A   1      31.845  24.243  25.783  1.00  0.00     0.164 HD
BRANCH   9  16
ATOM     16  C   UNL A   1      29.568  27.497  23.500  1.00  0.00     0.124 C 
BRANCH  16  17
ATOM     17  C   UNL A   1      30.077  28.693  22.722  1.00  0.00     0.226 C 
ATOM     18  N   UNL A   1      31.124  29.462  23.117  1.00  0.00    -0.326 N 
ATOM     19  H   UNL A   1      31.385  30.138  22.450  1.00  0.00     0.169 HD
ATOM     20  O   UNL A   1      29.521  29.004  21.660  1.00  0.00    -0.275 OA
BRANCH  18  21
ATOM     21  C   UNL A   1      31.910  29.496  24.273  1.00  0.00     0.041 A 
ATOM     22  C   UNL A   1      34.509  29.328  27.713  1.00  0.00     0.044 C 
ATOM     23  C   UNL A   1      33.625  29.410  26.505  1.00  0.00    -0.051 A 
ATOM     24  C   UNL A   1      32.369  30.025  26.588  1.00  0.00     0.005 A 
ATOM     25  C   UNL A   1      34.027  28.860  25.287  1.00  0.00     0.005 A 
ATOM     26  C   UNL A   1      31.519  30.074  25.477  1.00  0.00     0.026 A 
ATOM     27  C   UNL A   1      33.183  28.921  24.177  1.00  0.00     0.026 A 
ENDBRANCH  18  21
ENDBRANCH  16  17
ENDBRANCH   9  16
ENDBRANCH   5   8
ENDBRANCH   3   4
ENDBRANCH   2   3
ENDBRANCH   1   2
BRANCH   1  28
ATOM     28  C   UNL A   1      38.721  22.123  26.127  1.00  0.00     0.002 C 
BRANCH  28  29
ATOM     29  C   UNL A   1      39.741  20.995  25.959  1.00  0.00     0.021 C 
BRANCH  29  30
ATOM     30  C   UNL A   1      41.035  21.221  26.736  1.00  0.00     0.116 C 
BRANCH  30  31
ATOM     31  N   UNL A   1      42.149  21.627  25.893  1.00  0.00    -0.352 N 
ATOM     32  C   UNL A   1      42.519  22.916  25.537  1.00  0.00     0.251 C 
ATOM     33  H   UNL A   1      42.707  20.900  25.533  1.00  0.00     0.163 HD
ATOM     34  O   UNL A   1      43.349  23.144  24.685  1.00  0.00    -0.269 OA
BRANCH  32  35
ATOM     35  C   UNL A   1      41.927  24.015  26.332  1.00  0.00     0.039 A 
ATOM     36  C   UNL A   1      41.653  25.215  25.667  1.00  0.00     0.014 A 
ATOM     37  C   UNL A   1      41.903  23.938  27.722  1.00  0.00     0.014 A 
ATOM     38  C   UNL A   1      41.517  26.389  26.405  1.00  0.00     0.010 A 
ATOM     39  C   UNL A   1      41.842  25.114  28.448  1.00  0.00     0.010 A 
ATOM     40  C   UNL A   1      41.693  26.344  27.789  1.00  0.00    -0.014 A 
BRANCH  40  41
ATOM     41  C   UNL A   1      41.846  27.536  28.616  1.00  0.00     0.031 A 
ATOM     42  C   UNL A   1      40.712  28.466  28.831  1.00  0.00     0.074 A 
ATOM     43  C   UNL A   1      43.018  27.791  29.238  1.00  0.00     0.049 A 
ATOM     44  N   UNL A   1      40.855  29.723  29.097  1.00  0.00    -0.248 NA
ATOM     45  C   UNL A   1      39.315  28.053  28.736  1.00  0.00     0.031 C 
ATOM     46  C   UNL A   1      43.245  28.746  30.321  1.00  0.00     0.029 A 
ATOM     47  N   UNL A   1      44.293  27.359  28.911  1.00  0.00    -0.354 N 
ATOM     48  C   UNL A   1      39.627  30.204  29.487  1.00  0.00     0.074 A 
ATOM     49  C   UNL A   1      38.688  29.149  29.176  1.00  0.00     0.031 C 
ATOM     50  C   UNL A   1      44.559  29.001  30.413  1.00  0.00     0.029 A 
ATOM     51  C   UNL A   1      45.215  28.335  29.302  1.00  0.00     0.049 A 
ATOM     52  H   UNL A   1      44.514  26.504  28.476  1.00  0.00     0.167 HD
ATOM     53  C   UNL A   1      39.534  31.377  30.174  1.00  0.00     0.037 A 
ATOM     54  C   UNL A   1      46.039  28.957  28.406  1.00  0.00     0.037 A 
ATOM     55  C   UNL A   1      40.837  31.991  30.394  1.00  0.00     0.049 A 
ATOM     56  C   UNL A   1      45.832  30.454  28.311  1.00  0.00     0.074 A 
ATOM     57  C   UNL A   1      41.708  31.957  31.471  1.00  0.00     0.029 A 
ATOM     58  N   UNL A   1      41.557  32.511  29.325  1.00  0.00    -0.354 N 
ATOM     59  N   UNL A   1      44.786  31.077  28.778  1.00  0.00    -0.248 NA
ATOM     60  C   UNL A   1      46.770  31.364  27.656  1.00  0.00     0.031 C 
ATOM     61  C   UNL A   1      42.969  32.426  31.038  1.00  0.00     0.029 A 
ATOM     62  C   UNL A   1      42.867  32.749  29.698  1.00  0.00     0.049 A 
ATOM     63  H   UNL A   1      41.186  32.685  28.429  1.00  0.00     0.167 HD
ATOM     64  C   UNL A   1      44.857  32.409  28.453  1.00  0.00     0.074 A 
ATOM     65  C   UNL A   1      46.137  32.544  27.785  1.00  0.00     0.031 C 
ATOM     66  C   UNL A   1      43.841  33.274  28.753  1.00  0.00     0.037 A 
BRANCH  53  67
ATOM     67  C   UNL A   1      38.274  31.760  30.910  1.00  0.00     0.058 A 
ATOM     68  C   UNL A   1      37.279  32.553  30.301  1.00  0.00     0.135 A 
ATOM     69  C   UNL A   1      38.029  31.417  32.255  1.00  0.00     0.135 A 
ATOM     70  F   UNL A   1      37.350  32.904  29.012  1.00  0.00    -0.206 F 
ATOM     71  C   UNL A   1      36.182  33.056  30.997  1.00  0.00     0.059 A 
ATOM     72  C   UNL A   1      36.960  31.944  32.987  1.00  0.00     0.059 A 
ATOM     73  F   UNL A   1      38.838  30.560  32.900  1.00  0.00    -0.206 F 
ATOM     74  C   UNL A   1      36.047  32.776  32.350  1.00  0.00     0.060 A 
BRANCH  74  75
ATOM     75  S   UNL A   1      34.694  33.553  33.254  1.00  0.00     0.124 S 
ATOM     76  O   UNL A   1      33.558  32.703  32.902  1.00  0.00    -0.237 OA
ATOM     77  O   UNL A   1      35.154  33.453  34.633  1.00  0.00    -0.237 OA
ATOM     78  O   UNL A   1      34.648  34.903  32.699  1.00  0.00    -0.744 OA
ENDBRANCH  74  75
ENDBRANCH  53  67
BRANCH  54  79
ATOM     79  C   UNL A   1      46.448  28.084  27.274  1.00  0.00     0.058 A 
ATOM     80  C   UNL A   1      45.671  28.123  26.102  1.00  0.00     0.135 A 
ATOM     81  C   UNL A   1      47.753  27.582  27.176  1.00  0.00     0.135 A 
ATOM     82  F   UNL A   1      44.410  28.585  26.146  1.00  0.00    -0.206 F 
ATOM     83  C   UNL A   1      46.214  27.829  24.858  1.00  0.00     0.059 A 
ATOM     84  C   UNL A   1      48.318  27.275  25.936  1.00  0.00     0.059 A 
ATOM     85  F   UNL A   1      48.538  27.517  28.262  1.00  0.00    -0.206 F 
ATOM     86  C   UNL A   1      47.558  27.468  24.781  1.00  0.00     0.060 A 
BRANCH  86  87
ATOM     87  S   UNL A   1      48.327  27.441  23.144  1.00  0.00     0.124 S 
ATOM     88  O   UNL A   1      48.279  26.021  22.811  1.00  0.00    -0.237 OA
ATOM     89  O   UNL A   1      47.423  28.300  22.379  1.00  0.00    -0.237 OA
ATOM     90  O   UNL A   1      49.654  27.990  23.390  1.00  0.00    -0.744 OA
ENDBRANCH  86  87
ENDBRANCH  54  79
BRANCH  66  91
ATOM     91  C   UNL A   1      43.710  34.709  28.290  1.00  0.00     0.058 A 
ATOM     92  C   UNL A   1      43.383  35.092  26.978  1.00  0.00     0.135 A 
ATOM     93  C   UNL A   1      43.790  35.770  29.227  1.00  0.00     0.135 A 
ATOM     94  F   UNL A   1      43.168  34.182  26.019  1.00  0.00    -0.206 F 
ATOM     95  C   UNL A   1      43.216  36.429  26.605  1.00  0.00     0.059 A 
ATOM     96  C   UNL A   1      43.572  37.103  28.890  1.00  0.00     0.059 A 
ATOM     97  F   UNL A   1      44.070  35.544  30.520  1.00  0.00    -0.206 F 
ATOM     98  C   UNL A   1      43.312  37.429  27.568  1.00  0.00     0.060 A 
BRANCH  98  99
ATOM     99  S   UNL A   1      43.037  39.151  27.113  1.00  0.00     0.124 S 
ATOM    100  O   UNL A   1      43.040  39.802  28.420  1.00  0.00    -0.237 OA
ATOM    101  O   UNL A   1      44.183  39.450  26.259  1.00  0.00    -0.237 OA
ATOM    102  O   UNL A   1      41.749  39.111  26.428  1.00  0.00    -0.744 OA
ENDBRANCH  98  99
ENDBRANCH  66  91
ENDBRANCH  40  41
ENDBRANCH  32  35
ENDBRANCH  30  31
ENDBRANCH  29  30
ENDBRANCH  28  29
ENDBRANCH   1  28
TORSDOF 19
ENDMDL
MODEL 2
REMARK VINA RESULT:     -11.7      5.037     13.559
REMARK SMILES Cc1ccc(NC(=O)C[C@H]2SC[C@H](C(=O)NCCCCCCNC(=O)c3ccc(-c4c5nc(c(-c6c(F)cc(S(=O)(=O)[O-])cc6F)c6ccc([nH]6)c(-c6c(F)cc(S(=O)(=O)[O-])cc6F)c6nc(c(-c7c(F)cc(S(=O)(=O)[O-])cc7F)c7ccc4[nH]7)C=C6)C=C5)cc3)NC2=O)cc1
REMARK SMILES IDX 19 1 18 2 17 3 16 4 14 5 15 6 13 8 10 9 11 10 93 11 12 12
REMARK SMILES IDX 92 13 94 14 9 16 7 17 6 18 8 20 5 21 1 22 2 23 3 24 96 25
REMARK SMILES IDX 4 26 95 27 20 28 21 29 22 30 23 31 24 32 25 34 26 35 27 36
REMARK SMILES IDX 91 37 28 38 90 39 29 40 30 41 31 42 84 43 32 44 89 45 83 46
REMARK SMILES IDX 85 47 33 48 88 49 82 50 81 51 34 53 68 54 47 55 67 56 48 57
REMARK SMILES IDX 51 58 66 59 86 60 49 61 50 62 65 64 87 65 52 66 35 67 36 68
REMARK SMILES IDX 45 69 37 70 38 71 44 72 46 73 39 74 40 75 41 76 42 77 43 78
REMARK SMILES IDX 69 79 70 80 79 81 71 82 72 83 78 84 80 85 73 86 74 87 75 88
REMARK SMILES IDX 76 89 77 90 53 91 54 92 63 93 55 94 56 95 62 96 64 97 57 98
REMARK SMILES IDX 58 99 59 100 60 101 61 102
REMARK H PARENT 16 7 92 15 6 19 23 33 85 52 51 63
REMARK Flexibility Score: inf
ROOT
ATOM      1  C   UNL A   1      41.155  34.187  30.694  1.00  0.00     0.002 C 
ENDROOT
BRANCH   1   2
ATOM      2  C   UNL A   1      42.416  34.703  29.983  1.00  0.00     0.021 C 
BRANCH   2   3
ATOM      3  C   UNL A   1      43.439  33.627  29.607  1.00  0.00     0.116 C 
BRANCH   3   4
ATOM      4  N   UNL A   1      43.554  33.485  28.167  1.00  0.00    -0.354 N 
ATOM      5  C   UNL A   1      43.968  34.358  27.209  1.00  0.00     0.243 C 
ATOM      6  O   UNL A   1      43.992  33.955  26.042  1.00  0.00    -0.273 OA
ATOM      7  H   UNL A   1      43.285  32.603  27.824  1.00  0.00     0.163 HD
BRANCH   5   8
ATOM      8  C   UNL A   1      44.463  35.773  27.547  1.00  0.00     0.181 C 
ATOM      9  C   UNL A   1      45.231  38.538  26.574  1.00  0.00     0.145 C 
ATOM     10  S   UNL A   1      46.464  37.683  27.649  1.00  0.00    -0.145 SA
ATOM     11  C   UNL A   1      43.810  38.113  26.971  1.00  0.00     0.234 C 
ATOM     12  C   UNL A   1      45.954  35.969  27.288  1.00  0.00     0.105 C 
ATOM     13  N   UNL A   1      43.553  36.763  26.974  1.00  0.00    -0.343 N 
ATOM     14  O   UNL A   1      42.870  38.875  27.175  1.00  0.00    -0.274 OA
ATOM     15  H   UNL A   1      42.713  36.446  26.568  1.00  0.00     0.164 HD
BRANCH   9  16
ATOM     16  C   UNL A   1      45.558  40.035  26.511  1.00  0.00     0.124 C 
BRANCH  16  17
ATOM     17  C   UNL A   1      44.771  40.995  27.378  1.00  0.00     0.226 C 
ATOM     18  N   UNL A   1      43.772  41.789  26.913  1.00  0.00    -0.326 N 
ATOM     19  H   UNL A   1      43.301  42.280  27.625  1.00  0.00     0.169 HD
ATOM     20  O   UNL A   1      45.038  41.077  28.585  1.00  0.00    -0.275 OA
BRANCH  18  21
ATOM     21  C   UNL A   1      43.270  42.054  25.635  1.00  0.00     0.041 A 
ATOM     22  C   UNL A   1      41.876  43.180  21.710  1.00  0.00     0.044 C 
ATOM     23  C   UNL A   1      42.385  42.772  23.060  1.00  0.00    -0.051 A 
ATOM     24  C   UNL A   1      41.724  41.780  23.795  1.00  0.00     0.005 A 
ATOM     25  C   UNL A   1      43.511  43.384  23.614  1.00  0.00     0.005 A 
ATOM     26  C   UNL A   1      42.167  41.418  25.072  1.00  0.00     0.026 A 
ATOM     27  C   UNL A   1      43.959  43.013  24.883  1.00  0.00     0.026 A 
ENDBRANCH  18  21
ENDBRANCH  16  17
ENDBRANCH   9  16
ENDBRANCH   5   8
ENDBRANCH   3   4
ENDBRANCH   2   3
ENDBRANCH   1   2
BRANCH   1  28
ATOM     28  C   UNL A   1      40.483  32.945  30.090  1.00  0.00     0.002 C 
BRANCH  28  29
ATOM     29  C   UNL A   1      39.007  33.093  29.716  1.00  0.00     0.021 C 
BRANCH  29  30
ATOM     30  C   UNL A   1      38.094  32.099  30.429  1.00  0.00     0.116 C 
BRANCH  30  31
ATOM     31  N   UNL A   1      36.790  31.961  29.800  1.00  0.00    -0.352 N 
ATOM     32  C   UNL A   1      36.410  31.052  28.825  1.00  0.00     0.251 C 
ATOM     33  H   UNL A   1      36.095  32.588  30.104  1.00  0.00     0.163 HD
ATOM     34  O   UNL A   1      35.356  31.133  28.232  1.00  0.00    -0.269 OA
BRANCH  32  35
ATOM     35  C   UNL A   1      37.311  29.897  28.611  1.00  0.00     0.039 A 
ATOM     36  C   UNL A   1      37.450  28.986  29.663  1.00  0.00     0.014 A 
ATOM     37  C   UNL A   1      38.177  29.879  27.521  1.00  0.00     0.014 A 
ATOM     38  C   UNL A   1      38.568  28.156  29.705  1.00  0.00     0.010 A 
ATOM     39  C   UNL A   1      39.323  29.108  27.601  1.00  0.00     0.010 A 
ATOM     40  C   UNL A   1      39.541  28.279  28.711  1.00  0.00    -0.014 A 
BRANCH  40  41
ATOM     41  C   UNL A   1      40.862  27.667  28.804  1.00  0.00     0.031 A 
ATOM     42  C   UNL A   1      41.081  26.258  28.402  1.00  0.00     0.074 A 
ATOM     43  C   UNL A   1      41.924  28.393  29.221  1.00  0.00     0.049 A 
ATOM     44  N   UNL A   1      42.017  25.509  28.886  1.00  0.00    -0.248 NA
ATOM     45  C   UNL A   1      40.235  25.567  27.433  1.00  0.00     0.031 C 
ATOM     46  C   UNL A   1      43.335  28.037  29.083  1.00  0.00     0.029 A 
ATOM     47  N   UNL A   1      41.949  29.532  30.008  1.00  0.00    -0.354 N 
ATOM     48  C   UNL A   1      42.085  24.378  28.108  1.00  0.00     0.074 A 
ATOM     49  C   UNL A   1      40.911  24.425  27.264  1.00  0.00     0.031 C 
ATOM     50  C   UNL A   1      44.060  28.782  29.932  1.00  0.00     0.029 A 
ATOM     51  C   UNL A   1      43.133  29.541  30.753  1.00  0.00     0.049 A 
ATOM     52  H   UNL A   1      41.249  30.223  30.038  1.00  0.00     0.167 HD
ATOM     53  C   UNL A   1      43.194  23.588  28.135  1.00  0.00     0.037 A 
ATOM     54  C   UNL A   1      43.132  29.539  32.120  1.00  0.00     0.037 A 
ATOM     55  C   UNL A   1      44.205  24.091  29.057  1.00  0.00     0.049 A 
ATOM     56  C   UNL A   1      43.794  28.325  32.738  1.00  0.00     0.074 A 
ATOM     57  C   UNL A   1      45.328  24.879  28.862  1.00  0.00     0.029 A 
ATOM     58  N   UNL A   1      43.979  24.063  30.428  1.00  0.00    -0.354 N 
ATOM     59  N   UNL A   1      44.066  27.231  32.084  1.00  0.00    -0.248 NA
ATOM     60  C   UNL A   1      44.173  28.236  34.147  1.00  0.00     0.031 C 
ATOM     61  C   UNL A   1      45.759  25.358  30.121  1.00  0.00     0.029 A 
ATOM     62  C   UNL A   1      44.900  24.859  31.083  1.00  0.00     0.049 A 
ATOM     63  H   UNL A   1      43.264  23.550  30.870  1.00  0.00     0.167 HD
ATOM     64  C   UNL A   1      44.578  26.292  32.945  1.00  0.00     0.074 A 
ATOM     65  C   UNL A   1      44.661  26.984  34.217  1.00  0.00     0.031 C 
ATOM     66  C   UNL A   1      44.870  25.022  32.529  1.00  0.00     0.037 A 
BRANCH  53  67
ATOM     67  C   UNL A   1      43.452  22.555  27.066  1.00  0.00     0.058 A 
ATOM     68  C   UNL A   1      42.774  21.318  27.062  1.00  0.00     0.135 A 
ATOM     69  C   UNL A   1      44.414  22.716  26.049  1.00  0.00     0.135 A 
ATOM     70  F   UNL A   1      41.793  21.049  27.932  1.00  0.00    -0.206 F 
ATOM     71  C   UNL A   1      43.097  20.282  26.188  1.00  0.00     0.059 A 
ATOM     72  C   UNL A   1      44.787  21.678  25.190  1.00  0.00     0.059 A 
ATOM     73  F   UNL A   1      45.029  23.897  25.872  1.00  0.00    -0.206 F 
ATOM     74  C   UNL A   1      44.130  20.456  25.277  1.00  0.00     0.060 A 
BRANCH  74  75
ATOM     75  S   UNL A   1      44.616  19.052  24.255  1.00  0.00     0.124 S 
ATOM     76  O   UNL A   1      45.987  18.808  24.699  1.00  0.00    -0.237 OA
ATOM     77  O   UNL A   1      43.637  18.043  24.640  1.00  0.00    -0.237 OA
ATOM     78  O   UNL A   1      44.492  19.566  22.894  1.00  0.00    -0.744 OA
ENDBRANCH  74  75
ENDBRANCH  53  67
BRANCH  54  79
ATOM     79  C   UNL A   1      41.980  30.270  32.711  1.00  0.00     0.058 A 
ATOM     80  C   UNL A   1      40.835  29.525  33.051  1.00  0.00     0.135 A 
ATOM     81  C   UNL A   1      42.144  31.525  33.313  1.00  0.00     0.135 A 
ATOM     82  F   UNL A   1      40.627  28.321  32.493  1.00  0.00    -0.206 F 
ATOM     83  C   UNL A   1      39.975  29.932  34.062  1.00  0.00     0.059 A 
ATOM     84  C   UNL A   1      41.288  31.957  34.328  1.00  0.00     0.059 A 
ATOM     85  F   UNL A   1      43.213  32.281  33.023  1.00  0.00    -0.206 F 
ATOM     86  C   UNL A   1      40.248  31.120  34.738  1.00  0.00     0.060 A 
BRANCH  86  87
ATOM     87  S   UNL A   1      39.337  31.445  36.266  1.00  0.00     0.124 S 
ATOM     88  O   UNL A   1      40.388  31.952  37.142  1.00  0.00    -0.237 OA
ATOM     89  O   UNL A   1      38.355  32.433  35.820  1.00  0.00    -0.237 OA
ATOM     90  O   UNL A   1      38.795  30.138  36.616  1.00  0.00    -0.744 OA
ENDBRANCH  86  87
ENDBRANCH  54  79
BRANCH  66  91
ATOM     91  C   UNL A   1      45.255  23.851  33.405  1.00  0.00     0.058 A 
ATOM     92  C   UNL A   1      46.552  23.617  33.892  1.00  0.00     0.135 A 
ATOM     93  C   UNL A   1      44.257  22.973  33.899  1.00  0.00     0.135 A 
ATOM     94  F   UNL A   1      47.567  24.438  33.593  1.00  0.00    -0.206 F 
ATOM     95  C   UNL A   1      46.853  22.552  34.747  1.00  0.00     0.059 A 
ATOM     96  C   UNL A   1      44.524  21.940  34.795  1.00  0.00     0.059 A 
ATOM     97  F   UNL A   1      42.971  23.097  33.536  1.00  0.00    -0.206 F 
ATOM     98  C   UNL A   1      45.833  21.718  35.194  1.00  0.00     0.060 A 
BRANCH  98  99
ATOM     99  S   UNL A   1      46.198  20.380  36.345  1.00  0.00     0.124 S 
ATOM    100  O   UNL A   1      45.431  19.281  35.767  1.00  0.00    -0.237 OA
ATOM    101  O   UNL A   1      47.649  20.254  36.248  1.00  0.00    -0.237 OA
ATOM    102  O   UNL A   1      45.706  20.897  37.619  1.00  0.00    -0.744 OA
ENDBRANCH  98  99
ENDBRANCH  66  91
ENDBRANCH  40  41
ENDBRANCH  32  35
ENDBRANCH  30  31
ENDBRANCH  29  30
ENDBRANCH  28  29
ENDBRANCH   1  28
TORSDOF 19
ENDMDL
MODEL 3
REMARK VINA RESULT:     -11.3      4.281      6.077
REMARK SMILES Cc1ccc(NC(=O)C[C@H]2SC[C@H](C(=O)NCCCCCCNC(=O)c3ccc(-c4c5nc(c(-c6c(F)cc(S(=O)(=O)[O-])cc6F)c6ccc([nH]6)c(-c6c(F)cc(S(=O)(=O)[O-])cc6F)c6nc(c(-c7c(F)cc(S(=O)(=O)[O-])cc7F)c7ccc4[nH]7)C=C6)C=C5)cc3)NC2=O)cc1
REMARK SMILES IDX 19 1 18 2 17 3 16 4 14 5 15 6 13 8 10 9 11 10 93 11 12 12
REMARK SMILES IDX 92 13 94 14 9 16 7 17 6 18 8 20 5 21 1 22 2 23 3 24 96 25
REMARK SMILES IDX 4 26 95 27 20 28 21 29 22 30 23 31 24 32 25 34 26 35 27 36
REMARK SMILES IDX 91 37 28 38 90 39 29 40 30 41 31 42 84 43 32 44 89 45 83 46
REMARK SMILES IDX 85 47 33 48 88 49 82 50 81 51 34 53 68 54 47 55 67 56 48 57
REMARK SMILES IDX 51 58 66 59 86 60 49 61 50 62 65 64 87 65 52 66 35 67 36 68
REMARK SMILES IDX 45 69 37 70 38 71 44 72 46 73 39 74 40 75 41 76 42 77 43 78
REMARK SMILES IDX 69 79 70 80 79 81 71 82 72 83 78 84 80 85 73 86 74 87 75 88
REMARK SMILES IDX 76 89 77 90 53 91 54 92 63 93 55 94 56 95 62 96 64 97 57 98
REMARK SMILES IDX 58 99 59 100 60 101 61 102
REMARK H PARENT 16 7 92 15 6 19 23 33 85 52 51 63
REMARK Flexibility Score: inf
ROOT
ATOM      1  C   UNL A   1      40.402  22.148  26.983  1.00  0.00     0.002 C 
ENDROOT
BRANCH   1   2
ATOM      2  C   UNL A   1      39.451  21.434  26.010  1.00  0.00     0.021 C 
BRANCH   2   3
ATOM      3  C   UNL A   1      38.034  22.011  25.942  1.00  0.00     0.116 C 
BRANCH   3   4
ATOM      4  N   UNL A   1      37.731  22.518  24.617  1.00  0.00    -0.354 N 
ATOM      5  C   UNL A   1      36.564  22.571  23.920  1.00  0.00     0.243 C 
ATOM      6  O   UNL A   1      36.590  23.091  22.800  1.00  0.00    -0.273 OA
ATOM      7  H   UNL A   1      38.507  22.890  24.137  1.00  0.00     0.163 HD
BRANCH   5   8
ATOM      8  C   UNL A   1      35.234  22.075  24.509  1.00  0.00     0.181 C 
ATOM      9  C   UNL A   1      32.374  22.690  25.299  1.00  0.00     0.145 C 
ATOM     10  S   UNL A   1      33.423  21.896  26.595  1.00  0.00    -0.145 SA
ATOM     11  C   UNL A   1      32.815  22.214  23.908  1.00  0.00     0.234 C 
ATOM     12  C   UNL A   1      35.043  22.458  25.974  1.00  0.00     0.105 C 
ATOM     13  N   UNL A   1      34.141  22.390  23.592  1.00  0.00    -0.343 N 
ATOM     14  O   UNL A   1      32.067  21.796  23.029  1.00  0.00    -0.274 OA
ATOM     15  H   UNL A   1      34.365  22.747  22.702  1.00  0.00     0.164 HD
BRANCH   9  16
ATOM     16  C   UNL A   1      30.896  22.558  25.686  1.00  0.00     0.124 C 
BRANCH  16  17
ATOM     17  C   UNL A   1      30.304  23.545  26.671  1.00  0.00     0.226 C 
ATOM     18  N   UNL A   1      30.534  24.883  26.630  1.00  0.00    -0.326 N 
ATOM     19  H   UNL A   1      29.998  25.390  27.283  1.00  0.00     0.169 HD
ATOM     20  O   UNL A   1      29.566  23.129  27.574  1.00  0.00    -0.275 OA
BRANCH  18  21
ATOM     21  C   UNL A   1      31.372  25.692  25.856  1.00  0.00     0.041 A 
ATOM     22  C   UNL A   1      33.780  28.081  23.191  1.00  0.00     0.044 C 
ATOM     23  C   UNL A   1      32.925  27.277  24.124  1.00  0.00    -0.051 A 
ATOM     24  C   UNL A   1      33.413  26.900  25.381  1.00  0.00     0.005 A 
ATOM     25  C   UNL A   1      31.642  26.876  23.750  1.00  0.00     0.005 A 
ATOM     26  C   UNL A   1      32.638  26.118  26.246  1.00  0.00     0.026 A 
ATOM     27  C   UNL A   1      30.866  26.106  24.618  1.00  0.00     0.026 A 
ENDBRANCH  18  21
ENDBRANCH  16  17
ENDBRANCH   9  16
ENDBRANCH   5   8
ENDBRANCH   3   4
ENDBRANCH   2   3
ENDBRANCH   1   2
BRANCH   1  28
ATOM     28  C   UNL A   1      41.251  23.289  26.403  1.00  0.00     0.002 C 
BRANCH  28  29
ATOM     29  C   UNL A   1      40.843  24.706  26.809  1.00  0.00     0.021 C 
BRANCH  29  30
ATOM     30  C   UNL A   1      42.028  25.621  27.108  1.00  0.00     0.116 C 
BRANCH  30  31
ATOM     31  N   UNL A   1      42.568  26.269  25.924  1.00  0.00    -0.352 N 
ATOM     32  C   UNL A   1      42.334  27.564  25.484  1.00  0.00     0.251 C 
ATOM     33  H   UNL A   1      43.172  25.725  25.369  1.00  0.00     0.163 HD
ATOM     34  O   UNL A   1      42.683  27.954  24.391  1.00  0.00    -0.269 OA
BRANCH  32  35
ATOM     35  C   UNL A   1      41.729  28.494  26.463  1.00  0.00     0.039 A 
ATOM     36  C   UNL A   1      42.595  29.170  27.329  1.00  0.00     0.014 A 
ATOM     37  C   UNL A   1      40.354  28.482  26.681  1.00  0.00     0.014 A 
ATOM     38  C   UNL A   1      42.097  29.699  28.519  1.00  0.00     0.010 A 
ATOM     39  C   UNL A   1      39.874  28.941  27.895  1.00  0.00     0.010 A 
ATOM     40  C   UNL A   1      40.749  29.510  28.832  1.00  0.00    -0.014 A 
BRANCH  40  41
ATOM     41  C   UNL A   1      40.190  29.773  30.153  1.00  0.00     0.031 A 
ATOM     42  C   UNL A   1      39.370  30.981  30.408  1.00  0.00     0.074 A 
ATOM     43  C   UNL A   1      40.377  28.894  31.163  1.00  0.00     0.049 A 
ATOM     44  N   UNL A   1      39.261  31.545  31.566  1.00  0.00    -0.248 NA
ATOM     45  C   UNL A   1      38.622  31.670  29.360  1.00  0.00     0.031 C 
ATOM     46  C   UNL A   1      39.649  28.848  32.429  1.00  0.00     0.029 A 
ATOM     47  N   UNL A   1      41.380  27.953  31.328  1.00  0.00    -0.354 N 
ATOM     48  C   UNL A   1      38.235  32.456  31.487  1.00  0.00     0.074 A 
ATOM     49  C   UNL A   1      37.918  32.552  30.079  1.00  0.00     0.031 C 
ATOM     50  C   UNL A   1      40.348  28.116  33.311  1.00  0.00     0.029 A 
ATOM     51  C   UNL A   1      41.621  27.784  32.695  1.00  0.00     0.049 A 
ATOM     52  H   UNL A   1      41.846  27.480  30.601  1.00  0.00     0.167 HD
ATOM     53  C   UNL A   1      37.645  32.930  32.620  1.00  0.00     0.037 A 
ATOM     54  C   UNL A   1      42.841  28.041  33.256  1.00  0.00     0.037 A 
ATOM     55  C   UNL A   1      38.240  32.369  33.826  1.00  0.00     0.049 A 
ATOM     56  C   UNL A   1      42.824  29.141  34.296  1.00  0.00     0.074 A 
ATOM     57  C   UNL A   1      37.877  31.300  34.629  1.00  0.00     0.029 A 
ATOM     58  N   UNL A   1      39.538  32.709  34.190  1.00  0.00    -0.354 N 
ATOM     59  N   UNL A   1      41.845  29.989  34.446  1.00  0.00    -0.248 NA
ATOM     60  C   UNL A   1      43.920  29.393  35.229  1.00  0.00     0.031 C 
ATOM     61  C   UNL A   1      38.974  30.972  35.457  1.00  0.00     0.029 A 
ATOM     62  C   UNL A   1      40.007  31.842  35.160  1.00  0.00     0.049 A 
ATOM     63  H   UNL A   1      40.050  33.459  33.811  1.00  0.00     0.167 HD
ATOM     64  C   UNL A   1      42.174  30.911  35.408  1.00  0.00     0.074 A 
ATOM     65  C   UNL A   1      43.467  30.471  35.895  1.00  0.00     0.031 C 
ATOM     66  C   UNL A   1      41.353  31.965  35.701  1.00  0.00     0.037 A 
BRANCH  53  67
ATOM     67  C   UNL A   1      36.318  33.646  32.576  1.00  0.00     0.058 A 
ATOM     68  C   UNL A   1      35.234  33.138  31.830  1.00  0.00     0.135 A 
ATOM     69  C   UNL A   1      36.083  34.883  33.210  1.00  0.00     0.135 A 
ATOM     70  F   UNL A   1      35.293  31.947  31.224  1.00  0.00    -0.206 F 
ATOM     71  C   UNL A   1      34.050  33.847  31.638  1.00  0.00     0.059 A 
ATOM     72  C   UNL A   1      34.923  35.633  32.998  1.00  0.00     0.059 A 
ATOM     73  F   UNL A   1      36.992  35.402  34.052  1.00  0.00    -0.206 F 
ATOM     74  C   UNL A   1      33.914  35.111  32.196  1.00  0.00     0.060 A 
BRANCH  74  75
ATOM     75  S   UNL A   1      32.429  36.060  31.816  1.00  0.00     0.124 S 
ATOM     76  O   UNL A   1      31.405  35.349  32.578  1.00  0.00    -0.237 OA
ATOM     77  O   UNL A   1      32.781  37.385  32.312  1.00  0.00    -0.237 OA
ATOM     78  O   UNL A   1      32.313  35.939  30.366  1.00  0.00    -0.744 OA
ENDBRANCH  74  75
ENDBRANCH  53  67
BRANCH  54  79
ATOM     79  C   UNL A   1      43.982  27.750  32.348  1.00  0.00     0.058 A 
ATOM     80  C   UNL A   1      44.446  26.424  32.281  1.00  0.00     0.135 A 
ATOM     81  C   UNL A   1      44.307  28.609  31.289  1.00  0.00     0.135 A 
ATOM     82  F   UNL A   1      44.170  25.565  33.277  1.00  0.00    -0.206 F 
ATOM     83  C   UNL A   1      45.067  25.925  31.144  1.00  0.00     0.059 A 
ATOM     84  C   UNL A   1      44.936  28.130  30.138  1.00  0.00     0.059 A 
ATOM     85  F   UNL A   1      43.896  29.886  31.301  1.00  0.00    -0.206 F 
ATOM     86  C   UNL A   1      45.249  26.773  30.053  1.00  0.00     0.060 A 
BRANCH  86  87
ATOM     87  S   UNL A   1      45.724  26.022  28.477  1.00  0.00     0.124 S 
ATOM     88  O   UNL A   1      45.219  26.996  27.515  1.00  0.00    -0.237 OA
ATOM     89  O   UNL A   1      47.179  25.958  28.607  1.00  0.00    -0.237 OA
ATOM     90  O   UNL A   1      45.037  24.737  28.499  1.00  0.00    -0.744 OA
ENDBRANCH  86  87
ENDBRANCH  54  79
BRANCH  66  91
ATOM     91  C   UNL A   1      41.678  33.143  36.593  1.00  0.00     0.058 A 
ATOM     92  C   UNL A   1      40.997  33.449  37.783  1.00  0.00     0.135 A 
ATOM     93  C   UNL A   1      42.813  33.949  36.321  1.00  0.00     0.135 A 
ATOM     94  F   UNL A   1      39.975  32.697  38.215  1.00  0.00    -0.206 F 
ATOM     95  C   UNL A   1      41.367  34.516  38.608  1.00  0.00     0.059 A 
ATOM     96  C   UNL A   1      43.233  34.981  37.158  1.00  0.00     0.059 A 
ATOM     97  F   UNL A   1      43.570  33.751  35.231  1.00  0.00    -0.206 F 
ATOM     98  C   UNL A   1      42.487  35.277  38.288  1.00  0.00     0.060 A 
BRANCH  98  99
ATOM     99  S   UNL A   1      43.011  36.615  39.375  1.00  0.00     0.124 S 
ATOM    100  O   UNL A   1      41.968  37.608  39.139  1.00  0.00    -0.237 OA
ATOM    101  O   UNL A   1      42.996  35.988  40.694  1.00  0.00    -0.237 OA
ATOM    102  O   UNL A   1      44.337  36.954  38.867  1.00  0.00    -0.744 OA
ENDBRANCH  98  99
ENDBRANCH  66  91
ENDBRANCH  40  41
ENDBRANCH  32  35
ENDBRANCH  30  31
ENDBRANCH  29  30
ENDBRANCH  28  29
ENDBRANCH   1  28
TORSDOF 19
ENDMDL
