MODEL 1
REMARK VINA RESULT:     -11.4      0.000      0.000
REMARK SMILES O=C(NCCCCCCNC(=O)[C@@H](CCc1ccccc1)[C@@H]1CCS(=O)(=O)C1)c1ccc(-c2c3nc(c(-c4c(F)cc(S(=O)(=O)[O-])cc4F)c4ccc([nH]4)c(-c4c(F)cc(S(=O)(=O)[O-])cc4F)c4nc(c(-c5c(F)cc(S(=O)(=O)[O-])cc5F)c5ccc2[nH]5)C=C4)C=C3)cc1
REMARK SMILES IDX 6 1 5 2 4 3 3 4 1 5 2 6 29 8 30 9 94 10 31 11 93 12 32 13
REMARK SMILES IDX 33 14 34 15 87 16 35 17 92 18 86 19 88 20 36 21 91 22 85 23
REMARK SMILES IDX 84 24 37 26 71 27 50 28 70 29 51 30 54 31 69 32 89 33 52 34
REMARK SMILES IDX 53 35 68 37 90 38 55 39 38 40 39 41 48 42 40 43 41 44 47 45
REMARK SMILES IDX 49 46 42 47 43 48 44 49 45 50 46 51 72 52 73 53 82 54 74 55
REMARK SMILES IDX 75 56 81 57 83 58 76 59 77 60 78 61 79 62 80 63 56 64 57 65
REMARK SMILES IDX 66 66 58 67 59 68 65 69 67 70 60 71 61 72 62 73 63 74 64 75
REMARK SMILES IDX 7 76 8 77 9 78 10 79 11 80 12 82 13 83 14 84 15 85 16 86
REMARK SMILES IDX 17 87 21 88 18 89 20 90 19 91 22 92 23 93 28 94 24 95 25 96
REMARK SMILES IDX 26 97 27 98
REMARK H PARENT 3 7 88 25 54 36 10 81
REMARK Flexibility Score: inf
ROOT
ATOM      1  C   UNL A   1      31.919  30.704  26.298  1.00  0.00     0.002 C 
ENDROOT
BRANCH   1   2
ATOM      2  C   UNL A   1      31.647  32.114  26.827  1.00  0.00     0.021 C 
BRANCH   2   3
ATOM      3  C   UNL A   1      32.853  32.789  27.465  1.00  0.00     0.116 C 
BRANCH   3   4
ATOM      4  N   UNL A   1      32.598  34.190  27.775  1.00  0.00    -0.352 N 
ATOM      5  O   UNL A   1      32.635  36.075  29.014  1.00  0.00    -0.269 OA
ATOM      6  C   UNL A   1      33.122  34.975  28.773  1.00  0.00     0.251 C 
ATOM      7  H   UNL A   1      31.954  34.640  27.182  1.00  0.00     0.163 HD
BRANCH   6   8
ATOM      8  C   UNL A   1      34.267  34.475  29.559  1.00  0.00     0.039 A 
ATOM      9  C   UNL A   1      35.559  34.552  29.038  1.00  0.00     0.014 A 
ATOM     10  C   UNL A   1      34.046  33.904  30.815  1.00  0.00     0.014 A 
ATOM     11  C   UNL A   1      36.599  33.901  29.685  1.00  0.00     0.010 A 
ATOM     12  C   UNL A   1      35.119  33.346  31.518  1.00  0.00     0.010 A 
ATOM     13  C   UNL A   1      36.397  33.303  30.939  1.00  0.00    -0.014 A 
BRANCH  13  14
ATOM     14  C   UNL A   1      37.555  32.682  31.632  1.00  0.00     0.031 A 
ATOM     15  C   UNL A   1      38.024  33.182  32.973  1.00  0.00     0.074 A 
ATOM     16  C   UNL A   1      38.155  31.622  31.054  1.00  0.00     0.049 A 
ATOM     17  N   UNL A   1      38.985  32.719  33.731  1.00  0.00    -0.248 NA
ATOM     18  C   UNL A   1      37.334  34.354  33.532  1.00  0.00     0.031 C 
ATOM     19  C   UNL A   1      37.791  31.057  29.751  1.00  0.00     0.029 A 
ATOM     20  N   UNL A   1      39.173  30.814  31.490  1.00  0.00    -0.354 N 
ATOM     21  C   UNL A   1      39.036  33.555  34.841  1.00  0.00     0.074 A 
ATOM     22  C   UNL A   1      38.024  34.571  34.645  1.00  0.00     0.031 C 
ATOM     23  C   UNL A   1      38.528  29.961  29.523  1.00  0.00     0.029 A 
ATOM     24  C   UNL A   1      39.468  29.788  30.623  1.00  0.00     0.049 A 
ATOM     25  H   UNL A   1      39.646  30.954  32.341  1.00  0.00     0.167 HD
ATOM     26  C   UNL A   1      39.849  33.478  35.923  1.00  0.00     0.037 A 
ATOM     27  C   UNL A   1      40.402  28.822  30.694  1.00  0.00     0.037 A 
ATOM     28  C   UNL A   1      40.845  32.450  36.109  1.00  0.00     0.049 A 
ATOM     29  C   UNL A   1      41.303  28.774  31.894  1.00  0.00     0.074 A 
ATOM     30  C   UNL A   1      41.689  32.258  37.190  1.00  0.00     0.029 A 
ATOM     31  N   UNL A   1      41.140  31.451  35.192  1.00  0.00    -0.354 N 
ATOM     32  N   UNL A   1      41.308  29.550  32.953  1.00  0.00    -0.248 NA
ATOM     33  C   UNL A   1      42.325  27.720  31.911  1.00  0.00     0.031 C 
ATOM     34  C   UNL A   1      42.534  31.182  36.899  1.00  0.00     0.029 A 
ATOM     35  C   UNL A   1      42.171  30.657  35.670  1.00  0.00     0.049 A 
ATOM     36  H   UNL A   1      40.684  31.324  34.329  1.00  0.00     0.167 HD
ATOM     37  C   UNL A   1      42.313  29.058  33.776  1.00  0.00     0.074 A 
ATOM     38  C   UNL A   1      42.882  27.910  33.098  1.00  0.00     0.031 C 
ATOM     39  C   UNL A   1      42.726  29.513  34.986  1.00  0.00     0.037 A 
BRANCH  26  40
ATOM     40  C   UNL A   1      39.723  34.546  36.978  1.00  0.00     0.058 A 
ATOM     41  C   UNL A   1      40.343  35.800  36.849  1.00  0.00     0.135 A 
ATOM     42  C   UNL A   1      38.932  34.326  38.118  1.00  0.00     0.135 A 
ATOM     43  F   UNL A   1      41.122  36.065  35.788  1.00  0.00    -0.206 F 
ATOM     44  C   UNL A   1      40.207  36.783  37.825  1.00  0.00     0.059 A 
ATOM     45  C   UNL A   1      38.757  35.306  39.092  1.00  0.00     0.059 A 
ATOM     46  F   UNL A   1      38.313  33.147  38.295  1.00  0.00    -0.206 F 
ATOM     47  C   UNL A   1      39.411  36.527  38.944  1.00  0.00     0.060 A 
BRANCH  47  48
ATOM     48  S   UNL A   1      39.248  37.814  40.199  1.00  0.00     0.124 S 
ATOM     49  O   UNL A   1      38.167  38.624  39.646  1.00  0.00    -0.237 OA
ATOM     50  O   UNL A   1      38.914  37.043  41.393  1.00  0.00    -0.237 OA
ATOM     51  O   UNL A   1      40.562  38.448  40.211  1.00  0.00    -0.744 OA
ENDBRANCH  47  48
ENDBRANCH  26  40
BRANCH  27  52
ATOM     52  C   UNL A   1      40.524  27.825  29.597  1.00  0.00     0.058 A 
ATOM     53  C   UNL A   1      39.640  26.740  29.506  1.00  0.00     0.135 A 
ATOM     54  C   UNL A   1      41.512  27.950  28.607  1.00  0.00     0.135 A 
ATOM     55  F   UNL A   1      38.680  26.577  30.429  1.00  0.00    -0.206 F 
ATOM     56  C   UNL A   1      39.744  25.802  28.485  1.00  0.00     0.059 A 
ATOM     57  C   UNL A   1      41.613  27.044  27.557  1.00  0.00     0.059 A 
ATOM     58  F   UNL A   1      42.369  28.982  28.637  1.00  0.00    -0.206 F 
ATOM     59  C   UNL A   1      40.732  25.965  27.513  1.00  0.00     0.060 A 
BRANCH  59  60
ATOM     60  S   UNL A   1      40.829  24.765  26.168  1.00  0.00     0.124 S 
ATOM     61  O   UNL A   1      41.211  25.614  25.045  1.00  0.00    -0.237 OA
ATOM     62  O   UNL A   1      41.855  23.846  26.653  1.00  0.00    -0.237 OA
ATOM     63  O   UNL A   1      39.479  24.212  26.113  1.00  0.00    -0.744 OA
ENDBRANCH  59  60
ENDBRANCH  27  52
BRANCH  39  64
ATOM     64  C   UNL A   1      43.811  28.735  35.679  1.00  0.00     0.058 A 
ATOM     65  C   UNL A   1      45.171  29.038  35.509  1.00  0.00     0.135 A 
ATOM     66  C   UNL A   1      43.479  27.681  36.545  1.00  0.00     0.135 A 
ATOM     67  F   UNL A   1      45.545  30.031  34.686  1.00  0.00    -0.206 F 
ATOM     68  C   UNL A   1      46.165  28.298  36.142  1.00  0.00     0.059 A 
ATOM     69  C   UNL A   1      44.455  26.950  37.217  1.00  0.00     0.059 A 
ATOM     70  F   UNL A   1      42.193  27.354  36.754  1.00  0.00    -0.206 F 
ATOM     71  C   UNL A   1      45.796  27.255  36.994  1.00  0.00     0.060 A 
BRANCH  71  72
ATOM     72  S   UNL A   1      47.094  26.310  37.819  1.00  0.00     0.124 S 
ATOM     73  O   UNL A   1      47.159  25.113  36.988  1.00  0.00    -0.237 OA
ATOM     74  O   UNL A   1      48.240  27.209  37.728  1.00  0.00    -0.237 OA
ATOM     75  O   UNL A   1      46.566  26.113  39.166  1.00  0.00    -0.744 OA
ENDBRANCH  71  72
ENDBRANCH  39  64
ENDBRANCH  13  14
ENDBRANCH   6   8
ENDBRANCH   3   4
ENDBRANCH   2   3
ENDBRANCH   1   2
BRANCH   1  76
ATOM     76  C   UNL A   1      32.664  29.776  27.265  1.00  0.00     0.002 C 
BRANCH  76  77
ATOM     77  C   UNL A   1      33.820  28.999  26.636  1.00  0.00     0.021 C 
BRANCH  77  78
ATOM     78  C   UNL A   1      33.354  27.941  25.639  1.00  0.00     0.116 C 
BRANCH  78  79
ATOM     79  N   UNL A   1      32.595  26.891  26.271  1.00  0.00    -0.356 N 
ATOM     80  C   UNL A   1      31.469  26.245  25.890  1.00  0.00     0.223 C 
ATOM     81  H   UNL A   1      32.961  26.589  27.133  1.00  0.00     0.163 HD
ATOM     82  O   UNL A   1      31.055  25.363  26.653  1.00  0.00    -0.275 OA
BRANCH  80  83
ATOM     83  C   UNL A   1      30.701  26.516  24.583  1.00  0.00     0.083 C 
BRANCH  83  84
ATOM     84  C   UNL A   1      30.263  27.988  24.297  1.00  0.00     0.018 C 
BRANCH  84  85
ATOM     85  C   UNL A   1      30.185  28.699  22.922  1.00  0.00     0.036 C 
BRANCH  85  86
ATOM     86  C   UNL A   1      29.415  29.976  22.621  1.00  0.00    -0.048 A 
ATOM     87  C   UNL A   1      28.979  30.369  21.355  1.00  0.00     0.004 A 
ATOM     88  C   UNL A   1      29.239  30.919  23.649  1.00  0.00     0.004 A 
ATOM     89  C   UNL A   1      28.318  31.575  21.114  1.00  0.00     0.000 A 
ATOM     90  C   UNL A   1      28.606  32.149  23.416  1.00  0.00     0.000 A 
ATOM     91  C   UNL A   1      28.127  32.469  22.150  1.00  0.00     0.000 A 
ENDBRANCH  85  86
ENDBRANCH  84  85
ENDBRANCH  83  84
BRANCH  83  92
ATOM     92  C   UNL A   1      31.028  25.680  23.312  1.00  0.00     0.017 C 
ATOM     93  C   UNL A   1      30.675  24.177  23.396  1.00  0.00     0.021 C 
ATOM     94  C   UNL A   1      32.456  25.733  22.756  1.00  0.00     0.141 C 
ATOM     95  C   UNL A   1      31.890  23.372  23.829  1.00  0.00     0.137 C 
ATOM     96  S   UNL A   1      33.322  24.288  23.311  1.00  0.00     0.150 S 
ATOM     97  O   UNL A   1      34.108  24.636  24.478  1.00  0.00    -0.229 OA
ATOM     98  O   UNL A   1      33.908  23.639  22.159  1.00  0.00    -0.229 OA
ENDBRANCH  83  92
ENDBRANCH  80  83
ENDBRANCH  78  79
ENDBRANCH  77  78
ENDBRANCH  76  77
ENDBRANCH   1  76
TORSDOF 20
ENDMDL
MODEL 2
REMARK VINA RESULT:     -11.2      2.909      9.357
REMARK SMILES O=C(NCCCCCCNC(=O)[C@@H](CCc1ccccc1)[C@@H]1CCS(=O)(=O)C1)c1ccc(-c2c3nc(c(-c4c(F)cc(S(=O)(=O)[O-])cc4F)c4ccc([nH]4)c(-c4c(F)cc(S(=O)(=O)[O-])cc4F)c4nc(c(-c5c(F)cc(S(=O)(=O)[O-])cc5F)c5ccc2[nH]5)C=C4)C=C3)cc1
REMARK SMILES IDX 6 1 5 2 4 3 3 4 1 5 2 6 29 8 30 9 94 10 31 11 93 12 32 13
REMARK SMILES IDX 33 14 34 15 87 16 35 17 92 18 86 19 88 20 36 21 91 22 85 23
REMARK SMILES IDX 84 24 37 26 71 27 50 28 70 29 51 30 54 31 69 32 89 33 52 34
REMARK SMILES IDX 53 35 68 37 90 38 55 39 38 40 39 41 48 42 40 43 41 44 47 45
REMARK SMILES IDX 49 46 42 47 43 48 44 49 45 50 46 51 72 52 73 53 82 54 74 55
REMARK SMILES IDX 75 56 81 57 83 58 76 59 77 60 78 61 79 62 80 63 56 64 57 65
REMARK SMILES IDX 66 66 58 67 59 68 65 69 67 70 60 71 61 72 62 73 63 74 64 75
REMARK SMILES IDX 7 76 8 77 9 78 10 79 11 80 12 82 13 83 14 84 15 85 16 86
REMARK SMILES IDX 17 87 21 88 18 89 20 90 19 91 22 92 23 93 28 94 24 95 25 96
REMARK SMILES IDX 26 97 27 98
REMARK H PARENT 3 7 88 25 54 36 10 81
REMARK Flexibility Score: inf
ROOT
ATOM      1  C   UNL A   1      38.071  23.602  26.448  1.00  0.00     0.002 C 
ENDROOT
BRANCH   1   2
ATOM      2  C   UNL A   1      39.276  22.665  26.548  1.00  0.00     0.021 C 
BRANCH   2   3
ATOM      3  C   UNL A   1      40.552  23.332  27.044  1.00  0.00     0.116 C 
BRANCH   3   4
ATOM      4  N   UNL A   1      41.199  24.122  26.005  1.00  0.00    -0.352 N 
ATOM      5  O   UNL A   1      41.873  25.998  24.949  1.00  0.00    -0.269 OA
ATOM      6  C   UNL A   1      41.520  25.457  25.992  1.00  0.00     0.251 C 
ATOM      7  H   UNL A   1      41.443  23.624  25.192  1.00  0.00     0.163 HD
BRANCH   6   8
ATOM      8  C   UNL A   1      41.421  26.236  27.243  1.00  0.00     0.039 A 
ATOM      9  C   UNL A   1      40.378  25.990  28.136  1.00  0.00     0.014 A 
ATOM     10  C   UNL A   1      42.362  27.232  27.514  1.00  0.00     0.014 A 
ATOM     11  C   UNL A   1      40.170  26.854  29.201  1.00  0.00     0.010 A 
ATOM     12  C   UNL A   1      42.213  28.030  28.651  1.00  0.00     0.010 A 
ATOM     13  C   UNL A   1      41.093  27.875  29.483  1.00  0.00    -0.014 A 
BRANCH  13  14
ATOM     14  C   UNL A   1      40.873  28.731  30.677  1.00  0.00     0.031 A 
ATOM     15  C   UNL A   1      41.759  28.623  31.889  1.00  0.00     0.074 A 
ATOM     16  C   UNL A   1      39.884  29.647  30.637  1.00  0.00     0.049 A 
ATOM     17  N   UNL A   1      41.732  29.329  32.991  1.00  0.00    -0.248 NA
ATOM     18  C   UNL A   1      42.804  27.588  31.869  1.00  0.00     0.031 C 
ATOM     19  C   UNL A   1      38.957  29.833  29.517  1.00  0.00     0.029 A 
ATOM     20  N   UNL A   1      39.508  30.607  31.540  1.00  0.00    -0.354 N 
ATOM     21  C   UNL A   1      42.732  28.809  33.806  1.00  0.00     0.074 A 
ATOM     22  C   UNL A   1      43.332  27.710  33.080  1.00  0.00     0.031 C 
ATOM     23  C   UNL A   1      38.163  30.883  29.772  1.00  0.00     0.029 A 
ATOM     24  C   UNL A   1      38.470  31.395  31.101  1.00  0.00     0.049 A 
ATOM     25  H   UNL A   1      39.939  30.722  32.416  1.00  0.00     0.167 HD
ATOM     26  C   UNL A   1      43.115  29.216  35.041  1.00  0.00     0.037 A 
ATOM     27  C   UNL A   1      37.824  32.409  31.705  1.00  0.00     0.037 A 
ATOM     28  C   UNL A   1      42.514  30.322  35.745  1.00  0.00     0.049 A 
ATOM     29  C   UNL A   1      38.255  32.824  33.082  1.00  0.00     0.074 A 
ATOM     30  C   UNL A   1      42.859  30.841  36.982  1.00  0.00     0.029 A 
ATOM     31  N   UNL A   1      41.442  31.072  35.285  1.00  0.00    -0.354 N 
ATOM     32  N   UNL A   1      39.231  32.346  33.819  1.00  0.00    -0.248 NA
ATOM     33  C   UNL A   1      37.500  33.915  33.710  1.00  0.00     0.031 C 
ATOM     34  C   UNL A   1      41.956  31.863  37.295  1.00  0.00     0.029 A 
ATOM     35  C   UNL A   1      41.093  32.031  36.224  1.00  0.00     0.049 A 
ATOM     36  H   UNL A   1      40.993  30.943  34.418  1.00  0.00     0.167 HD
ATOM     37  C   UNL A   1      39.226  33.099  34.986  1.00  0.00     0.074 A 
ATOM     38  C   UNL A   1      38.160  34.072  34.848  1.00  0.00     0.031 C 
ATOM     39  C   UNL A   1      40.032  32.998  36.072  1.00  0.00     0.037 A 
BRANCH  26  40
ATOM     40  C   UNL A   1      44.213  28.446  35.728  1.00  0.00     0.058 A 
ATOM     41  C   UNL A   1      43.944  27.366  36.585  1.00  0.00     0.135 A 
ATOM     42  C   UNL A   1      45.560  28.768  35.490  1.00  0.00     0.135 A 
ATOM     43  F   UNL A   1      42.677  27.019  36.861  1.00  0.00    -0.206 F 
ATOM     44  C   UNL A   1      44.969  26.654  37.203  1.00  0.00     0.059 A 
ATOM     45  C   UNL A   1      46.602  28.051  36.073  1.00  0.00     0.059 A 
ATOM     46  F   UNL A   1      45.878  29.789  34.679  1.00  0.00    -0.206 F 
ATOM     47  C   UNL A   1      46.295  27.004  36.941  1.00  0.00     0.060 A 
BRANCH  47  48
ATOM     48  S   UNL A   1      47.610  26.070  37.753  1.00  0.00     0.124 S 
ATOM     49  O   UNL A   1      47.653  26.711  39.064  1.00  0.00    -0.237 OA
ATOM     50  O   UNL A   1      47.084  24.709  37.730  1.00  0.00    -0.237 OA
ATOM     51  O   UNL A   1      48.772  26.306  36.901  1.00  0.00    -0.744 OA
ENDBRANCH  47  48
ENDBRANCH  26  40
BRANCH  27  52
ATOM     52  C   UNL A   1      36.707  33.099  31.005  1.00  0.00     0.058 A 
ATOM     53  C   UNL A   1      35.375  32.886  31.385  1.00  0.00     0.135 A 
ATOM     54  C   UNL A   1      36.953  34.000  29.957  1.00  0.00     0.135 A 
ATOM     55  F   UNL A   1      35.088  32.033  32.380  1.00  0.00    -0.206 F 
ATOM     56  C   UNL A   1      34.323  33.525  30.738  1.00  0.00     0.059 A 
ATOM     57  C   UNL A   1      35.921  34.677  29.318  1.00  0.00     0.059 A 
ATOM     58  F   UNL A   1      38.213  34.254  29.568  1.00  0.00    -0.206 F 
ATOM     59  C   UNL A   1      34.608  34.422  29.707  1.00  0.00     0.060 A 
BRANCH  59  60
ATOM     60  S   UNL A   1      33.237  35.279  28.904  1.00  0.00     0.124 S 
ATOM     61  O   UNL A   1      32.444  35.704  30.053  1.00  0.00    -0.237 OA
ATOM     62  O   UNL A   1      33.925  36.339  28.174  1.00  0.00    -0.237 OA
ATOM     63  O   UNL A   1      32.635  34.243  28.070  1.00  0.00    -0.744 OA
ENDBRANCH  59  60
ENDBRANCH  27  52
BRANCH  39  64
ATOM     64  C   UNL A   1      39.828  33.999  37.175  1.00  0.00     0.058 A 
ATOM     65  C   UNL A   1      40.479  35.243  37.185  1.00  0.00     0.135 A 
ATOM     66  C   UNL A   1      38.947  33.715  38.232  1.00  0.00     0.135 A 
ATOM     67  F   UNL A   1      41.338  35.564  36.204  1.00  0.00    -0.206 F 
ATOM     68  C   UNL A   1      40.293  36.152  38.222  1.00  0.00     0.059 A 
ATOM     69  C   UNL A   1      38.719  34.623  39.261  1.00  0.00     0.059 A 
ATOM     70  F   UNL A   1      38.289  32.544  38.268  1.00  0.00    -0.206 F 
ATOM     71  C   UNL A   1      39.411  35.832  39.256  1.00  0.00     0.060 A 
BRANCH  71  72
ATOM     72  S   UNL A   1      39.170  37.025  40.589  1.00  0.00     0.124 S 
ATOM     73  O   UNL A   1      38.579  36.188  41.628  1.00  0.00    -0.237 OA
ATOM     74  O   UNL A   1      40.531  37.487  40.844  1.00  0.00    -0.237 OA
ATOM     75  O   UNL A   1      38.278  38.018  39.998  1.00  0.00    -0.744 OA
ENDBRANCH  71  72
ENDBRANCH  39  64
ENDBRANCH  13  14
ENDBRANCH   6   8
ENDBRANCH   3   4
ENDBRANCH   2   3
ENDBRANCH   1   2
BRANCH   1  76
ATOM     76  C   UNL A   1      37.431  23.698  25.057  1.00  0.00     0.002 C 
BRANCH  76  77
ATOM     77  C   UNL A   1      35.910  23.843  25.067  1.00  0.00     0.021 C 
BRANCH  77  78
ATOM     78  C   UNL A   1      35.199  22.714  24.325  1.00  0.00     0.116 C 
BRANCH  78  79
ATOM     79  N   UNL A   1      34.792  23.102  22.998  1.00  0.00    -0.356 N 
ATOM     80  C   UNL A   1      33.590  23.053  22.379  1.00  0.00     0.223 C 
ATOM     81  H   UNL A   1      35.518  23.467  22.442  1.00  0.00     0.163 HD
ATOM     82  O   UNL A   1      33.551  23.480  21.218  1.00  0.00    -0.275 OA
BRANCH  80  83
ATOM     83  C   UNL A   1      32.291  22.536  23.023  1.00  0.00     0.083 C 
BRANCH  83  84
ATOM     84  C   UNL A   1      32.353  21.163  23.766  1.00  0.00     0.018 C 
BRANCH  84  85
ATOM     85  C   UNL A   1      32.242  19.748  23.144  1.00  0.00     0.036 C 
BRANCH  85  86
ATOM     86  C   UNL A   1      32.837  18.471  23.718  1.00  0.00    -0.048 A 
ATOM     87  C   UNL A   1      33.542  17.515  22.985  1.00  0.00     0.004 A 
ATOM     88  C   UNL A   1      32.551  18.131  25.052  1.00  0.00     0.004 A 
ATOM     89  C   UNL A   1      34.029  16.332  23.542  1.00  0.00     0.000 A 
ATOM     90  C   UNL A   1      33.005  16.930  25.617  1.00  0.00     0.000 A 
ATOM     91  C   UNL A   1      33.763  16.038  24.866  1.00  0.00     0.000 A 
ENDBRANCH  85  86
ENDBRANCH  84  85
ENDBRANCH  83  84
BRANCH  83  92
ATOM     92  C   UNL A   1      31.273  23.550  23.621  1.00  0.00     0.017 C 
ATOM     93  C   UNL A   1      31.677  25.038  23.515  1.00  0.00     0.021 C 
ATOM     94  C   UNL A   1      30.817  23.351  25.071  1.00  0.00     0.141 C 
ATOM     95  C   UNL A   1      32.366  25.491  24.794  1.00  0.00     0.137 C 
ATOM     96  S   UNL A   1      31.748  24.456  26.100  1.00  0.00     0.150 S 
ATOM     97  O   UNL A   1      32.854  23.725  26.686  1.00  0.00    -0.229 OA
ATOM     98  O   UNL A   1      30.820  25.216  26.908  1.00  0.00    -0.229 OA
ENDBRANCH  83  92
ENDBRANCH  80  83
ENDBRANCH  78  79
ENDBRANCH  77  78
ENDBRANCH  76  77
ENDBRANCH   1  76
TORSDOF 20
ENDMDL
MODEL 3
REMARK VINA RESULT:     -11.2      4.817     10.187
REMARK SMILES O=C(NCCCCCCNC(=O)[C@@H](CCc1ccccc1)[C@@H]1CCS(=O)(=O)C1)c1ccc(-c2c3nc(c(-c4c(F)cc(S(=O)(=O)[O-])cc4F)c4ccc([nH]4)c(-c4c(F)cc(S(=O)(=O)[O-])cc4F)c4nc(c(-c5c(F)cc(S(=O)(=O)[O-])cc5F)c5ccc2[nH]5)C=C4)C=C3)cc1
REMARK SMILES IDX 6 1 5 2 4 3 3 4 1 5 2 6 29 8 30 9 94 10 31 11 93 12 32 13
REMARK SMILES IDX 33 14 34 15 87 16 35 17 92 18 86 19 88 20 36 21 91 22 85 23
REMARK SMILES IDX 84 24 37 26 71 27 50 28 70 29 51 30 54 31 69 32 89 33 52 34
REMARK SMILES IDX 53 35 68 37 90 38 55 39 38 40 39 41 48 42 40 43 41 44 47 45
REMARK SMILES IDX 49 46 42 47 43 48 44 49 45 50 46 51 72 52 73 53 82 54 74 55
REMARK SMILES IDX 75 56 81 57 83 58 76 59 77 60 78 61 79 62 80 63 56 64 57 65
REMARK SMILES IDX 66 66 58 67 59 68 65 69 67 70 60 71 61 72 62 73 63 74 64 75
REMARK SMILES IDX 7 76 8 77 9 78 10 79 11 80 12 82 13 83 14 84 15 85 16 86
REMARK SMILES IDX 17 87 21 88 18 89 20 90 19 91 22 92 23 93 28 94 24 95 25 96
REMARK SMILES IDX 26 97 27 98
REMARK H PARENT 3 7 88 25 54 36 10 81
REMARK Flexibility Score: inf
ROOT
ATOM      1  C   UNL A   1      32.843  29.561  24.913  1.00  0.00     0.002 C 
ENDROOT
BRANCH   1   2
ATOM      2  C   UNL A   1      33.838  28.509  25.406  1.00  0.00     0.021 C 
BRANCH   2   3
ATOM      3  C   UNL A   1      34.027  28.481  26.916  1.00  0.00     0.116 C 
BRANCH   3   4
ATOM      4  N   UNL A   1      33.865  29.800  27.514  1.00  0.00    -0.352 N 
ATOM      5  O   UNL A   1      34.338  31.517  28.900  1.00  0.00    -0.269 OA
ATOM      6  C   UNL A   1      34.726  30.511  28.315  1.00  0.00     0.251 C 
ATOM      7  H   UNL A   1      33.012  30.249  27.315  1.00  0.00     0.163 HD
BRANCH   6   8
ATOM      8  C   UNL A   1      36.117  30.041  28.474  1.00  0.00     0.039 A 
ATOM      9  C   UNL A   1      36.544  29.529  29.699  1.00  0.00     0.014 A 
ATOM     10  C   UNL A   1      37.006  30.135  27.401  1.00  0.00     0.014 A 
ATOM     11  C   UNL A   1      37.893  29.282  29.906  1.00  0.00     0.010 A 
ATOM     12  C   UNL A   1      38.345  29.778  27.581  1.00  0.00     0.010 A 
ATOM     13  C   UNL A   1      38.809  29.387  28.847  1.00  0.00    -0.014 A 
BRANCH  13  14
ATOM     14  C   UNL A   1      40.232  29.041  29.093  1.00  0.00     0.031 A 
ATOM     15  C   UNL A   1      40.794  27.706  28.682  1.00  0.00     0.074 A 
ATOM     16  C   UNL A   1      41.031  29.971  29.655  1.00  0.00     0.049 A 
ATOM     17  N   UNL A   1      42.024  27.268  28.780  1.00  0.00    -0.248 NA
ATOM     18  C   UNL A   1      39.859  26.735  28.094  1.00  0.00     0.031 C 
ATOM     19  C   UNL A   1      40.592  31.296  30.102  1.00  0.00     0.029 A 
ATOM     20  N   UNL A   1      42.375  29.961  29.922  1.00  0.00    -0.354 N 
ATOM     21  C   UNL A   1      42.007  25.965  28.294  1.00  0.00     0.074 A 
ATOM     22  C   UNL A   1      40.638  25.675  27.924  1.00  0.00     0.031 C 
ATOM     23  C   UNL A   1      41.655  31.993  30.528  1.00  0.00     0.029 A 
ATOM     24  C   UNL A   1      42.836  31.142  30.457  1.00  0.00     0.049 A 
ATOM     25  H   UNL A   1      42.955  29.186  29.746  1.00  0.00     0.167 HD
ATOM     26  C   UNL A   1      43.040  25.096  28.164  1.00  0.00     0.037 A 
ATOM     27  C   UNL A   1      44.068  31.498  30.863  1.00  0.00     0.037 A 
ATOM     28  C   UNL A   1      44.402  25.406  28.526  1.00  0.00     0.049 A 
ATOM     29  C   UNL A   1      45.189  30.507  30.728  1.00  0.00     0.074 A 
ATOM     30  C   UNL A   1      45.528  24.611  28.394  1.00  0.00     0.029 A 
ATOM     31  N   UNL A   1      44.822  26.597  29.100  1.00  0.00    -0.354 N 
ATOM     32  N   UNL A   1      45.161  29.294  30.227  1.00  0.00    -0.248 NA
ATOM     33  C   UNL A   1      46.508  30.932  31.212  1.00  0.00     0.031 C 
ATOM     34  C   UNL A   1      46.615  25.297  28.943  1.00  0.00     0.029 A 
ATOM     35  C   UNL A   1      46.184  26.548  29.353  1.00  0.00     0.049 A 
ATOM     36  H   UNL A   1      44.239  27.366  29.298  1.00  0.00     0.167 HD
ATOM     37  C   UNL A   1      46.465  28.822  30.308  1.00  0.00     0.074 A 
ATOM     38  C   UNL A   1      47.257  29.887  30.892  1.00  0.00     0.031 C 
ATOM     39  C   UNL A   1      46.963  27.618  29.930  1.00  0.00     0.037 A 
BRANCH  26  40
ATOM     40  C   UNL A   1      42.739  23.716  27.640  1.00  0.00     0.058 A 
ATOM     41  C   UNL A   1      42.663  23.439  26.265  1.00  0.00     0.135 A 
ATOM     42  C   UNL A   1      42.568  22.642  28.530  1.00  0.00     0.135 A 
ATOM     43  F   UNL A   1      42.805  24.426  25.366  1.00  0.00    -0.206 F 
ATOM     44  C   UNL A   1      42.398  22.156  25.794  1.00  0.00     0.059 A 
ATOM     45  C   UNL A   1      42.332  21.345  28.081  1.00  0.00     0.059 A 
ATOM     46  F   UNL A   1      42.632  22.845  29.856  1.00  0.00    -0.206 F 
ATOM     47  C   UNL A   1      42.235  21.115  26.710  1.00  0.00     0.060 A 
BRANCH  47  48
ATOM     48  S   UNL A   1      41.891  19.458  26.080  1.00  0.00     0.124 S 
ATOM     49  O   UNL A   1      42.349  18.625  27.188  1.00  0.00    -0.237 OA
ATOM     50  O   UNL A   1      40.446  19.498  25.873  1.00  0.00    -0.237 OA
ATOM     51  O   UNL A   1      42.695  19.381  24.865  1.00  0.00    -0.744 OA
ENDBRANCH  47  48
ENDBRANCH  26  40
BRANCH  27  52
ATOM     52  C   UNL A   1      44.301  32.854  31.428  1.00  0.00     0.058 A 
ATOM     53  C   UNL A   1      44.231  33.083  32.810  1.00  0.00     0.135 A 
ATOM     54  C   UNL A   1      44.617  33.942  30.599  1.00  0.00     0.135 A 
ATOM     55  F   UNL A   1      43.931  32.075  33.643  1.00  0.00    -0.206 F 
ATOM     56  C   UNL A   1      44.446  34.346  33.349  1.00  0.00     0.059 A 
ATOM     57  C   UNL A   1      44.870  35.207  31.118  1.00  0.00     0.059 A 
ATOM     58  F   UNL A   1      44.715  33.772  29.271  1.00  0.00    -0.206 F 
ATOM     59  C   UNL A   1      44.769  35.401  32.494  1.00  0.00     0.060 A 
BRANCH  59  60
ATOM     60  S   UNL A   1      45.089  37.027  33.210  1.00  0.00     0.124 S 
ATOM     61  O   UNL A   1      46.422  37.317  32.694  1.00  0.00    -0.237 OA
ATOM     62  O   UNL A   1      44.000  37.825  32.654  1.00  0.00    -0.237 OA
ATOM     63  O   UNL A   1      45.006  36.784  34.647  1.00  0.00    -0.744 OA
ENDBRANCH  59  60
ENDBRANCH  27  52
BRANCH  39  64
ATOM     64  C   UNL A   1      48.444  27.408  30.087  1.00  0.00     0.058 A 
ATOM     65  C   UNL A   1      49.358  27.756  29.079  1.00  0.00     0.135 A 
ATOM     66  C   UNL A   1      48.958  26.868  31.277  1.00  0.00     0.135 A 
ATOM     67  F   UNL A   1      48.921  28.268  27.918  1.00  0.00    -0.206 F 
ATOM     68  C   UNL A   1      50.724  27.538  29.231  1.00  0.00     0.059 A 
ATOM     69  C   UNL A   1      50.323  26.675  31.465  1.00  0.00     0.059 A 
ATOM     70  F   UNL A   1      48.130  26.527  32.279  1.00  0.00    -0.206 F 
ATOM     71  C   UNL A   1      51.196  26.996  30.429  1.00  0.00     0.060 A 
BRANCH  71  72
ATOM     72  S   UNL A   1      52.972  26.731  30.618  1.00  0.00     0.124 S 
ATOM     73  O   UNL A   1      53.416  28.041  31.082  1.00  0.00    -0.237 OA
ATOM     74  O   UNL A   1      53.023  25.656  31.604  1.00  0.00    -0.237 OA
ATOM     75  O   UNL A   1      53.405  26.361  29.274  1.00  0.00    -0.744 OA
ENDBRANCH  71  72
ENDBRANCH  39  64
ENDBRANCH  13  14
ENDBRANCH   6   8
ENDBRANCH   3   4
ENDBRANCH   2   3
ENDBRANCH   1   2
BRANCH   1  76
ATOM     76  C   UNL A   1      31.425  29.042  24.639  1.00  0.00     0.002 C 
BRANCH  76  77
ATOM     77  C   UNL A   1      30.961  29.199  23.191  1.00  0.00     0.021 C 
BRANCH  77  78
ATOM     78  C   UNL A   1      30.850  27.867  22.454  1.00  0.00     0.116 C 
BRANCH  78  79
ATOM     79  N   UNL A   1      32.139  27.329  22.097  1.00  0.00    -0.356 N 
ATOM     80  C   UNL A   1      32.727  26.146  22.384  1.00  0.00     0.223 C 
ATOM     81  H   UNL A   1      32.691  27.931  21.547  1.00  0.00     0.163 HD
ATOM     82  O   UNL A   1      33.858  25.964  21.916  1.00  0.00    -0.275 OA
BRANCH  80  83
ATOM     83  C   UNL A   1      32.080  25.023  23.217  1.00  0.00     0.083 C 
BRANCH  83  84
ATOM     84  C   UNL A   1      32.488  23.553  22.884  1.00  0.00     0.018 C 
BRANCH  84  85
ATOM     85  C   UNL A   1      33.913  23.010  22.604  1.00  0.00     0.036 C 
BRANCH  85  86
ATOM     86  C   UNL A   1      34.968  22.689  23.652  1.00  0.00    -0.048 A 
ATOM     87  C   UNL A   1      34.969  21.555  24.466  1.00  0.00     0.004 A 
ATOM     88  C   UNL A   1      35.947  23.654  23.945  1.00  0.00     0.004 A 
ATOM     89  C   UNL A   1      35.930  21.323  25.452  1.00  0.00     0.000 A 
ATOM     90  C   UNL A   1      36.900  23.450  24.954  1.00  0.00     0.000 A 
ATOM     91  C   UNL A   1      36.903  22.274  25.696  1.00  0.00     0.000 A 
ENDBRANCH  85  86
ENDBRANCH  84  85
ENDBRANCH  83  84
BRANCH  83  92
ATOM     92  C   UNL A   1      31.737  25.277  24.713  1.00  0.00     0.017 C 
ATOM     93  C   UNL A   1      32.922  25.153  25.697  1.00  0.00     0.021 C 
ATOM     94  C   UNL A   1      30.596  24.470  25.343  1.00  0.00     0.141 C 
ATOM     95  C   UNL A   1      32.970  23.754  26.294  1.00  0.00     0.137 C 
ATOM     96  S   UNL A   1      31.307  23.128  26.259  1.00  0.00     0.150 S 
ATOM     97  O   UNL A   1      31.270  21.933  25.440  1.00  0.00    -0.229 OA
ATOM     98  O   UNL A   1      30.764  23.153  27.599  1.00  0.00    -0.229 OA
ENDBRANCH  83  92
ENDBRANCH  80  83
ENDBRANCH  78  79
ENDBRANCH  77  78
ENDBRANCH  76  77
ENDBRANCH   1  76
TORSDOF 20
ENDMDL
