MODEL 1
REMARK VINA RESULT:     -12.7      0.000      0.000
REMARK SMILES Cc1ccn2c([C@@H]3CCCC[C@@H]3C(=O)NCCCCCCNC(=O)c3ccc(-c4c5nc(c(-c6c(F)cc(S(=O)(=O)[O-])cc6F)c6ccc([nH]6)c(-c6c(F)cc(S(=O)(=O)[O-])cc6F)c6nc(c(-c7c(F)cc(S(=O)(=O)[O-])cc7F)c7ccc4[nH]7)C=C6)C=C5)cc3)nnc2c1
REMARK SMILES IDX 19 1 18 2 17 3 16 4 15 5 13 6 14 7 12 9 7 10 8 11 9 12 11 13
REMARK SMILES IDX 10 14 6 15 1 16 2 17 3 18 94 19 4 20 93 21 5 22 92 23 91 24
REMARK SMILES IDX 20 25 21 26 22 27 23 28 24 30 25 31 26 32 90 33 27 34 89 35
REMARK SMILES IDX 28 36 29 37 30 38 83 39 31 40 88 41 82 42 84 43 32 44 87 45
REMARK SMILES IDX 81 46 80 47 33 49 67 50 46 51 66 52 47 53 50 54 65 55 85 56
REMARK SMILES IDX 48 57 49 58 64 60 86 61 51 62 34 63 35 64 44 65 36 66 37 67
REMARK SMILES IDX 43 68 45 69 38 70 39 71 40 72 41 73 42 74 68 75 69 76 78 77
REMARK SMILES IDX 70 78 71 79 77 80 79 81 72 82 73 83 74 84 75 85 76 86 52 87
REMARK SMILES IDX 53 88 62 89 54 90 55 91 61 92 63 93 56 94 57 95 58 96 59 97
REMARK SMILES IDX 60 98
REMARK H PARENT 15 8 22 29 84 48 50 59
REMARK Flexibility Score: inf
ROOT
ATOM      1  C   UNL A   1      40.985  21.209  27.166  1.00  0.00     0.002 C 
ENDROOT
BRANCH   1   2
ATOM      2  C   UNL A   1      39.870  22.164  26.712  1.00  0.00     0.002 C 
BRANCH   2   3
ATOM      3  C   UNL A   1      38.762  21.558  25.847  1.00  0.00     0.021 C 
BRANCH   3   4
ATOM      4  C   UNL A   1      37.627  22.518  25.549  1.00  0.00     0.116 C 
BRANCH   4   5
ATOM      5  N   UNL A   1      36.438  22.229  26.319  1.00  0.00    -0.356 N 
ATOM      6  C   UNL A   1      35.309  21.527  26.071  1.00  0.00     0.223 C 
ATOM      7  O   UNL A   1      34.543  21.407  27.037  1.00  0.00    -0.275 OA
ATOM      8  H   UNL A   1      36.454  22.629  27.219  1.00  0.00     0.163 HD
BRANCH   6   9
ATOM      9  C   UNL A   1      34.893  20.927  24.721  1.00  0.00     0.089 C 
ATOM     10  C   UNL A   1      33.688  21.480  23.947  1.00  0.00     0.071 C 
ATOM     11  C   UNL A   1      32.339  20.914  24.372  1.00  0.00     0.012 C 
ATOM     12  C   UNL A   1      32.349  19.374  24.410  1.00  0.00     0.001 C 
ATOM     13  C   UNL A   1      34.913  19.390  24.711  1.00  0.00     0.014 C 
ATOM     14  C   UNL A   1      33.588  18.699  25.010  1.00  0.00     0.001 C 
BRANCH  10  15
ATOM     15  C   UNL A   1      33.717  22.954  23.624  1.00  0.00     0.141 A 
ATOM     16  C   UNL A   1      32.925  27.808  26.317  1.00  0.00     0.044 C 
ATOM     17  C   UNL A   1      33.068  26.518  25.567  1.00  0.00    -0.046 A 
ATOM     18  C   UNL A   1      32.610  25.319  26.259  1.00  0.00     0.022 A 
ATOM     19  C   UNL A   1      33.578  26.432  24.319  1.00  0.00     0.053 A 
ATOM     20  C   UNL A   1      32.749  24.128  25.658  1.00  0.00     0.095 A 
ATOM     21  C   UNL A   1      33.734  25.158  23.696  1.00  0.00     0.161 A 
ATOM     22  N   UNL A   1      33.348  24.033  24.412  1.00  0.00    -0.286 N 
ATOM     23  N   UNL A   1      34.208  24.794  22.528  1.00  0.00    -0.130 NA
ATOM     24  N   UNL A   1      34.194  23.423  22.480  1.00  0.00    -0.134 NA
ENDBRANCH  10  15
ENDBRANCH   6   9
ENDBRANCH   4   5
ENDBRANCH   3   4
ENDBRANCH   2   3
ENDBRANCH   1   2
BRANCH   1  25
ATOM     25  C   UNL A   1      41.181  19.936  26.333  1.00  0.00     0.021 C 
BRANCH  25  26
ATOM     26  C   UNL A   1      42.593  19.347  26.350  1.00  0.00     0.116 C 
BRANCH  26  27
ATOM     27  N   UNL A   1      43.375  19.634  25.171  1.00  0.00    -0.352 N 
ATOM     28  C   UNL A   1      44.060  20.724  24.709  1.00  0.00     0.251 C 
ATOM     29  H   UNL A   1      43.428  18.866  24.558  1.00  0.00     0.163 HD
ATOM     30  O   UNL A   1      44.664  20.577  23.654  1.00  0.00    -0.269 OA
BRANCH  28  31
ATOM     31  C   UNL A   1      44.061  22.054  25.375  1.00  0.00     0.039 A 
ATOM     32  C   UNL A   1      44.818  22.401  26.494  1.00  0.00     0.014 A 
ATOM     33  C   UNL A   1      43.200  23.017  24.819  1.00  0.00     0.014 A 
ATOM     34  C   UNL A   1      44.638  23.628  27.118  1.00  0.00     0.010 A 
ATOM     35  C   UNL A   1      43.047  24.263  25.414  1.00  0.00     0.010 A 
ATOM     36  C   UNL A   1      43.725  24.542  26.599  1.00  0.00    -0.014 A 
BRANCH  36  37
ATOM     37  C   UNL A   1      43.534  25.786  27.338  1.00  0.00     0.031 A 
ATOM     38  C   UNL A   1      44.566  26.852  27.145  1.00  0.00     0.074 A 
ATOM     39  C   UNL A   1      42.426  26.003  28.072  1.00  0.00     0.049 A 
ATOM     40  N   UNL A   1      45.252  27.497  28.036  1.00  0.00    -0.248 NA
ATOM     41  C   UNL A   1      44.917  27.198  25.758  1.00  0.00     0.031 C 
ATOM     42  C   UNL A   1      41.210  25.187  28.135  1.00  0.00     0.029 A 
ATOM     43  N   UNL A   1      42.112  27.087  28.831  1.00  0.00    -0.354 N 
ATOM     44  C   UNL A   1      46.007  28.443  27.338  1.00  0.00     0.074 A 
ATOM     45  C   UNL A   1      45.836  28.147  25.938  1.00  0.00     0.031 C 
ATOM     46  C   UNL A   1      40.217  25.920  28.684  1.00  0.00     0.029 A 
ATOM     47  C   UNL A   1      40.763  27.192  29.123  1.00  0.00     0.049 A 
ATOM     48  H   UNL A   1      42.783  27.738  29.144  1.00  0.00     0.167 HD
ATOM     49  C   UNL A   1      46.620  29.503  27.936  1.00  0.00     0.037 A 
ATOM     50  C   UNL A   1      40.129  28.297  29.582  1.00  0.00     0.037 A 
ATOM     51  C   UNL A   1      46.773  29.316  29.351  1.00  0.00     0.049 A 
ATOM     52  C   UNL A   1      41.153  29.175  30.204  1.00  0.00     0.074 A 
ATOM     53  C   UNL A   1      47.483  28.437  30.145  1.00  0.00     0.029 A 
ATOM     54  N   UNL A   1      45.894  29.945  30.196  1.00  0.00    -0.354 N 
ATOM     55  N   UNL A   1      41.823  28.878  31.285  1.00  0.00    -0.248 NA
ATOM     56  C   UNL A   1      41.723  30.243  29.398  1.00  0.00     0.031 C 
ATOM     57  C   UNL A   1      46.676  28.241  31.302  1.00  0.00     0.029 A 
ATOM     58  C   UNL A   1      45.532  29.025  31.150  1.00  0.00     0.049 A 
ATOM     59  H   UNL A   1      45.581  30.876  30.131  1.00  0.00     0.167 HD
ATOM     60  C   UNL A   1      43.082  29.426  31.092  1.00  0.00     0.074 A 
ATOM     61  C   UNL A   1      42.925  30.345  29.970  1.00  0.00     0.031 C 
ATOM     62  C   UNL A   1      44.192  28.891  31.682  1.00  0.00     0.037 A 
BRANCH  49  63
ATOM     63  C   UNL A   1      46.872  30.830  27.261  1.00  0.00     0.058 A 
ATOM     64  C   UNL A   1      48.172  31.377  27.219  1.00  0.00     0.135 A 
ATOM     65  C   UNL A   1      45.830  31.704  26.876  1.00  0.00     0.135 A 
ATOM     66  F   UNL A   1      49.235  30.642  27.581  1.00  0.00    -0.206 F 
ATOM     67  C   UNL A   1      48.412  32.708  26.867  1.00  0.00     0.059 A 
ATOM     68  C   UNL A   1      46.052  33.017  26.472  1.00  0.00     0.059 A 
ATOM     69  F   UNL A   1      44.542  31.346  26.966  1.00  0.00    -0.206 F 
ATOM     70  C   UNL A   1      47.341  33.524  26.511  1.00  0.00     0.060 A 
BRANCH  70  71
ATOM     71  S   UNL A   1      47.632  35.272  26.176  1.00  0.00     0.124 S 
ATOM     72  O   UNL A   1      48.420  35.206  24.950  1.00  0.00    -0.237 OA
ATOM     73  O   UNL A   1      46.274  35.787  26.036  1.00  0.00    -0.237 OA
ATOM     74  O   UNL A   1      48.349  35.727  27.364  1.00  0.00    -0.744 OA
ENDBRANCH  70  71
ENDBRANCH  49  63
BRANCH  50  75
ATOM     75  C   UNL A   1      38.806  28.800  29.125  1.00  0.00     0.058 A 
ATOM     76  C   UNL A   1      37.749  28.966  30.035  1.00  0.00     0.135 A 
ATOM     77  C   UNL A   1      38.633  29.391  27.855  1.00  0.00     0.135 A 
ATOM     78  F   UNL A   1      37.839  28.456  31.273  1.00  0.00    -0.206 F 
ATOM     79  C   UNL A   1      36.613  29.720  29.725  1.00  0.00     0.059 A 
ATOM     80  C   UNL A   1      37.503  30.129  27.517  1.00  0.00     0.059 A 
ATOM     81  F   UNL A   1      39.602  29.356  26.929  1.00  0.00    -0.206 F 
ATOM     82  C   UNL A   1      36.510  30.318  28.469  1.00  0.00     0.060 A 
BRANCH  82  83
ATOM     83  S   UNL A   1      35.145  31.450  28.132  1.00  0.00     0.124 S 
ATOM     84  O   UNL A   1      34.613  31.686  29.469  1.00  0.00    -0.237 OA
ATOM     85  O   UNL A   1      35.832  32.577  27.510  1.00  0.00    -0.237 OA
ATOM     86  O   UNL A   1      34.279  30.682  27.240  1.00  0.00    -0.744 OA
ENDBRANCH  82  83
ENDBRANCH  50  75
BRANCH  62  87
ATOM     87  C   UNL A   1      43.992  27.867  32.772  1.00  0.00     0.058 A 
ATOM     88  C   UNL A   1      43.943  26.481  32.539  1.00  0.00     0.135 A 
ATOM     89  C   UNL A   1      43.999  28.288  34.110  1.00  0.00     0.135 A 
ATOM     90  F   UNL A   1      44.051  25.988  31.299  1.00  0.00    -0.206 F 
ATOM     91  C   UNL A   1      43.851  25.560  33.582  1.00  0.00     0.059 A 
ATOM     92  C   UNL A   1      43.943  27.384  35.171  1.00  0.00     0.059 A 
ATOM     93  F   UNL A   1      44.118  29.593  34.405  1.00  0.00    -0.206 F 
ATOM     94  C   UNL A   1      43.854  26.020  34.897  1.00  0.00     0.060 A 
BRANCH  94  95
ATOM     95  S   UNL A   1      43.826  24.812  36.241  1.00  0.00     0.124 S 
ATOM     96  O   UNL A   1      42.909  23.802  35.726  1.00  0.00    -0.237 OA
ATOM     97  O   UNL A   1      45.228  24.408  36.331  1.00  0.00    -0.237 OA
ATOM     98  O   UNL A   1      43.334  25.583  37.380  1.00  0.00    -0.744 OA
ENDBRANCH  94  95
ENDBRANCH  62  87
ENDBRANCH  36  37
ENDBRANCH  28  31
ENDBRANCH  26  27
ENDBRANCH  25  26
ENDBRANCH   1  25
TORSDOF 17
ENDMDL
MODEL 2
REMARK VINA RESULT:     -12.7      1.794      2.323
REMARK SMILES Cc1ccn2c([C@@H]3CCCC[C@@H]3C(=O)NCCCCCCNC(=O)c3ccc(-c4c5nc(c(-c6c(F)cc(S(=O)(=O)[O-])cc6F)c6ccc([nH]6)c(-c6c(F)cc(S(=O)(=O)[O-])cc6F)c6nc(c(-c7c(F)cc(S(=O)(=O)[O-])cc7F)c7ccc4[nH]7)C=C6)C=C5)cc3)nnc2c1
REMARK SMILES IDX 19 1 18 2 17 3 16 4 15 5 13 6 14 7 12 9 7 10 8 11 9 12 11 13
REMARK SMILES IDX 10 14 6 15 1 16 2 17 3 18 94 19 4 20 93 21 5 22 92 23 91 24
REMARK SMILES IDX 20 25 21 26 22 27 23 28 24 30 25 31 26 32 90 33 27 34 89 35
REMARK SMILES IDX 28 36 29 37 30 38 83 39 31 40 88 41 82 42 84 43 32 44 87 45
REMARK SMILES IDX 81 46 80 47 33 49 67 50 46 51 66 52 47 53 50 54 65 55 85 56
REMARK SMILES IDX 48 57 49 58 64 60 86 61 51 62 34 63 35 64 44 65 36 66 37 67
REMARK SMILES IDX 43 68 45 69 38 70 39 71 40 72 41 73 42 74 68 75 69 76 78 77
REMARK SMILES IDX 70 78 71 79 77 80 79 81 72 82 73 83 74 84 75 85 76 86 52 87
REMARK SMILES IDX 53 88 62 89 54 90 55 91 61 92 63 93 56 94 57 95 58 96 59 97
REMARK SMILES IDX 60 98
REMARK H PARENT 15 8 22 29 84 48 50 59
REMARK Flexibility Score: inf
ROOT
ATOM      1  C   UNL A   1      39.432  21.513  25.873  1.00  0.00     0.002 C 
ENDROOT
BRANCH   1   2
ATOM      2  C   UNL A   1      39.369  22.708  26.836  1.00  0.00     0.002 C 
BRANCH   2   3
ATOM      3  C   UNL A   1      38.460  23.870  26.424  1.00  0.00     0.021 C 
BRANCH   3   4
ATOM      4  C   UNL A   1      37.265  23.443  25.594  1.00  0.00     0.116 C 
BRANCH   4   5
ATOM      5  N   UNL A   1      36.215  22.852  26.394  1.00  0.00    -0.356 N 
ATOM      6  C   UNL A   1      35.269  21.917  26.153  1.00  0.00     0.223 C 
ATOM      7  O   UNL A   1      34.601  21.582  27.141  1.00  0.00    -0.275 OA
ATOM      8  H   UNL A   1      36.183  23.207  27.312  1.00  0.00     0.163 HD
BRANCH   6   9
ATOM      9  C   UNL A   1      34.936  21.294  24.792  1.00  0.00     0.089 C 
ATOM     10  C   UNL A   1      33.759  21.810  23.951  1.00  0.00     0.071 C 
ATOM     11  C   UNL A   1      32.404  21.217  24.314  1.00  0.00     0.012 C 
ATOM     12  C   UNL A   1      32.447  19.679  24.370  1.00  0.00     0.001 C 
ATOM     13  C   UNL A   1      34.991  19.757  24.801  1.00  0.00     0.014 C 
ATOM     14  C   UNL A   1      33.669  19.039  25.040  1.00  0.00     0.001 C 
BRANCH  10  15
ATOM     15  C   UNL A   1      33.771  23.280  23.613  1.00  0.00     0.141 A 
ATOM     16  C   UNL A   1      33.342  28.167  26.329  1.00  0.00     0.044 C 
ATOM     17  C   UNL A   1      33.385  26.869  25.580  1.00  0.00    -0.046 A 
ATOM     18  C   UNL A   1      32.990  25.682  26.330  1.00  0.00     0.022 A 
ATOM     19  C   UNL A   1      33.753  26.765  24.284  1.00  0.00     0.053 A 
ATOM     20  C   UNL A   1      33.048  24.484  25.729  1.00  0.00     0.095 A 
ATOM     21  C   UNL A   1      33.824  25.485  23.661  1.00  0.00     0.161 A 
ATOM     22  N   UNL A   1      33.504  24.370  24.425  1.00  0.00    -0.286 N 
ATOM     23  N   UNL A   1      34.162  25.105  22.451  1.00  0.00    -0.130 NA
ATOM     24  N   UNL A   1      34.125  23.733  22.418  1.00  0.00    -0.134 NA
ENDBRANCH  10  15
ENDBRANCH   6   9
ENDBRANCH   4   5
ENDBRANCH   3   4
ENDBRANCH   2   3
ENDBRANCH   1   2
BRANCH   1  25
ATOM     25  C   UNL A   1      40.437  20.405  26.215  1.00  0.00     0.021 C 
BRANCH  25  26
ATOM     26  C   UNL A   1      41.848  20.879  26.568  1.00  0.00     0.116 C 
BRANCH  26  27
ATOM     27  N   UNL A   1      42.564  21.493  25.475  1.00  0.00    -0.352 N 
ATOM     28  C   UNL A   1      42.939  22.771  25.163  1.00  0.00     0.251 C 
ATOM     29  H   UNL A   1      42.850  20.839  24.797  1.00  0.00     0.163 HD
ATOM     30  O   UNL A   1      43.599  22.908  24.140  1.00  0.00    -0.269 OA
BRANCH  28  31
ATOM     31  C   UNL A   1      42.549  23.972  25.950  1.00  0.00     0.039 A 
ATOM     32  C   UNL A   1      41.868  25.082  25.452  1.00  0.00     0.014 A 
ATOM     33  C   UNL A   1      42.933  23.967  27.302  1.00  0.00     0.014 A 
ATOM     34  C   UNL A   1      41.677  26.208  26.241  1.00  0.00     0.010 A 
ATOM     35  C   UNL A   1      42.707  25.075  28.110  1.00  0.00     0.010 A 
ATOM     36  C   UNL A   1      42.131  26.217  27.557  1.00  0.00    -0.014 A 
BRANCH  36  37
ATOM     37  C   UNL A   1      41.960  27.453  28.314  1.00  0.00     0.031 A 
ATOM     38  C   UNL A   1      43.048  28.473  28.196  1.00  0.00     0.074 A 
ATOM     39  C   UNL A   1      40.828  27.707  28.999  1.00  0.00     0.049 A 
ATOM     40  N   UNL A   1      43.718  29.066  29.134  1.00  0.00    -0.248 NA
ATOM     41  C   UNL A   1      43.483  28.830  26.837  1.00  0.00     0.031 C 
ATOM     42  C   UNL A   1      39.574  26.947  28.984  1.00  0.00     0.029 A 
ATOM     43  N   UNL A   1      40.527  28.788  29.766  1.00  0.00    -0.354 N 
ATOM     44  C   UNL A   1      44.549  29.990  28.495  1.00  0.00     0.074 A 
ATOM     45  C   UNL A   1      44.434  29.731  27.082  1.00  0.00     0.031 C 
ATOM     46  C   UNL A   1      38.590  27.715  29.500  1.00  0.00     0.029 A 
ATOM     47  C   UNL A   1      39.170  28.950  29.994  1.00  0.00     0.049 A 
ATOM     48  H   UNL A   1      41.210  29.400  30.125  1.00  0.00     0.167 HD
ATOM     49  C   UNL A   1      45.179  31.008  29.147  1.00  0.00     0.037 A 
ATOM     50  C   UNL A   1      38.566  30.074  30.446  1.00  0.00     0.037 A 
ATOM     51  C   UNL A   1      45.253  30.785  30.563  1.00  0.00     0.049 A 
ATOM     52  C   UNL A   1      39.598  30.890  31.138  1.00  0.00     0.074 A 
ATOM     53  C   UNL A   1      45.882  29.858  31.370  1.00  0.00     0.029 A 
ATOM     54  N   UNL A   1      44.363  31.437  31.378  1.00  0.00    -0.354 N 
ATOM     55  N   UNL A   1      40.198  30.540  32.243  1.00  0.00    -0.248 NA
ATOM     56  C   UNL A   1      40.255  31.947  30.385  1.00  0.00     0.031 C 
ATOM     57  C   UNL A   1      45.010  29.676  32.482  1.00  0.00     0.029 A 
ATOM     58  C   UNL A   1      43.913  30.516  32.292  1.00  0.00     0.049 A 
ATOM     59  H   UNL A   1      44.096  32.383  31.319  1.00  0.00     0.167 HD
ATOM     60  C   UNL A   1      41.489  31.033  32.124  1.00  0.00     0.074 A 
ATOM     61  C   UNL A   1      41.430  31.981  31.017  1.00  0.00     0.031 C 
ATOM     62  C   UNL A   1      42.543  30.434  32.755  1.00  0.00     0.037 A 
BRANCH  49  63
ATOM     63  C   UNL A   1      45.526  32.335  28.516  1.00  0.00     0.058 A 
ATOM     64  C   UNL A   1      46.872  32.731  28.372  1.00  0.00     0.135 A 
ATOM     65  C   UNL A   1      44.565  33.344  28.278  1.00  0.00     0.135 A 
ATOM     66  F   UNL A   1      47.868  31.859  28.592  1.00  0.00    -0.206 F 
ATOM     67  C   UNL A   1      47.236  34.045  28.063  1.00  0.00     0.059 A 
ATOM     68  C   UNL A   1      44.904  34.645  27.918  1.00  0.00     0.059 A 
ATOM     69  F   UNL A   1      43.257  33.132  28.477  1.00  0.00    -0.206 F 
ATOM     70  C   UNL A   1      46.243  34.998  27.854  1.00  0.00     0.060 A 
BRANCH  70  71
ATOM     71  S   UNL A   1      46.709  36.718  27.577  1.00  0.00     0.124 S 
ATOM     72  O   UNL A   1      47.728  36.911  28.602  1.00  0.00    -0.237 OA
ATOM     73  O   UNL A   1      47.186  36.688  26.199  1.00  0.00    -0.237 OA
ATOM     74  O   UNL A   1      45.459  37.443  27.785  1.00  0.00    -0.744 OA
ENDBRANCH  70  71
ENDBRANCH  49  63
BRANCH  50  75
ATOM     75  C   UNL A   1      37.292  30.648  29.937  1.00  0.00     0.058 A 
ATOM     76  C   UNL A   1      36.378  31.255  30.814  1.00  0.00     0.135 A 
ATOM     77  C   UNL A   1      37.072  30.864  28.560  1.00  0.00     0.135 A 
ATOM     78  F   UNL A   1      36.526  31.121  32.141  1.00  0.00    -0.206 F 
ATOM     79  C   UNL A   1      35.342  32.075  30.357  1.00  0.00     0.059 A 
ATOM     80  C   UNL A   1      36.035  31.660  28.080  1.00  0.00     0.059 A 
ATOM     81  F   UNL A   1      37.917  30.392  27.633  1.00  0.00    -0.206 F 
ATOM     82  C   UNL A   1      35.193  32.290  28.987  1.00  0.00     0.060 A 
BRANCH  82  83
ATOM     83  S   UNL A   1      33.985  33.498  28.402  1.00  0.00     0.124 S 
ATOM     84  O   UNL A   1      34.803  34.351  27.548  1.00  0.00    -0.237 OA
ATOM     85  O   UNL A   1      33.015  32.649  27.717  1.00  0.00    -0.237 OA
ATOM     86  O   UNL A   1      33.504  34.121  29.632  1.00  0.00    -0.744 OA
ENDBRANCH  82  83
ENDBRANCH  50  75
BRANCH  62  87
ATOM     87  C   UNL A   1      42.242  29.399  33.811  1.00  0.00     0.058 A 
ATOM     88  C   UNL A   1      42.048  28.034  33.530  1.00  0.00     0.135 A 
ATOM     89  C   UNL A   1      42.299  29.769  35.162  1.00  0.00     0.135 A 
ATOM     90  F   UNL A   1      42.099  27.577  32.272  1.00  0.00    -0.206 F 
ATOM     91  C   UNL A   1      41.866  27.091  34.541  1.00  0.00     0.059 A 
ATOM     92  C   UNL A   1      42.154  28.838  36.191  1.00  0.00     0.059 A 
ATOM     93  F   UNL A   1      42.554  31.043  35.501  1.00  0.00    -0.206 F 
ATOM     94  C   UNL A   1      41.922  27.501  35.871  1.00  0.00     0.060 A 
BRANCH  94  95
ATOM     95  S   UNL A   1      41.774  26.257  37.172  1.00  0.00     0.124 S 
ATOM     96  O   UNL A   1      40.469  26.566  37.745  1.00  0.00    -0.237 OA
ATOM     97  O   UNL A   1      41.856  25.005  36.423  1.00  0.00    -0.237 OA
ATOM     98  O   UNL A   1      42.919  26.531  38.037  1.00  0.00    -0.744 OA
ENDBRANCH  94  95
ENDBRANCH  62  87
ENDBRANCH  36  37
ENDBRANCH  28  31
ENDBRANCH  26  27
ENDBRANCH  25  26
ENDBRANCH   1  25
TORSDOF 17
ENDMDL
MODEL 3
REMARK VINA RESULT:     -12.4      3.084      9.544
REMARK SMILES Cc1ccn2c([C@@H]3CCCC[C@@H]3C(=O)NCCCCCCNC(=O)c3ccc(-c4c5nc(c(-c6c(F)cc(S(=O)(=O)[O-])cc6F)c6ccc([nH]6)c(-c6c(F)cc(S(=O)(=O)[O-])cc6F)c6nc(c(-c7c(F)cc(S(=O)(=O)[O-])cc7F)c7ccc4[nH]7)C=C6)C=C5)cc3)nnc2c1
REMARK SMILES IDX 19 1 18 2 17 3 16 4 15 5 13 6 14 7 12 9 7 10 8 11 9 12 11 13
REMARK SMILES IDX 10 14 6 15 1 16 2 17 3 18 94 19 4 20 93 21 5 22 92 23 91 24
REMARK SMILES IDX 20 25 21 26 22 27 23 28 24 30 25 31 26 32 90 33 27 34 89 35
REMARK SMILES IDX 28 36 29 37 30 38 83 39 31 40 88 41 82 42 84 43 32 44 87 45
REMARK SMILES IDX 81 46 80 47 33 49 67 50 46 51 66 52 47 53 50 54 65 55 85 56
REMARK SMILES IDX 48 57 49 58 64 60 86 61 51 62 34 63 35 64 44 65 36 66 37 67
REMARK SMILES IDX 43 68 45 69 38 70 39 71 40 72 41 73 42 74 68 75 69 76 78 77
REMARK SMILES IDX 70 78 71 79 77 80 79 81 72 82 73 83 74 84 75 85 76 86 52 87
REMARK SMILES IDX 53 88 62 89 54 90 55 91 61 92 63 93 56 94 57 95 58 96 59 97
REMARK SMILES IDX 60 98
REMARK H PARENT 15 8 22 29 84 48 50 59
REMARK Flexibility Score: inf
ROOT
ATOM      1  C   UNL A   1      35.717  32.296  28.009  1.00  0.00     0.002 C 
ENDROOT
BRANCH   1   2
ATOM      2  C   UNL A   1      35.502  30.787  27.816  1.00  0.00     0.002 C 
BRANCH   2   3
ATOM      3  C   UNL A   1      34.119  30.352  27.323  1.00  0.00     0.021 C 
BRANCH   3   4
ATOM      4  C   UNL A   1      34.098  28.963  26.716  1.00  0.00     0.116 C 
BRANCH   4   5
ATOM      5  N   UNL A   1      33.981  28.988  25.275  1.00  0.00    -0.356 N 
ATOM      6  C   UNL A   1      32.933  29.019  24.421  1.00  0.00     0.223 C 
ATOM      7  O   UNL A   1      33.234  29.148  23.226  1.00  0.00    -0.275 OA
ATOM      8  H   UNL A   1      34.853  28.982  24.816  1.00  0.00     0.163 HD
BRANCH   6   9
ATOM      9  C   UNL A   1      31.454  28.865  24.796  1.00  0.00     0.089 C 
ATOM     10  C   UNL A   1      30.739  27.512  24.663  1.00  0.00     0.071 C 
ATOM     11  C   UNL A   1      30.198  27.208  23.273  1.00  0.00     0.012 C 
ATOM     12  C   UNL A   1      29.350  28.368  22.720  1.00  0.00     0.001 C 
ATOM     13  C   UNL A   1      30.577  30.018  24.281  1.00  0.00     0.014 C 
ATOM     14  C   UNL A   1      29.881  29.789  22.945  1.00  0.00     0.001 C 
BRANCH  10  15
ATOM     15  C   UNL A   1      31.359  26.352  25.403  1.00  0.00     0.141 A 
ATOM     16  C   UNL A   1      36.076  23.329  25.178  1.00  0.00     0.044 C 
ATOM     17  C   UNL A   1      34.778  24.080  25.205  1.00  0.00    -0.046 A 
ATOM     18  C   UNL A   1      34.497  24.917  24.044  1.00  0.00     0.022 A 
ATOM     19  C   UNL A   1      33.892  24.005  26.221  1.00  0.00     0.053 A 
ATOM     20  C   UNL A   1      33.373  25.647  24.025  1.00  0.00     0.095 A 
ATOM     21  C   UNL A   1      32.706  24.797  26.197  1.00  0.00     0.161 A 
ATOM     22  N   UNL A   1      32.504  25.632  25.106  1.00  0.00    -0.286 N 
ATOM     23  N   UNL A   1      31.711  24.930  27.041  1.00  0.00    -0.130 NA
ATOM     24  N   UNL A   1      30.868  25.893  26.546  1.00  0.00    -0.134 NA
ENDBRANCH  10  15
ENDBRANCH   6   9
ENDBRANCH   4   5
ENDBRANCH   3   4
ENDBRANCH   2   3
ENDBRANCH   1   2
BRANCH   1  25
ATOM     25  C   UNL A   1      34.456  33.167  28.078  1.00  0.00     0.021 C 
BRANCH  25  26
ATOM     26  C   UNL A   1      34.534  34.368  29.022  1.00  0.00     0.116 C 
BRANCH  26  27
ATOM     27  N   UNL A   1      34.057  34.111  30.360  1.00  0.00    -0.352 N 
ATOM     28  C   UNL A   1      34.572  33.491  31.465  1.00  0.00     0.251 C 
ATOM     29  H   UNL A   1      33.151  34.463  30.511  1.00  0.00     0.163 HD
ATOM     30  O   UNL A   1      33.872  33.507  32.471  1.00  0.00    -0.269 OA
BRANCH  28  31
ATOM     31  C   UNL A   1      35.874  32.773  31.491  1.00  0.00     0.039 A 
ATOM     32  C   UNL A   1      37.131  33.370  31.401  1.00  0.00     0.014 A 
ATOM     33  C   UNL A   1      35.798  31.373  31.595  1.00  0.00     0.014 A 
ATOM     34  C   UNL A   1      38.277  32.593  31.295  1.00  0.00     0.010 A 
ATOM     35  C   UNL A   1      36.945  30.591  31.533  1.00  0.00     0.010 A 
ATOM     36  C   UNL A   1      38.179  31.205  31.323  1.00  0.00    -0.014 A 
BRANCH  36  37
ATOM     37  C   UNL A   1      39.411  30.444  31.141  1.00  0.00     0.031 A 
ATOM     38  C   UNL A   1      40.236  30.191  32.363  1.00  0.00     0.074 A 
ATOM     39  C   UNL A   1      39.735  29.906  29.950  1.00  0.00     0.049 A 
ATOM     40  N   UNL A   1      41.493  30.433  32.567  1.00  0.00    -0.248 NA
ATOM     41  C   UNL A   1      39.537  29.647  33.539  1.00  0.00     0.031 C 
ATOM     42  C   UNL A   1      38.908  29.823  28.741  1.00  0.00     0.029 A 
ATOM     43  N   UNL A   1      40.847  29.200  29.614  1.00  0.00    -0.354 N 
ATOM     44  C   UNL A   1      41.788  29.926  33.835  1.00  0.00     0.074 A 
ATOM     45  C   UNL A   1      40.528  29.546  34.423  1.00  0.00     0.031 C 
ATOM     46  C   UNL A   1      39.442  28.907  27.906  1.00  0.00     0.029 A 
ATOM     47  C   UNL A   1      40.703  28.446  28.461  1.00  0.00     0.049 A 
ATOM     48  H   UNL A   1      41.678  29.222  30.141  1.00  0.00     0.167 HD
ATOM     49  C   UNL A   1      43.058  29.717  34.283  1.00  0.00     0.037 A 
ATOM     50  C   UNL A   1      41.507  27.432  28.064  1.00  0.00     0.037 A 
ATOM     51  C   UNL A   1      44.031  30.447  33.521  1.00  0.00     0.049 A 
ATOM     52  C   UNL A   1      42.814  27.603  28.750  1.00  0.00     0.074 A 
ATOM     53  C   UNL A   1      44.305  31.785  33.322  1.00  0.00     0.029 A 
ATOM     54  N   UNL A   1      44.755  29.778  32.567  1.00  0.00    -0.354 N 
ATOM     55  N   UNL A   1      43.637  28.593  28.537  1.00  0.00    -0.248 NA
ATOM     56  C   UNL A   1      43.045  26.862  29.980  1.00  0.00     0.031 C 
ATOM     57  C   UNL A   1      44.784  31.875  31.983  1.00  0.00     0.029 A 
ATOM     58  C   UNL A   1      44.787  30.583  31.455  1.00  0.00     0.049 A 
ATOM     59  H   UNL A   1      45.171  28.890  32.661  1.00  0.00     0.167 HD
ATOM     60  C   UNL A   1      44.220  28.850  29.769  1.00  0.00     0.074 A 
ATOM     61  C   UNL A   1      43.902  27.686  30.587  1.00  0.00     0.031 C 
ATOM     62  C   UNL A   1      44.677  30.096  30.096  1.00  0.00     0.037 A 
BRANCH  49  63
ATOM     63  C   UNL A   1      43.442  28.649  35.279  1.00  0.00     0.058 A 
ATOM     64  C   UNL A   1      44.030  28.997  36.513  1.00  0.00     0.135 A 
ATOM     65  C   UNL A   1      43.484  27.275  34.950  1.00  0.00     0.135 A 
ATOM     66  F   UNL A   1      44.063  30.277  36.916  1.00  0.00    -0.206 F 
ATOM     67  C   UNL A   1      44.655  28.057  37.335  1.00  0.00     0.059 A 
ATOM     68  C   UNL A   1      44.055  26.314  35.780  1.00  0.00     0.059 A 
ATOM     69  F   UNL A   1      43.053  26.821  33.766  1.00  0.00    -0.206 F 
ATOM     70  C   UNL A   1      44.676  26.719  36.950  1.00  0.00     0.060 A 
BRANCH  70  71
ATOM     71  S   UNL A   1      45.588  25.524  37.947  1.00  0.00     0.124 S 
ATOM     72  O   UNL A   1      46.964  25.820  37.567  1.00  0.00    -0.237 OA
ATOM     73  O   UNL A   1      45.204  25.900  39.303  1.00  0.00    -0.237 OA
ATOM     74  O   UNL A   1      45.068  24.238  37.489  1.00  0.00    -0.744 OA
ENDBRANCH  70  71
ENDBRANCH  49  63
BRANCH  50  75
ATOM     75  C   UNL A   1      41.062  26.135  27.489  1.00  0.00     0.058 A 
ATOM     76  C   UNL A   1      41.811  25.500  26.485  1.00  0.00     0.135 A 
ATOM     77  C   UNL A   1      40.056  25.357  28.101  1.00  0.00     0.135 A 
ATOM     78  F   UNL A   1      42.804  26.159  25.866  1.00  0.00    -0.206 F 
ATOM     79  C   UNL A   1      41.615  24.158  26.147  1.00  0.00     0.059 A 
ATOM     80  C   UNL A   1      39.828  24.025  27.767  1.00  0.00     0.059 A 
ATOM     81  F   UNL A   1      39.323  25.834  29.117  1.00  0.00    -0.206 F 
ATOM     82  C   UNL A   1      40.634  23.422  26.811  1.00  0.00     0.060 A 
BRANCH  82  83
ATOM     83  S   UNL A   1      40.506  21.644  26.520  1.00  0.00     0.124 S 
ATOM     84  O   UNL A   1      40.604  21.111  27.874  1.00  0.00    -0.237 OA
ATOM     85  O   UNL A   1      39.198  21.535  25.883  1.00  0.00    -0.237 OA
ATOM     86  O   UNL A   1      41.645  21.360  25.652  1.00  0.00    -0.744 OA
ENDBRANCH  82  83
ENDBRANCH  50  75
BRANCH  62  87
ATOM     87  C   UNL A   1      44.797  31.120  28.994  1.00  0.00     0.058 A 
ATOM     88  C   UNL A   1      45.894  31.192  28.116  1.00  0.00     0.135 A 
ATOM     89  C   UNL A   1      43.706  31.958  28.721  1.00  0.00     0.135 A 
ATOM     90  F   UNL A   1      46.926  30.347  28.232  1.00  0.00    -0.206 F 
ATOM     91  C   UNL A   1      45.928  32.091  27.049  1.00  0.00     0.059 A 
ATOM     92  C   UNL A   1      43.703  32.840  27.640  1.00  0.00     0.059 A 
ATOM     93  F   UNL A   1      42.598  31.887  29.476  1.00  0.00    -0.206 F 
ATOM     94  C   UNL A   1      44.826  32.910  26.817  1.00  0.00     0.060 A 
BRANCH  94  95
ATOM     95  S   UNL A   1      44.844  34.006  25.380  1.00  0.00     0.124 S 
ATOM     96  O   UNL A   1      44.415  33.114  24.309  1.00  0.00    -0.237 OA
ATOM     97  O   UNL A   1      43.888  35.043  25.762  1.00  0.00    -0.237 OA
ATOM     98  O   UNL A   1      46.234  34.448  25.307  1.00  0.00    -0.744 OA
ENDBRANCH  94  95
ENDBRANCH  62  87
ENDBRANCH  36  37
ENDBRANCH  28  31
ENDBRANCH  26  27
ENDBRANCH  25  26
ENDBRANCH   1  25
TORSDOF 17
ENDMDL
