MODEL 1
REMARK VINA RESULT:     -10.4      0.000      0.000
REMARK SMILES CO[C@@H]1C[C@@H](C(=O)NCCCCCCNC(=O)c2ccc(-c3c4nc(c(-c5c(F)cc(S(=O)(=O)[O-])cc5F)c5ccc([nH]5)c(-c5c(F)cc(S(=O)(=O)[O-])cc5F)c5nc(c(-c6c(F)cc(S(=O)(=O)[O-])cc6F)c6ccc3[nH]6)C=C5)C=C4)cc2)N(C(=O)CSc2cccs2)C1
REMARK SMILES IDX 11 1 10 2 9 3 8 4 6 5 7 6 5 8 3 9 4 10 94 11 84 12 2 13 1 14
REMARK SMILES IDX 85 15 86 16 87 17 88 18 89 19 90 20 93 21 91 22 92 23 12 24
REMARK SMILES IDX 13 25 14 26 15 27 16 28 17 30 18 31 19 32 83 33 20 34 82 35
REMARK SMILES IDX 21 36 22 37 23 38 76 39 24 40 81 41 75 42 77 43 25 44 80 45
REMARK SMILES IDX 74 46 73 47 26 49 60 50 39 51 59 52 40 53 43 54 58 55 78 56
REMARK SMILES IDX 41 57 42 58 57 60 79 61 44 62 27 63 28 64 37 65 29 66 30 67
REMARK SMILES IDX 36 68 38 69 31 70 32 71 33 72 34 73 35 74 61 75 62 76 71 77
REMARK SMILES IDX 63 78 64 79 70 80 72 81 65 82 66 83 67 84 68 85 69 86 45 87
REMARK SMILES IDX 46 88 55 89 47 90 48 91 54 92 56 93 49 94 50 95 51 96 52 97
REMARK SMILES IDX 53 98
REMARK H PARENT 8 7 15 29 77 48 43 59
REMARK Flexibility Score: inf
ROOT
ATOM      1  C   UNL A   1      37.631  22.216  24.597  1.00  0.00     0.002 C 
ENDROOT
BRANCH   1   2
ATOM      2  C   UNL A   1      37.450  23.189  25.771  1.00  0.00     0.021 C 
BRANCH   2   3
ATOM      3  C   UNL A   1      36.016  23.729  25.867  1.00  0.00     0.116 C 
BRANCH   3   4
ATOM      4  N   UNL A   1      35.184  22.724  26.503  1.00  0.00    -0.354 N 
ATOM      5  C   UNL A   1      33.921  22.948  26.996  1.00  0.00     0.242 C 
ATOM      6  O   UNL A   1      33.645  22.505  28.109  1.00  0.00    -0.273 OA
ATOM      7  H   UNL A   1      35.551  21.815  26.588  1.00  0.00     0.163 HD
BRANCH   5   8
ATOM      8  C   UNL A   1      32.923  23.706  26.100  1.00  0.00     0.177 C 
ATOM      9  C   UNL A   1      30.600  24.330  25.806  1.00  0.00     0.139 C 
ATOM     10  C   UNL A   1      31.622  23.989  26.878  1.00  0.00     0.069 C 
ATOM     11  C   UNL A   1      31.030  23.479  24.616  1.00  0.00     0.152 C 
ATOM     12  N   UNL A   1      32.411  23.066  24.869  1.00  0.00    -0.327 N 
BRANCH   9  13
ATOM     13  O   UNL A   1      30.462  25.728  25.540  1.00  0.00    -0.380 OA
ATOM     14  C   UNL A   1      29.715  26.134  24.405  1.00  0.00     0.195 C 
ENDBRANCH   9  13
BRANCH  12  15
ATOM     15  C   UNL A   1      33.071  22.430  23.834  1.00  0.00     0.233 C 
ATOM     16  O   UNL A   1      33.649  23.100  22.966  1.00  0.00    -0.274 OA
BRANCH  15  17
ATOM     17  C   UNL A   1      33.042  20.923  23.674  1.00  0.00     0.175 C 
BRANCH  17  18
ATOM     18  S   UNL A   1      32.609  20.070  25.210  1.00  0.00    -0.105 SA
BRANCH  18  19
ATOM     19  C   UNL A   1      33.317  18.490  24.929  1.00  0.00     0.060 A 
ATOM     20  C   UNL A   1      34.575  18.215  24.435  1.00  0.00     0.027 A 
ATOM     21  S   UNL A   1      32.437  17.061  25.255  1.00  0.00    -0.137 S 
ATOM     22  C   UNL A   1      34.826  16.814  24.349  1.00  0.00     0.013 A 
ATOM     23  C   UNL A   1      33.743  16.072  24.765  1.00  0.00     0.066 A 
ENDBRANCH  18  19
ENDBRANCH  17  18
ENDBRANCH  15  17
ENDBRANCH  12  15
ENDBRANCH   5   8
ENDBRANCH   3   4
ENDBRANCH   2   3
ENDBRANCH   1   2
BRANCH   1  24
ATOM     24  C   UNL A   1      37.225  20.775  24.919  1.00  0.00     0.002 C 
BRANCH  24  25
ATOM     25  C   UNL A   1      38.404  19.806  25.018  1.00  0.00     0.021 C 
BRANCH  25  26
ATOM     26  C   UNL A   1      39.440  20.211  26.061  1.00  0.00     0.116 C 
BRANCH  26  27
ATOM     27  N   UNL A   1      40.520  19.241  26.129  1.00  0.00    -0.352 N 
ATOM     28  C   UNL A   1      41.871  19.466  26.136  1.00  0.00     0.251 C 
ATOM     29  H   UNL A   1      40.246  18.296  26.175  1.00  0.00     0.163 HD
ATOM     30  O   UNL A   1      42.652  18.540  25.920  1.00  0.00    -0.269 OA
BRANCH  28  31
ATOM     31  C   UNL A   1      42.378  20.827  26.399  1.00  0.00     0.039 A 
ATOM     32  C   UNL A   1      42.660  21.667  25.321  1.00  0.00     0.014 A 
ATOM     33  C   UNL A   1      42.588  21.264  27.711  1.00  0.00     0.014 A 
ATOM     34  C   UNL A   1      43.129  22.959  25.562  1.00  0.00     0.010 A 
ATOM     35  C   UNL A   1      42.974  22.577  27.951  1.00  0.00     0.010 A 
ATOM     36  C   UNL A   1      43.272  23.430  26.877  1.00  0.00    -0.014 A 
BRANCH  36  37
ATOM     37  C   UNL A   1      43.765  24.803  27.147  1.00  0.00     0.031 A 
ATOM     38  C   UNL A   1      45.221  25.131  26.956  1.00  0.00     0.074 A 
ATOM     39  C   UNL A   1      42.912  25.738  27.606  1.00  0.00     0.049 A 
ATOM     40  N   UNL A   1      45.849  26.259  27.166  1.00  0.00    -0.248 NA
ATOM     41  C   UNL A   1      46.093  24.037  26.498  1.00  0.00     0.031 C 
ATOM     42  C   UNL A   1      41.492  25.518  27.892  1.00  0.00     0.029 A 
ATOM     43  N   UNL A   1      43.116  27.056  27.925  1.00  0.00    -0.354 N 
ATOM     44  C   UNL A   1      47.185  26.010  26.875  1.00  0.00     0.074 A 
ATOM     45  C   UNL A   1      47.288  24.605  26.544  1.00  0.00     0.031 C 
ATOM     46  C   UNL A   1      40.950  26.667  28.325  1.00  0.00     0.029 A 
ATOM     47  C   UNL A   1      41.987  27.693  28.380  1.00  0.00     0.049 A 
ATOM     48  H   UNL A   1      43.989  27.503  27.836  1.00  0.00     0.167 HD
ATOM     49  C   UNL A   1      48.226  26.876  26.855  1.00  0.00     0.037 A 
ATOM     50  C   UNL A   1      41.809  28.960  28.803  1.00  0.00     0.037 A 
ATOM     51  C   UNL A   1      48.107  28.275  27.177  1.00  0.00     0.049 A 
ATOM     52  C   UNL A   1      42.971  29.912  28.761  1.00  0.00     0.074 A 
ATOM     53  C   UNL A   1      49.086  29.253  27.143  1.00  0.00     0.029 A 
ATOM     54  N   UNL A   1      46.939  28.894  27.601  1.00  0.00    -0.354 N 
ATOM     55  N   UNL A   1      44.215  29.679  28.413  1.00  0.00    -0.248 NA
ATOM     56  C   UNL A   1      42.705  31.302  29.154  1.00  0.00     0.031 C 
ATOM     57  C   UNL A   1      48.520  30.452  27.592  1.00  0.00     0.029 A 
ATOM     58  C   UNL A   1      47.175  30.236  27.850  1.00  0.00     0.049 A 
ATOM     59  H   UNL A   1      46.069  28.444  27.708  1.00  0.00     0.167 HD
ATOM     60  C   UNL A   1      44.877  30.897  28.524  1.00  0.00     0.074 A 
ATOM     61  C   UNL A   1      43.889  31.867  28.955  1.00  0.00     0.031 C 
ATOM     62  C   UNL A   1      46.181  31.188  28.286  1.00  0.00     0.037 A 
BRANCH  49  63
ATOM     63  C   UNL A   1      49.575  26.327  26.472  1.00  0.00     0.058 A 
ATOM     64  C   UNL A   1      50.414  25.708  27.414  1.00  0.00     0.135 A 
ATOM     65  C   UNL A   1      50.040  26.424  25.151  1.00  0.00     0.135 A 
ATOM     66  F   UNL A   1      50.028  25.598  28.696  1.00  0.00    -0.206 F 
ATOM     67  C   UNL A   1      51.684  25.255  27.073  1.00  0.00     0.059 A 
ATOM     68  C   UNL A   1      51.294  25.945  24.780  1.00  0.00     0.059 A 
ATOM     69  F   UNL A   1      49.281  27.002  24.207  1.00  0.00    -0.206 F 
ATOM     70  C   UNL A   1      52.118  25.385  25.755  1.00  0.00     0.060 A 
BRANCH  70  71
ATOM     71  S   UNL A   1      53.782  24.821  25.335  1.00  0.00     0.124 S 
ATOM     72  O   UNL A   1      54.091  25.663  24.183  1.00  0.00    -0.237 OA
ATOM     73  O   UNL A   1      54.528  25.114  26.553  1.00  0.00    -0.237 OA
ATOM     74  O   UNL A   1      53.596  23.403  25.042  1.00  0.00    -0.744 OA
ENDBRANCH  70  71
ENDBRANCH  49  63
BRANCH  50  75
ATOM     75  C   UNL A   1      40.466  29.390  29.275  1.00  0.00     0.058 A 
ATOM     76  C   UNL A   1      40.202  29.587  30.639  1.00  0.00     0.135 A 
ATOM     77  C   UNL A   1      39.435  29.667  28.364  1.00  0.00     0.135 A 
ATOM     78  F   UNL A   1      41.154  29.332  31.550  1.00  0.00    -0.206 F 
ATOM     79  C   UNL A   1      38.963  30.037  31.083  1.00  0.00     0.059 A 
ATOM     80  C   UNL A   1      38.197  30.142  28.781  1.00  0.00     0.059 A 
ATOM     81  F   UNL A   1      39.644  29.513  27.046  1.00  0.00    -0.206 F 
ATOM     82  C   UNL A   1      37.969  30.320  30.145  1.00  0.00     0.060 A 
BRANCH  82  83
ATOM     83  S   UNL A   1      36.391  30.981  30.726  1.00  0.00     0.124 S 
ATOM     84  O   UNL A   1      36.782  32.307  31.191  1.00  0.00    -0.237 OA
ATOM     85  O   UNL A   1      35.580  30.942  29.513  1.00  0.00    -0.237 OA
ATOM     86  O   UNL A   1      35.994  30.037  31.766  1.00  0.00    -0.744 OA
ENDBRANCH  82  83
ENDBRANCH  50  75
BRANCH  62  87
ATOM     87  C   UNL A   1      46.612  32.618  28.462  1.00  0.00     0.058 A 
ATOM     88  C   UNL A   1      47.169  33.082  29.663  1.00  0.00     0.135 A 
ATOM     89  C   UNL A   1      46.506  33.527  27.395  1.00  0.00     0.135 A 
ATOM     90  F   UNL A   1      47.290  32.257  30.716  1.00  0.00    -0.206 F 
ATOM     91  C   UNL A   1      47.577  34.405  29.812  1.00  0.00     0.059 A 
ATOM     92  C   UNL A   1      46.935  34.844  27.512  1.00  0.00     0.059 A 
ATOM     93  F   UNL A   1      45.991  33.132  26.219  1.00  0.00    -0.206 F 
ATOM     94  C   UNL A   1      47.456  35.277  28.730  1.00  0.00     0.060 A 
BRANCH  94  95
ATOM     95  S   UNL A   1      48.008  36.985  28.930  1.00  0.00     0.124 S 
ATOM     96  O   UNL A   1      48.632  36.940  30.248  1.00  0.00    -0.237 OA
ATOM     97  O   UNL A   1      48.921  37.151  27.802  1.00  0.00    -0.237 OA
ATOM     98  O   UNL A   1      46.771  37.754  28.845  1.00  0.00    -0.744 OA
ENDBRANCH  94  95
ENDBRANCH  62  87
ENDBRANCH  36  37
ENDBRANCH  28  31
ENDBRANCH  26  27
ENDBRANCH  25  26
ENDBRANCH  24  25
ENDBRANCH   1  24
TORSDOF 21
ENDMDL
MODEL 2
REMARK VINA RESULT:     -10.2      2.980      4.410
REMARK SMILES CO[C@@H]1C[C@@H](C(=O)NCCCCCCNC(=O)c2ccc(-c3c4nc(c(-c5c(F)cc(S(=O)(=O)[O-])cc5F)c5ccc([nH]5)c(-c5c(F)cc(S(=O)(=O)[O-])cc5F)c5nc(c(-c6c(F)cc(S(=O)(=O)[O-])cc6F)c6ccc3[nH]6)C=C5)C=C4)cc2)N(C(=O)CSc2cccs2)C1
REMARK SMILES IDX 11 1 10 2 9 3 8 4 6 5 7 6 5 8 3 9 4 10 94 11 84 12 2 13 1 14
REMARK SMILES IDX 85 15 86 16 87 17 88 18 89 19 90 20 93 21 91 22 92 23 12 24
REMARK SMILES IDX 13 25 14 26 15 27 16 28 17 30 18 31 19 32 83 33 20 34 82 35
REMARK SMILES IDX 21 36 22 37 23 38 76 39 24 40 81 41 75 42 77 43 25 44 80 45
REMARK SMILES IDX 74 46 73 47 26 49 60 50 39 51 59 52 40 53 43 54 58 55 78 56
REMARK SMILES IDX 41 57 42 58 57 60 79 61 44 62 27 63 28 64 37 65 29 66 30 67
REMARK SMILES IDX 36 68 38 69 31 70 32 71 33 72 34 73 35 74 61 75 62 76 71 77
REMARK SMILES IDX 63 78 64 79 70 80 72 81 65 82 66 83 67 84 68 85 69 86 45 87
REMARK SMILES IDX 46 88 55 89 47 90 48 91 54 92 56 93 49 94 50 95 51 96 52 97
REMARK SMILES IDX 53 98
REMARK H PARENT 8 7 15 29 77 48 43 59
REMARK Flexibility Score: inf
ROOT
ATOM      1  C   UNL A   1      34.194  25.479  24.159  1.00  0.00     0.002 C 
ENDROOT
BRANCH   1   2
ATOM      2  C   UNL A   1      33.569  26.071  22.887  1.00  0.00     0.021 C 
BRANCH   2   3
ATOM      3  C   UNL A   1      33.681  27.602  22.840  1.00  0.00     0.116 C 
BRANCH   3   4
ATOM      4  N   UNL A   1      32.435  28.142  22.328  1.00  0.00    -0.354 N 
ATOM      5  C   UNL A   1      31.224  28.069  22.972  1.00  0.00     0.242 C 
ATOM      6  O   UNL A   1      30.237  27.735  22.318  1.00  0.00    -0.273 OA
ATOM      7  H   UNL A   1      32.459  28.594  21.453  1.00  0.00     0.163 HD
BRANCH   5   8
ATOM      8  C   UNL A   1      31.177  28.453  24.463  1.00  0.00     0.177 C 
ATOM      9  C   UNL A   1      32.421  29.424  26.302  1.00  0.00     0.139 C 
ATOM     10  C   UNL A   1      32.299  29.460  24.787  1.00  0.00     0.069 C 
ATOM     11  C   UNL A   1      32.074  27.983  26.656  1.00  0.00     0.152 C 
ATOM     12  N   UNL A   1      31.389  27.415  25.495  1.00  0.00    -0.327 N 
BRANCH   9  13
ATOM     13  O   UNL A   1      31.656  30.423  26.983  1.00  0.00    -0.380 OA
ATOM     14  C   UNL A   1      31.373  31.638  26.310  1.00  0.00     0.195 C 
ENDBRANCH   9  13
BRANCH  12  15
ATOM     15  C   UNL A   1      30.822  26.164  25.655  1.00  0.00     0.233 C 
ATOM     16  O   UNL A   1      29.667  25.954  25.256  1.00  0.00    -0.274 OA
BRANCH  15  17
ATOM     17  C   UNL A   1      31.541  25.048  26.387  1.00  0.00     0.175 C 
BRANCH  17  18
ATOM     18  S   UNL A   1      30.582  23.513  26.424  1.00  0.00    -0.105 SA
BRANCH  18  19
ATOM     19  C   UNL A   1      31.362  22.599  25.146  1.00  0.00     0.060 A 
ATOM     20  C   UNL A   1      32.102  21.442  25.279  1.00  0.00     0.027 A 
ATOM     21  S   UNL A   1      31.275  23.111  23.517  1.00  0.00    -0.137 S 
ATOM     22  C   UNL A   1      32.578  20.959  24.025  1.00  0.00     0.013 A 
ATOM     23  C   UNL A   1      32.199  21.776  22.983  1.00  0.00     0.066 A 
ENDBRANCH  18  19
ENDBRANCH  17  18
ENDBRANCH  15  17
ENDBRANCH  12  15
ENDBRANCH   5   8
ENDBRANCH   3   4
ENDBRANCH   2   3
ENDBRANCH   1   2
BRANCH   1  24
ATOM     24  C   UNL A   1      34.926  24.153  23.929  1.00  0.00     0.002 C 
BRANCH  24  25
ATOM     25  C   UNL A   1      35.214  23.373  25.213  1.00  0.00     0.021 C 
BRANCH  25  26
ATOM     26  C   UNL A   1      36.507  23.790  25.902  1.00  0.00     0.116 C 
BRANCH  26  27
ATOM     27  N   UNL A   1      37.411  22.660  26.045  1.00  0.00    -0.352 N 
ATOM     28  C   UNL A   1      38.759  22.670  26.287  1.00  0.00     0.251 C 
ATOM     29  H   UNL A   1      37.001  21.769  25.956  1.00  0.00     0.163 HD
ATOM     30  O   UNL A   1      39.425  21.650  26.108  1.00  0.00    -0.269 OA
BRANCH  28  31
ATOM     31  C   UNL A   1      39.403  23.912  26.758  1.00  0.00     0.039 A 
ATOM     32  C   UNL A   1      39.832  24.852  25.820  1.00  0.00     0.014 A 
ATOM     33  C   UNL A   1      39.594  24.136  28.125  1.00  0.00     0.014 A 
ATOM     34  C   UNL A   1      40.430  26.033  26.258  1.00  0.00     0.010 A 
ATOM     35  C   UNL A   1      40.113  25.349  28.561  1.00  0.00     0.010 A 
ATOM     36  C   UNL A   1      40.559  26.299  27.631  1.00  0.00    -0.014 A 
BRANCH  36  37
ATOM     37  C   UNL A   1      41.190  27.554  28.109  1.00  0.00     0.031 A 
ATOM     38  C   UNL A   1      42.687  27.703  28.080  1.00  0.00     0.074 A 
ATOM     39  C   UNL A   1      40.419  28.537  28.611  1.00  0.00     0.049 A 
ATOM     40  N   UNL A   1      43.426  28.705  28.480  1.00  0.00    -0.248 NA
ATOM     41  C   UNL A   1      43.457  26.560  27.561  1.00  0.00     0.031 C 
ATOM     42  C   UNL A   1      38.962  28.479  28.751  1.00  0.00     0.029 A 
ATOM     43  N   UNL A   1      40.753  29.770  29.108  1.00  0.00    -0.354 N 
ATOM     44  C   UNL A   1      44.743  28.313  28.270  1.00  0.00     0.074 A 
ATOM     45  C   UNL A   1      44.704  26.954  27.774  1.00  0.00     0.031 C 
ATOM     46  C   UNL A   1      38.527  29.634  29.279  1.00  0.00     0.029 A 
ATOM     47  C   UNL A   1      39.673  30.498  29.546  1.00  0.00     0.049 A 
ATOM     48  H   UNL A   1      41.678  30.104  29.147  1.00  0.00     0.167 HD
ATOM     49  C   UNL A   1      45.880  29.029  28.442  1.00  0.00     0.037 A 
ATOM     50  C   UNL A   1      39.612  31.721  30.108  1.00  0.00     0.037 A 
ATOM     51  C   UNL A   1      45.905  30.385  28.927  1.00  0.00     0.049 A 
ATOM     52  C   UNL A   1      40.882  32.507  30.281  1.00  0.00     0.074 A 
ATOM     53  C   UNL A   1      46.996  31.220  29.095  1.00  0.00     0.029 A 
ATOM     54  N   UNL A   1      44.787  31.103  29.329  1.00  0.00    -0.354 N 
ATOM     55  N   UNL A   1      42.115  32.150  30.008  1.00  0.00    -0.248 NA
ATOM     56  C   UNL A   1      40.753  33.866  30.821  1.00  0.00     0.031 C 
ATOM     57  C   UNL A   1      46.542  32.425  29.643  1.00  0.00     0.029 A 
ATOM     58  C   UNL A   1      45.162  32.364  29.762  1.00  0.00     0.049 A 
ATOM     59  H   UNL A   1      43.862  30.765  29.307  1.00  0.00     0.167 HD
ATOM     60  C   UNL A   1      42.909  33.248  30.324  1.00  0.00     0.074 A 
ATOM     61  C   UNL A   1      42.012  34.286  30.792  1.00  0.00     0.031 C 
ATOM     62  C   UNL A   1      44.256  33.385  30.231  1.00  0.00     0.037 A 
BRANCH  49  63
ATOM     63  C   UNL A   1      47.181  28.350  28.105  1.00  0.00     0.058 A 
ATOM     64  C   UNL A   1      47.914  27.635  29.069  1.00  0.00     0.135 A 
ATOM     65  C   UNL A   1      47.709  28.417  26.806  1.00  0.00     0.135 A 
ATOM     66  F   UNL A   1      47.464  27.548  30.332  1.00  0.00    -0.206 F 
ATOM     67  C   UNL A   1      49.144  27.059  28.772  1.00  0.00     0.059 A 
ATOM     68  C   UNL A   1      48.923  27.818  26.477  1.00  0.00     0.059 A 
ATOM     69  F   UNL A   1      47.054  29.082  25.843  1.00  0.00    -0.206 F 
ATOM     70  C   UNL A   1      49.645  27.163  27.474  1.00  0.00     0.060 A 
BRANCH  70  71
ATOM     71  S   UNL A   1      51.258  26.438  27.112  1.00  0.00     0.124 S 
ATOM     72  O   UNL A   1      51.524  26.975  25.780  1.00  0.00    -0.237 OA
ATOM     73  O   UNL A   1      52.089  26.970  28.187  1.00  0.00    -0.237 OA
ATOM     74  O   UNL A   1      51.006  25.002  27.169  1.00  0.00    -0.744 OA
ENDBRANCH  70  71
ENDBRANCH  49  63
BRANCH  50  75
ATOM     75  C   UNL A   1      38.294  32.272  30.520  1.00  0.00     0.058 A 
ATOM     76  C   UNL A   1      37.760  32.009  31.790  1.00  0.00     0.135 A 
ATOM     77  C   UNL A   1      37.568  33.119  29.668  1.00  0.00     0.135 A 
ATOM     78  F   UNL A   1      38.414  31.202  32.640  1.00  0.00    -0.206 F 
ATOM     79  C   UNL A   1      36.550  32.562  32.200  1.00  0.00     0.059 A 
ATOM     80  C   UNL A   1      36.370  33.703  30.064  1.00  0.00     0.059 A 
ATOM     81  F   UNL A   1      38.046  33.417  28.449  1.00  0.00    -0.206 F 
ATOM     82  C   UNL A   1      35.867  33.414  31.332  1.00  0.00     0.060 A 
BRANCH  82  83
ATOM     83  S   UNL A   1      34.339  34.191  31.903  1.00  0.00     0.124 S 
ATOM     84  O   UNL A   1      33.644  34.434  30.644  1.00  0.00    -0.237 OA
ATOM     85  O   UNL A   1      33.770  33.152  32.757  1.00  0.00    -0.237 OA
ATOM     86  O   UNL A   1      34.809  35.381  32.606  1.00  0.00    -0.744 OA
ENDBRANCH  82  83
ENDBRANCH  50  75
BRANCH  62  87
ATOM     87  C   UNL A   1      44.842  34.715  30.619  1.00  0.00     0.058 A 
ATOM     88  C   UNL A   1      44.989  35.759  29.693  1.00  0.00     0.135 A 
ATOM     89  C   UNL A   1      45.222  34.962  31.949  1.00  0.00     0.135 A 
ATOM     90  F   UNL A   1      44.646  35.576  28.408  1.00  0.00    -0.206 F 
ATOM     91  C   UNL A   1      45.520  36.991  30.064  1.00  0.00     0.059 A 
ATOM     92  C   UNL A   1      45.726  36.194  32.349  1.00  0.00     0.059 A 
ATOM     93  F   UNL A   1      45.091  34.001  32.879  1.00  0.00    -0.206 F 
ATOM     94  C   UNL A   1      45.885  37.198  31.395  1.00  0.00     0.060 A 
BRANCH  94  95
ATOM     95  S   UNL A   1      46.554  38.807  31.868  1.00  0.00     0.124 S 
ATOM     96  O   UNL A   1      46.312  38.815  33.307  1.00  0.00    -0.237 OA
ATOM     97  O   UNL A   1      47.952  38.695  31.461  1.00  0.00    -0.237 OA
ATOM     98  O   UNL A   1      45.755  39.749  31.091  1.00  0.00    -0.744 OA
ENDBRANCH  94  95
ENDBRANCH  62  87
ENDBRANCH  36  37
ENDBRANCH  28  31
ENDBRANCH  26  27
ENDBRANCH  25  26
ENDBRANCH  24  25
ENDBRANCH   1  24
TORSDOF 21
ENDMDL
MODEL 3
REMARK VINA RESULT:     -10.0      6.633     12.005
REMARK SMILES CO[C@@H]1C[C@@H](C(=O)NCCCCCCNC(=O)c2ccc(-c3c4nc(c(-c5c(F)cc(S(=O)(=O)[O-])cc5F)c5ccc([nH]5)c(-c5c(F)cc(S(=O)(=O)[O-])cc5F)c5nc(c(-c6c(F)cc(S(=O)(=O)[O-])cc6F)c6ccc3[nH]6)C=C5)C=C4)cc2)N(C(=O)CSc2cccs2)C1
REMARK SMILES IDX 11 1 10 2 9 3 8 4 6 5 7 6 5 8 3 9 4 10 94 11 84 12 2 13 1 14
REMARK SMILES IDX 85 15 86 16 87 17 88 18 89 19 90 20 93 21 91 22 92 23 12 24
REMARK SMILES IDX 13 25 14 26 15 27 16 28 17 30 18 31 19 32 83 33 20 34 82 35
REMARK SMILES IDX 21 36 22 37 23 38 76 39 24 40 81 41 75 42 77 43 25 44 80 45
REMARK SMILES IDX 74 46 73 47 26 49 60 50 39 51 59 52 40 53 43 54 58 55 78 56
REMARK SMILES IDX 41 57 42 58 57 60 79 61 44 62 27 63 28 64 37 65 29 66 30 67
REMARK SMILES IDX 36 68 38 69 31 70 32 71 33 72 34 73 35 74 61 75 62 76 71 77
REMARK SMILES IDX 63 78 64 79 70 80 72 81 65 82 66 83 67 84 68 85 69 86 45 87
REMARK SMILES IDX 46 88 55 89 47 90 48 91 54 92 56 93 49 94 50 95 51 96 52 97
REMARK SMILES IDX 53 98
REMARK H PARENT 8 7 15 29 77 48 43 59
REMARK Flexibility Score: inf
ROOT
ATOM      1  C   UNL A   1      33.643  31.510  27.634  1.00  0.00     0.002 C 
ENDROOT
BRANCH   1   2
ATOM      2  C   UNL A   1      34.704  30.401  27.570  1.00  0.00     0.021 C 
BRANCH   2   3
ATOM      3  C   UNL A   1      34.273  29.232  26.674  1.00  0.00     0.116 C 
BRANCH   3   4
ATOM      4  N   UNL A   1      33.485  28.306  27.467  1.00  0.00    -0.354 N 
ATOM      5  C   UNL A   1      32.224  27.870  27.141  1.00  0.00     0.242 C 
ATOM      6  O   UNL A   1      31.366  27.861  28.022  1.00  0.00    -0.273 OA
ATOM      7  H   UNL A   1      33.883  27.966  28.301  1.00  0.00     0.163 HD
BRANCH   5   8
ATOM      8  C   UNL A   1      31.981  27.382  25.701  1.00  0.00     0.177 C 
ATOM      9  C   UNL A   1      30.623  27.661  23.713  1.00  0.00     0.139 C 
ATOM     10  C   UNL A   1      31.148  28.419  24.921  1.00  0.00     0.069 C 
ATOM     11  C   UNL A   1      30.439  26.240  24.232  1.00  0.00     0.152 C 
ATOM     12  N   UNL A   1      31.217  26.137  25.467  1.00  0.00    -0.327 N 
BRANCH   9  13
ATOM     13  O   UNL A   1      31.431  27.784  22.539  1.00  0.00    -0.380 OA
ATOM     14  C   UNL A   1      32.278  26.705  22.180  1.00  0.00     0.195 C 
ENDBRANCH   9  13
BRANCH  12  15
ATOM     15  C   UNL A   1      31.343  24.877  26.022  1.00  0.00     0.233 C 
ATOM     16  O   UNL A   1      30.450  24.435  26.760  1.00  0.00    -0.274 OA
BRANCH  15  17
ATOM     17  C   UNL A   1      32.590  24.037  25.825  1.00  0.00     0.175 C 
BRANCH  17  18
ATOM     18  S   UNL A   1      32.843  23.568  24.096  1.00  0.00    -0.105 SA
BRANCH  18  19
ATOM     19  C   UNL A   1      34.462  22.895  24.164  1.00  0.00     0.060 A 
ATOM     20  C   UNL A   1      35.589  23.364  23.524  1.00  0.00     0.027 A 
ATOM     21  S   UNL A   1      34.794  21.493  25.086  1.00  0.00    -0.137 S 
ATOM     22  C   UNL A   1      36.743  22.578  23.816  1.00  0.00     0.013 A 
ATOM     23  C   UNL A   1      36.448  21.527  24.655  1.00  0.00     0.066 A 
ENDBRANCH  18  19
ENDBRANCH  17  18
ENDBRANCH  15  17
ENDBRANCH  12  15
ENDBRANCH   5   8
ENDBRANCH   3   4
ENDBRANCH   2   3
ENDBRANCH   1   2
BRANCH   1  24
ATOM     24  C   UNL A   1      34.202  32.880  28.028  1.00  0.00     0.002 C 
BRANCH  24  25
ATOM     25  C   UNL A   1      33.131  33.952  28.234  1.00  0.00     0.021 C 
BRANCH  25  26
ATOM     26  C   UNL A   1      33.675  35.254  28.810  1.00  0.00     0.116 C 
BRANCH  26  27
ATOM     27  N   UNL A   1      32.867  35.707  29.931  1.00  0.00    -0.352 N 
ATOM     28  C   UNL A   1      32.958  35.346  31.249  1.00  0.00     0.251 C 
ATOM     29  H   UNL A   1      32.162  36.360  29.716  1.00  0.00     0.163 HD
ATOM     30  O   UNL A   1      32.036  35.603  32.023  1.00  0.00    -0.269 OA
BRANCH  28  31
ATOM     31  C   UNL A   1      34.165  34.644  31.728  1.00  0.00     0.039 A 
ATOM     32  C   UNL A   1      34.046  33.339  32.207  1.00  0.00     0.014 A 
ATOM     33  C   UNL A   1      35.408  35.284  31.716  1.00  0.00     0.014 A 
ATOM     34  C   UNL A   1      35.184  32.664  32.650  1.00  0.00     0.010 A 
ATOM     35  C   UNL A   1      36.552  34.582  32.079  1.00  0.00     0.010 A 
ATOM     36  C   UNL A   1      36.447  33.273  32.572  1.00  0.00    -0.014 A 
BRANCH  36  37
ATOM     37  C   UNL A   1      37.665  32.565  33.036  1.00  0.00     0.031 A 
ATOM     38  C   UNL A   1      38.331  32.975  34.322  1.00  0.00     0.074 A 
ATOM     39  C   UNL A   1      38.197  31.588  32.278  1.00  0.00     0.049 A 
ATOM     40  N   UNL A   1      39.416  32.501  34.879  1.00  0.00    -0.248 NA
ATOM     41  C   UNL A   1      37.712  34.085  35.065  1.00  0.00     0.031 C 
ATOM     42  C   UNL A   1      37.676  31.149  30.980  1.00  0.00     0.029 A 
ATOM     43  N   UNL A   1      39.296  30.795  32.481  1.00  0.00    -0.354 N 
ATOM     44  C   UNL A   1      39.613  33.257  36.028  1.00  0.00     0.074 A 
ATOM     45  C   UNL A   1      38.578  34.267  36.051  1.00  0.00     0.031 C 
ATOM     46  C   UNL A   1      38.446  30.154  30.514  1.00  0.00     0.029 A 
ATOM     47  C   UNL A   1      39.531  29.907  31.459  1.00  0.00     0.049 A 
ATOM     48  H   UNL A   1      39.864  30.856  33.283  1.00  0.00     0.167 HD
ATOM     49  C   UNL A   1      40.551  33.106  36.994  1.00  0.00     0.037 A 
ATOM     50  C   UNL A   1      40.514  29.000  31.297  1.00  0.00     0.037 A 
ATOM     51  C   UNL A   1      41.571  32.089  36.965  1.00  0.00     0.049 A 
ATOM     52  C   UNL A   1      41.539  28.836  32.384  1.00  0.00     0.074 A 
ATOM     53  C   UNL A   1      42.541  31.815  37.913  1.00  0.00     0.029 A 
ATOM     54  N   UNL A   1      41.756  31.183  35.930  1.00  0.00    -0.354 N 
ATOM     55  N   UNL A   1      41.670  29.510  33.502  1.00  0.00    -0.248 NA
ATOM     56  C   UNL A   1      42.541  27.778  32.198  1.00  0.00     0.031 C 
ATOM     57  C   UNL A   1      43.343  30.775  37.428  1.00  0.00     0.029 A 
ATOM     58  C   UNL A   1      42.836  30.360  36.205  1.00  0.00     0.049 A 
ATOM     59  H   UNL A   1      41.200  31.132  35.119  1.00  0.00     0.167 HD
ATOM     60  C   UNL A   1      42.755  28.946  34.165  1.00  0.00     0.074 A 
ATOM     61  C   UNL A   1      43.233  27.863  33.327  1.00  0.00     0.031 C 
ATOM     62  C   UNL A   1      43.304  29.290  35.357  1.00  0.00     0.037 A 
BRANCH  49  63
ATOM     63  C   UNL A   1      40.510  34.065  38.154  1.00  0.00     0.058 A 
ATOM     64  C   UNL A   1      41.211  35.283  38.131  1.00  0.00     0.135 A 
ATOM     65  C   UNL A   1      39.766  33.765  39.306  1.00  0.00     0.135 A 
ATOM     66  F   UNL A   1      41.950  35.618  37.060  1.00  0.00    -0.206 F 
ATOM     67  C   UNL A   1      41.221  36.141  39.226  1.00  0.00     0.059 A 
ATOM     68  C   UNL A   1      39.733  34.626  40.401  1.00  0.00     0.059 A 
ATOM     69  F   UNL A   1      39.073  32.619  39.385  1.00  0.00    -0.206 F 
ATOM     70  C   UNL A   1      40.485  35.800  40.360  1.00  0.00     0.060 A 
BRANCH  70  71
ATOM     71  S   UNL A   1      40.533  36.908  41.784  1.00  0.00     0.124 S 
ATOM     72  O   UNL A   1      40.408  35.963  42.890  1.00  0.00    -0.237 OA
ATOM     73  O   UNL A   1      41.837  37.546  41.640  1.00  0.00    -0.237 OA
ATOM     74  O   UNL A   1      39.383  37.782  41.575  1.00  0.00    -0.744 OA
ENDBRANCH  70  71
ENDBRANCH  49  63
BRANCH  50  75
ATOM     75  C   UNL A   1      40.547  28.170  30.064  1.00  0.00     0.058 A 
ATOM     76  C   UNL A   1      41.495  28.401  29.056  1.00  0.00     0.135 A 
ATOM     77  C   UNL A   1      39.664  27.092  29.896  1.00  0.00     0.135 A 
ATOM     78  F   UNL A   1      42.358  29.422  29.168  1.00  0.00    -0.206 F 
ATOM     79  C   UNL A   1      41.563  27.597  27.923  1.00  0.00     0.059 A 
ATOM     80  C   UNL A   1      39.729  26.259  28.785  1.00  0.00     0.059 A 
ATOM     81  F   UNL A   1      38.752  26.817  30.842  1.00  0.00    -0.206 F 
ATOM     82  C   UNL A   1      40.680  26.522  27.801  1.00  0.00     0.060 A 
BRANCH  82  83
ATOM     83  S   UNL A   1      40.830  25.436  26.365  1.00  0.00     0.124 S 
ATOM     84  O   UNL A   1      41.236  26.376  25.326  1.00  0.00    -0.237 OA
ATOM     85  O   UNL A   1      41.850  24.489  26.805  1.00  0.00    -0.237 OA
ATOM     86  O   UNL A   1      39.488  24.878  26.224  1.00  0.00    -0.744 OA
ENDBRANCH  82  83
ENDBRANCH  50  75
BRANCH  62  87
ATOM     87  C   UNL A   1      44.468  28.470  35.843  1.00  0.00     0.058 A 
ATOM     88  C   UNL A   1      44.289  27.323  36.630  1.00  0.00     0.135 A 
ATOM     89  C   UNL A   1      45.780  28.816  35.478  1.00  0.00     0.135 A 
ATOM     90  F   UNL A   1      43.057  26.949  37.011  1.00  0.00    -0.206 F 
ATOM     91  C   UNL A   1      45.371  26.563  37.064  1.00  0.00     0.059 A 
ATOM     92  C   UNL A   1      46.873  28.055  35.875  1.00  0.00     0.059 A 
ATOM     93  F   UNL A   1      46.007  29.898  34.715  1.00  0.00    -0.206 F 
ATOM     94  C   UNL A   1      46.660  26.938  36.680  1.00  0.00     0.060 A 
BRANCH  94  95
ATOM     95  S   UNL A   1      48.054  25.932  37.233  1.00  0.00     0.124 S 
ATOM     96  O   UNL A   1      47.867  25.940  38.680  1.00  0.00    -0.237 OA
ATOM     97  O   UNL A   1      47.801  24.657  36.568  1.00  0.00    -0.237 OA
ATOM     98  O   UNL A   1      49.217  26.666  36.746  1.00  0.00    -0.744 OA
ENDBRANCH  94  95
ENDBRANCH  62  87
ENDBRANCH  36  37
ENDBRANCH  28  31
ENDBRANCH  26  27
ENDBRANCH  25  26
ENDBRANCH  24  25
ENDBRANCH   1  24
TORSDOF 21
ENDMDL
