MODEL 1
REMARK VINA RESULT:     -11.7      0.000      0.000
REMARK SMILES Cc1c(C)c2c(c(C)c1O)CC[C@@](C)(C(=O)NCCCCCCNC(=O)c1ccc(-c3c4nc(c(-c5c(F)cc(S(=O)(=O)[O-])cc5F)c5ccc([nH]5)c(-c5c(F)cc(S(=O)(=O)[O-])cc5F)c5nc(c(-c6c(F)cc(S(=O)(=O)[O-])cc6F)c6ccc3[nH]6)C=C5)C=C4)cc1)O2
REMARK SMILES IDX 21 1 20 2 19 3 18 4 17 5 15 6 16 7 13 9 1 10 2 11 3 12 9 13
REMARK SMILES IDX 4 14 5 15 7 16 6 17 93 18 8 19 11 20 12 21 14 22 10 23 22 25
REMARK SMILES IDX 23 26 24 27 25 28 26 30 27 31 28 32 92 33 29 34 91 35 30 36
REMARK SMILES IDX 31 37 32 38 85 39 33 40 90 41 84 42 86 43 34 44 89 45 83 46
REMARK SMILES IDX 82 47 35 49 69 50 48 51 68 52 49 53 52 54 67 55 87 56 50 57
REMARK SMILES IDX 51 58 66 60 88 61 53 62 36 63 37 64 46 65 38 66 39 67 45 68
REMARK SMILES IDX 47 69 40 70 41 71 42 72 43 73 44 74 70 75 71 76 80 77 72 78
REMARK SMILES IDX 73 79 79 80 81 81 74 82 75 83 76 84 77 85 78 86 54 87 55 88
REMARK SMILES IDX 64 89 56 90 57 91 63 92 65 93 58 94 59 95 60 96 61 97 62 98
REMARK H PARENT 17 8 10 24 24 29 86 48 52 59
REMARK Flexibility Score: inf
ROOT
ATOM      1  C   UNL A   1      31.690  28.214  25.833  1.00  0.00     0.002 C 
ENDROOT
BRANCH   1   2
ATOM      2  C   UNL A   1      31.028  27.500  24.650  1.00  0.00     0.002 C 
BRANCH   2   3
ATOM      3  C   UNL A   1      30.131  26.315  25.020  1.00  0.00     0.021 C 
BRANCH   3   4
ATOM      4  C   UNL A   1      30.706  25.409  26.106  1.00  0.00     0.116 C 
BRANCH   4   5
ATOM      5  N   UNL A   1      30.378  24.015  25.869  1.00  0.00    -0.353 N 
ATOM      6  C   UNL A   1      31.154  22.886  25.853  1.00  0.00     0.263 C 
ATOM      7  O   UNL A   1      30.569  21.830  25.591  1.00  0.00    -0.270 OA
ATOM      8  H   UNL A   1      29.425  23.850  25.686  1.00  0.00     0.163 HD
BRANCH   6   9
ATOM      9  C   UNL A   1      32.677  22.940  26.169  1.00  0.00     0.184 C 
ATOM     10  C   UNL A   1      37.454  19.294  24.749  1.00  0.00     0.049 C 
ATOM     11  C   UNL A   1      36.731  20.575  25.078  1.00  0.00    -0.002 A 
ATOM     12  C   UNL A   1      35.316  20.644  25.085  1.00  0.00    -0.002 A 
ATOM     13  C   UNL A   1      37.469  21.737  25.390  1.00  0.00     0.122 A 
ATOM     14  C   UNL A   1      34.481  19.424  24.777  1.00  0.00     0.049 C 
ATOM     15  C   UNL A   1      34.687  21.865  25.402  1.00  0.00     0.127 A 
ATOM     16  C   UNL A   1      36.845  22.956  25.692  1.00  0.00    -0.002 A 
ATOM     17  C   UNL A   1      35.438  23.025  25.661  1.00  0.00     0.001 A 
ATOM     18  O   UNL A   1      33.309  21.856  25.448  1.00  0.00    -0.477 OA
ATOM     19  C   UNL A   1      37.657  24.179  26.041  1.00  0.00     0.049 C 
ATOM     20  C   UNL A   1      34.741  24.329  25.944  1.00  0.00     0.044 C 
ATOM     21  C   UNL A   1      33.264  24.243  25.622  1.00  0.00     0.063 C 
ATOM     22  C   UNL A   1      32.865  22.650  27.673  1.00  0.00     0.067 C 
BRANCH  13  23
ATOM     23  O   UNL A   1      38.840  21.728  25.407  1.00  0.00    -0.507 OA
ATOM     24  H   UNL A   1      39.316  21.358  24.690  1.00  0.00     0.293 HD
ENDBRANCH  13  23
ENDBRANCH   6   9
ENDBRANCH   4   5
ENDBRANCH   3   4
ENDBRANCH   2   3
ENDBRANCH   1   2
BRANCH   1  25
ATOM     25  C   UNL A   1      33.221  28.205  25.837  1.00  0.00     0.021 C 
BRANCH  25  26
ATOM     26  C   UNL A   1      33.863  28.417  27.204  1.00  0.00     0.116 C 
BRANCH  26  27
ATOM     27  N   UNL A   1      33.740  29.789  27.663  1.00  0.00    -0.352 N 
ATOM     28  C   UNL A   1      34.662  30.569  28.317  1.00  0.00     0.251 C 
ATOM     29  H   UNL A   1      32.874  30.221  27.481  1.00  0.00     0.163 HD
ATOM     30  O   UNL A   1      34.327  31.652  28.790  1.00  0.00    -0.269 OA
BRANCH  28  31
ATOM     31  C   UNL A   1      36.051  30.089  28.470  1.00  0.00     0.039 A 
ATOM     32  C   UNL A   1      36.923  30.187  27.384  1.00  0.00     0.014 A 
ATOM     33  C   UNL A   1      36.493  29.551  29.684  1.00  0.00     0.014 A 
ATOM     34  C   UNL A   1      38.256  29.801  27.534  1.00  0.00     0.010 A 
ATOM     35  C   UNL A   1      37.837  29.226  29.849  1.00  0.00     0.010 A 
ATOM     36  C   UNL A   1      38.730  29.344  28.775  1.00  0.00    -0.014 A 
BRANCH  36  37
ATOM     37  C   UNL A   1      40.159  28.984  28.953  1.00  0.00     0.031 A 
ATOM     38  C   UNL A   1      41.117  29.968  29.561  1.00  0.00     0.074 A 
ATOM     39  C   UNL A   1      40.593  27.774  28.548  1.00  0.00     0.049 A 
ATOM     40  N   UNL A   1      42.392  29.825  29.815  1.00  0.00    -0.248 NA
ATOM     41  C   UNL A   1      40.579  31.291  29.913  1.00  0.00     0.031 C 
ATOM     42  C   UNL A   1      39.765  26.750  27.907  1.00  0.00     0.029 A 
ATOM     43  N   UNL A   1      41.835  27.195  28.625  1.00  0.00    -0.354 N 
ATOM     44  C   UNL A   1      42.807  31.032  30.363  1.00  0.00     0.074 A 
ATOM     45  C   UNL A   1      41.665  31.919  30.343  1.00  0.00     0.031 C 
ATOM     46  C   UNL A   1      40.510  25.653  27.693  1.00  0.00     0.029 A 
ATOM     47  C   UNL A   1      41.872  25.903  28.153  1.00  0.00     0.049 A 
ATOM     48  H   UNL A   1      42.626  27.660  28.983  1.00  0.00     0.167 HD
ATOM     49  C   UNL A   1      44.019  31.362  30.868  1.00  0.00     0.037 A 
ATOM     50  C   UNL A   1      42.885  25.015  28.115  1.00  0.00     0.037 A 
ATOM     51  C   UNL A   1      45.147  30.470  30.900  1.00  0.00     0.049 A 
ATOM     52  C   UNL A   1      44.229  25.409  28.662  1.00  0.00     0.074 A 
ATOM     53  C   UNL A   1      46.409  30.700  31.417  1.00  0.00     0.029 A 
ATOM     54  N   UNL A   1      45.147  29.178  30.398  1.00  0.00    -0.354 N 
ATOM     55  N   UNL A   1      44.590  26.539  29.219  1.00  0.00    -0.248 NA
ATOM     56  C   UNL A   1      45.304  24.410  28.576  1.00  0.00     0.031 C 
ATOM     57  C   UNL A   1      47.183  29.555  31.201  1.00  0.00     0.029 A 
ATOM     58  C   UNL A   1      46.392  28.601  30.580  1.00  0.00     0.049 A 
ATOM     59  H   UNL A   1      44.376  28.736  29.975  1.00  0.00     0.167 HD
ATOM     60  C   UNL A   1      45.925  26.381  29.572  1.00  0.00     0.074 A 
ATOM     61  C   UNL A   1      46.309  25.044  29.168  1.00  0.00     0.031 C 
ATOM     62  C   UNL A   1      46.754  27.264  30.180  1.00  0.00     0.037 A 
BRANCH  49  63
ATOM     63  C   UNL A   1      44.174  32.739  31.447  1.00  0.00     0.058 A 
ATOM     64  C   UNL A   1      43.886  32.996  32.798  1.00  0.00     0.135 A 
ATOM     65  C   UNL A   1      44.632  33.806  30.659  1.00  0.00     0.135 A 
ATOM     66  F   UNL A   1      43.431  32.013  33.590  1.00  0.00    -0.206 F 
ATOM     67  C   UNL A   1      44.015  34.270  33.339  1.00  0.00     0.059 A 
ATOM     68  C   UNL A   1      44.792  35.085  31.186  1.00  0.00     0.059 A 
ATOM     69  F   UNL A   1      44.921  33.614  29.363  1.00  0.00    -0.206 F 
ATOM     70  C   UNL A   1      44.465  35.309  32.524  1.00  0.00     0.060 A 
BRANCH  70  71
ATOM     71  S   UNL A   1      44.614  36.960  33.239  1.00  0.00     0.124 S 
ATOM     72  O   UNL A   1      45.058  37.736  32.085  1.00  0.00    -0.237 OA
ATOM     73  O   UNL A   1      43.255  37.226  33.697  1.00  0.00    -0.237 OA
ATOM     74  O   UNL A   1      45.606  36.784  34.295  1.00  0.00    -0.744 OA
ENDBRANCH  70  71
ENDBRANCH  49  63
BRANCH  50  75
ATOM     75  C   UNL A   1      42.640  23.646  27.592  1.00  0.00     0.058 A 
ATOM     76  C   UNL A   1      42.747  23.378  26.220  1.00  0.00     0.135 A 
ATOM     77  C   UNL A   1      42.347  22.575  28.449  1.00  0.00     0.135 A 
ATOM     78  F   UNL A   1      43.020  24.372  25.361  1.00  0.00    -0.206 F 
ATOM     79  C   UNL A   1      42.573  22.095  25.713  1.00  0.00     0.059 A 
ATOM     80  C   UNL A   1      42.187  21.279  27.968  1.00  0.00     0.059 A 
ATOM     81  F   UNL A   1      42.249  22.779  29.772  1.00  0.00    -0.206 F 
ATOM     82  C   UNL A   1      42.300  21.048  26.597  1.00  0.00     0.060 A 
BRANCH  82  83
ATOM     83  S   UNL A   1      42.152  19.375  25.935  1.00  0.00     0.124 S 
ATOM     84  O   UNL A   1      40.717  19.279  25.694  1.00  0.00    -0.237 OA
ATOM     85  O   UNL A   1      42.997  19.440  24.748  1.00  0.00    -0.237 OA
ATOM     86  O   UNL A   1      42.667  18.540  27.017  1.00  0.00    -0.744 OA
ENDBRANCH  82  83
ENDBRANCH  50  75
BRANCH  62  87
ATOM     87  C   UNL A   1      48.160  26.825  30.467  1.00  0.00     0.058 A 
ATOM     88  C   UNL A   1      49.206  27.107  29.578  1.00  0.00     0.135 A 
ATOM     89  C   UNL A   1      48.482  26.231  31.699  1.00  0.00     0.135 A 
ATOM     90  F   UNL A   1      48.947  27.666  28.385  1.00  0.00    -0.206 F 
ATOM     91  C   UNL A   1      50.529  26.828  29.903  1.00  0.00     0.059 A 
ATOM     92  C   UNL A   1      49.800  25.960  32.053  1.00  0.00     0.059 A 
ATOM     93  F   UNL A   1      47.514  25.947  32.585  1.00  0.00    -0.206 F 
ATOM     94  C   UNL A   1      50.817  26.266  31.150  1.00  0.00     0.060 A 
BRANCH  94  95
ATOM     95  S   UNL A   1      52.546  26.001  31.598  1.00  0.00     0.124 S 
ATOM     96  O   UNL A   1      53.214  26.185  30.314  1.00  0.00    -0.237 OA
ATOM     97  O   UNL A   1      52.775  27.050  32.588  1.00  0.00    -0.237 OA
ATOM     98  O   UNL A   1      52.557  24.640  32.123  1.00  0.00    -0.744 OA
ENDBRANCH  94  95
ENDBRANCH  62  87
ENDBRANCH  36  37
ENDBRANCH  28  31
ENDBRANCH  26  27
ENDBRANCH  25  26
ENDBRANCH   1  25
TORSDOF 17
ENDMDL
MODEL 2
REMARK VINA RESULT:     -11.6      1.520      2.482
REMARK SMILES Cc1c(C)c2c(c(C)c1O)CC[C@@](C)(C(=O)NCCCCCCNC(=O)c1ccc(-c3c4nc(c(-c5c(F)cc(S(=O)(=O)[O-])cc5F)c5ccc([nH]5)c(-c5c(F)cc(S(=O)(=O)[O-])cc5F)c5nc(c(-c6c(F)cc(S(=O)(=O)[O-])cc6F)c6ccc3[nH]6)C=C5)C=C4)cc1)O2
REMARK SMILES IDX 21 1 20 2 19 3 18 4 17 5 15 6 16 7 13 9 1 10 2 11 3 12 9 13
REMARK SMILES IDX 4 14 5 15 7 16 6 17 93 18 8 19 11 20 12 21 14 22 10 23 22 25
REMARK SMILES IDX 23 26 24 27 25 28 26 30 27 31 28 32 92 33 29 34 91 35 30 36
REMARK SMILES IDX 31 37 32 38 85 39 33 40 90 41 84 42 86 43 34 44 89 45 83 46
REMARK SMILES IDX 82 47 35 49 69 50 48 51 68 52 49 53 52 54 67 55 87 56 50 57
REMARK SMILES IDX 51 58 66 60 88 61 53 62 36 63 37 64 46 65 38 66 39 67 45 68
REMARK SMILES IDX 47 69 40 70 41 71 42 72 43 73 44 74 70 75 71 76 80 77 72 78
REMARK SMILES IDX 73 79 79 80 81 81 74 82 75 83 76 84 77 85 78 86 54 87 55 88
REMARK SMILES IDX 64 89 56 90 57 91 63 92 65 93 58 94 59 95 60 96 61 97 62 98
REMARK H PARENT 17 8 10 24 24 29 86 48 52 59
REMARK Flexibility Score: inf
ROOT
ATOM      1  C   UNL A   1      31.601  28.418  25.529  1.00  0.00     0.002 C 
ENDROOT
BRANCH   1   2
ATOM      2  C   UNL A   1      32.357  28.859  24.270  1.00  0.00     0.002 C 
BRANCH   2   3
ATOM      3  C   UNL A   1      31.508  28.959  23.000  1.00  0.00     0.021 C 
BRANCH   3   4
ATOM      4  C   UNL A   1      30.868  27.642  22.568  1.00  0.00     0.116 C 
BRANCH   4   5
ATOM      5  N   UNL A   1      31.706  26.924  21.624  1.00  0.00    -0.353 N 
ATOM      6  C   UNL A   1      32.440  25.774  21.748  1.00  0.00     0.263 C 
ATOM      7  O   UNL A   1      33.078  25.428  20.747  1.00  0.00    -0.270 OA
ATOM      8  H   UNL A   1      31.756  27.339  20.732  1.00  0.00     0.163 HD
BRANCH   6   9
ATOM      9  C   UNL A   1      32.445  24.950  23.067  1.00  0.00     0.184 C 
ATOM     10  C   UNL A   1      32.447  18.900  24.308  1.00  0.00     0.049 C 
ATOM     11  C   UNL A   1      32.739  20.364  24.519  1.00  0.00    -0.002 A 
ATOM     12  C   UNL A   1      32.546  21.312  23.484  1.00  0.00    -0.002 A 
ATOM     13  C   UNL A   1      33.211  20.812  25.771  1.00  0.00     0.122 A 
ATOM     14  C   UNL A   1      32.023  20.886  22.133  1.00  0.00     0.049 C 
ATOM     15  C   UNL A   1      32.831  22.670  23.732  1.00  0.00     0.127 A 
ATOM     16  C   UNL A   1      33.508  22.161  26.016  1.00  0.00    -0.002 A 
ATOM     17  C   UNL A   1      33.349  23.091  24.970  1.00  0.00     0.001 A 
ATOM     18  O   UNL A   1      32.570  23.553  22.706  1.00  0.00    -0.477 OA
ATOM     19  C   UNL A   1      33.994  22.617  27.369  1.00  0.00     0.049 C 
ATOM     20  C   UNL A   1      33.695  24.540  25.191  1.00  0.00     0.044 C 
ATOM     21  C   UNL A   1      33.685  25.311  23.888  1.00  0.00     0.063 C 
ATOM     22  C   UNL A   1      31.068  25.117  23.743  1.00  0.00     0.067 C 
BRANCH  13  23
ATOM     23  O   UNL A   1      33.408  19.941  26.812  1.00  0.00    -0.507 OA
ATOM     24  H   UNL A   1      33.123  20.170  27.675  1.00  0.00     0.293 HD
ENDBRANCH  13  23
ENDBRANCH   6   9
ENDBRANCH   4   5
ENDBRANCH   3   4
ENDBRANCH   2   3
ENDBRANCH   1   2
BRANCH   1  25
ATOM     25  C   UNL A   1      32.439  27.688  26.581  1.00  0.00     0.021 C 
BRANCH  25  26
ATOM     26  C   UNL A   1      33.782  28.338  26.900  1.00  0.00     0.116 C 
BRANCH  26  27
ATOM     27  N   UNL A   1      33.638  29.725  27.307  1.00  0.00    -0.352 N 
ATOM     28  C   UNL A   1      34.513  30.517  28.008  1.00  0.00     0.251 C 
ATOM     29  H   UNL A   1      32.793  30.158  27.043  1.00  0.00     0.163 HD
ATOM     30  O   UNL A   1      34.153  31.617  28.421  1.00  0.00    -0.269 OA
BRANCH  28  31
ATOM     31  C   UNL A   1      35.880  30.030  28.286  1.00  0.00     0.039 A 
ATOM     32  C   UNL A   1      36.857  30.158  27.297  1.00  0.00     0.014 A 
ATOM     33  C   UNL A   1      36.199  29.456  29.522  1.00  0.00     0.014 A 
ATOM     34  C   UNL A   1      38.168  29.765  27.568  1.00  0.00     0.010 A 
ATOM     35  C   UNL A   1      37.520  29.124  29.812  1.00  0.00     0.010 A 
ATOM     36  C   UNL A   1      38.516  29.271  28.837  1.00  0.00    -0.014 A 
BRANCH  36  37
ATOM     37  C   UNL A   1      39.920  28.903  29.147  1.00  0.00     0.031 A 
ATOM     38  C   UNL A   1      40.799  29.850  29.914  1.00  0.00     0.074 A 
ATOM     39  C   UNL A   1      40.406  27.721  28.718  1.00  0.00     0.049 A 
ATOM     40  N   UNL A   1      42.040  29.694  30.295  1.00  0.00    -0.248 NA
ATOM     41  C   UNL A   1      40.215  31.148  30.285  1.00  0.00     0.031 C 
ATOM     42  C   UNL A   1      39.661  26.737  27.930  1.00  0.00     0.029 A 
ATOM     43  N   UNL A   1      41.637  27.141  28.894  1.00  0.00    -0.354 N 
ATOM     44  C   UNL A   1      42.382  30.866  30.957  1.00  0.00     0.074 A 
ATOM     45  C   UNL A   1      41.242  31.751  30.867  1.00  0.00     0.031 C 
ATOM     46  C   UNL A   1      40.433  25.657  27.732  1.00  0.00     0.029 A 
ATOM     47  C   UNL A   1      41.736  25.880  28.352  1.00  0.00     0.049 A 
ATOM     48  H   UNL A   1      42.380  27.585  29.364  1.00  0.00     0.167 HD
ATOM     49  C   UNL A   1      43.530  31.166  31.611  1.00  0.00     0.037 A 
ATOM     50  C   UNL A   1      42.755  24.998  28.370  1.00  0.00     0.037 A 
ATOM     51  C   UNL A   1      44.655  30.276  31.711  1.00  0.00     0.049 A 
ATOM     52  C   UNL A   1      44.028  25.360  29.082  1.00  0.00     0.074 A 
ATOM     53  C   UNL A   1      45.852  30.476  32.375  1.00  0.00     0.029 A 
ATOM     54  N   UNL A   1      44.721  29.017  31.134  1.00  0.00    -0.354 N 
ATOM     55  N   UNL A   1      44.316  26.455  29.743  1.00  0.00    -0.248 NA
ATOM     56  C   UNL A   1      45.114  24.370  29.053  1.00  0.00     0.031 C 
ATOM     57  C   UNL A   1      46.655  29.348  32.175  1.00  0.00     0.029 A 
ATOM     58  C   UNL A   1      45.943  28.433  31.415  1.00  0.00     0.049 A 
ATOM     59  H   UNL A   1      44.004  28.601  30.603  1.00  0.00     0.167 HD
ATOM     60  C   UNL A   1      45.607  26.277  30.229  1.00  0.00     0.074 A 
ATOM     61  C   UNL A   1      46.044  24.968  29.788  1.00  0.00     0.031 C 
ATOM     62  C   UNL A   1      46.357  27.123  30.976  1.00  0.00     0.037 A 
BRANCH  49  63
ATOM     63  C   UNL A   1      43.609  32.505  32.286  1.00  0.00     0.058 A 
ATOM     64  C   UNL A   1      44.092  33.635  31.605  1.00  0.00     0.135 A 
ATOM     65  C   UNL A   1      43.183  32.671  33.613  1.00  0.00     0.135 A 
ATOM     66  F   UNL A   1      44.526  33.527  30.340  1.00  0.00    -0.206 F 
ATOM     67  C   UNL A   1      44.180  34.875  32.227  1.00  0.00     0.059 A 
ATOM     68  C   UNL A   1      43.239  33.909  34.247  1.00  0.00     0.059 A 
ATOM     69  F   UNL A   1      42.714  31.623  34.308  1.00  0.00    -0.206 F 
ATOM     70  C   UNL A   1      43.756  35.002  33.550  1.00  0.00     0.060 A 
BRANCH  70  71
ATOM     71  S   UNL A   1      43.890  36.616  34.346  1.00  0.00     0.124 S 
ATOM     72  O   UNL A   1      45.038  37.188  33.648  1.00  0.00    -0.237 OA
ATOM     73  O   UNL A   1      42.599  37.223  34.043  1.00  0.00    -0.237 OA
ATOM     74  O   UNL A   1      44.112  36.286  35.750  1.00  0.00    -0.744 OA
ENDBRANCH  70  71
ENDBRANCH  49  63
BRANCH  50  75
ATOM     75  C   UNL A   1      42.579  23.664  27.742  1.00  0.00     0.058 A 
ATOM     76  C   UNL A   1      42.814  23.485  26.370  1.00  0.00     0.135 A 
ATOM     77  C   UNL A   1      42.225  22.537  28.498  1.00  0.00     0.135 A 
ATOM     78  F   UNL A   1      43.150  24.535  25.605  1.00  0.00    -0.206 F 
ATOM     79  C   UNL A   1      42.707  22.236  25.770  1.00  0.00     0.059 A 
ATOM     80  C   UNL A   1      42.130  21.273  27.924  1.00  0.00     0.059 A 
ATOM     81  F   UNL A   1      42.005  22.654  29.817  1.00  0.00    -0.206 F 
ATOM     82  C   UNL A   1      42.370  21.132  26.557  1.00  0.00     0.060 A 
BRANCH  82  83
ATOM     83  S   UNL A   1      42.309  19.503  25.780  1.00  0.00     0.124 S 
ATOM     84  O   UNL A   1      42.738  18.639  26.874  1.00  0.00    -0.237 OA
ATOM     85  O   UNL A   1      40.905  19.400  25.397  1.00  0.00    -0.237 OA
ATOM     86  O   UNL A   1      43.247  19.627  24.668  1.00  0.00    -0.744 OA
ENDBRANCH  82  83
ENDBRANCH  50  75
BRANCH  62  87
ATOM     87  C   UNL A   1      47.728  26.670  31.387  1.00  0.00     0.058 A 
ATOM     88  C   UNL A   1      47.938  25.989  32.594  1.00  0.00     0.135 A 
ATOM     89  C   UNL A   1      48.815  26.806  30.507  1.00  0.00     0.135 A 
ATOM     90  F   UNL A   1      46.932  25.841  33.471  1.00  0.00    -0.206 F 
ATOM     91  C   UNL A   1      49.178  25.445  32.912  1.00  0.00     0.059 A 
ATOM     92  C   UNL A   1      50.059  26.254  30.796  1.00  0.00     0.059 A 
ATOM     93  F   UNL A   1      48.660  27.445  29.336  1.00  0.00    -0.206 F 
ATOM     94  C   UNL A   1      50.229  25.571  32.000  1.00  0.00     0.060 A 
BRANCH  94  95
ATOM     95  S   UNL A   1      51.804  24.774  32.383  1.00  0.00     0.124 S 
ATOM     96  O   UNL A   1      51.496  23.373  32.119  1.00  0.00    -0.237 OA
ATOM     97  O   UNL A   1      52.713  25.413  31.436  1.00  0.00    -0.237 OA
ATOM     98  O   UNL A   1      52.026  25.116  33.784  1.00  0.00    -0.744 OA
ENDBRANCH  94  95
ENDBRANCH  62  87
ENDBRANCH  36  37
ENDBRANCH  28  31
ENDBRANCH  26  27
ENDBRANCH  25  26
ENDBRANCH   1  25
TORSDOF 17
ENDMDL
MODEL 3
REMARK VINA RESULT:     -11.5      1.529      8.425
REMARK SMILES Cc1c(C)c2c(c(C)c1O)CC[C@@](C)(C(=O)NCCCCCCNC(=O)c1ccc(-c3c4nc(c(-c5c(F)cc(S(=O)(=O)[O-])cc5F)c5ccc([nH]5)c(-c5c(F)cc(S(=O)(=O)[O-])cc5F)c5nc(c(-c6c(F)cc(S(=O)(=O)[O-])cc6F)c6ccc3[nH]6)C=C5)C=C4)cc1)O2
REMARK SMILES IDX 21 1 20 2 19 3 18 4 17 5 15 6 16 7 13 9 1 10 2 11 3 12 9 13
REMARK SMILES IDX 4 14 5 15 7 16 6 17 93 18 8 19 11 20 12 21 14 22 10 23 22 25
REMARK SMILES IDX 23 26 24 27 25 28 26 30 27 31 28 32 92 33 29 34 91 35 30 36
REMARK SMILES IDX 31 37 32 38 85 39 33 40 90 41 84 42 86 43 34 44 89 45 83 46
REMARK SMILES IDX 82 47 35 49 69 50 48 51 68 52 49 53 52 54 67 55 87 56 50 57
REMARK SMILES IDX 51 58 66 60 88 61 53 62 36 63 37 64 46 65 38 66 39 67 45 68
REMARK SMILES IDX 47 69 40 70 41 71 42 72 43 73 44 74 70 75 71 76 80 77 72 78
REMARK SMILES IDX 73 79 79 80 81 81 74 82 75 83 76 84 77 85 78 86 54 87 55 88
REMARK SMILES IDX 64 89 56 90 57 91 63 92 65 93 58 94 59 95 60 96 61 97 62 98
REMARK H PARENT 17 8 10 24 24 29 86 48 52 59
REMARK Flexibility Score: inf
ROOT
ATOM      1  C   UNL A   1      31.852  28.256  25.367  1.00  0.00     0.002 C 
ENDROOT
BRANCH   1   2
ATOM      2  C   UNL A   1      32.589  28.525  24.050  1.00  0.00     0.002 C 
BRANCH   2   3
ATOM      3  C   UNL A   1      31.688  28.751  22.832  1.00  0.00     0.021 C 
BRANCH   3   4
ATOM      4  C   UNL A   1      30.962  27.497  22.350  1.00  0.00     0.116 C 
BRANCH   4   5
ATOM      5  N   UNL A   1      31.772  26.737  21.414  1.00  0.00    -0.353 N 
ATOM      6  C   UNL A   1      32.467  25.565  21.553  1.00  0.00     0.263 C 
ATOM      7  O   UNL A   1      33.089  25.182  20.556  1.00  0.00    -0.270 OA
ATOM      8  H   UNL A   1      31.834  27.137  20.516  1.00  0.00     0.163 HD
BRANCH   6   9
ATOM      9  C   UNL A   1      32.447  24.760  22.885  1.00  0.00     0.184 C 
ATOM     10  C   UNL A   1      32.366  18.731  24.217  1.00  0.00     0.049 C 
ATOM     11  C   UNL A   1      32.672  20.194  24.410  1.00  0.00    -0.002 A 
ATOM     12  C   UNL A   1      32.502  21.128  23.358  1.00  0.00    -0.002 A 
ATOM     13  C   UNL A   1      33.136  20.656  25.659  1.00  0.00     0.122 A 
ATOM     14  C   UNL A   1      31.990  20.688  22.008  1.00  0.00     0.049 C 
ATOM     15  C   UNL A   1      32.799  22.487  23.588  1.00  0.00     0.127 A 
ATOM     16  C   UNL A   1      33.445  22.005  25.887  1.00  0.00    -0.002 A 
ATOM     17  C   UNL A   1      33.308  22.921  24.825  1.00  0.00     0.001 A 
ATOM     18  O   UNL A   1      32.561  23.357  22.547  1.00  0.00    -0.477 OA
ATOM     19  C   UNL A   1      33.922  22.476  27.239  1.00  0.00     0.049 C 
ATOM     20  C   UNL A   1      33.668  24.369  25.029  1.00  0.00     0.044 C 
ATOM     21  C   UNL A   1      33.682  25.120  23.714  1.00  0.00     0.063 C 
ATOM     22  C   UNL A   1      31.065  24.954  23.542  1.00  0.00     0.067 C 
BRANCH  13  23
ATOM     23  O   UNL A   1      33.311  19.799  26.716  1.00  0.00    -0.507 OA
ATOM     24  H   UNL A   1      33.842  20.055  27.444  1.00  0.00     0.293 HD
ENDBRANCH  13  23
ENDBRANCH   6   9
ENDBRANCH   4   5
ENDBRANCH   3   4
ENDBRANCH   2   3
ENDBRANCH   1   2
BRANCH   1  25
ATOM     25  C   UNL A   1      32.660  27.516  26.436  1.00  0.00     0.021 C 
BRANCH  25  26
ATOM     26  C   UNL A   1      33.936  28.222  26.883  1.00  0.00     0.116 C 
BRANCH  26  27
ATOM     27  N   UNL A   1      33.681  29.570  27.360  1.00  0.00    -0.352 N 
ATOM     28  C   UNL A   1      34.494  30.397  28.095  1.00  0.00     0.251 C 
ATOM     29  H   UNL A   1      32.800  29.943  27.125  1.00  0.00     0.163 HD
ATOM     30  O   UNL A   1      34.047  31.440  28.565  1.00  0.00    -0.269 OA
BRANCH  28  31
ATOM     31  C   UNL A   1      35.900  30.014  28.338  1.00  0.00     0.039 A 
ATOM     32  C   UNL A   1      36.810  30.076  27.280  1.00  0.00     0.014 A 
ATOM     33  C   UNL A   1      36.321  29.603  29.608  1.00  0.00     0.014 A 
ATOM     34  C   UNL A   1      38.155  29.783  27.509  1.00  0.00     0.010 A 
ATOM     35  C   UNL A   1      37.674  29.373  29.848  1.00  0.00     0.010 A 
ATOM     36  C   UNL A   1      38.603  29.457  28.801  1.00  0.00    -0.014 A 
BRANCH  36  37
ATOM     37  C   UNL A   1      40.041  29.198  29.060  1.00  0.00     0.031 A 
ATOM     38  C   UNL A   1      40.635  27.855  28.746  1.00  0.00     0.074 A 
ATOM     39  C   UNL A   1      40.805  30.170  29.596  1.00  0.00     0.049 A 
ATOM     40  N   UNL A   1      41.871  27.450  28.883  1.00  0.00    -0.248 NA
ATOM     41  C   UNL A   1      39.720  26.826  28.228  1.00  0.00     0.031 C 
ATOM     42  C   UNL A   1      40.331  31.501  29.980  1.00  0.00     0.029 A 
ATOM     43  N   UNL A   1      42.143  30.194  29.899  1.00  0.00    -0.354 N 
ATOM     44  C   UNL A   1      41.885  26.126  28.461  1.00  0.00     0.074 A 
ATOM     45  C   UNL A   1      40.522  25.775  28.128  1.00  0.00     0.031 C 
ATOM     46  C   UNL A   1      41.370  32.227  30.423  1.00  0.00     0.029 A 
ATOM     47  C   UNL A   1      42.578  31.407  30.382  1.00  0.00     0.049 A 
ATOM     48  H   UNL A   1      42.736  29.417  29.783  1.00  0.00     0.167 HD
ATOM     49  C   UNL A   1      42.941  25.289  28.331  1.00  0.00     0.037 A 
ATOM     50  C   UNL A   1      43.812  31.817  30.733  1.00  0.00     0.037 A 
ATOM     51  C   UNL A   1      44.297  25.648  28.648  1.00  0.00     0.049 A 
ATOM     52  C   UNL A   1      44.968  30.864  30.601  1.00  0.00     0.074 A 
ATOM     53  C   UNL A   1      45.441  24.881  28.524  1.00  0.00     0.029 A 
ATOM     54  N   UNL A   1      44.691  26.879  29.150  1.00  0.00    -0.354 N 
ATOM     55  N   UNL A   1      44.969  29.631  30.157  1.00  0.00    -0.248 NA
ATOM     56  C   UNL A   1      46.290  31.355  31.018  1.00  0.00     0.031 C 
ATOM     57  C   UNL A   1      46.525  25.638  28.979  1.00  0.00     0.029 A 
ATOM     58  C   UNL A   1      46.060  26.889  29.354  1.00  0.00     0.049 A 
ATOM     59  H   UNL A   1      44.087  27.634  29.334  1.00  0.00     0.167 HD
ATOM     60  C   UNL A   1      46.291  29.206  30.216  1.00  0.00     0.074 A 
ATOM     61  C   UNL A   1      47.064  30.314  30.738  1.00  0.00     0.031 C 
ATOM     62  C   UNL A   1      46.815  28.006  29.865  1.00  0.00     0.037 A 
BRANCH  49  63
ATOM     63  C   UNL A   1      42.668  23.911  27.800  1.00  0.00     0.058 A 
ATOM     64  C   UNL A   1      42.502  22.818  28.666  1.00  0.00     0.135 A 
ATOM     65  C   UNL A   1      42.549  23.679  26.420  1.00  0.00     0.135 A 
ATOM     66  F   UNL A   1      42.620  22.984  29.993  1.00  0.00    -0.206 F 
ATOM     67  C   UNL A   1      42.261  21.537  28.182  1.00  0.00     0.059 A 
ATOM     68  C   UNL A   1      42.284  22.409  25.915  1.00  0.00     0.059 A 
ATOM     69  F   UNL A   1      42.699  24.689  25.550  1.00  0.00    -0.206 F 
ATOM     70  C   UNL A   1      42.158  21.342  26.805  1.00  0.00     0.060 A 
BRANCH  70  71
ATOM     71  S   UNL A   1      41.858  19.670  26.194  1.00  0.00     0.124 S 
ATOM     72  O   UNL A   1      42.274  18.865  27.339  1.00  0.00    -0.237 OA
ATOM     73  O   UNL A   1      40.426  19.689  25.919  1.00  0.00    -0.237 OA
ATOM     74  O   UNL A   1      42.719  19.578  25.018  1.00  0.00    -0.744 OA
ENDBRANCH  70  71
ENDBRANCH  49  63
BRANCH  50  75
ATOM     75  C   UNL A   1      44.020  33.217  31.183  1.00  0.00     0.058 A 
ATOM     76  C   UNL A   1      44.215  34.244  30.248  1.00  0.00     0.135 A 
ATOM     77  C   UNL A   1      43.979  33.566  32.541  1.00  0.00     0.135 A 
ATOM     78  F   UNL A   1      44.267  33.958  28.938  1.00  0.00    -0.206 F 
ATOM     79  C   UNL A   1      44.359  35.570  30.642  1.00  0.00     0.059 A 
ATOM     80  C   UNL A   1      44.102  34.888  32.960  1.00  0.00     0.059 A 
ATOM     81  F   UNL A   1      43.780  32.620  33.473  1.00  0.00    -0.206 F 
ATOM     82  C   UNL A   1      44.295  35.883  32.002  1.00  0.00     0.060 A 
BRANCH  82  83
ATOM     83  S   UNL A   1      44.408  37.617  32.495  1.00  0.00     0.124 S 
ATOM     84  O   UNL A   1      43.316  37.721  33.456  1.00  0.00    -0.237 OA
ATOM     85  O   UNL A   1      45.756  37.691  33.048  1.00  0.00    -0.237 OA
ATOM     86  O   UNL A   1      44.214  38.336  31.238  1.00  0.00    -0.744 OA
ENDBRANCH  82  83
ENDBRANCH  50  75
BRANCH  62  87
ATOM     87  C   UNL A   1      48.296  27.815  30.014  1.00  0.00     0.058 A 
ATOM     88  C   UNL A   1      48.842  27.226  31.163  1.00  0.00     0.135 A 
ATOM     89  C   UNL A   1      49.161  28.107  28.947  1.00  0.00     0.135 A 
ATOM     90  F   UNL A   1      48.056  26.936  32.213  1.00  0.00    -0.206 F 
ATOM     91  C   UNL A   1      50.196  26.919  31.246  1.00  0.00     0.059 A 
ATOM     92  C   UNL A   1      50.515  27.792  29.001  1.00  0.00     0.059 A 
ATOM     93  F   UNL A   1      48.683  28.667  27.824  1.00  0.00    -0.206 F 
ATOM     94  C   UNL A   1      51.022  27.194  30.153  1.00  0.00     0.060 A 
BRANCH  94  95
ATOM     95  S   UNL A   1      52.757  26.699  30.238  1.00  0.00     0.124 S 
ATOM     96  O   UNL A   1      53.400  27.948  30.635  1.00  0.00    -0.237 OA
ATOM     97  O   UNL A   1      52.731  25.649  31.252  1.00  0.00    -0.237 OA
ATOM     98  O   UNL A   1      53.048  26.246  28.882  1.00  0.00    -0.744 OA
ENDBRANCH  94  95
ENDBRANCH  62  87
ENDBRANCH  36  37
ENDBRANCH  28  31
ENDBRANCH  26  27
ENDBRANCH  25  26
ENDBRANCH   1  25
TORSDOF 17
ENDMDL
