MODEL 1
REMARK VINA RESULT:     -12.2      0.000      0.000
REMARK SMILES Cc1ccc(-c2c[nH]c(=O)cc2C(=O)NCCCCCCNC(=O)c2ccc(-c3c4nc(c(-c5c(F)cc(S(=O)(=O)[O-])cc5F)c5ccc([nH]5)c(-c5c(F)cc(S(=O)(=O)[O-])cc5F)c5nc(c(-c6c(F)cc(S(=O)(=O)[O-])cc6F)c6ccc3[nH]6)C=C5)C=C4)cc2)cc1Cl
REMARK SMILES IDX 19 1 18 2 17 3 16 4 15 5 13 6 14 7 12 9 6 10 7 11 8 12 11 13
REMARK SMILES IDX 9 14 10 16 5 17 1 18 2 19 3 20 92 21 4 22 91 23 93 24 20 25
REMARK SMILES IDX 21 26 22 27 23 28 24 30 25 31 26 32 90 33 27 34 89 35 28 36
REMARK SMILES IDX 29 37 30 38 83 39 31 40 88 41 82 42 84 43 32 44 87 45 81 46
REMARK SMILES IDX 80 47 33 49 67 50 46 51 66 52 47 53 50 54 65 55 85 56 48 57
REMARK SMILES IDX 49 58 64 60 86 61 51 62 34 63 35 64 44 65 36 66 37 67 43 68
REMARK SMILES IDX 45 69 38 70 39 71 40 72 41 73 42 74 68 75 69 76 78 77 70 78
REMARK SMILES IDX 71 79 77 80 79 81 72 82 73 83 74 84 75 85 76 86 52 87 53 88
REMARK SMILES IDX 62 89 54 90 55 91 61 92 63 93 56 94 57 95 58 96 59 97 60 98
REMARK H PARENT 15 8 8 15 22 29 84 48 50 59
REMARK Flexibility Score: inf
ROOT
ATOM      1  C   UNL A   1      38.484  23.869  26.143  1.00  0.00     0.002 C 
ENDROOT
BRANCH   1   2
ATOM      2  C   UNL A   1      37.098  23.391  25.687  1.00  0.00     0.002 C 
BRANCH   2   3
ATOM      3  C   UNL A   1      37.115  22.276  24.627  1.00  0.00     0.021 C 
BRANCH   3   4
ATOM      4  C   UNL A   1      36.688  20.916  25.178  1.00  0.00     0.116 C 
BRANCH   4   5
ATOM      5  N   UNL A   1      35.480  21.055  25.963  1.00  0.00    -0.352 N 
ATOM      6  C   UNL A   1      34.153  20.861  25.784  1.00  0.00     0.252 C 
ATOM      7  O   UNL A   1      33.484  21.167  26.776  1.00  0.00    -0.269 OA
ATOM      8  H   UNL A   1      35.677  21.376  26.874  1.00  0.00     0.163 HD
BRANCH   6   9
ATOM      9  C   UNL A   1      33.494  20.281  24.550  1.00  0.00     0.054 A 
ATOM     10  C   UNL A   1      32.782  21.184  23.605  1.00  0.00     0.011 A 
ATOM     11  C   UNL A   1      32.070  20.645  22.593  1.00  0.00     0.095 A 
ATOM     12  N   UNL A   1      32.016  19.294  22.403  1.00  0.00    -0.328 N 
ATOM     13  C   UNL A   1      33.529  18.968  24.255  1.00  0.00     0.086 A 
ATOM     14  C   UNL A   1      32.715  18.396  23.157  1.00  0.00     0.248 A 
ATOM     15  H   UNL A   1      31.440  18.949  21.683  1.00  0.00     0.169 HD
ATOM     16  O   UNL A   1      32.674  17.191  22.961  1.00  0.00    -0.270 OA
BRANCH  10  17
ATOM     17  C   UNL A   1      32.842  22.663  23.601  1.00  0.00    -0.015 A 
ATOM     18  C   UNL A   1      33.130  26.979  23.656  1.00  0.00     0.046 C 
ATOM     19  C   UNL A   1      33.002  25.484  23.627  1.00  0.00    -0.032 A 
ATOM     20  C   UNL A   1      34.062  24.712  23.133  1.00  0.00     0.005 A 
ATOM     21  C   UNL A   1      31.851  24.825  24.085  1.00  0.00     0.044 A 
ATOM     22  C   UNL A   1      33.976  23.318  23.105  1.00  0.00     0.009 A 
ATOM     23  C   UNL A   1      31.773  23.429  24.083  1.00  0.00     0.029 A 
ATOM     24  Cl  UNL A   1      30.480  25.706  24.666  1.00  0.00    -0.084 Cl
ENDBRANCH  10  17
ENDBRANCH   6   9
ENDBRANCH   4   5
ENDBRANCH   3   4
ENDBRANCH   2   3
ENDBRANCH   1   2
BRANCH   1  25
ATOM     25  C   UNL A   1      39.391  22.766  26.693  1.00  0.00     0.021 C 
BRANCH  25  26
ATOM     26  C   UNL A   1      40.710  23.278  27.257  1.00  0.00     0.116 C 
BRANCH  26  27
ATOM     27  N   UNL A   1      41.507  23.932  26.231  1.00  0.00    -0.352 N 
ATOM     28  C   UNL A   1      41.788  25.266  26.080  1.00  0.00     0.251 C 
ATOM     29  H   UNL A   1      41.898  23.336  25.552  1.00  0.00     0.163 HD
ATOM     30  O   UNL A   1      42.254  25.681  25.023  1.00  0.00    -0.269 OA
BRANCH  28  31
ATOM     31  C   UNL A   1      41.522  26.196  27.197  1.00  0.00     0.039 A 
ATOM     32  C   UNL A   1      40.446  25.945  28.050  1.00  0.00     0.014 A 
ATOM     33  C   UNL A   1      42.333  27.318  27.394  1.00  0.00     0.014 A 
ATOM     34  C   UNL A   1      40.206  26.801  29.127  1.00  0.00     0.010 A 
ATOM     35  C   UNL A   1      42.143  28.121  28.514  1.00  0.00     0.010 A 
ATOM     36  C   UNL A   1      41.068  27.881  29.382  1.00  0.00    -0.014 A 
BRANCH  36  37
ATOM     37  C   UNL A   1      40.847  28.787  30.537  1.00  0.00     0.031 A 
ATOM     38  C   UNL A   1      41.676  28.627  31.784  1.00  0.00     0.074 A 
ATOM     39  C   UNL A   1      39.872  29.715  30.482  1.00  0.00     0.049 A 
ATOM     40  N   UNL A   1      41.595  29.276  32.918  1.00  0.00    -0.248 NA
ATOM     41  C   UNL A   1      42.712  27.581  31.765  1.00  0.00     0.031 C 
ATOM     42  C   UNL A   1      38.978  29.935  29.343  1.00  0.00     0.029 A 
ATOM     43  N   UNL A   1      39.462  30.640  31.408  1.00  0.00    -0.354 N 
ATOM     44  C   UNL A   1      42.559  28.711  33.746  1.00  0.00     0.074 A 
ATOM     45  C   UNL A   1      43.167  27.627  33.008  1.00  0.00     0.031 C 
ATOM     46  C   UNL A   1      38.145  30.950  29.627  1.00  0.00     0.029 A 
ATOM     47  C   UNL A   1      38.414  31.422  30.982  1.00  0.00     0.049 A 
ATOM     48  H   UNL A   1      39.878  30.735  32.295  1.00  0.00     0.167 HD
ATOM     49  C   UNL A   1      42.923  29.082  34.997  1.00  0.00     0.037 A 
ATOM     50  C   UNL A   1      37.743  32.405  31.615  1.00  0.00     0.037 A 
ATOM     51  C   UNL A   1      42.323  30.176  35.715  1.00  0.00     0.049 A 
ATOM     52  C   UNL A   1      38.153  32.786  33.012  1.00  0.00     0.074 A 
ATOM     53  C   UNL A   1      42.648  30.663  36.969  1.00  0.00     0.029 A 
ATOM     54  N   UNL A   1      41.272  30.950  35.246  1.00  0.00    -0.354 N 
ATOM     55  N   UNL A   1      39.106  32.281  33.759  1.00  0.00    -0.248 NA
ATOM     56  C   UNL A   1      37.402  33.875  33.650  1.00  0.00     0.031 C 
ATOM     57  C   UNL A   1      41.760  31.697  37.279  1.00  0.00     0.029 A 
ATOM     58  C   UNL A   1      40.921  31.897  36.195  1.00  0.00     0.049 A 
ATOM     59  H   UNL A   1      40.838  30.843  34.369  1.00  0.00     0.167 HD
ATOM     60  C   UNL A   1      39.092  33.014  34.942  1.00  0.00     0.074 A 
ATOM     61  C   UNL A   1      38.041  34.002  34.805  1.00  0.00     0.031 C 
ATOM     62  C   UNL A   1      39.879  32.882  36.039  1.00  0.00     0.037 A 
BRANCH  49  63
ATOM     63  C   UNL A   1      44.021  28.298  35.664  1.00  0.00     0.058 A 
ATOM     64  C   UNL A   1      45.378  28.592  35.446  1.00  0.00     0.135 A 
ATOM     65  C   UNL A   1      43.717  27.255  36.554  1.00  0.00     0.135 A 
ATOM     66  F   UNL A   1      45.730  29.569  34.594  1.00  0.00    -0.206 F 
ATOM     67  C   UNL A   1      46.391  27.861  36.056  1.00  0.00     0.059 A 
ATOM     68  C   UNL A   1      44.714  26.531  37.202  1.00  0.00     0.059 A 
ATOM     69  F   UNL A   1      42.439  26.928  36.802  1.00  0.00    -0.206 F 
ATOM     70  C   UNL A   1      46.049  26.831  36.934  1.00  0.00     0.060 A 
BRANCH  70  71
ATOM     71  S   UNL A   1      47.376  25.891  37.716  1.00  0.00     0.124 S 
ATOM     72  O   UNL A   1      48.307  26.955  38.084  1.00  0.00    -0.237 OA
ATOM     73  O   UNL A   1      46.686  25.242  38.826  1.00  0.00    -0.237 OA
ATOM     74  O   UNL A   1      47.833  24.997  36.656  1.00  0.00    -0.744 OA
ENDBRANCH  70  71
ENDBRANCH  49  63
BRANCH  50  75
ATOM     75  C   UNL A   1      36.634  33.113  30.921  1.00  0.00     0.058 A 
ATOM     76  C   UNL A   1      35.296  32.878  31.273  1.00  0.00     0.135 A 
ATOM     77  C   UNL A   1      36.885  34.047  29.904  1.00  0.00     0.135 A 
ATOM     78  F   UNL A   1      35.002  31.990  32.236  1.00  0.00    -0.206 F 
ATOM     79  C   UNL A   1      34.247  33.525  30.629  1.00  0.00     0.059 A 
ATOM     80  C   UNL A   1      35.854  34.728  29.264  1.00  0.00     0.059 A 
ATOM     81  F   UNL A   1      38.148  34.323  29.540  1.00  0.00    -0.206 F 
ATOM     82  C   UNL A   1      34.537  34.453  29.627  1.00  0.00     0.060 A 
BRANCH  82  83
ATOM     83  S   UNL A   1      33.169  35.321  28.831  1.00  0.00     0.124 S 
ATOM     84  O   UNL A   1      33.876  36.310  28.026  1.00  0.00    -0.237 OA
ATOM     85  O   UNL A   1      32.515  34.245  28.091  1.00  0.00    -0.237 OA
ATOM     86  O   UNL A   1      32.407  35.851  29.956  1.00  0.00    -0.744 OA
ENDBRANCH  82  83
ENDBRANCH  50  75
BRANCH  62  87
ATOM     87  C   UNL A   1      39.670  33.860  37.164  1.00  0.00     0.058 A 
ATOM     88  C   UNL A   1      38.924  33.529  38.306  1.00  0.00     0.135 A 
ATOM     89  C   UNL A   1      40.273  35.128  37.120  1.00  0.00     0.135 A 
ATOM     90  F   UNL A   1      38.320  32.334  38.397  1.00  0.00    -0.206 F 
ATOM     91  C   UNL A   1      38.764  34.431  39.353  1.00  0.00     0.059 A 
ATOM     92  C   UNL A   1      40.152  36.032  38.169  1.00  0.00     0.059 A 
ATOM     93  F   UNL A   1      41.007  35.491  36.055  1.00  0.00    -0.206 F 
ATOM     94  C   UNL A   1      39.385  35.679  39.277  1.00  0.00     0.060 A 
BRANCH  94  95
ATOM     95  S   UNL A   1      39.197  36.825  40.659  1.00  0.00     0.124 S 
ATOM     96  O   UNL A   1      40.584  37.177  40.940  1.00  0.00    -0.237 OA
ATOM     97  O   UNL A   1      38.379  37.884  40.076  1.00  0.00    -0.237 OA
ATOM     98  O   UNL A   1      38.534  36.020  41.682  1.00  0.00    -0.744 OA
ENDBRANCH  94  95
ENDBRANCH  62  87
ENDBRANCH  36  37
ENDBRANCH  28  31
ENDBRANCH  26  27
ENDBRANCH  25  26
ENDBRANCH   1  25
TORSDOF 17
ENDMDL
MODEL 2
REMARK VINA RESULT:     -12.1      2.865      9.005
REMARK SMILES Cc1ccc(-c2c[nH]c(=O)cc2C(=O)NCCCCCCNC(=O)c2ccc(-c3c4nc(c(-c5c(F)cc(S(=O)(=O)[O-])cc5F)c5ccc([nH]5)c(-c5c(F)cc(S(=O)(=O)[O-])cc5F)c5nc(c(-c6c(F)cc(S(=O)(=O)[O-])cc6F)c6ccc3[nH]6)C=C5)C=C4)cc2)cc1Cl
REMARK SMILES IDX 19 1 18 2 17 3 16 4 15 5 13 6 14 7 12 9 6 10 7 11 8 12 11 13
REMARK SMILES IDX 9 14 10 16 5 17 1 18 2 19 3 20 92 21 4 22 91 23 93 24 20 25
REMARK SMILES IDX 21 26 22 27 23 28 24 30 25 31 26 32 90 33 27 34 89 35 28 36
REMARK SMILES IDX 29 37 30 38 83 39 31 40 88 41 82 42 84 43 32 44 87 45 81 46
REMARK SMILES IDX 80 47 33 49 67 50 46 51 66 52 47 53 50 54 65 55 85 56 48 57
REMARK SMILES IDX 49 58 64 60 86 61 51 62 34 63 35 64 44 65 36 66 37 67 43 68
REMARK SMILES IDX 45 69 38 70 39 71 40 72 41 73 42 74 68 75 69 76 78 77 70 78
REMARK SMILES IDX 71 79 77 80 79 81 72 82 73 83 74 84 75 85 76 86 52 87 53 88
REMARK SMILES IDX 62 89 54 90 55 91 61 92 63 93 56 94 57 95 58 96 59 97 60 98
REMARK H PARENT 15 8 8 15 22 29 84 48 50 59
REMARK Flexibility Score: inf
ROOT
ATOM      1  C   UNL A   1      31.777  30.876  26.289  1.00  0.00     0.002 C 
ENDROOT
BRANCH   1   2
ATOM      2  C   UNL A   1      33.072  30.146  26.674  1.00  0.00     0.002 C 
BRANCH   2   3
ATOM      3  C   UNL A   1      32.885  28.679  27.098  1.00  0.00     0.021 C 
BRANCH   3   4
ATOM      4  C   UNL A   1      31.437  28.333  27.446  1.00  0.00     0.116 C 
BRANCH   4   5
ATOM      5  N   UNL A   1      31.200  26.921  27.233  1.00  0.00    -0.352 N 
ATOM      6  C   UNL A   1      31.060  26.087  26.178  1.00  0.00     0.252 C 
ATOM      7  O   UNL A   1      30.821  24.923  26.512  1.00  0.00    -0.269 OA
ATOM      8  H   UNL A   1      31.119  26.437  28.087  1.00  0.00     0.163 HD
BRANCH   6   9
ATOM      9  C   UNL A   1      31.222  26.458  24.718  1.00  0.00     0.054 A 
ATOM     10  C   UNL A   1      32.399  25.952  23.959  1.00  0.00     0.011 A 
ATOM     11  C   UNL A   1      32.618  26.407  22.708  1.00  0.00     0.095 A 
ATOM     12  N   UNL A   1      31.769  27.298  22.117  1.00  0.00    -0.328 N 
ATOM     13  C   UNL A   1      30.337  27.229  24.059  1.00  0.00     0.086 A 
ATOM     14  C   UNL A   1      30.614  27.741  22.697  1.00  0.00     0.248 A 
ATOM     15  H   UNL A   1      32.002  27.640  21.224  1.00  0.00     0.169 HD
ATOM     16  O   UNL A   1      29.852  28.521  22.146  1.00  0.00    -0.270 OA
BRANCH  10  17
ATOM     17  C   UNL A   1      33.338  24.900  24.409  1.00  0.00    -0.015 A 
ATOM     18  C   UNL A   1      36.178  21.886  25.658  1.00  0.00     0.046 C 
ATOM     19  C   UNL A   1      35.170  22.915  25.235  1.00  0.00    -0.032 A 
ATOM     20  C   UNL A   1      35.433  24.271  25.468  1.00  0.00     0.005 A 
ATOM     21  C   UNL A   1      33.966  22.564  24.606  1.00  0.00     0.044 A 
ATOM     22  C   UNL A   1      34.520  25.252  25.074  1.00  0.00     0.009 A 
ATOM     23  C   UNL A   1      33.063  23.545  24.187  1.00  0.00     0.029 A 
ATOM     24  Cl  UNL A   1      33.546  20.910  24.325  1.00  0.00    -0.084 Cl
ENDBRANCH  10  17
ENDBRANCH   6   9
ENDBRANCH   4   5
ENDBRANCH   3   4
ENDBRANCH   2   3
ENDBRANCH   1   2
BRANCH   1  25
ATOM     25  C   UNL A   1      31.666  32.304  26.829  1.00  0.00     0.021 C 
BRANCH  25  26
ATOM     26  C   UNL A   1      32.927  32.801  27.523  1.00  0.00     0.116 C 
BRANCH  26  27
ATOM     27  N   UNL A   1      32.855  34.227  27.796  1.00  0.00    -0.352 N 
ATOM     28  C   UNL A   1      33.482  34.948  28.780  1.00  0.00     0.251 C 
ATOM     29  H   UNL A   1      32.277  34.747  27.192  1.00  0.00     0.163 HD
ATOM     30  O   UNL A   1      33.114  36.091  29.034  1.00  0.00    -0.269 OA
BRANCH  28  31
ATOM     31  C   UNL A   1      34.596  34.336  29.533  1.00  0.00     0.039 A 
ATOM     32  C   UNL A   1      34.317  33.602  30.687  1.00  0.00     0.014 A 
ATOM     33  C   UNL A   1      35.916  34.495  29.099  1.00  0.00     0.014 A 
ATOM     34  C   UNL A   1      35.360  32.993  31.385  1.00  0.00     0.010 A 
ATOM     35  C   UNL A   1      36.943  33.819  29.749  1.00  0.00     0.010 A 
ATOM     36  C   UNL A   1      36.679  33.076  30.907  1.00  0.00    -0.014 A 
BRANCH  36  37
ATOM     37  C   UNL A   1      37.801  32.413  31.621  1.00  0.00     0.031 A 
ATOM     38  C   UNL A   1      38.251  32.938  32.958  1.00  0.00     0.074 A 
ATOM     39  C   UNL A   1      38.443  31.380  31.043  1.00  0.00     0.049 A 
ATOM     40  N   UNL A   1      39.246  32.539  33.709  1.00  0.00    -0.248 NA
ATOM     41  C   UNL A   1      37.503  34.079  33.512  1.00  0.00     0.031 C 
ATOM     42  C   UNL A   1      38.123  30.812  29.732  1.00  0.00     0.029 A 
ATOM     43  N   UNL A   1      39.503  30.628  31.480  1.00  0.00    -0.354 N 
ATOM     44  C   UNL A   1      39.248  33.383  34.814  1.00  0.00     0.074 A 
ATOM     45  C   UNL A   1      38.198  34.355  34.605  1.00  0.00     0.031 C 
ATOM     46  C   UNL A   1      38.950  29.784  29.484  1.00  0.00     0.029 A 
ATOM     47  C   UNL A   1      39.886  29.647  30.595  1.00  0.00     0.049 A 
ATOM     48  H   UNL A   1      39.949  30.776  32.345  1.00  0.00     0.167 HD
ATOM     49  C   UNL A   1      40.035  33.335  35.915  1.00  0.00     0.037 A 
ATOM     50  C   UNL A   1      40.884  28.743  30.670  1.00  0.00     0.037 A 
ATOM     51  C   UNL A   1      41.066  32.351  36.121  1.00  0.00     0.049 A 
ATOM     52  C   UNL A   1      41.758  28.721  31.895  1.00  0.00     0.074 A 
ATOM     53  C   UNL A   1      41.891  32.185  37.220  1.00  0.00     0.029 A 
ATOM     54  N   UNL A   1      41.418  31.368  35.207  1.00  0.00    -0.354 N 
ATOM     55  N   UNL A   1      41.709  29.489  32.958  1.00  0.00    -0.248 NA
ATOM     56  C   UNL A   1      42.819  27.706  31.935  1.00  0.00     0.031 C 
ATOM     57  C   UNL A   1      42.774  31.136  36.949  1.00  0.00     0.029 A 
ATOM     58  C   UNL A   1      42.461  30.607  35.707  1.00  0.00     0.049 A 
ATOM     59  H   UNL A   1      40.989  31.232  34.331  1.00  0.00     0.167 HD
ATOM     60  C   UNL A   1      42.710  29.028  33.808  1.00  0.00     0.074 A 
ATOM     61  C   UNL A   1      43.339  27.908  33.138  1.00  0.00     0.031 C 
ATOM     62  C   UNL A   1      43.071  29.487  35.032  1.00  0.00     0.037 A 
BRANCH  49  63
ATOM     63  C   UNL A   1      39.810  34.375  36.980  1.00  0.00     0.058 A 
ATOM     64  C   UNL A   1      39.061  34.099  38.137  1.00  0.00     0.135 A 
ATOM     65  C   UNL A   1      40.370  35.657  36.858  1.00  0.00     0.135 A 
ATOM     66  F   UNL A   1      38.488  32.895  38.301  1.00  0.00    -0.206 F 
ATOM     67  C   UNL A   1      38.846  35.064  39.114  1.00  0.00     0.059 A 
ATOM     68  C   UNL A   1      40.196  36.629  37.840  1.00  0.00     0.059 A 
ATOM     69  F   UNL A   1      41.095  35.979  35.775  1.00  0.00    -0.206 F 
ATOM     70  C   UNL A   1      39.417  36.327  38.957  1.00  0.00     0.060 A 
BRANCH  70  71
ATOM     71  S   UNL A   1      39.127  37.568  40.235  1.00  0.00     0.124 S 
ATOM     72  O   UNL A   1      38.180  38.457  39.567  1.00  0.00    -0.237 OA
ATOM     73  O   UNL A   1      38.584  36.769  41.327  1.00  0.00    -0.237 OA
ATOM     74  O   UNL A   1      40.453  38.131  40.472  1.00  0.00    -0.744 OA
ENDBRANCH  70  71
ENDBRANCH  49  63
BRANCH  50  75
ATOM     75  C   UNL A   1      41.089  27.770  29.565  1.00  0.00     0.058 A 
ATOM     76  C   UNL A   1      42.190  27.879  28.701  1.00  0.00     0.135 A 
ATOM     77  C   UNL A   1      40.201  26.703  29.353  1.00  0.00     0.135 A 
ATOM     78  F   UNL A   1      43.066  28.884  28.857  1.00  0.00    -0.206 F 
ATOM     79  C   UNL A   1      42.393  26.983  27.657  1.00  0.00     0.059 A 
ATOM     80  C   UNL A   1      40.396  25.777  28.334  1.00  0.00     0.059 A 
ATOM     81  F   UNL A   1      39.141  26.541  30.161  1.00  0.00    -0.206 F 
ATOM     82  C   UNL A   1      41.491  25.931  27.484  1.00  0.00     0.060 A 
BRANCH  82  83
ATOM     83  S   UNL A   1      41.789  24.747  26.155  1.00  0.00     0.124 S 
ATOM     84  O   UNL A   1      40.680  23.818  26.334  1.00  0.00    -0.237 OA
ATOM     85  O   UNL A   1      41.726  25.597  24.970  1.00  0.00    -0.237 OA
ATOM     86  O   UNL A   1      43.113  24.218  26.467  1.00  0.00    -0.744 OA
ENDBRANCH  82  83
ENDBRANCH  50  75
BRANCH  62  87
ATOM     87  C   UNL A   1      44.168  28.751  35.754  1.00  0.00     0.058 A 
ATOM     88  C   UNL A   1      45.515  29.129  35.639  1.00  0.00     0.135 A 
ATOM     89  C   UNL A   1      43.856  27.687  36.616  1.00  0.00     0.135 A 
ATOM     90  F   UNL A   1      45.868  30.135  34.824  1.00  0.00    -0.206 F 
ATOM     91  C   UNL A   1      46.517  28.460  36.335  1.00  0.00     0.059 A 
ATOM     92  C   UNL A   1      44.838  27.025  37.345  1.00  0.00     0.059 A 
ATOM     93  F   UNL A   1      42.582  27.292  36.770  1.00  0.00    -0.206 F 
ATOM     94  C   UNL A   1      46.168  27.411  37.189  1.00  0.00     0.060 A 
BRANCH  94  95
ATOM     95  S   UNL A   1      47.475  26.576  38.112  1.00  0.00     0.124 S 
ATOM     96  O   UNL A   1      47.126  26.914  39.488  1.00  0.00    -0.237 OA
ATOM     97  O   UNL A   1      47.279  25.179  37.734  1.00  0.00    -0.237 OA
ATOM     98  O   UNL A   1      48.698  27.192  37.605  1.00  0.00    -0.744 OA
ENDBRANCH  94  95
ENDBRANCH  62  87
ENDBRANCH  36  37
ENDBRANCH  28  31
ENDBRANCH  26  27
ENDBRANCH  25  26
ENDBRANCH   1  25
TORSDOF 17
ENDMDL
MODEL 3
REMARK VINA RESULT:     -12.1      1.499      2.897
REMARK SMILES Cc1ccc(-c2c[nH]c(=O)cc2C(=O)NCCCCCCNC(=O)c2ccc(-c3c4nc(c(-c5c(F)cc(S(=O)(=O)[O-])cc5F)c5ccc([nH]5)c(-c5c(F)cc(S(=O)(=O)[O-])cc5F)c5nc(c(-c6c(F)cc(S(=O)(=O)[O-])cc6F)c6ccc3[nH]6)C=C5)C=C4)cc2)cc1Cl
REMARK SMILES IDX 19 1 18 2 17 3 16 4 15 5 13 6 14 7 12 9 6 10 7 11 8 12 11 13
REMARK SMILES IDX 9 14 10 16 5 17 1 18 2 19 3 20 92 21 4 22 91 23 93 24 20 25
REMARK SMILES IDX 21 26 22 27 23 28 24 30 25 31 26 32 90 33 27 34 89 35 28 36
REMARK SMILES IDX 29 37 30 38 83 39 31 40 88 41 82 42 84 43 32 44 87 45 81 46
REMARK SMILES IDX 80 47 33 49 67 50 46 51 66 52 47 53 50 54 65 55 85 56 48 57
REMARK SMILES IDX 49 58 64 60 86 61 51 62 34 63 35 64 44 65 36 66 37 67 43 68
REMARK SMILES IDX 45 69 38 70 39 71 40 72 41 73 42 74 68 75 69 76 78 77 70 78
REMARK SMILES IDX 71 79 77 80 79 81 72 82 73 83 74 84 75 85 76 86 52 87 53 88
REMARK SMILES IDX 62 89 54 90 55 91 61 92 63 93 56 94 57 95 58 96 59 97 60 98
REMARK H PARENT 15 8 8 15 22 29 84 48 50 59
REMARK Flexibility Score: inf
ROOT
ATOM      1  C   UNL A   1      38.779  22.374  26.298  1.00  0.00     0.002 C 
ENDROOT
BRANCH   1   2
ATOM      2  C   UNL A   1      38.226  21.309  25.341  1.00  0.00     0.002 C 
BRANCH   2   3
ATOM      3  C   UNL A   1      36.695  21.158  25.357  1.00  0.00     0.021 C 
BRANCH   3   4
ATOM      4  C   UNL A   1      35.963  22.474  25.620  1.00  0.00     0.116 C 
BRANCH   4   5
ATOM      5  N   UNL A   1      35.388  22.976  24.391  1.00  0.00    -0.352 N 
ATOM      6  C   UNL A   1      34.166  23.350  23.947  1.00  0.00     0.252 C 
ATOM      7  O   UNL A   1      34.167  23.686  22.759  1.00  0.00    -0.269 OA
ATOM      8  H   UNL A   1      36.071  23.074  23.687  1.00  0.00     0.163 HD
BRANCH   6   9
ATOM      9  C   UNL A   1      32.901  23.429  24.776  1.00  0.00     0.054 A 
ATOM     10  C   UNL A   1      32.048  22.219  24.930  1.00  0.00     0.011 A 
ATOM     11  C   UNL A   1      30.850  22.334  25.541  1.00  0.00     0.095 A 
ATOM     12  N   UNL A   1      30.420  23.529  26.043  1.00  0.00    -0.328 N 
ATOM     13  C   UNL A   1      32.507  24.556  25.399  1.00  0.00     0.086 A 
ATOM     14  C   UNL A   1      31.174  24.667  26.037  1.00  0.00     0.248 A 
ATOM     15  H   UNL A   1      29.517  23.572  26.431  1.00  0.00     0.169 HD
ATOM     16  O   UNL A   1      30.785  25.724  26.511  1.00  0.00    -0.270 OA
BRANCH  10  17
ATOM     17  C   UNL A   1      32.420  20.837  24.553  1.00  0.00    -0.015 A 
ATOM     18  C   UNL A   1      33.630  16.823  23.488  1.00  0.00     0.046 C 
ATOM     19  C   UNL A   1      33.184  18.211  23.843  1.00  0.00    -0.032 A 
ATOM     20  C   UNL A   1      33.416  18.699  25.137  1.00  0.00     0.005 A 
ATOM     21  C   UNL A   1      32.542  19.048  22.918  1.00  0.00     0.044 A 
ATOM     22  C   UNL A   1      33.023  19.991  25.492  1.00  0.00     0.009 A 
ATOM     23  C   UNL A   1      32.172  20.351  23.263  1.00  0.00     0.029 A 
ATOM     24  Cl  UNL A   1      32.177  18.506  21.316  1.00  0.00    -0.084 Cl
ENDBRANCH  10  17
ENDBRANCH   6   9
ENDBRANCH   4   5
ENDBRANCH   3   4
ENDBRANCH   2   3
ENDBRANCH   1   2
BRANCH   1  25
ATOM     25  C   UNL A   1      40.038  21.954  27.061  1.00  0.00     0.021 C 
BRANCH  25  26
ATOM     26  C   UNL A   1      40.934  23.119  27.461  1.00  0.00     0.116 C 
BRANCH  26  27
ATOM     27  N   UNL A   1      41.367  23.878  26.298  1.00  0.00    -0.352 N 
ATOM     28  C   UNL A   1      41.409  25.237  26.124  1.00  0.00     0.251 C 
ATOM     29  H   UNL A   1      41.673  23.342  25.531  1.00  0.00     0.163 HD
ATOM     30  O   UNL A   1      41.552  25.710  25.000  1.00  0.00    -0.269 OA
BRANCH  28  31
ATOM     31  C   UNL A   1      41.275  26.125  27.297  1.00  0.00     0.039 A 
ATOM     32  C   UNL A   1      42.258  27.088  27.538  1.00  0.00     0.014 A 
ATOM     33  C   UNL A   1      40.183  26.000  28.161  1.00  0.00     0.014 A 
ATOM     34  C   UNL A   1      42.123  27.952  28.626  1.00  0.00     0.010 A 
ATOM     35  C   UNL A   1      40.008  26.914  29.193  1.00  0.00     0.010 A 
ATOM     36  C   UNL A   1      40.984  27.888  29.447  1.00  0.00    -0.014 A 
BRANCH  36  37
ATOM     37  C   UNL A   1      40.808  28.816  30.594  1.00  0.00     0.031 A 
ATOM     38  C   UNL A   1      41.670  28.663  31.819  1.00  0.00     0.074 A 
ATOM     39  C   UNL A   1      39.843  29.755  30.552  1.00  0.00     0.049 A 
ATOM     40  N   UNL A   1      41.631  29.330  32.945  1.00  0.00    -0.248 NA
ATOM     41  C   UNL A   1      42.691  27.603  31.787  1.00  0.00     0.031 C 
ATOM     42  C   UNL A   1      38.920  29.970  29.436  1.00  0.00     0.029 A 
ATOM     43  N   UNL A   1      39.472  30.699  31.475  1.00  0.00    -0.354 N 
ATOM     44  C   UNL A   1      42.610  28.766  33.753  1.00  0.00     0.074 A 
ATOM     45  C   UNL A   1      43.183  27.662  33.015  1.00  0.00     0.031 C 
ATOM     46  C   UNL A   1      38.109  31.000  29.728  1.00  0.00     0.029 A 
ATOM     47  C   UNL A   1      38.423  31.489  31.067  1.00  0.00     0.049 A 
ATOM     48  H   UNL A   1      39.915  30.802  32.349  1.00  0.00     0.167 HD
ATOM     49  C   UNL A   1      43.015  29.150  34.987  1.00  0.00     0.037 A 
ATOM     50  C   UNL A   1      37.784  32.490  31.703  1.00  0.00     0.037 A 
ATOM     51  C   UNL A   1      42.450  30.263  35.706  1.00  0.00     0.049 A 
ATOM     52  C   UNL A   1      38.238  32.887  33.081  1.00  0.00     0.074 A 
ATOM     53  C   UNL A   1      42.816  30.764  36.942  1.00  0.00     0.029 A 
ATOM     54  N   UNL A   1      41.395  31.044  35.255  1.00  0.00    -0.354 N 
ATOM     55  N   UNL A   1      39.206  32.381  33.809  1.00  0.00    -0.248 NA
ATOM     56  C   UNL A   1      37.519  33.996  33.724  1.00  0.00     0.031 C 
ATOM     57  C   UNL A   1      41.952  31.815  37.261  1.00  0.00     0.029 A 
ATOM     58  C   UNL A   1      41.084  32.010  36.198  1.00  0.00     0.049 A 
ATOM     59  H   UNL A   1      40.935  30.929  34.392  1.00  0.00     0.167 HD
ATOM     60  C   UNL A   1      39.235  33.132  34.980  1.00  0.00     0.074 A 
ATOM     61  C   UNL A   1      38.194  34.132  34.858  1.00  0.00     0.031 C 
ATOM     62  C   UNL A   1      40.051  33.007  36.056  1.00  0.00     0.037 A 
BRANCH  49  63
ATOM     63  C   UNL A   1      44.121  28.362  35.635  1.00  0.00     0.058 A 
ATOM     64  C   UNL A   1      45.475  28.682  35.433  1.00  0.00     0.135 A 
ATOM     65  C   UNL A   1      43.828  27.289  36.492  1.00  0.00     0.135 A 
ATOM     66  F   UNL A   1      45.816  29.689  34.612  1.00  0.00    -0.206 F 
ATOM     67  C   UNL A   1      46.495  27.946  36.024  1.00  0.00     0.059 A 
ATOM     68  C   UNL A   1      44.833  26.559  37.122  1.00  0.00     0.059 A 
ATOM     69  F   UNL A   1      42.554  26.936  36.724  1.00  0.00    -0.206 F 
ATOM     70  C   UNL A   1      46.165  26.885  36.869  1.00  0.00     0.060 A 
BRANCH  70  71
ATOM     71  S   UNL A   1      47.502  25.941  37.628  1.00  0.00     0.124 S 
ATOM     72  O   UNL A   1      48.613  26.886  37.537  1.00  0.00    -0.237 OA
ATOM     73  O   UNL A   1      46.987  25.697  38.971  1.00  0.00    -0.237 OA
ATOM     74  O   UNL A   1      47.613  24.760  36.777  1.00  0.00    -0.744 OA
ENDBRANCH  70  71
ENDBRANCH  49  63
BRANCH  50  75
ATOM     75  C   UNL A   1      36.664  33.203  31.031  1.00  0.00     0.058 A 
ATOM     76  C   UNL A   1      36.909  34.114  29.993  1.00  0.00     0.135 A 
ATOM     77  C   UNL A   1      35.328  32.981  31.400  1.00  0.00     0.135 A 
ATOM     78  F   UNL A   1      38.169  34.366  29.605  1.00  0.00    -0.206 F 
ATOM     79  C   UNL A   1      35.875  34.796  29.359  1.00  0.00     0.059 A 
ATOM     80  C   UNL A   1      34.274  33.628  30.763  1.00  0.00     0.059 A 
ATOM     81  F   UNL A   1      35.037  32.106  32.376  1.00  0.00    -0.206 F 
ATOM     82  C   UNL A   1      34.558  34.542  29.750  1.00  0.00     0.060 A 
BRANCH  82  83
ATOM     83  S   UNL A   1      33.222  35.397  28.889  1.00  0.00     0.124 S 
ATOM     84  O   UNL A   1      33.962  36.337  28.055  1.00  0.00    -0.237 OA
ATOM     85  O   UNL A   1      32.561  34.302  28.186  1.00  0.00    -0.237 OA
ATOM     86  O   UNL A   1      32.449  35.991  29.976  1.00  0.00    -0.744 OA
ENDBRANCH  82  83
ENDBRANCH  50  75
BRANCH  62  87
ATOM     87  C   UNL A   1      39.887  34.004  37.172  1.00  0.00     0.058 A 
ATOM     88  C   UNL A   1      40.578  35.225  37.183  1.00  0.00     0.135 A 
ATOM     89  C   UNL A   1      38.982  33.752  38.217  1.00  0.00     0.135 A 
ATOM     90  F   UNL A   1      41.459  35.513  36.213  1.00  0.00    -0.206 F 
ATOM     91  C   UNL A   1      40.394  36.152  38.205  1.00  0.00     0.059 A 
ATOM     92  C   UNL A   1      38.760  34.678  39.230  1.00  0.00     0.059 A 
ATOM     93  F   UNL A   1      38.287  32.603  38.248  1.00  0.00    -0.206 F 
ATOM     94  C   UNL A   1      39.480  35.871  39.222  1.00  0.00     0.060 A 
BRANCH  94  95
ATOM     95  S   UNL A   1      39.227  37.098  40.522  1.00  0.00     0.124 S 
ATOM     96  O   UNL A   1      40.550  37.707  40.613  1.00  0.00    -0.237 OA
ATOM     97  O   UNL A   1      38.179  37.941  39.954  1.00  0.00    -0.237 OA
ATOM     98  O   UNL A   1      38.825  36.296  41.674  1.00  0.00    -0.744 OA
ENDBRANCH  94  95
ENDBRANCH  62  87
ENDBRANCH  36  37
ENDBRANCH  28  31
ENDBRANCH  26  27
ENDBRANCH  25  26
ENDBRANCH   1  25
TORSDOF 17
ENDMDL
