MODEL 1
REMARK VINA RESULT:     -12.3      0.000      0.000
REMARK SMILES O=C(NCCCCCCNC(=O)c1ccc(N2C(=O)/C(=C/C3=c4ccccc4=NC3)SC2=S)cc1O)c1ccc(-c2c3nc(c(-c4c(F)cc(S(=O)(=O)[O-])cc4F)c4ccc([nH]4)c(-c4c(F)cc(S(=O)(=O)[O-])cc4F)c4nc(c(-c5c(F)cc(S(=O)(=O)[O-])cc5F)c5ccc2[nH]5)C=C4)C=C3)cc1
REMARK SMILES IDX 6 1 5 2 4 3 3 4 1 5 2 6 37 8 38 9 102 10 39 11 101 12 40 13
REMARK SMILES IDX 41 14 42 15 95 16 43 17 100 18 94 19 96 20 44 21 99 22 93 23
REMARK SMILES IDX 92 24 45 26 79 27 58 28 78 29 59 30 62 31 77 32 97 33 60 34
REMARK SMILES IDX 61 35 76 37 98 38 63 39 46 40 47 41 56 42 48 43 49 44 55 45
REMARK SMILES IDX 57 46 50 47 51 48 52 49 53 50 54 51 80 52 81 53 90 54 82 55
REMARK SMILES IDX 83 56 89 57 91 58 84 59 85 60 86 61 87 62 88 63 64 64 65 65
REMARK SMILES IDX 74 66 66 67 67 68 73 69 75 70 68 71 69 72 70 73 71 74 72 75
REMARK SMILES IDX 7 76 8 77 9 78 10 79 11 80 12 82 13 83 14 84 35 85 15 86
REMARK SMILES IDX 34 87 16 88 36 89 17 91 18 92 32 93 19 94 20 95 31 96 33 97
REMARK SMILES IDX 21 98 22 99 23 100 30 101 24 102 28 103 29 104 25 105 27 106
REMARK SMILES IDX 26 107
REMARK H PARENT 3 7 96 25 62 36 10 81 36 90
REMARK Flexibility Score: inf
ROOT
ATOM      1  C   UNL A   1      40.404  20.431  26.549  1.00  0.00     0.002 C 
ENDROOT
BRANCH   1   2
ATOM      2  C   UNL A   1      41.431  21.503  26.914  1.00  0.00     0.021 C 
BRANCH   2   3
ATOM      3  C   UNL A   1      41.066  22.913  26.470  1.00  0.00     0.116 C 
BRANCH   3   4
ATOM      4  N   UNL A   1      42.132  23.543  25.713  1.00  0.00    -0.352 N 
ATOM      5  O   UNL A   1      43.379  25.220  24.896  1.00  0.00    -0.269 OA
ATOM      6  C   UNL A   1      42.603  24.829  25.765  1.00  0.00     0.251 C 
ATOM      7  H   UNL A   1      42.584  22.958  25.062  1.00  0.00     0.163 HD
BRANCH   6   8
ATOM      8  C   UNL A   1      42.182  25.744  26.850  1.00  0.00     0.039 A 
ATOM      9  C   UNL A   1      42.699  27.042  26.870  1.00  0.00     0.014 A 
ATOM     10  C   UNL A   1      41.338  25.318  27.879  1.00  0.00     0.014 A 
ATOM     11  C   UNL A   1      42.372  27.903  27.918  1.00  0.00     0.010 A 
ATOM     12  C   UNL A   1      40.924  26.212  28.863  1.00  0.00     0.010 A 
ATOM     13  C   UNL A   1      41.484  27.495  28.927  1.00  0.00    -0.014 A 
BRANCH  13  14
ATOM     14  C   UNL A   1      41.239  28.351  30.116  1.00  0.00     0.031 A 
ATOM     15  C   UNL A   1      42.171  28.259  31.300  1.00  0.00     0.074 A 
ATOM     16  C   UNL A   1      40.205  29.213  30.133  1.00  0.00     0.049 A 
ATOM     17  N   UNL A   1      42.152  28.936  32.419  1.00  0.00    -0.248 NA
ATOM     18  C   UNL A   1      43.249  27.258  31.229  1.00  0.00     0.031 C 
ATOM     19  C   UNL A   1      39.216  29.367  29.065  1.00  0.00     0.029 A 
ATOM     20  N   UNL A   1      39.822  30.134  31.076  1.00  0.00    -0.354 N 
ATOM     21  C   UNL A   1      43.204  28.437  33.179  1.00  0.00     0.074 A 
ATOM     22  C   UNL A   1      43.786  27.345  32.434  1.00  0.00     0.031 C 
ATOM     23  C   UNL A   1      38.373  30.361  29.388  1.00  0.00     0.029 A 
ATOM     24  C   UNL A   1      38.737  30.891  30.700  1.00  0.00     0.049 A 
ATOM     25  H   UNL A   1      40.281  30.242  31.940  1.00  0.00     0.167 HD
ATOM     26  C   UNL A   1      43.679  28.878  34.367  1.00  0.00     0.037 A 
ATOM     27  C   UNL A   1      38.116  31.904  31.336  1.00  0.00     0.037 A 
ATOM     28  C   UNL A   1      43.124  29.994  35.082  1.00  0.00     0.049 A 
ATOM     29  C   UNL A   1      38.636  32.360  32.673  1.00  0.00     0.074 A 
ATOM     30  C   UNL A   1      43.565  30.561  36.263  1.00  0.00     0.029 A 
ATOM     31  N   UNL A   1      42.006  30.710  34.682  1.00  0.00    -0.354 N 
ATOM     32  N   UNL A   1      39.679  31.927  33.341  1.00  0.00    -0.248 NA
ATOM     33  C   UNL A   1      37.899  33.439  33.345  1.00  0.00     0.031 C 
ATOM     34  C   UNL A   1      42.681  31.586  36.606  1.00  0.00     0.029 A 
ATOM     35  C   UNL A   1      41.717  31.691  35.615  1.00  0.00     0.049 A 
ATOM     36  H   UNL A   1      41.493  30.544  33.857  1.00  0.00     0.167 HD
ATOM     37  C   UNL A   1      39.728  32.684  34.507  1.00  0.00     0.074 A 
ATOM     38  C   UNL A   1      38.621  33.615  34.446  1.00  0.00     0.031 C 
ATOM     39  C   UNL A   1      40.606  32.608  35.536  1.00  0.00     0.037 A 
BRANCH  26  40
ATOM     40  C   UNL A   1      44.864  28.161  34.953  1.00  0.00     0.058 A 
ATOM     41  C   UNL A   1      46.180  28.492  34.587  1.00  0.00     0.135 A 
ATOM     42  C   UNL A   1      44.687  27.140  35.900  1.00  0.00     0.135 A 
ATOM     43  F   UNL A   1      46.407  29.450  33.674  1.00  0.00    -0.206 F 
ATOM     44  C   UNL A   1      47.274  27.810  35.106  1.00  0.00     0.059 A 
ATOM     45  C   UNL A   1      45.770  26.465  36.459  1.00  0.00     0.059 A 
ATOM     46  F   UNL A   1      43.453  26.782  36.287  1.00  0.00    -0.206 F 
ATOM     47  C   UNL A   1      47.058  26.795  36.041  1.00  0.00     0.060 A 
BRANCH  47  48
ATOM     48  S   UNL A   1      48.490  25.910  36.690  1.00  0.00     0.124 S 
ATOM     49  O   UNL A   1      49.586  26.775  36.262  1.00  0.00    -0.237 OA
ATOM     50  O   UNL A   1      48.221  25.892  38.124  1.00  0.00    -0.237 OA
ATOM     51  O   UNL A   1      48.420  24.613  36.025  1.00  0.00    -0.744 OA
ENDBRANCH  47  48
ENDBRANCH  26  40
BRANCH  27  52
ATOM     52  C   UNL A   1      36.959  32.577  30.687  1.00  0.00     0.058 A 
ATOM     53  C   UNL A   1      35.643  32.250  31.044  1.00  0.00     0.135 A 
ATOM     54  C   UNL A   1      37.144  33.600  29.742  1.00  0.00     0.135 A 
ATOM     55  F   UNL A   1      35.413  31.273  31.935  1.00  0.00    -0.206 F 
ATOM     56  C   UNL A   1      34.552  32.916  30.495  1.00  0.00     0.059 A 
ATOM     57  C   UNL A   1      36.070  34.295  29.195  1.00  0.00     0.059 A 
ATOM     58  F   UNL A   1      38.384  33.958  29.374  1.00  0.00    -0.206 F 
ATOM     59  C   UNL A   1      34.776  33.946  29.580  1.00  0.00     0.060 A 
BRANCH  59  60
ATOM     60  S   UNL A   1      33.354  34.858  28.941  1.00  0.00     0.124 S 
ATOM     61  O   UNL A   1      32.583  35.095  30.155  1.00  0.00    -0.237 OA
ATOM     62  O   UNL A   1      33.989  36.031  28.348  1.00  0.00    -0.237 OA
ATOM     63  O   UNL A   1      32.758  33.927  27.986  1.00  0.00    -0.744 OA
ENDBRANCH  59  60
ENDBRANCH  27  52
BRANCH  39  64
ATOM     64  C   UNL A   1      40.413  33.537  36.702  1.00  0.00     0.058 A 
ATOM     65  C   UNL A   1      41.078  34.770  36.760  1.00  0.00     0.135 A 
ATOM     66  C   UNL A   1      39.451  33.258  37.687  1.00  0.00     0.135 A 
ATOM     67  F   UNL A   1      42.010  35.080  35.847  1.00  0.00    -0.206 F 
ATOM     68  C   UNL A   1      40.786  35.704  37.750  1.00  0.00     0.059 A 
ATOM     69  C   UNL A   1      39.125  34.188  38.670  1.00  0.00     0.059 A 
ATOM     70  F   UNL A   1      38.780  32.096  37.669  1.00  0.00    -0.206 F 
ATOM     71  C   UNL A   1      39.795  35.410  38.689  1.00  0.00     0.060 A 
BRANCH  71  72
ATOM     72  S   UNL A   1      39.362  36.676  39.902  1.00  0.00     0.124 S 
ATOM     73  O   UNL A   1      38.850  37.741  39.047  1.00  0.00    -0.237 OA
ATOM     74  O   UNL A   1      38.368  35.988  40.722  1.00  0.00    -0.237 OA
ATOM     75  O   UNL A   1      40.629  36.960  40.567  1.00  0.00    -0.744 OA
ENDBRANCH  71  72
ENDBRANCH  39  64
ENDBRANCH  13  14
ENDBRANCH   6   8
ENDBRANCH   3   4
ENDBRANCH   2   3
ENDBRANCH   1   2
BRANCH   1  76
ATOM     76  C   UNL A   1      39.230  20.916  25.693  1.00  0.00     0.002 C 
BRANCH  76  77
ATOM     77  C   UNL A   1      38.278  19.821  25.206  1.00  0.00     0.021 C 
BRANCH  77  78
ATOM     78  C   UNL A   1      36.861  20.298  24.907  1.00  0.00     0.116 C 
BRANCH  78  79
ATOM     79  N   UNL A   1      35.925  19.192  24.818  1.00  0.00    -0.352 N 
ATOM     80  C   UNL A   1      34.556  19.241  24.827  1.00  0.00     0.255 C 
ATOM     81  H   UNL A   1      36.324  18.294  24.743  1.00  0.00     0.163 HD
ATOM     82  O   UNL A   1      33.889  18.211  24.849  1.00  0.00    -0.269 OA
BRANCH  80  83
ATOM     83  C   UNL A   1      33.877  20.550  24.884  1.00  0.00     0.081 A 
ATOM     84  C   UNL A   1      34.265  21.436  25.891  1.00  0.00     0.020 A 
ATOM     85  C   UNL A   1      32.883  20.918  23.974  1.00  0.00     0.130 A 
ATOM     86  C   UNL A   1      33.678  22.701  25.971  1.00  0.00     0.028 A 
ATOM     87  C   UNL A   1      32.291  22.178  24.061  1.00  0.00     0.073 A 
ATOM     88  C   UNL A   1      32.669  23.076  25.072  1.00  0.00     0.054 A 
BRANCH  85  89
ATOM     89  O   UNL A   1      32.496  20.059  22.983  1.00  0.00    -0.507 OA
ATOM     90  H   UNL A   1      31.594  20.006  22.735  1.00  0.00     0.293 HD
ENDBRANCH  85  89
BRANCH  88  91
ATOM     91  N   UNL A   1      32.047  24.358  25.168  1.00  0.00    -0.261 N 
ATOM     92  C   UNL A   1      32.653  25.470  24.583  1.00  0.00     0.270 C 
ATOM     93  C   UNL A   1      30.847  24.588  25.830  1.00  0.00     0.152 C 
ATOM     94  O   UNL A   1      33.715  25.515  23.979  1.00  0.00    -0.268 OA
ATOM     95  C   UNL A   1      31.789  26.672  24.759  1.00  0.00     0.081 C 
ATOM     96  S   UNL A   1      30.359  26.263  25.610  1.00  0.00    -0.054 SA
ATOM     97  S   UNL A   1      29.949  23.576  26.817  1.00  0.00    -0.051 S 
ATOM     98  C   UNL A   1      32.119  27.871  24.263  1.00  0.00     0.027 C 
BRANCH  98  99
ATOM     99  C   UNL A   1      31.346  29.082  24.400  1.00  0.00    -0.016 C 
ATOM    100  C   UNL A   1      30.269  29.424  23.698  1.00  0.00     0.005 A 
ATOM    101  C   UNL A   1      31.684  30.149  25.402  1.00  0.00     0.179 C 
ATOM    102  C   UNL A   1      29.509  28.835  22.642  1.00  0.00     0.011 A 
ATOM    103  C   UNL A   1      29.899  30.724  24.286  1.00  0.00     0.065 A 
ATOM    104  N   UNL A   1      30.649  31.200  25.234  1.00  0.00    -0.280 NA
ATOM    105  C   UNL A   1      28.425  29.487  22.187  1.00  0.00     0.001 A 
ATOM    106  C   UNL A   1      28.689  31.373  23.740  1.00  0.00     0.028 A 
ATOM    107  C   UNL A   1      28.014  30.762  22.751  1.00  0.00     0.002 A 
ENDBRANCH  98  99
ENDBRANCH  88  91
ENDBRANCH  80  83
ENDBRANCH  78  79
ENDBRANCH  77  78
ENDBRANCH  76  77
ENDBRANCH   1  76
TORSDOF 19
ENDMDL
MODEL 2
REMARK VINA RESULT:     -12.2      1.483      2.242
REMARK SMILES O=C(NCCCCCCNC(=O)c1ccc(N2C(=O)/C(=C/C3=c4ccccc4=NC3)SC2=S)cc1O)c1ccc(-c2c3nc(c(-c4c(F)cc(S(=O)(=O)[O-])cc4F)c4ccc([nH]4)c(-c4c(F)cc(S(=O)(=O)[O-])cc4F)c4nc(c(-c5c(F)cc(S(=O)(=O)[O-])cc5F)c5ccc2[nH]5)C=C4)C=C3)cc1
REMARK SMILES IDX 6 1 5 2 4 3 3 4 1 5 2 6 37 8 38 9 102 10 39 11 101 12 40 13
REMARK SMILES IDX 41 14 42 15 95 16 43 17 100 18 94 19 96 20 44 21 99 22 93 23
REMARK SMILES IDX 92 24 45 26 79 27 58 28 78 29 59 30 62 31 77 32 97 33 60 34
REMARK SMILES IDX 61 35 76 37 98 38 63 39 46 40 47 41 56 42 48 43 49 44 55 45
REMARK SMILES IDX 57 46 50 47 51 48 52 49 53 50 54 51 80 52 81 53 90 54 82 55
REMARK SMILES IDX 83 56 89 57 91 58 84 59 85 60 86 61 87 62 88 63 64 64 65 65
REMARK SMILES IDX 74 66 66 67 67 68 73 69 75 70 68 71 69 72 70 73 71 74 72 75
REMARK SMILES IDX 7 76 8 77 9 78 10 79 11 80 12 82 13 83 14 84 35 85 15 86
REMARK SMILES IDX 34 87 16 88 36 89 17 91 18 92 32 93 19 94 20 95 31 96 33 97
REMARK SMILES IDX 21 98 22 99 23 100 30 101 24 102 28 103 29 104 25 105 27 106
REMARK SMILES IDX 26 107
REMARK H PARENT 3 7 96 25 62 36 10 81 36 90
REMARK Flexibility Score: inf
ROOT
ATOM      1  C   UNL A   1      39.629  20.901  26.148  1.00  0.00     0.002 C 
ENDROOT
BRANCH   1   2
ATOM      2  C   UNL A   1      40.546  21.720  27.057  1.00  0.00     0.021 C 
BRANCH   2   3
ATOM      3  C   UNL A   1      40.308  23.222  27.017  1.00  0.00     0.116 C 
BRANCH   3   4
ATOM      4  N   UNL A   1      41.190  23.893  26.081  1.00  0.00    -0.352 N 
ATOM      5  O   UNL A   1      42.149  25.618  25.012  1.00  0.00    -0.269 OA
ATOM      6  C   UNL A   1      41.546  25.215  26.004  1.00  0.00     0.251 C 
ATOM      7  H   UNL A   1      41.594  23.312  25.397  1.00  0.00     0.163 HD
BRANCH   6   8
ATOM      8  C   UNL A   1      41.207  26.153  27.098  1.00  0.00     0.039 A 
ATOM      9  C   UNL A   1      41.865  27.385  27.152  1.00  0.00     0.014 A 
ATOM     10  C   UNL A   1      40.299  25.807  28.103  1.00  0.00     0.014 A 
ATOM     11  C   UNL A   1      41.613  28.260  28.210  1.00  0.00     0.010 A 
ATOM     12  C   UNL A   1      39.966  26.725  29.095  1.00  0.00     0.010 A 
ATOM     13  C   UNL A   1      40.664  27.936  29.194  1.00  0.00    -0.014 A 
BRANCH  13  14
ATOM     14  C   UNL A   1      40.491  28.794  30.394  1.00  0.00     0.031 A 
ATOM     15  C   UNL A   1      41.419  28.620  31.570  1.00  0.00     0.074 A 
ATOM     16  C   UNL A   1      39.524  29.732  30.426  1.00  0.00     0.049 A 
ATOM     17  N   UNL A   1      41.457  29.283  32.698  1.00  0.00    -0.248 NA
ATOM     18  C   UNL A   1      42.418  27.541  31.482  1.00  0.00     0.031 C 
ATOM     19  C   UNL A   1      38.544  29.973  29.366  1.00  0.00     0.029 A 
ATOM     20  N   UNL A   1      39.218  30.668  31.382  1.00  0.00    -0.354 N 
ATOM     21  C   UNL A   1      42.473  28.697  33.445  1.00  0.00     0.074 A 
ATOM     22  C   UNL A   1      42.967  27.574  32.685  1.00  0.00     0.031 C 
ATOM     23  C   UNL A   1      37.781  31.023  29.706  1.00  0.00     0.029 A 
ATOM     24  C   UNL A   1      38.191  31.510  31.021  1.00  0.00     0.049 A 
ATOM     25  H   UNL A   1      39.688  30.732  32.244  1.00  0.00     0.167 HD
ATOM     26  C   UNL A   1      42.986  29.088  34.635  1.00  0.00     0.037 A 
ATOM     27  C   UNL A   1      37.651  32.559  31.673  1.00  0.00     0.037 A 
ATOM     28  C   UNL A   1      42.521  30.233  35.366  1.00  0.00     0.049 A 
ATOM     29  C   UNL A   1      38.211  32.959  33.011  1.00  0.00     0.074 A 
ATOM     30  C   UNL A   1      43.009  30.752  36.550  1.00  0.00     0.029 A 
ATOM     31  N   UNL A   1      41.458  31.036  34.981  1.00  0.00    -0.354 N 
ATOM     32  N   UNL A   1      39.223  32.440  33.668  1.00  0.00    -0.248 NA
ATOM     33  C   UNL A   1      37.561  34.082  33.700  1.00  0.00     0.031 C 
ATOM     34  C   UNL A   1      42.207  31.837  36.910  1.00  0.00     0.029 A 
ATOM     35  C   UNL A   1      41.249  32.025  35.926  1.00  0.00     0.049 A 
ATOM     36  H   UNL A   1      40.930  30.919  34.158  1.00  0.00     0.167 HD
ATOM     37  C   UNL A   1      39.334  33.178  34.842  1.00  0.00     0.074 A 
ATOM     38  C   UNL A   1      38.300  34.191  34.798  1.00  0.00     0.031 C 
ATOM     39  C   UNL A   1      40.210  33.025  35.865  1.00  0.00     0.037 A 
BRANCH  26  40
ATOM     40  C   UNL A   1      44.117  28.276  35.205  1.00  0.00     0.058 A 
ATOM     41  C   UNL A   1      43.884  27.199  36.078  1.00  0.00     0.135 A 
ATOM     42  C   UNL A   1      45.448  28.566  34.868  1.00  0.00     0.135 A 
ATOM     43  F   UNL A   1      42.631  26.887  36.447  1.00  0.00    -0.206 F 
ATOM     44  C   UNL A   1      44.930  26.468  36.627  1.00  0.00     0.059 A 
ATOM     45  C   UNL A   1      46.511  27.826  35.380  1.00  0.00     0.059 A 
ATOM     46  F   UNL A   1      45.731  29.583  34.038  1.00  0.00    -0.206 F 
ATOM     47  C   UNL A   1      46.242  26.791  36.274  1.00  0.00     0.060 A 
BRANCH  47  48
ATOM     48  S   UNL A   1      47.587  25.841  37.012  1.00  0.00     0.124 S 
ATOM     49  O   UNL A   1      46.912  24.588  37.341  1.00  0.00    -0.237 OA
ATOM     50  O   UNL A   1      48.553  25.771  35.921  1.00  0.00    -0.237 OA
ATOM     51  O   UNL A   1      47.991  26.653  38.155  1.00  0.00    -0.744 OA
ENDBRANCH  47  48
ENDBRANCH  26  40
BRANCH  27  52
ATOM     52  C   UNL A   1      36.544  33.324  31.038  1.00  0.00     0.058 A 
ATOM     53  C   UNL A   1      36.787  34.169  29.946  1.00  0.00     0.135 A 
ATOM     54  C   UNL A   1      35.216  33.181  31.470  1.00  0.00     0.135 A 
ATOM     55  F   UNL A   1      38.041  34.347  29.502  1.00  0.00    -0.206 F 
ATOM     56  C   UNL A   1      35.754  34.840  29.299  1.00  0.00     0.059 A 
ATOM     57  C   UNL A   1      34.163  33.824  30.827  1.00  0.00     0.059 A 
ATOM     58  F   UNL A   1      34.929  32.376  32.505  1.00  0.00    -0.206 F 
ATOM     59  C   UNL A   1      34.443  34.651  29.740  1.00  0.00     0.060 A 
BRANCH  59  60
ATOM     60  S   UNL A   1      33.104  35.462  28.837  1.00  0.00     0.124 S 
ATOM     61  O   UNL A   1      32.304  36.011  29.925  1.00  0.00    -0.237 OA
ATOM     62  O   UNL A   1      33.832  36.433  28.026  1.00  0.00    -0.237 OA
ATOM     63  O   UNL A   1      32.488  34.368  28.092  1.00  0.00    -0.744 OA
ENDBRANCH  59  60
ENDBRANCH  27  52
BRANCH  39  64
ATOM     64  C   UNL A   1      40.093  33.952  37.042  1.00  0.00     0.058 A 
ATOM     65  C   UNL A   1      40.806  35.159  37.084  1.00  0.00     0.135 A 
ATOM     66  C   UNL A   1      39.157  33.702  38.060  1.00  0.00     0.135 A 
ATOM     67  F   UNL A   1      41.717  35.439  36.139  1.00  0.00    -0.206 F 
ATOM     68  C   UNL A   1      40.585  36.095  38.088  1.00  0.00     0.059 A 
ATOM     69  C   UNL A   1      38.902  34.637  39.059  1.00  0.00     0.059 A 
ATOM     70  F   UNL A   1      38.443  32.566  38.059  1.00  0.00    -0.206 F 
ATOM     71  C   UNL A   1      39.618  35.833  39.061  1.00  0.00     0.060 A 
BRANCH  71  72
ATOM     72  S   UNL A   1      39.276  37.105  40.295  1.00  0.00     0.124 S 
ATOM     73  O   UNL A   1      38.523  38.081  39.514  1.00  0.00    -0.237 OA
ATOM     74  O   UNL A   1      38.510  36.365  41.295  1.00  0.00    -0.237 OA
ATOM     75  O   UNL A   1      40.604  37.534  40.721  1.00  0.00    -0.744 OA
ENDBRANCH  71  72
ENDBRANCH  39  64
ENDBRANCH  13  14
ENDBRANCH   6   8
ENDBRANCH   3   4
ENDBRANCH   2   3
ENDBRANCH   1   2
BRANCH   1  76
ATOM     76  C   UNL A   1      38.350  21.614  25.699  1.00  0.00     0.002 C 
BRANCH  76  77
ATOM     77  C   UNL A   1      37.335  20.736  24.962  1.00  0.00     0.021 C 
BRANCH  77  78
ATOM     78  C   UNL A   1      35.907  21.270  24.973  1.00  0.00     0.116 C 
BRANCH  78  79
ATOM     79  N   UNL A   1      35.213  20.933  26.203  1.00  0.00    -0.352 N 
ATOM     80  C   UNL A   1      34.107  21.537  26.741  1.00  0.00     0.255 C 
ATOM     81  H   UNL A   1      35.585  20.178  26.715  1.00  0.00     0.163 HD
ATOM     82  O   UNL A   1      33.687  21.211  27.847  1.00  0.00    -0.269 OA
BRANCH  80  83
ATOM     83  C   UNL A   1      33.457  22.643  26.013  1.00  0.00     0.081 A 
ATOM     84  C   UNL A   1      34.024  23.914  26.127  1.00  0.00     0.020 A 
ATOM     85  C   UNL A   1      32.318  22.453  25.225  1.00  0.00     0.130 A 
ATOM     86  C   UNL A   1      33.467  24.991  25.433  1.00  0.00     0.028 A 
ATOM     87  C   UNL A   1      31.758  23.531  24.539  1.00  0.00     0.073 A 
ATOM     88  C   UNL A   1      32.316  24.815  24.650  1.00  0.00     0.054 A 
BRANCH  85  89
ATOM     89  O   UNL A   1      31.756  21.213  25.104  1.00  0.00    -0.507 OA
ATOM     90  H   UNL A   1      32.042  20.513  25.657  1.00  0.00     0.293 HD
ENDBRANCH  85  89
BRANCH  88  91
ATOM     91  N   UNL A   1      31.729  25.920  23.961  1.00  0.00    -0.261 N 
ATOM     92  C   UNL A   1      30.538  26.476  24.428  1.00  0.00     0.270 C 
ATOM     93  C   UNL A   1      32.270  26.495  22.818  1.00  0.00     0.152 C 
ATOM     94  O   UNL A   1      29.871  26.123  25.390  1.00  0.00    -0.268 OA
ATOM     95  C   UNL A   1      30.160  27.648  23.589  1.00  0.00     0.081 C 
ATOM     96  S   UNL A   1      31.322  27.901  22.355  1.00  0.00    -0.054 SA
ATOM     97  S   UNL A   1      33.540  25.985  21.852  1.00  0.00    -0.051 S 
ATOM     98  C   UNL A   1      29.072  28.389  23.839  1.00  0.00     0.027 C 
BRANCH  98  99
ATOM     99  C   UNL A   1      28.633  29.528  23.069  1.00  0.00    -0.016 C 
ATOM    100  C   UNL A   1      28.898  30.808  23.318  1.00  0.00     0.005 A 
ATOM    101  C   UNL A   1      27.785  29.394  21.837  1.00  0.00     0.179 C 
ATOM    102  C   UNL A   1      29.624  31.526  24.316  1.00  0.00     0.011 A 
ATOM    103  C   UNL A   1      28.226  31.499  22.202  1.00  0.00     0.065 A 
ATOM    104  N   UNL A   1      27.574  30.778  21.342  1.00  0.00    -0.280 NA
ATOM    105  C   UNL A   1      29.699  32.864  24.222  1.00  0.00     0.001 A 
ATOM    106  C   UNL A   1      28.363  32.970  22.162  1.00  0.00     0.028 A 
ATOM    107  C   UNL A   1      29.066  33.584  23.128  1.00  0.00     0.002 A 
ENDBRANCH  98  99
ENDBRANCH  88  91
ENDBRANCH  80  83
ENDBRANCH  78  79
ENDBRANCH  77  78
ENDBRANCH  76  77
ENDBRANCH   1  76
TORSDOF 19
ENDMDL
MODEL 3
REMARK VINA RESULT:     -11.6      2.903      5.108
REMARK SMILES O=C(NCCCCCCNC(=O)c1ccc(N2C(=O)/C(=C/C3=c4ccccc4=NC3)SC2=S)cc1O)c1ccc(-c2c3nc(c(-c4c(F)cc(S(=O)(=O)[O-])cc4F)c4ccc([nH]4)c(-c4c(F)cc(S(=O)(=O)[O-])cc4F)c4nc(c(-c5c(F)cc(S(=O)(=O)[O-])cc5F)c5ccc2[nH]5)C=C4)C=C3)cc1
REMARK SMILES IDX 6 1 5 2 4 3 3 4 1 5 2 6 37 8 38 9 102 10 39 11 101 12 40 13
REMARK SMILES IDX 41 14 42 15 95 16 43 17 100 18 94 19 96 20 44 21 99 22 93 23
REMARK SMILES IDX 92 24 45 26 79 27 58 28 78 29 59 30 62 31 77 32 97 33 60 34
REMARK SMILES IDX 61 35 76 37 98 38 63 39 46 40 47 41 56 42 48 43 49 44 55 45
REMARK SMILES IDX 57 46 50 47 51 48 52 49 53 50 54 51 80 52 81 53 90 54 82 55
REMARK SMILES IDX 83 56 89 57 91 58 84 59 85 60 86 61 87 62 88 63 64 64 65 65
REMARK SMILES IDX 74 66 66 67 67 68 73 69 75 70 68 71 69 72 70 73 71 74 72 75
REMARK SMILES IDX 7 76 8 77 9 78 10 79 11 80 12 82 13 83 14 84 35 85 15 86
REMARK SMILES IDX 34 87 16 88 36 89 17 91 18 92 32 93 19 94 20 95 31 96 33 97
REMARK SMILES IDX 21 98 22 99 23 100 30 101 24 102 28 103 29 104 25 105 27 106
REMARK SMILES IDX 26 107
REMARK H PARENT 3 7 96 25 62 36 10 81 36 90
REMARK Flexibility Score: inf
ROOT
ATOM      1  C   UNL A   1      46.647  25.082  25.304  1.00  0.00     0.002 C 
ENDROOT
BRANCH   1   2
ATOM      2  C   UNL A   1      46.952  26.577  25.205  1.00  0.00     0.021 C 
BRANCH   2   3
ATOM      3  C   UNL A   1      45.749  27.488  25.404  1.00  0.00     0.116 C 
BRANCH   3   4
ATOM      4  N   UNL A   1      44.533  26.921  24.852  1.00  0.00    -0.352 N 
ATOM      5  O   UNL A   1      42.457  26.068  24.860  1.00  0.00    -0.269 OA
ATOM      6  C   UNL A   1      43.301  26.755  25.431  1.00  0.00     0.251 C 
ATOM      7  H   UNL A   1      44.604  26.606  23.922  1.00  0.00     0.163 HD
BRANCH   6   8
ATOM      8  C   UNL A   1      42.986  27.391  26.730  1.00  0.00     0.039 A 
ATOM      9  C   UNL A   1      42.449  26.599  27.749  1.00  0.00     0.014 A 
ATOM     10  C   UNL A   1      43.153  28.763  26.933  1.00  0.00     0.014 A 
ATOM     11  C   UNL A   1      42.080  27.185  28.961  1.00  0.00     0.010 A 
ATOM     12  C   UNL A   1      42.889  29.326  28.179  1.00  0.00     0.010 A 
ATOM     13  C   UNL A   1      42.293  28.555  29.186  1.00  0.00    -0.014 A 
BRANCH  13  14
ATOM     14  C   UNL A   1      41.778  29.213  30.414  1.00  0.00     0.031 A 
ATOM     15  C   UNL A   1      42.544  29.073  31.707  1.00  0.00     0.074 A 
ATOM     16  C   UNL A   1      40.646  29.941  30.372  1.00  0.00     0.049 A 
ATOM     17  N   UNL A   1      42.283  29.589  32.880  1.00  0.00    -0.248 NA
ATOM     18  C   UNL A   1      43.744  28.220  31.686  1.00  0.00     0.031 C 
ATOM     19  C   UNL A   1      39.800  30.122  29.191  1.00  0.00     0.029 A 
ATOM     20  N   UNL A   1      40.020  30.680  31.346  1.00  0.00    -0.354 N 
ATOM     21  C   UNL A   1      43.279  29.118  33.729  1.00  0.00     0.074 A 
ATOM     22  C   UNL A   1      44.096  28.208  32.961  1.00  0.00     0.031 C 
ATOM     23  C   UNL A   1      38.797  30.961  29.494  1.00  0.00     0.029 A 
ATOM     24  C   UNL A   1      38.906  31.352  30.898  1.00  0.00     0.049 A 
ATOM     25  H   UNL A   1      40.339  30.725  32.275  1.00  0.00     0.167 HD
ATOM     26  C   UNL A   1      43.525  29.450  35.017  1.00  0.00     0.037 A 
ATOM     27  C   UNL A   1      38.076  32.194  31.544  1.00  0.00     0.037 A 
ATOM     28  C   UNL A   1      42.736  30.390  35.763  1.00  0.00     0.049 A 
ATOM     29  C   UNL A   1      38.344  32.526  32.987  1.00  0.00     0.074 A 
ATOM     30  C   UNL A   1      42.933  30.843  37.054  1.00  0.00     0.029 A 
ATOM     31  N   UNL A   1      41.597  31.020  35.282  1.00  0.00    -0.354 N 
ATOM     32  N   UNL A   1      39.335  32.130  33.752  1.00  0.00    -0.248 NA
ATOM     33  C   UNL A   1      37.386  33.415  33.659  1.00  0.00     0.031 C 
ATOM     34  C   UNL A   1      41.882  31.707  37.374  1.00  0.00     0.029 A 
ATOM     35  C   UNL A   1      41.057  31.830  36.266  1.00  0.00     0.049 A 
ATOM     36  H   UNL A   1      41.228  30.908  34.376  1.00  0.00     0.167 HD
ATOM     37  C   UNL A   1      39.124  32.727  34.990  1.00  0.00     0.074 A 
ATOM     38  C   UNL A   1      37.922  33.526  34.869  1.00  0.00     0.031 C 
ATOM     39  C   UNL A   1      39.856  32.617  36.126  1.00  0.00     0.037 A 
BRANCH  26  40
ATOM     40  C   UNL A   1      44.704  28.802  35.690  1.00  0.00     0.058 A 
ATOM     41  C   UNL A   1      45.988  29.371  35.635  1.00  0.00     0.135 A 
ATOM     42  C   UNL A   1      44.550  27.606  36.410  1.00  0.00     0.135 A 
ATOM     43  F   UNL A   1      46.196  30.505  34.947  1.00  0.00    -0.206 F 
ATOM     44  C   UNL A   1      47.082  28.757  36.232  1.00  0.00     0.059 A 
ATOM     45  C   UNL A   1      45.627  26.991  37.044  1.00  0.00     0.059 A 
ATOM     46  F   UNL A   1      43.347  27.018  36.496  1.00  0.00    -0.206 F 
ATOM     47  C   UNL A   1      46.892  27.565  36.933  1.00  0.00     0.060 A 
BRANCH  47  48
ATOM     48  S   UNL A   1      48.329  26.774  37.686  1.00  0.00     0.124 S 
ATOM     49  O   UNL A   1      49.370  27.070  36.707  1.00  0.00    -0.237 OA
ATOM     50  O   UNL A   1      48.439  27.479  38.959  1.00  0.00    -0.237 OA
ATOM     51  O   UNL A   1      47.937  25.371  37.780  1.00  0.00    -0.744 OA
ENDBRANCH  47  48
ENDBRANCH  26  40
BRANCH  27  52
ATOM     52  C   UNL A   1      36.939  32.810  30.808  1.00  0.00     0.058 A 
ATOM     53  C   UNL A   1      35.616  32.434  31.082  1.00  0.00     0.135 A 
ATOM     54  C   UNL A   1      37.146  33.826  29.861  1.00  0.00     0.135 A 
ATOM     55  F   UNL A   1      35.366  31.461  31.972  1.00  0.00    -0.206 F 
ATOM     56  C   UNL A   1      34.538  33.047  30.451  1.00  0.00     0.059 A 
ATOM     57  C   UNL A   1      36.085  34.469  29.233  1.00  0.00     0.059 A 
ATOM     58  F   UNL A   1      38.393  34.229  29.571  1.00  0.00    -0.206 F 
ATOM     59  C   UNL A   1      34.783  34.073  29.537  1.00  0.00     0.060 A 
BRANCH  59  60
ATOM     60  S   UNL A   1      33.371  34.917  28.788  1.00  0.00     0.124 S 
ATOM     61  O   UNL A   1      33.955  36.201  28.420  1.00  0.00    -0.237 OA
ATOM     62  O   UNL A   1      33.038  34.025  27.682  1.00  0.00    -0.237 OA
ATOM     63  O   UNL A   1      32.390  34.957  29.869  1.00  0.00    -0.744 OA
ENDBRANCH  59  60
ENDBRANCH  27  52
BRANCH  39  64
ATOM     64  C   UNL A   1      39.385  33.355  37.347  1.00  0.00     0.058 A 
ATOM     65  C   UNL A   1      38.484  32.765  38.245  1.00  0.00     0.135 A 
ATOM     66  C   UNL A   1      39.948  34.595  37.695  1.00  0.00     0.135 A 
ATOM     67  F   UNL A   1      37.914  31.586  37.954  1.00  0.00    -0.206 F 
ATOM     68  C   UNL A   1      38.166  33.372  39.455  1.00  0.00     0.059 A 
ATOM     69  C   UNL A   1      39.663  35.207  38.912  1.00  0.00     0.059 A 
ATOM     70  F   UNL A   1      40.823  35.196  36.874  1.00  0.00    -0.206 F 
ATOM     71  C   UNL A   1      38.775  34.585  39.788  1.00  0.00     0.060 A 
BRANCH  71  72
ATOM     72  S   UNL A   1      38.425  35.304  41.406  1.00  0.00     0.124 S 
ATOM     73  O   UNL A   1      39.501  34.743  42.218  1.00  0.00    -0.237 OA
ATOM     74  O   UNL A   1      38.518  36.735  41.133  1.00  0.00    -0.237 OA
ATOM     75  O   UNL A   1      37.086  34.815  41.716  1.00  0.00    -0.744 OA
ENDBRANCH  71  72
ENDBRANCH  39  64
ENDBRANCH  13  14
ENDBRANCH   6   8
ENDBRANCH   3   4
ENDBRANCH   2   3
ENDBRANCH   1   2
BRANCH   1  76
ATOM     76  C   UNL A   1      46.968  24.438  26.656  1.00  0.00     0.002 C 
BRANCH  76  77
ATOM     77  C   UNL A   1      45.854  24.524  27.703  1.00  0.00     0.021 C 
BRANCH  77  78
ATOM     78  C   UNL A   1      45.021  23.256  27.851  1.00  0.00     0.116 C 
BRANCH  78  79
ATOM     79  N   UNL A   1      45.437  22.225  26.918  1.00  0.00    -0.352 N 
ATOM     80  C   UNL A   1      44.646  21.437  26.122  1.00  0.00     0.255 C 
ATOM     81  H   UNL A   1      46.408  22.071  26.849  1.00  0.00     0.163 HD
ATOM     82  O   UNL A   1      45.132  20.530  25.453  1.00  0.00    -0.269 OA
BRANCH  80  83
ATOM     83  C   UNL A   1      43.185  21.638  26.125  1.00  0.00     0.081 A 
ATOM     84  C   UNL A   1      42.703  22.886  25.726  1.00  0.00     0.020 A 
ATOM     85  C   UNL A   1      42.292  20.632  26.504  1.00  0.00     0.130 A 
ATOM     86  C   UNL A   1      41.326  23.120  25.680  1.00  0.00     0.028 A 
ATOM     87  C   UNL A   1      40.918  20.870  26.466  1.00  0.00     0.073 A 
ATOM     88  C   UNL A   1      40.421  22.122  26.071  1.00  0.00     0.054 A 
BRANCH  85  89
ATOM     89  O   UNL A   1      42.753  19.405  26.895  1.00  0.00    -0.507 OA
ATOM     90  H   UNL A   1      43.619  19.136  26.665  1.00  0.00     0.293 HD
ENDBRANCH  85  89
BRANCH  88  91
ATOM     91  N   UNL A   1      39.014  22.368  26.051  1.00  0.00    -0.261 N 
ATOM     92  C   UNL A   1      38.162  21.468  25.412  1.00  0.00     0.270 C 
ATOM     93  C   UNL A   1      38.414  23.476  26.635  1.00  0.00     0.152 C 
ATOM     94  O   UNL A   1      38.462  20.446  24.812  1.00  0.00    -0.268 OA
ATOM     95  C   UNL A   1      36.745  21.900  25.582  1.00  0.00     0.081 C 
ATOM     96  S   UNL A   1      36.666  23.343  26.504  1.00  0.00    -0.054 SA
ATOM     97  S   UNL A   1      39.102  24.855  27.290  1.00  0.00    -0.051 S 
ATOM     98  C   UNL A   1      35.716  21.196  25.092  1.00  0.00     0.027 C 
BRANCH  98  99
ATOM     99  C   UNL A   1      34.322  21.553  25.204  1.00  0.00    -0.016 C 
ATOM    100  C   UNL A   1      33.614  22.280  24.344  1.00  0.00     0.005 A 
ATOM    101  C   UNL A   1      33.467  21.122  26.361  1.00  0.00     0.179 C 
ATOM    102  C   UNL A   1      33.878  22.944  23.108  1.00  0.00     0.011 A 
ATOM    103  C   UNL A   1      32.273  22.287  24.955  1.00  0.00     0.065 A 
ATOM    104  N   UNL A   1      32.115  21.672  26.088  1.00  0.00    -0.280 NA
ATOM    105  C   UNL A   1      32.869  23.580  22.489  1.00  0.00     0.001 A 
ATOM    106  C   UNL A   1      31.214  22.999  24.209  1.00  0.00     0.028 A 
ATOM    107  C   UNL A   1      31.526  23.596  23.048  1.00  0.00     0.002 A 
ENDBRANCH  98  99
ENDBRANCH  88  91
ENDBRANCH  80  83
ENDBRANCH  78  79
ENDBRANCH  77  78
ENDBRANCH  76  77
ENDBRANCH   1  76
TORSDOF 19
ENDMDL
