MODEL 1
REMARK VINA RESULT:     -12.0      0.000      0.000
REMARK SMILES N#C/C(=C\c1ccc(-c2cc(C(F)(F)F)ccc2Cl)o1)C(=O)NCCCCCCNC(=O)c1ccc(-c2c3nc(c(-c4c(F)cc(S(=O)(=O)[O-])cc4F)c4ccc([nH]4)c(-c4c(F)cc(S(=O)(=O)[O-])cc4F)c4nc(c(-c5c(F)cc(S(=O)(=O)[O-])cc5F)c5ccc2[nH]5)C=C4)C=C3)cc1
REMARK SMILES IDX 26 1 25 2 24 3 23 4 21 5 22 6 3 8 4 9 2 10 1 11 5 12 6 13
REMARK SMILES IDX 20 14 7 15 8 16 9 17 10 18 18 19 11 20 17 21 19 22 16 23
REMARK SMILES IDX 12 24 13 25 14 26 15 27 27 28 28 29 29 30 30 31 31 32 32 34
REMARK SMILES IDX 33 35 34 36 98 37 35 38 97 39 36 40 37 41 38 42 91 43 39 44
REMARK SMILES IDX 96 45 90 46 92 47 40 48 95 49 89 50 88 51 41 53 75 54 54 55
REMARK SMILES IDX 74 56 55 57 58 58 73 59 93 60 56 61 57 62 72 64 94 65 59 66
REMARK SMILES IDX 42 67 43 68 52 69 44 70 45 71 51 72 53 73 46 74 47 75 48 76
REMARK SMILES IDX 49 77 50 78 76 79 77 80 86 81 78 82 79 83 85 84 87 85 80 86
REMARK SMILES IDX 81 87 82 88 83 89 84 90 60 91 61 92 70 93 62 94 63 95 69 96
REMARK SMILES IDX 71 97 64 98 65 99 66 100 67 101 68 102
REMARK H PARENT 23 7 30 33 92 52 58 63
REMARK Flexibility Score: inf
ROOT
ATOM      1  C   UNL A   1      33.603  28.610  26.459  1.00  0.00     0.002 C 
ENDROOT
BRANCH   1   2
ATOM      2  C   UNL A   1      33.206  29.432  25.238  1.00  0.00     0.021 C 
BRANCH   2   3
ATOM      3  C   UNL A   1      32.241  28.757  24.275  1.00  0.00     0.116 C 
BRANCH   3   4
ATOM      4  N   UNL A   1      32.860  28.314  23.034  1.00  0.00    -0.351 N 
ATOM      5  C   UNL A   1      33.267  27.094  22.570  1.00  0.00     0.262 C 
ATOM      6  O   UNL A   1      33.754  27.050  21.440  1.00  0.00    -0.268 OA
ATOM      7  H   UNL A   1      33.019  29.046  22.395  1.00  0.00     0.163 HD
BRANCH   5   8
ATOM      8  C   UNL A   1      33.193  25.855  23.385  1.00  0.00     0.120 C 
ATOM      9  C   UNL A   1      33.989  25.544  24.441  1.00  0.00     0.072 C 
BRANCH   8  10
ATOM     10  C   UNL A   1      31.900  25.057  23.421  1.00  0.00     0.105 C 
ATOM     11  N   UNL A   1      30.827  24.395  23.450  1.00  0.00    -0.192 NA
ENDBRANCH   8  10
BRANCH   9  12
ATOM     12  C   UNL A   1      33.922  24.300  25.165  1.00  0.00     0.129 A 
ATOM     13  C   UNL A   1      33.331  24.001  26.392  1.00  0.00     0.051 A 
ATOM     14  O   UNL A   1      34.434  23.114  24.668  1.00  0.00    -0.457 OA
ATOM     15  C   UNL A   1      33.538  22.633  26.665  1.00  0.00     0.051 A 
ATOM     16  C   UNL A   1      34.186  22.117  25.569  1.00  0.00     0.136 A 
BRANCH  16  17
ATOM     17  C   UNL A   1      34.625  20.773  25.212  1.00  0.00     0.036 A 
ATOM     18  C   UNL A   1      33.665  19.812  24.843  1.00  0.00     0.026 A 
ATOM     19  C   UNL A   1      35.984  20.411  25.165  1.00  0.00     0.052 A 
ATOM     20  C   UNL A   1      34.043  18.523  24.420  1.00  0.00     0.056 A 
ATOM     21  C   UNL A   1      36.365  19.128  24.760  1.00  0.00     0.022 A 
ATOM     22  Cl  UNL A   1      37.259  21.494  25.616  1.00  0.00    -0.084 Cl
ATOM     23  C   UNL A   1      35.402  18.190  24.386  1.00  0.00     0.014 A 
BRANCH  20  24
ATOM     24  C   UNL A   1      32.989  17.525  23.999  1.00  0.00     0.416 C 
ATOM     25  F   UNL A   1      31.858  17.611  24.748  1.00  0.00    -0.166 F 
ATOM     26  F   UNL A   1      32.598  17.701  22.706  1.00  0.00    -0.166 F 
ATOM     27  F   UNL A   1      33.402  16.230  24.085  1.00  0.00    -0.166 F 
ENDBRANCH  20  24
ENDBRANCH  16  17
ENDBRANCH   9  12
ENDBRANCH   5   8
ENDBRANCH   3   4
ENDBRANCH   2   3
ENDBRANCH   1   2
BRANCH   1  28
ATOM     28  C   UNL A   1      34.676  29.227  27.365  1.00  0.00     0.002 C 
BRANCH  28  29
ATOM     29  C   UNL A   1      34.536  30.723  27.672  1.00  0.00     0.021 C 
BRANCH  29  30
ATOM     30  C   UNL A   1      35.660  31.344  28.498  1.00  0.00     0.116 C 
BRANCH  30  31
ATOM     31  N   UNL A   1      35.624  30.916  29.883  1.00  0.00    -0.352 N 
ATOM     32  C   UNL A   1      36.511  30.157  30.601  1.00  0.00     0.251 C 
ATOM     33  H   UNL A   1      34.837  31.222  30.390  1.00  0.00     0.163 HD
ATOM     34  O   UNL A   1      36.187  29.759  31.716  1.00  0.00    -0.269 OA
BRANCH  32  35
ATOM     35  C   UNL A   1      37.841  29.802  30.050  1.00  0.00     0.039 A 
ATOM     36  C   UNL A   1      38.874  29.525  30.951  1.00  0.00     0.014 A 
ATOM     37  C   UNL A   1      38.100  29.804  28.676  1.00  0.00     0.014 A 
ATOM     38  C   UNL A   1      40.152  29.222  30.475  1.00  0.00     0.010 A 
ATOM     39  C   UNL A   1      39.363  29.443  28.200  1.00  0.00     0.010 A 
ATOM     40  C   UNL A   1      40.404  29.161  29.094  1.00  0.00    -0.014 A 
BRANCH  40  41
ATOM     41  C   UNL A   1      41.757  28.801  28.598  1.00  0.00     0.031 A 
ATOM     42  C   UNL A   1      42.843  29.839  28.504  1.00  0.00     0.074 A 
ATOM     43  C   UNL A   1      42.004  27.531  28.224  1.00  0.00     0.049 A 
ATOM     44  N   UNL A   1      44.090  29.697  28.130  1.00  0.00    -0.248 NA
ATOM     45  C   UNL A   1      42.478  31.221  28.854  1.00  0.00     0.031 C 
ATOM     46  C   UNL A   1      41.016  26.448  28.207  1.00  0.00     0.029 A 
ATOM     47  N   UNL A   1      43.158  26.932  27.787  1.00  0.00    -0.354 N 
ATOM     48  C   UNL A   1      44.657  30.963  28.204  1.00  0.00     0.074 A 
ATOM     49  C   UNL A   1      43.604  31.872  28.602  1.00  0.00     0.031 C 
ATOM     50  C   UNL A   1      41.613  25.315  27.806  1.00  0.00     0.029 A 
ATOM     51  C   UNL A   1      43.018  25.591  27.522  1.00  0.00     0.049 A 
ATOM     52  H   UNL A   1      44.008  27.417  27.675  1.00  0.00     0.167 HD
ATOM     53  C   UNL A   1      45.944  31.330  27.988  1.00  0.00     0.037 A 
ATOM     54  C   UNL A   1      43.921  24.682  27.106  1.00  0.00     0.037 A 
ATOM     55  C   UNL A   1      46.993  30.420  27.605  1.00  0.00     0.049 A 
ATOM     56  C   UNL A   1      45.349  25.106  26.912  1.00  0.00     0.074 A 
ATOM     57  C   UNL A   1      48.335  30.688  27.394  1.00  0.00     0.029 A 
ATOM     58  N   UNL A   1      46.819  29.062  27.382  1.00  0.00    -0.354 N 
ATOM     59  N   UNL A   1      45.879  26.299  27.043  1.00  0.00    -0.248 NA
ATOM     60  C   UNL A   1      46.307  24.058  26.533  1.00  0.00     0.031 C 
ATOM     61  C   UNL A   1      48.966  29.497  27.017  1.00  0.00     0.029 A 
ATOM     62  C   UNL A   1      48.026  28.479  27.030  1.00  0.00     0.049 A 
ATOM     63  H   UNL A   1      45.963  28.582  27.462  1.00  0.00     0.167 HD
ATOM     64  C   UNL A   1      47.235  26.142  26.774  1.00  0.00     0.074 A 
ATOM     65  C   UNL A   1      47.445  24.735  26.500  1.00  0.00     0.031 C 
ATOM     66  C   UNL A   1      48.215  27.079  26.750  1.00  0.00     0.037 A 
BRANCH  53  67
ATOM     67  C   UNL A   1      46.293  32.781  28.183  1.00  0.00     0.058 A 
ATOM     68  C   UNL A   1      46.175  33.707  27.133  1.00  0.00     0.135 A 
ATOM     69  C   UNL A   1      46.712  33.262  29.434  1.00  0.00     0.135 A 
ATOM     70  F   UNL A   1      45.793  33.299  25.912  1.00  0.00    -0.206 F 
ATOM     71  C   UNL A   1      46.486  35.052  27.309  1.00  0.00     0.059 A 
ATOM     72  C   UNL A   1      47.004  34.607  29.640  1.00  0.00     0.059 A 
ATOM     73  F   UNL A   1      46.842  32.421  30.472  1.00  0.00    -0.206 F 
ATOM     74  C   UNL A   1      46.901  35.492  28.566  1.00  0.00     0.060 A 
BRANCH  74  75
ATOM     75  S   UNL A   1      47.294  37.242  28.781  1.00  0.00     0.124 S 
ATOM     76  O   UNL A   1      48.569  37.341  28.077  1.00  0.00    -0.237 OA
ATOM     77  O   UNL A   1      46.161  37.899  28.135  1.00  0.00    -0.237 OA
ATOM     78  O   UNL A   1      47.362  37.399  30.230  1.00  0.00    -0.744 OA
ENDBRANCH  74  75
ENDBRANCH  53  67
BRANCH  54  79
ATOM     79  C   UNL A   1      43.502  23.275  26.876  1.00  0.00     0.058 A 
ATOM     80  C   UNL A   1      43.345  22.768  25.577  1.00  0.00     0.135 A 
ATOM     81  C   UNL A   1      43.264  22.406  27.952  1.00  0.00     0.135 A 
ATOM     82  F   UNL A   1      43.560  23.563  24.518  1.00  0.00    -0.206 F 
ATOM     83  C   UNL A   1      42.950  21.454  25.352  1.00  0.00     0.059 A 
ATOM     84  C   UNL A   1      42.890  21.082  27.751  1.00  0.00     0.059 A 
ATOM     85  F   UNL A   1      43.420  22.838  29.212  1.00  0.00    -0.206 F 
ATOM     86  C   UNL A   1      42.723  20.618  26.447  1.00  0.00     0.060 A 
BRANCH  86  87
ATOM     87  S   UNL A   1      42.257  18.899  26.148  1.00  0.00     0.124 S 
ATOM     88  O   UNL A   1      42.420  18.317  27.474  1.00  0.00    -0.237 OA
ATOM     89  O   UNL A   1      40.883  19.029  25.671  1.00  0.00    -0.237 OA
ATOM     90  O   UNL A   1      43.221  18.463  25.141  1.00  0.00    -0.744 OA
ENDBRANCH  86  87
ENDBRANCH  54  79
BRANCH  66  91
ATOM     91  C   UNL A   1      49.602  26.601  26.425  1.00  0.00     0.058 A 
ATOM     92  C   UNL A   1      50.113  26.672  25.118  1.00  0.00     0.135 A 
ATOM     93  C   UNL A   1      50.430  26.072  27.426  1.00  0.00     0.135 A 
ATOM     94  F   UNL A   1      49.360  27.166  24.124  1.00  0.00    -0.206 F 
ATOM     95  C   UNL A   1      51.383  26.196  24.809  1.00  0.00     0.059 A 
ATOM     96  C   UNL A   1      51.713  25.613  27.145  1.00  0.00     0.059 A 
ATOM     97  F   UNL A   1      49.992  25.994  28.694  1.00  0.00    -0.206 F 
ATOM     98  C   UNL A   1      52.173  25.660  25.829  1.00  0.00     0.060 A 
BRANCH  98  99
ATOM     99  S   UNL A   1      53.816  25.037  25.419  1.00  0.00     0.124 S 
ATOM    100  O   UNL A   1      54.037  25.635  24.106  1.00  0.00    -0.237 OA
ATOM    101  O   UNL A   1      54.636  25.568  26.504  1.00  0.00    -0.237 OA
ATOM    102  O   UNL A   1      53.639  23.588  25.429  1.00  0.00    -0.744 OA
ENDBRANCH  98  99
ENDBRANCH  66  91
ENDBRANCH  40  41
ENDBRANCH  32  35
ENDBRANCH  30  31
ENDBRANCH  29  30
ENDBRANCH  28  29
ENDBRANCH   1  28
TORSDOF 20
ENDMDL
MODEL 2
REMARK VINA RESULT:     -11.5      1.201      2.020
REMARK SMILES N#C/C(=C\c1ccc(-c2cc(C(F)(F)F)ccc2Cl)o1)C(=O)NCCCCCCNC(=O)c1ccc(-c2c3nc(c(-c4c(F)cc(S(=O)(=O)[O-])cc4F)c4ccc([nH]4)c(-c4c(F)cc(S(=O)(=O)[O-])cc4F)c4nc(c(-c5c(F)cc(S(=O)(=O)[O-])cc5F)c5ccc2[nH]5)C=C4)C=C3)cc1
REMARK SMILES IDX 26 1 25 2 24 3 23 4 21 5 22 6 3 8 4 9 2 10 1 11 5 12 6 13
REMARK SMILES IDX 20 14 7 15 8 16 9 17 10 18 18 19 11 20 17 21 19 22 16 23
REMARK SMILES IDX 12 24 13 25 14 26 15 27 27 28 28 29 29 30 30 31 31 32 32 34
REMARK SMILES IDX 33 35 34 36 98 37 35 38 97 39 36 40 37 41 38 42 91 43 39 44
REMARK SMILES IDX 96 45 90 46 92 47 40 48 95 49 89 50 88 51 41 53 75 54 54 55
REMARK SMILES IDX 74 56 55 57 58 58 73 59 93 60 56 61 57 62 72 64 94 65 59 66
REMARK SMILES IDX 42 67 43 68 52 69 44 70 45 71 51 72 53 73 46 74 47 75 48 76
REMARK SMILES IDX 49 77 50 78 76 79 77 80 86 81 78 82 79 83 85 84 87 85 80 86
REMARK SMILES IDX 81 87 82 88 83 89 84 90 60 91 61 92 70 93 62 94 63 95 69 96
REMARK SMILES IDX 71 97 64 98 65 99 66 100 67 101 68 102
REMARK H PARENT 23 7 30 33 92 52 58 63
REMARK Flexibility Score: inf
ROOT
ATOM      1  C   UNL A   1      34.027  30.393  27.367  1.00  0.00     0.002 C 
ENDROOT
BRANCH   1   2
ATOM      2  C   UNL A   1      32.905  31.140  26.655  1.00  0.00     0.021 C 
BRANCH   2   3
ATOM      3  C   UNL A   1      31.657  30.322  26.355  1.00  0.00     0.116 C 
BRANCH   3   4
ATOM      4  N   UNL A   1      31.467  30.035  24.940  1.00  0.00    -0.351 N 
ATOM      5  C   UNL A   1      31.384  28.877  24.219  1.00  0.00     0.262 C 
ATOM      6  O   UNL A   1      31.200  28.976  23.005  1.00  0.00    -0.268 OA
ATOM      7  H   UNL A   1      31.381  30.845  24.387  1.00  0.00     0.163 HD
BRANCH   5   8
ATOM      8  C   UNL A   1      31.555  27.533  24.827  1.00  0.00     0.120 C 
ATOM      9  C   UNL A   1      30.937  26.391  24.429  1.00  0.00     0.072 C 
BRANCH   8  10
ATOM     10  C   UNL A   1      32.812  27.225  25.624  1.00  0.00     0.105 C 
ATOM     11  N   UNL A   1      33.855  26.970  26.286  1.00  0.00    -0.192 NA
ENDBRANCH   8  10
BRANCH   9  12
ATOM     12  C   UNL A   1      31.086  25.119  25.088  1.00  0.00     0.129 A 
ATOM     13  C   UNL A   1      30.320  24.527  26.091  1.00  0.00     0.051 A 
ATOM     14  O   UNL A   1      32.068  24.207  24.745  1.00  0.00    -0.457 OA
ATOM     15  C   UNL A   1      30.878  23.269  26.396  1.00  0.00     0.051 A 
ATOM     16  C   UNL A   1      31.926  23.094  25.525  1.00  0.00     0.136 A 
BRANCH  16  17
ATOM     17  C   UNL A   1      32.855  21.994  25.292  1.00  0.00     0.036 A 
ATOM     18  C   UNL A   1      32.373  20.790  24.747  1.00  0.00     0.026 A 
ATOM     19  C   UNL A   1      34.236  22.109  25.539  1.00  0.00     0.052 A 
ATOM     20  C   UNL A   1      33.241  19.725  24.436  1.00  0.00     0.056 A 
ATOM     21  C   UNL A   1      35.102  21.051  25.246  1.00  0.00     0.022 A 
ATOM     22  Cl  UNL A   1      34.950  23.529  26.229  1.00  0.00    -0.084 Cl
ATOM     23  C   UNL A   1      34.609  19.868  24.695  1.00  0.00     0.014 A 
BRANCH  20  24
ATOM     24  C   UNL A   1      32.695  18.458  23.820  1.00  0.00     0.416 C 
ATOM     25  F   UNL A   1      31.917  17.751  24.682  1.00  0.00    -0.166 F 
ATOM     26  F   UNL A   1      31.917  18.707  22.729  1.00  0.00    -0.166 F 
ATOM     27  F   UNL A   1      33.663  17.601  23.393  1.00  0.00    -0.166 F 
ENDBRANCH  20  24
ENDBRANCH  16  17
ENDBRANCH   9  12
ENDBRANCH   5   8
ENDBRANCH   3   4
ENDBRANCH   2   3
ENDBRANCH   1   2
BRANCH   1  28
ATOM     28  C   UNL A   1      35.309  31.194  27.624  1.00  0.00     0.002 C 
BRANCH  28  29
ATOM     29  C   UNL A   1      35.187  32.402  28.561  1.00  0.00     0.021 C 
BRANCH  29  30
ATOM     30  C   UNL A   1      36.268  32.531  29.631  1.00  0.00     0.116 C 
BRANCH  30  31
ATOM     31  N   UNL A   1      36.028  31.656  30.762  1.00  0.00    -0.352 N 
ATOM     32  C   UNL A   1      36.707  30.541  31.182  1.00  0.00     0.251 C 
ATOM     33  H   UNL A   1      35.254  31.902  31.319  1.00  0.00     0.163 HD
ATOM     34  O   UNL A   1      36.215  29.843  32.064  1.00  0.00    -0.269 OA
BRANCH  32  35
ATOM     35  C   UNL A   1      38.010  30.164  30.584  1.00  0.00     0.039 A 
ATOM     36  C   UNL A   1      39.077  29.895  31.447  1.00  0.00     0.014 A 
ATOM     37  C   UNL A   1      38.213  30.138  29.201  1.00  0.00     0.014 A 
ATOM     38  C   UNL A   1      40.331  29.571  30.926  1.00  0.00     0.010 A 
ATOM     39  C   UNL A   1      39.451  29.756  28.681  1.00  0.00     0.010 A 
ATOM     40  C   UNL A   1      40.526  29.482  29.537  1.00  0.00    -0.014 A 
BRANCH  40  41
ATOM     41  C   UNL A   1      41.855  29.100  28.994  1.00  0.00     0.031 A 
ATOM     42  C   UNL A   1      42.969  30.108  28.907  1.00  0.00     0.074 A 
ATOM     43  C   UNL A   1      42.054  27.837  28.569  1.00  0.00     0.049 A 
ATOM     44  N   UNL A   1      44.201  29.943  28.496  1.00  0.00    -0.248 NA
ATOM     45  C   UNL A   1      42.655  31.487  29.315  1.00  0.00     0.031 C 
ATOM     46  C   UNL A   1      41.033  26.786  28.540  1.00  0.00     0.029 A 
ATOM     47  N   UNL A   1      43.178  27.221  28.081  1.00  0.00    -0.354 N 
ATOM     48  C   UNL A   1      44.808  31.189  28.600  1.00  0.00     0.074 A 
ATOM     49  C   UNL A   1      43.794  32.114  29.056  1.00  0.00     0.031 C 
ATOM     50  C   UNL A   1      41.585  25.651  28.084  1.00  0.00     0.029 A 
ATOM     51  C   UNL A   1      42.990  25.895  27.773  1.00  0.00     0.049 A 
ATOM     52  H   UNL A   1      44.038  27.685  27.963  1.00  0.00     0.167 HD
ATOM     53  C   UNL A   1      46.100  31.526  28.363  1.00  0.00     0.037 A 
ATOM     54  C   UNL A   1      43.854  24.976  27.302  1.00  0.00     0.037 A 
ATOM     55  C   UNL A   1      47.110  30.600  27.920  1.00  0.00     0.049 A 
ATOM     56  C   UNL A   1      45.290  25.364  27.085  1.00  0.00     0.074 A 
ATOM     57  C   UNL A   1      48.454  30.835  27.683  1.00  0.00     0.029 A 
ATOM     58  N   UNL A   1      46.890  29.256  27.655  1.00  0.00    -0.354 N 
ATOM     59  N   UNL A   1      45.859  26.535  27.244  1.00  0.00    -0.248 NA
ATOM     60  C   UNL A   1      46.205  24.302  26.645  1.00  0.00     0.031 C 
ATOM     61  C   UNL A   1      49.040  29.640  27.249  1.00  0.00     0.029 A 
ATOM     62  C   UNL A   1      48.070  28.651  27.251  1.00  0.00     0.049 A 
ATOM     63  H   UNL A   1      46.022  28.799  27.740  1.00  0.00     0.167 HD
ATOM     64  C   UNL A   1      47.202  26.349  26.934  1.00  0.00     0.074 A 
ATOM     65  C   UNL A   1      47.363  24.947  26.605  1.00  0.00     0.031 C 
ATOM     66  C   UNL A   1      48.209  27.257  26.917  1.00  0.00     0.037 A 
BRANCH  53  67
ATOM     67  C   UNL A   1      46.497  32.958  28.599  1.00  0.00     0.058 A 
ATOM     68  C   UNL A   1      46.979  33.386  29.847  1.00  0.00     0.135 A 
ATOM     69  C   UNL A   1      46.433  33.904  27.564  1.00  0.00     0.135 A 
ATOM     70  F   UNL A   1      47.047  32.526  30.876  1.00  0.00    -0.206 F 
ATOM     71  C   UNL A   1      47.358  34.706  30.068  1.00  0.00     0.059 A 
ATOM     72  C   UNL A   1      46.830  35.225  27.755  1.00  0.00     0.059 A 
ATOM     73  F   UNL A   1      45.980  33.550  26.350  1.00  0.00    -0.206 F 
ATOM     74  C   UNL A   1      47.279  35.619  29.016  1.00  0.00     0.060 A 
BRANCH  74  75
ATOM     75  S   UNL A   1      47.780  37.327  29.316  1.00  0.00     0.124 S 
ATOM     76  O   UNL A   1      46.489  38.009  29.337  1.00  0.00    -0.237 OA
ATOM     77  O   UNL A   1      48.466  37.231  30.602  1.00  0.00    -0.237 OA
ATOM     78  O   UNL A   1      48.635  37.636  28.175  1.00  0.00    -0.744 OA
ENDBRANCH  74  75
ENDBRANCH  53  67
BRANCH  54  79
ATOM     79  C   UNL A   1      43.387  23.591  27.034  1.00  0.00     0.058 A 
ATOM     80  C   UNL A   1      43.115  22.701  28.083  1.00  0.00     0.135 A 
ATOM     81  C   UNL A   1      43.190  23.135  25.721  1.00  0.00     0.135 A 
ATOM     82  F   UNL A   1      43.291  23.092  29.355  1.00  0.00    -0.206 F 
ATOM     83  C   UNL A   1      42.682  21.402  27.842  1.00  0.00     0.059 A 
ATOM     84  C   UNL A   1      42.736  21.848  25.456  1.00  0.00     0.059 A 
ATOM     85  F   UNL A   1      43.417  23.956  24.684  1.00  0.00    -0.206 F 
ATOM     86  C   UNL A   1      42.495  20.984  26.523  1.00  0.00     0.060 A 
BRANCH  86  87
ATOM     87  S   UNL A   1      41.886  19.312  26.217  1.00  0.00     0.124 S 
ATOM     88  O   UNL A   1      42.688  18.914  25.068  1.00  0.00    -0.237 OA
ATOM     89  O   UNL A   1      42.191  18.636  27.476  1.00  0.00    -0.237 OA
ATOM     90  O   UNL A   1      40.464  19.519  25.957  1.00  0.00    -0.744 OA
ENDBRANCH  86  87
ENDBRANCH  54  79
BRANCH  66  91
ATOM     91  C   UNL A   1      49.572  26.750  26.539  1.00  0.00     0.058 A 
ATOM     92  C   UNL A   1      49.992  26.709  25.199  1.00  0.00     0.135 A 
ATOM     93  C   UNL A   1      50.469  26.306  27.522  1.00  0.00     0.135 A 
ATOM     94  F   UNL A   1      49.171  27.119  24.220  1.00  0.00    -0.206 F 
ATOM     95  C   UNL A   1      51.240  26.206  24.845  1.00  0.00     0.059 A 
ATOM     96  C   UNL A   1      51.731  25.822  27.194  1.00  0.00     0.059 A 
ATOM     97  F   UNL A   1      50.120  26.337  28.819  1.00  0.00    -0.206 F 
ATOM     98  C   UNL A   1      52.100  25.757  25.850  1.00  0.00     0.060 A 
BRANCH  98  99
ATOM     99  S   UNL A   1      53.713  25.098  25.382  1.00  0.00     0.124 S 
ATOM    100  O   UNL A   1      53.408  23.683  25.193  1.00  0.00    -0.237 OA
ATOM    101  O   UNL A   1      54.021  25.848  24.168  1.00  0.00    -0.237 OA
ATOM    102  O   UNL A   1      54.553  25.413  26.533  1.00  0.00    -0.744 OA
ENDBRANCH  98  99
ENDBRANCH  66  91
ENDBRANCH  40  41
ENDBRANCH  32  35
ENDBRANCH  30  31
ENDBRANCH  29  30
ENDBRANCH  28  29
ENDBRANCH   1  28
TORSDOF 20
ENDMDL
MODEL 3
REMARK VINA RESULT:     -11.4      1.852      2.422
REMARK SMILES N#C/C(=C\c1ccc(-c2cc(C(F)(F)F)ccc2Cl)o1)C(=O)NCCCCCCNC(=O)c1ccc(-c2c3nc(c(-c4c(F)cc(S(=O)(=O)[O-])cc4F)c4ccc([nH]4)c(-c4c(F)cc(S(=O)(=O)[O-])cc4F)c4nc(c(-c5c(F)cc(S(=O)(=O)[O-])cc5F)c5ccc2[nH]5)C=C4)C=C3)cc1
REMARK SMILES IDX 26 1 25 2 24 3 23 4 21 5 22 6 3 8 4 9 2 10 1 11 5 12 6 13
REMARK SMILES IDX 20 14 7 15 8 16 9 17 10 18 18 19 11 20 17 21 19 22 16 23
REMARK SMILES IDX 12 24 13 25 14 26 15 27 27 28 28 29 29 30 30 31 31 32 32 34
REMARK SMILES IDX 33 35 34 36 98 37 35 38 97 39 36 40 37 41 38 42 91 43 39 44
REMARK SMILES IDX 96 45 90 46 92 47 40 48 95 49 89 50 88 51 41 53 75 54 54 55
REMARK SMILES IDX 74 56 55 57 58 58 73 59 93 60 56 61 57 62 72 64 94 65 59 66
REMARK SMILES IDX 42 67 43 68 52 69 44 70 45 71 51 72 53 73 46 74 47 75 48 76
REMARK SMILES IDX 49 77 50 78 76 79 77 80 86 81 78 82 79 83 85 84 87 85 80 86
REMARK SMILES IDX 81 87 82 88 83 89 84 90 60 91 61 92 70 93 62 94 63 95 69 96
REMARK SMILES IDX 71 97 64 98 65 99 66 100 67 101 68 102
REMARK H PARENT 23 7 30 33 92 52 58 63
REMARK Flexibility Score: inf
ROOT
ATOM      1  C   UNL A   1      33.878  28.639  26.344  1.00  0.00     0.002 C 
ENDROOT
BRANCH   1   2
ATOM      2  C   UNL A   1      33.245  29.565  25.312  1.00  0.00     0.021 C 
BRANCH   2   3
ATOM      3  C   UNL A   1      31.749  29.802  25.468  1.00  0.00     0.116 C 
BRANCH   3   4
ATOM      4  N   UNL A   1      30.982  29.544  24.257  1.00  0.00    -0.351 N 
ATOM      5  C   UNL A   1      30.582  28.402  23.623  1.00  0.00     0.262 C 
ATOM      6  O   UNL A   1      29.913  28.526  22.597  1.00  0.00    -0.268 OA
ATOM      7  H   UNL A   1      30.691  30.366  23.800  1.00  0.00     0.163 HD
BRANCH   5   8
ATOM      8  C   UNL A   1      30.963  27.044  24.089  1.00  0.00     0.120 C 
ATOM      9  C   UNL A   1      30.655  26.497  25.294  1.00  0.00     0.072 C 
BRANCH   8  10
ATOM     10  C   UNL A   1      31.299  25.968  23.070  1.00  0.00     0.105 C 
ATOM     11  N   UNL A   1      31.579  25.075  22.225  1.00  0.00    -0.192 NA
ENDBRANCH   8  10
BRANCH   9  12
ATOM     12  C   UNL A   1      31.098  25.198  25.729  1.00  0.00     0.129 A 
ATOM     13  C   UNL A   1      30.447  24.232  26.496  1.00  0.00     0.051 A 
ATOM     14  O   UNL A   1      32.320  24.661  25.364  1.00  0.00    -0.457 OA
ATOM     15  C   UNL A   1      31.307  23.124  26.643  1.00  0.00     0.051 A 
ATOM     16  C   UNL A   1      32.430  23.411  25.906  1.00  0.00     0.136 A 
BRANCH  16  17
ATOM     17  C   UNL A   1      33.645  22.662  25.608  1.00  0.00     0.036 A 
ATOM     18  C   UNL A   1      34.895  23.287  25.772  1.00  0.00     0.026 A 
ATOM     19  C   UNL A   1      33.622  21.310  25.217  1.00  0.00     0.052 A 
ATOM     20  C   UNL A   1      36.100  22.585  25.568  1.00  0.00     0.056 A 
ATOM     21  C   UNL A   1      34.813  20.611  24.998  1.00  0.00     0.022 A 
ATOM     22  Cl  UNL A   1      32.149  20.435  24.959  1.00  0.00    -0.084 Cl
ATOM     23  C   UNL A   1      36.044  21.242  25.176  1.00  0.00     0.014 A 
BRANCH  20  24
ATOM     24  C   UNL A   1      37.425  23.277  25.784  1.00  0.00     0.416 C 
ATOM     25  F   UNL A   1      38.454  22.401  25.937  1.00  0.00    -0.166 F 
ATOM     26  F   UNL A   1      37.767  24.079  24.737  1.00  0.00    -0.166 F 
ATOM     27  F   UNL A   1      37.445  24.080  26.885  1.00  0.00    -0.166 F 
ENDBRANCH  20  24
ENDBRANCH  16  17
ENDBRANCH   9  12
ENDBRANCH   5   8
ENDBRANCH   3   4
ENDBRANCH   2   3
ENDBRANCH   1   2
BRANCH   1  28
ATOM     28  C   UNL A   1      34.871  29.291  27.312  1.00  0.00     0.002 C 
BRANCH  28  29
ATOM     29  C   UNL A   1      34.572  30.736  27.731  1.00  0.00     0.021 C 
BRANCH  29  30
ATOM     30  C   UNL A   1      35.651  31.428  28.560  1.00  0.00     0.116 C 
BRANCH  30  31
ATOM     31  N   UNL A   1      35.561  31.094  29.968  1.00  0.00    -0.352 N 
ATOM     32  C   UNL A   1      36.431  30.409  30.776  1.00  0.00     0.251 C 
ATOM     33  H   UNL A   1      34.743  31.411  30.417  1.00  0.00     0.163 HD
ATOM     34  O   UNL A   1      36.064  30.079  31.900  1.00  0.00    -0.269 OA
BRANCH  32  35
ATOM     35  C   UNL A   1      37.794  30.055  30.312  1.00  0.00     0.039 A 
ATOM     36  C   UNL A   1      38.030  30.011  28.934  1.00  0.00     0.014 A 
ATOM     37  C   UNL A   1      38.813  29.704  31.202  1.00  0.00     0.014 A 
ATOM     38  C   UNL A   1      39.289  29.647  28.454  1.00  0.00     0.010 A 
ATOM     39  C   UNL A   1      40.089  29.397  30.722  1.00  0.00     0.010 A 
ATOM     40  C   UNL A   1      40.336  29.353  29.344  1.00  0.00    -0.014 A 
BRANCH  40  41
ATOM     41  C   UNL A   1      41.682  29.003  28.822  1.00  0.00     0.031 A 
ATOM     42  C   UNL A   1      42.768  30.041  28.738  1.00  0.00     0.074 A 
ATOM     43  C   UNL A   1      41.922  27.741  28.414  1.00  0.00     0.049 A 
ATOM     44  N   UNL A   1      44.010  29.906  28.345  1.00  0.00    -0.248 NA
ATOM     45  C   UNL A   1      42.410  31.415  29.125  1.00  0.00     0.031 C 
ATOM     46  C   UNL A   1      40.932  26.661  28.385  1.00  0.00     0.029 A 
ATOM     47  N   UNL A   1      43.069  27.151  27.949  1.00  0.00    -0.354 N 
ATOM     48  C   UNL A   1      44.580  31.169  28.441  1.00  0.00     0.074 A 
ATOM     49  C   UNL A   1      43.534  32.071  28.874  1.00  0.00     0.031 C 
ATOM     50  C   UNL A   1      41.521  25.537  27.950  1.00  0.00     0.029 A 
ATOM     51  C   UNL A   1      42.922  25.817  27.654  1.00  0.00     0.049 A 
ATOM     52  H   UNL A   1      43.918  27.638  27.837  1.00  0.00     0.167 HD
ATOM     53  C   UNL A   1      45.865  31.539  28.218  1.00  0.00     0.037 A 
ATOM     54  C   UNL A   1      43.819  24.917  27.205  1.00  0.00     0.037 A 
ATOM     55  C   UNL A   1      46.907  30.637  27.799  1.00  0.00     0.049 A 
ATOM     56  C   UNL A   1      45.245  25.343  27.003  1.00  0.00     0.074 A 
ATOM     57  C   UNL A   1      48.247  30.908  27.577  1.00  0.00     0.029 A 
ATOM     58  N   UNL A   1      46.728  29.285  27.547  1.00  0.00    -0.354 N 
ATOM     59  N   UNL A   1      45.779  26.532  27.155  1.00  0.00    -0.248 NA
ATOM     60  C   UNL A   1      46.196  24.302  26.587  1.00  0.00     0.031 C 
ATOM     61  C   UNL A   1      48.871  29.725  27.164  1.00  0.00     0.029 A 
ATOM     62  C   UNL A   1      47.929  28.709  27.165  1.00  0.00     0.049 A 
ATOM     63  H   UNL A   1      45.872  28.805  27.626  1.00  0.00     0.167 HD
ATOM     64  C   UNL A   1      47.131  26.380  26.865  1.00  0.00     0.074 A 
ATOM     65  C   UNL A   1      47.335  24.979  26.555  1.00  0.00     0.031 C 
ATOM     66  C   UNL A   1      48.112  27.315  26.850  1.00  0.00     0.037 A 
BRANCH  53  67
ATOM     67  C   UNL A   1      46.219  32.985  28.441  1.00  0.00     0.058 A 
ATOM     68  C   UNL A   1      46.051  33.943  27.428  1.00  0.00     0.135 A 
ATOM     69  C   UNL A   1      46.693  33.428  29.686  1.00  0.00     0.135 A 
ATOM     70  F   UNL A   1      45.615  33.572  26.213  1.00  0.00    -0.206 F 
ATOM     71  C   UNL A   1      46.366  35.283  27.632  1.00  0.00     0.059 A 
ATOM     72  C   UNL A   1      46.992  34.767  29.921  1.00  0.00     0.059 A 
ATOM     73  F   UNL A   1      46.873  32.555  30.691  1.00  0.00    -0.206 F 
ATOM     74  C   UNL A   1      46.837  35.685  28.881  1.00  0.00     0.060 A 
BRANCH  74  75
ATOM     75  S   UNL A   1      47.235  37.428  29.134  1.00  0.00     0.124 S 
ATOM     76  O   UNL A   1      48.229  37.652  28.088  1.00  0.00    -0.237 OA
ATOM     77  O   UNL A   1      45.943  38.077  28.929  1.00  0.00    -0.237 OA
ATOM     78  O   UNL A   1      47.743  37.466  30.501  1.00  0.00    -0.744 OA
ENDBRANCH  74  75
ENDBRANCH  53  67
BRANCH  54  79
ATOM     79  C   UNL A   1      43.394  23.517  26.948  1.00  0.00     0.058 A 
ATOM     80  C   UNL A   1      43.133  23.066  25.645  1.00  0.00     0.135 A 
ATOM     81  C   UNL A   1      43.256  22.597  27.999  1.00  0.00     0.135 A 
ATOM     82  F   UNL A   1      43.250  23.910  24.608  1.00  0.00    -0.206 F 
ATOM     83  C   UNL A   1      42.731  21.758  25.394  1.00  0.00     0.059 A 
ATOM     84  C   UNL A   1      42.878  21.279  27.771  1.00  0.00     0.059 A 
ATOM     85  F   UNL A   1      43.514  22.975  29.260  1.00  0.00    -0.206 F 
ATOM     86  C   UNL A   1      42.606  20.871  26.465  1.00  0.00     0.060 A 
BRANCH  86  87
ATOM     87  S   UNL A   1      42.131  19.162  26.129  1.00  0.00     0.124 S 
ATOM     88  O   UNL A   1      42.387  18.529  27.416  1.00  0.00    -0.237 OA
ATOM     89  O   UNL A   1      40.727  19.298  25.751  1.00  0.00    -0.237 OA
ATOM     90  O   UNL A   1      43.028  18.775  25.043  1.00  0.00    -0.744 OA
ENDBRANCH  86  87
ENDBRANCH  54  79
BRANCH  66  91
ATOM     91  C   UNL A   1      49.494  26.843  26.496  1.00  0.00     0.058 A 
ATOM     92  C   UNL A   1      50.418  26.473  27.487  1.00  0.00     0.135 A 
ATOM     93  C   UNL A   1      49.898  26.757  25.155  1.00  0.00     0.135 A 
ATOM     94  F   UNL A   1      50.081  26.541  28.784  1.00  0.00    -0.206 F 
ATOM     95  C   UNL A   1      51.709  26.071  27.161  1.00  0.00     0.059 A 
ATOM     96  C   UNL A   1      51.177  26.334  24.805  1.00  0.00     0.059 A 
ATOM     97  F   UNL A   1      49.049  27.088  24.170  1.00  0.00    -0.206 F 
ATOM     98  C   UNL A   1      52.082  26.013  25.817  1.00  0.00     0.060 A 
BRANCH  98  99
ATOM     99  S   UNL A   1      53.762  25.499  25.403  1.00  0.00     0.124 S 
ATOM    100  O   UNL A   1      53.528  24.634  24.251  1.00  0.00    -0.237 OA
ATOM    101  O   UNL A   1      54.421  26.770  25.118  1.00  0.00    -0.237 OA
ATOM    102  O   UNL A   1      54.217  24.824  26.615  1.00  0.00    -0.744 OA
ENDBRANCH  98  99
ENDBRANCH  66  91
ENDBRANCH  40  41
ENDBRANCH  32  35
ENDBRANCH  30  31
ENDBRANCH  29  30
ENDBRANCH  28  29
ENDBRANCH   1  28
TORSDOF 20
ENDMDL
