MODEL 1
REMARK VINA RESULT:     -11.5      0.000      0.000
REMARK SMILES COc1ccc2c(c1)OC[C@@]1(C(=O)NCCCCCCNC(=O)c3ccc(-c4c5nc(c(-c6c(F)cc(S(=O)(=O)[O-])cc6F)c6ccc([nH]6)c(-c6c(F)cc(S(=O)(=O)[O-])cc6F)c6nc(c(-c7c(F)cc(S(=O)(=O)[O-])cc7F)c7ccc4[nH]7)C=C6)C=C5)cc3)C[N@@H+](Cc3cc(C(C)(C)C)n[nH]3)C[C@H]21
REMARK SMILES IDX 17 1 16 2 15 3 14 4 12 5 13 6 11 8 3 9 4 10 8 11 5 12 7 13
REMARK SMILES IDX 6 14 9 15 103 16 10 17 102 18 90 19 91 20 2 22 1 23 92 24
REMARK SMILES IDX 93 25 94 26 101 27 95 28 100 29 96 31 97 32 98 33 99 34
REMARK SMILES IDX 18 35 19 36 20 37 21 38 22 39 23 41 24 42 25 43 89 44 26 45
REMARK SMILES IDX 88 46 27 47 28 48 29 49 82 50 30 51 87 52 81 53 83 54 31 55
REMARK SMILES IDX 86 56 80 57 79 58 32 60 66 61 45 62 65 63 46 64 49 65 64 66
REMARK SMILES IDX 84 67 47 68 48 69 63 71 85 72 50 73 33 74 34 75 43 76 35 77
REMARK SMILES IDX 36 78 42 79 44 80 37 81 38 82 39 83 40 84 41 85 67 86 68 87
REMARK SMILES IDX 77 88 69 89 70 90 76 91 78 92 71 93 72 94 73 95 74 96 75 97
REMARK SMILES IDX 51 98 52 99 61 100 53 101 54 102 60 103 62 104 55 105 56 106
REMARK SMILES IDX 57 107 58 108 59 109
REMARK H PARENT 14 7 91 21 101 30 21 40 83 59 49 70
REMARK Flexibility Score: inf
ROOT
ATOM      1  C   UNL A   1      39.227  23.467  26.607  1.00  0.00     0.002 C 
ENDROOT
BRANCH   1   2
ATOM      2  C   UNL A   1      37.940  22.793  26.125  1.00  0.00     0.021 C 
BRANCH   2   3
ATOM      3  C   UNL A   1      36.662  23.616  26.157  1.00  0.00     0.116 C 
BRANCH   3   4
ATOM      4  N   UNL A   1      36.212  24.100  24.865  1.00  0.00    -0.355 N 
ATOM      5  C   UNL A   1      34.912  24.015  24.404  1.00  0.00     0.236 C 
ATOM      6  O   UNL A   1      34.512  24.876  23.616  1.00  0.00    -0.274 OA
ATOM      7  H   UNL A   1      36.880  24.519  24.275  1.00  0.00     0.163 HD
BRANCH   5   8
ATOM      8  C   UNL A   1      34.077  22.787  24.895  1.00  0.00     0.144 C 
ATOM      9  C   UNL A   1      33.764  17.523  24.370  1.00  0.00     0.122 A 
ATOM     10  C   UNL A   1      32.439  17.962  24.325  1.00  0.00     0.047 A 
ATOM     11  C   UNL A   1      34.786  18.459  24.512  1.00  0.00     0.093 A 
ATOM     12  C   UNL A   1      32.134  19.320  24.437  1.00  0.00     0.012 A 
ATOM     13  C   UNL A   1      34.471  19.817  24.593  1.00  0.00     0.126 A 
ATOM     14  C   UNL A   1      33.159  20.263  24.590  1.00  0.00     0.005 A 
ATOM     15  O   UNL A   1      35.487  20.721  24.646  1.00  0.00    -0.492 OA
ATOM     16  C   UNL A   1      32.884  21.749  24.651  1.00  0.00     0.103 C 
ATOM     17  C   UNL A   1      35.102  21.956  23.990  1.00  0.00     0.253 C 
ATOM     18  C   UNL A   1      31.919  22.035  25.811  1.00  0.00     0.272 C 
ATOM     19  C   UNL A   1      32.902  23.914  24.884  1.00  0.00     0.284 C 
ATOM     20  N   UNL A   1      31.997  23.473  25.958  1.00  0.00    -0.328 N 
ATOM     21  H   UNL A   1      32.369  23.726  26.874  1.00  0.00     0.348 HD
BRANCH   9  22
ATOM     22  O   UNL A   1      33.919  16.171  24.233  1.00  0.00    -0.497 OA
ATOM     23  C   UNL A   1      33.727  15.385  25.402  1.00  0.00     0.278 C 
ENDBRANCH   9  22
BRANCH  20  24
ATOM     24  C   UNL A   1      30.716  24.179  26.046  1.00  0.00     0.319 C 
BRANCH  24  25
ATOM     25  C   UNL A   1      30.853  25.655  25.964  1.00  0.00     0.090 A 
ATOM     26  C   UNL A   1      30.627  26.550  24.943  1.00  0.00     0.055 A 
ATOM     27  N   UNL A   1      31.348  26.401  26.997  1.00  0.00    -0.277 N 
ATOM     28  C   UNL A   1      31.222  27.757  25.373  1.00  0.00     0.068 A 
ATOM     29  N   UNL A   1      31.619  27.668  26.650  1.00  0.00    -0.180 NA
ATOM     30  H   UNL A   1      31.491  26.045  27.903  1.00  0.00     0.190 HD
BRANCH  28  31
ATOM     31  C   UNL A   1      31.478  29.018  24.570  1.00  0.00     0.006 C 
ATOM     32  C   UNL A   1      30.431  29.148  23.452  1.00  0.00     0.017 C 
ATOM     33  C   UNL A   1      31.406  30.258  25.488  1.00  0.00     0.017 C 
ATOM     34  C   UNL A   1      32.884  29.002  23.930  1.00  0.00     0.017 C 
ENDBRANCH  28  31
ENDBRANCH  24  25
ENDBRANCH  20  24
ENDBRANCH   5   8
ENDBRANCH   3   4
ENDBRANCH   2   3
ENDBRANCH   1   2
BRANCH   1  35
ATOM     35  C   UNL A   1      40.391  22.578  27.054  1.00  0.00     0.002 C 
BRANCH  35  36
ATOM     36  C   UNL A   1      40.372  21.118  26.612  1.00  0.00     0.021 C 
BRANCH  36  37
ATOM     37  C   UNL A   1      41.494  20.237  27.140  1.00  0.00     0.116 C 
BRANCH  37  38
ATOM     38  N   UNL A   1      42.151  19.440  26.116  1.00  0.00    -0.352 N 
ATOM     39  C   UNL A   1      43.211  19.789  25.308  1.00  0.00     0.251 C 
ATOM     40  H   UNL A   1      41.792  18.534  25.983  1.00  0.00     0.163 HD
ATOM     41  O   UNL A   1      43.616  19.017  24.444  1.00  0.00    -0.269 OA
BRANCH  39  42
ATOM     42  C   UNL A   1      43.819  21.130  25.456  1.00  0.00     0.039 A 
ATOM     43  C   UNL A   1      44.743  21.384  26.471  1.00  0.00     0.014 A 
ATOM     44  C   UNL A   1      43.385  22.164  24.624  1.00  0.00     0.014 A 
ATOM     45  C   UNL A   1      45.092  22.698  26.771  1.00  0.00     0.010 A 
ATOM     46  C   UNL A   1      43.797  23.475  24.879  1.00  0.00     0.010 A 
ATOM     47  C   UNL A   1      44.605  23.761  25.992  1.00  0.00    -0.014 A 
BRANCH  47  48
ATOM     48  C   UNL A   1      44.911  25.163  26.380  1.00  0.00     0.031 A 
ATOM     49  C   UNL A   1      46.307  25.712  26.220  1.00  0.00     0.074 A 
ATOM     50  C   UNL A   1      43.925  25.959  26.836  1.00  0.00     0.049 A 
ATOM     51  N   UNL A   1      46.771  26.892  26.547  1.00  0.00    -0.248 NA
ATOM     52  C   UNL A   1      47.316  24.823  25.618  1.00  0.00     0.031 C 
ATOM     53  C   UNL A   1      42.530  25.551  27.024  1.00  0.00     0.029 A 
ATOM     54  N   UNL A   1      43.938  27.278  27.214  1.00  0.00    -0.354 N 
ATOM     55  C   UNL A   1      48.123  26.879  26.220  1.00  0.00     0.074 A 
ATOM     56  C   UNL A   1      48.413  25.569  25.679  1.00  0.00     0.031 C 
ATOM     57  C   UNL A   1      41.818  26.604  27.453  1.00  0.00     0.029 A 
ATOM     58  C   UNL A   1      42.712  27.744  27.626  1.00  0.00     0.049 A 
ATOM     59  H   UNL A   1      44.748  27.836  27.193  1.00  0.00     0.167 HD
ATOM     60  C   UNL A   1      49.035  27.871  26.349  1.00  0.00     0.037 A 
ATOM     61  C   UNL A   1      42.351  28.946  28.112  1.00  0.00     0.037 A 
ATOM     62  C   UNL A   1      48.737  29.190  26.846  1.00  0.00     0.049 A 
ATOM     63  C   UNL A   1      43.389  30.022  28.263  1.00  0.00     0.074 A 
ATOM     64  C   UNL A   1      49.591  30.272  26.979  1.00  0.00     0.029 A 
ATOM     65  N   UNL A   1      47.490  29.610  27.283  1.00  0.00    -0.354 N 
ATOM     66  N   UNL A   1      44.663  29.984  27.955  1.00  0.00    -0.248 NA
ATOM     67  C   UNL A   1      42.943  31.299  28.838  1.00  0.00     0.031 C 
ATOM     68  C   UNL A   1      48.867  31.338  27.523  1.00  0.00     0.029 A 
ATOM     69  C   UNL A   1      47.556  30.930  27.699  1.00  0.00     0.049 A 
ATOM     70  H   UNL A   1      46.678  29.053  27.295  1.00  0.00     0.167 HD
ATOM     71  C   UNL A   1      45.171  31.230  28.303  1.00  0.00     0.074 A 
ATOM     72  C   UNL A   1      44.063  32.009  28.814  1.00  0.00     0.031 C 
ATOM     73  C   UNL A   1      46.445  31.685  28.216  1.00  0.00     0.037 A 
BRANCH  60  74
ATOM     74  C   UNL A   1      50.455  27.589  25.948  1.00  0.00     0.058 A 
ATOM     75  C   UNL A   1      51.416  27.186  26.889  1.00  0.00     0.135 A 
ATOM     76  C   UNL A   1      50.830  27.618  24.595  1.00  0.00     0.135 A 
ATOM     77  F   UNL A   1      51.113  27.161  28.196  1.00  0.00    -0.206 F 
ATOM     78  C   UNL A   1      52.699  26.815  26.500  1.00  0.00     0.059 A 
ATOM     79  C   UNL A   1      52.103  27.235  24.182  1.00  0.00     0.059 A 
ATOM     80  F   UNL A   1      49.949  28.001  23.658  1.00  0.00    -0.206 F 
ATOM     81  C   UNL A   1      53.031  26.834  25.143  1.00  0.00     0.060 A 
BRANCH  81  82
ATOM     82  S   UNL A   1      54.683  26.296  24.654  1.00  0.00     0.124 S 
ATOM     83  O   UNL A   1      54.602  24.858  24.888  1.00  0.00    -0.237 OA
ATOM     84  O   UNL A   1      54.742  26.708  23.255  1.00  0.00    -0.237 OA
ATOM     85  O   UNL A   1      55.563  27.031  25.558  1.00  0.00    -0.744 OA
ENDBRANCH  81  82
ENDBRANCH  60  74
BRANCH  61  86
ATOM     86  C   UNL A   1      40.946  29.184  28.531  1.00  0.00     0.058 A 
ATOM     87  C   UNL A   1      39.933  29.394  27.585  1.00  0.00     0.135 A 
ATOM     88  C   UNL A   1      40.592  29.205  29.889  1.00  0.00     0.135 A 
ATOM     89  F   UNL A   1      40.227  29.389  26.275  1.00  0.00    -0.206 F 
ATOM     90  C   UNL A   1      38.618  29.632  27.970  1.00  0.00     0.059 A 
ATOM     91  C   UNL A   1      39.280  29.418  30.297  1.00  0.00     0.059 A 
ATOM     92  F   UNL A   1      41.524  28.996  30.832  1.00  0.00    -0.206 F 
ATOM     93  C   UNL A   1      38.302  29.643  29.330  1.00  0.00     0.060 A 
BRANCH  93  94
ATOM     94  S   UNL A   1      36.586  29.915  29.822  1.00  0.00     0.124 S 
ATOM     95  O   UNL A   1      36.520  31.370  29.862  1.00  0.00    -0.237 OA
ATOM     96  O   UNL A   1      35.849  29.271  28.739  1.00  0.00    -0.237 OA
ATOM     97  O   UNL A   1      36.499  29.240  31.114  1.00  0.00    -0.744 OA
ENDBRANCH  93  94
ENDBRANCH  61  86
BRANCH  73  98
ATOM     98  C   UNL A   1      46.705  33.085  28.689  1.00  0.00     0.058 A 
ATOM     99  C   UNL A   1      47.090  33.345  30.013  1.00  0.00     0.135 A 
ATOM    100  C   UNL A   1      46.604  34.172  27.806  1.00  0.00     0.135 A 
ATOM    101  F   UNL A   1      47.195  32.340  30.896  1.00  0.00    -0.206 F 
ATOM    102  C   UNL A   1      47.345  34.640  30.453  1.00  0.00     0.059 A 
ATOM    103  C   UNL A   1      46.874  35.471  28.219  1.00  0.00     0.059 A 
ATOM    104  F   UNL A   1      46.248  33.973  26.527  1.00  0.00    -0.206 F 
ATOM    105  C   UNL A   1      47.232  35.697  29.548  1.00  0.00     0.060 A 
BRANCH 105 106
ATOM    106  S   UNL A   1      47.583  37.371  30.126  1.00  0.00     0.124 S 
ATOM    107  O   UNL A   1      46.362  37.690  30.857  1.00  0.00    -0.237 OA
ATOM    108  O   UNL A   1      48.778  37.178  30.940  1.00  0.00    -0.237 OA
ATOM    109  O   UNL A   1      47.789  38.119  28.889  1.00  0.00    -0.744 OA
ENDBRANCH 105 106
ENDBRANCH  73  98
ENDBRANCH  47  48
ENDBRANCH  39  42
ENDBRANCH  37  38
ENDBRANCH  36  37
ENDBRANCH  35  36
ENDBRANCH   1  35
TORSDOF 20
ENDMDL
MODEL 2
REMARK VINA RESULT:     -11.4      6.384      9.401
REMARK SMILES COc1ccc2c(c1)OC[C@@]1(C(=O)NCCCCCCNC(=O)c3ccc(-c4c5nc(c(-c6c(F)cc(S(=O)(=O)[O-])cc6F)c6ccc([nH]6)c(-c6c(F)cc(S(=O)(=O)[O-])cc6F)c6nc(c(-c7c(F)cc(S(=O)(=O)[O-])cc7F)c7ccc4[nH]7)C=C6)C=C5)cc3)C[N@@H+](Cc3cc(C(C)(C)C)n[nH]3)C[C@H]21
REMARK SMILES IDX 17 1 16 2 15 3 14 4 12 5 13 6 11 8 3 9 4 10 8 11 5 12 7 13
REMARK SMILES IDX 6 14 9 15 103 16 10 17 102 18 90 19 91 20 2 22 1 23 92 24
REMARK SMILES IDX 93 25 94 26 101 27 95 28 100 29 96 31 97 32 98 33 99 34
REMARK SMILES IDX 18 35 19 36 20 37 21 38 22 39 23 41 24 42 25 43 89 44 26 45
REMARK SMILES IDX 88 46 27 47 28 48 29 49 82 50 30 51 87 52 81 53 83 54 31 55
REMARK SMILES IDX 86 56 80 57 79 58 32 60 66 61 45 62 65 63 46 64 49 65 64 66
REMARK SMILES IDX 84 67 47 68 48 69 63 71 85 72 50 73 33 74 34 75 43 76 35 77
REMARK SMILES IDX 36 78 42 79 44 80 37 81 38 82 39 83 40 84 41 85 67 86 68 87
REMARK SMILES IDX 77 88 69 89 70 90 76 91 78 92 71 93 72 94 73 95 74 96 75 97
REMARK SMILES IDX 51 98 52 99 61 100 53 101 54 102 60 103 62 104 55 105 56 106
REMARK SMILES IDX 57 107 58 108 59 109
REMARK H PARENT 14 7 91 21 101 30 21 40 83 59 49 70
REMARK Flexibility Score: inf
ROOT
ATOM      1  C   UNL A   1      37.038  21.986  24.215  1.00  0.00     0.002 C 
ENDROOT
BRANCH   1   2
ATOM      2  C   UNL A   1      35.547  22.210  24.480  1.00  0.00     0.021 C 
BRANCH   2   3
ATOM      3  C   UNL A   1      34.949  23.539  24.049  1.00  0.00     0.116 C 
BRANCH   3   4
ATOM      4  N   UNL A   1      34.190  23.497  22.813  1.00  0.00    -0.355 N 
ATOM      5  C   UNL A   1      33.270  24.452  22.422  1.00  0.00     0.236 C 
ATOM      6  O   UNL A   1      33.098  24.641  21.215  1.00  0.00    -0.274 OA
ATOM      7  H   UNL A   1      34.340  22.734  22.209  1.00  0.00     0.163 HD
BRANCH   5   8
ATOM      8  C   UNL A   1      32.490  25.177  23.568  1.00  0.00     0.144 C 
ATOM      9  C   UNL A   1      32.416  29.729  26.282  1.00  0.00     0.122 A 
ATOM     10  C   UNL A   1      32.213  28.739  27.246  1.00  0.00     0.047 A 
ATOM     11  C   UNL A   1      32.593  29.355  24.951  1.00  0.00     0.093 A 
ATOM     12  C   UNL A   1      32.171  27.390  26.885  1.00  0.00     0.012 A 
ATOM     13  C   UNL A   1      32.579  28.002  24.607  1.00  0.00     0.126 A 
ATOM     14  C   UNL A   1      32.339  27.013  25.547  1.00  0.00     0.005 A 
ATOM     15  O   UNL A   1      32.838  27.654  23.317  1.00  0.00    -0.492 OA
ATOM     16  C   UNL A   1      32.365  25.563  25.116  1.00  0.00     0.103 C 
ATOM     17  C   UNL A   1      33.512  26.371  23.263  1.00  0.00     0.253 C 
ATOM     18  C   UNL A   1      31.056  24.886  25.547  1.00  0.00     0.272 C 
ATOM     19  C   UNL A   1      32.355  23.641  24.091  1.00  0.00     0.284 C 
ATOM     20  N   UNL A   1      31.071  23.639  24.812  1.00  0.00    -0.328 N 
ATOM     21  H   UNL A   1      30.288  23.592  24.160  1.00  0.00     0.348 HD
BRANCH   9  22
ATOM     22  O   UNL A   1      32.449  31.004  26.776  1.00  0.00    -0.497 OA
ATOM     23  C   UNL A   1      31.334  31.833  26.478  1.00  0.00     0.278 C 
ENDBRANCH   9  22
BRANCH  20  24
ATOM     24  C   UNL A   1      30.775  22.433  25.589  1.00  0.00     0.319 C 
BRANCH  24  25
ATOM     25  C   UNL A   1      31.798  21.369  25.434  1.00  0.00     0.090 A 
ATOM     26  C   UNL A   1      32.037  20.454  24.434  1.00  0.00     0.055 A 
ATOM     27  N   UNL A   1      32.704  21.078  26.415  1.00  0.00    -0.277 N 
ATOM     28  C   UNL A   1      32.941  19.523  24.995  1.00  0.00     0.068 A 
ATOM     29  N   UNL A   1      33.378  19.941  26.191  1.00  0.00    -0.180 NA
ATOM     30  H   UNL A   1      32.847  21.646  27.207  1.00  0.00     0.190 HD
BRANCH  28  31
ATOM     31  C   UNL A   1      33.381  18.184  24.435  1.00  0.00     0.006 C 
ATOM     32  C   UNL A   1      32.847  18.014  23.003  1.00  0.00     0.017 C 
ATOM     33  C   UNL A   1      34.923  18.093  24.422  1.00  0.00     0.017 C 
ATOM     34  C   UNL A   1      32.859  17.015  25.299  1.00  0.00     0.017 C 
ENDBRANCH  28  31
ENDBRANCH  24  25
ENDBRANCH  20  24
ENDBRANCH   5   8
ENDBRANCH   3   4
ENDBRANCH   2   3
ENDBRANCH   1   2
BRANCH   1  35
ATOM     35  C   UNL A   1      38.000  22.003  25.405  1.00  0.00     0.002 C 
BRANCH  35  36
ATOM     36  C   UNL A   1      37.928  23.196  26.352  1.00  0.00     0.021 C 
BRANCH  36  37
ATOM     37  C   UNL A   1      39.253  23.707  26.899  1.00  0.00     0.116 C 
BRANCH  37  38
ATOM     38  N   UNL A   1      40.080  24.378  25.909  1.00  0.00    -0.352 N 
ATOM     39  C   UNL A   1      40.846  25.514  26.061  1.00  0.00     0.251 C 
ATOM     40  H   UNL A   1      40.094  23.969  25.014  1.00  0.00     0.163 HD
ATOM     41  O   UNL A   1      41.447  25.992  25.103  1.00  0.00    -0.269 OA
BRANCH  39  42
ATOM     42  C   UNL A   1      40.891  26.181  27.381  1.00  0.00     0.039 A 
ATOM     43  C   UNL A   1      39.823  26.066  28.273  1.00  0.00     0.014 A 
ATOM     44  C   UNL A   1      41.977  27.004  27.685  1.00  0.00     0.014 A 
ATOM     45  C   UNL A   1      39.755  26.911  29.377  1.00  0.00     0.010 A 
ATOM     46  C   UNL A   1      41.942  27.797  28.835  1.00  0.00     0.010 A 
ATOM     47  C   UNL A   1      40.804  27.803  29.658  1.00  0.00    -0.014 A 
BRANCH  47  48
ATOM     48  C   UNL A   1      40.675  28.763  30.787  1.00  0.00     0.031 A 
ATOM     49  C   UNL A   1      41.594  28.667  31.979  1.00  0.00     0.074 A 
ATOM     50  C   UNL A   1      39.760  29.749  30.721  1.00  0.00     0.049 A 
ATOM     51  N   UNL A   1      41.600  29.385  33.074  1.00  0.00    -0.248 NA
ATOM     52  C   UNL A   1      42.641  27.631  31.942  1.00  0.00     0.031 C 
ATOM     53  C   UNL A   1      38.821  29.957  29.616  1.00  0.00     0.029 A 
ATOM     54  N   UNL A   1      39.476  30.768  31.594  1.00  0.00    -0.354 N 
ATOM     55  C   UNL A   1      42.624  28.873  33.864  1.00  0.00     0.074 A 
ATOM     56  C   UNL A   1      43.213  27.774  33.131  1.00  0.00     0.031 C 
ATOM     57  C   UNL A   1      38.086  31.051  29.864  1.00  0.00     0.029 A 
ATOM     58  C   UNL A   1      38.459  31.590  31.167  1.00  0.00     0.049 A 
ATOM     59  H   UNL A   1      39.953  30.898  32.444  1.00  0.00     0.167 HD
ATOM     60  C   UNL A   1      43.041  29.289  35.083  1.00  0.00     0.037 A 
ATOM     61  C   UNL A   1      37.873  32.643  31.768  1.00  0.00     0.037 A 
ATOM     62  C   UNL A   1      42.484  30.411  35.794  1.00  0.00     0.049 A 
ATOM     63  C   UNL A   1      38.344  33.070  33.130  1.00  0.00     0.074 A 
ATOM     64  C   UNL A   1      42.867  30.929  37.021  1.00  0.00     0.029 A 
ATOM     65  N   UNL A   1      41.434  31.195  35.341  1.00  0.00    -0.354 N 
ATOM     66  N   UNL A   1      39.308  32.565  33.862  1.00  0.00    -0.248 NA
ATOM     67  C   UNL A   1      37.639  34.199  33.752  1.00  0.00     0.031 C 
ATOM     68  C   UNL A   1      42.029  32.007  37.323  1.00  0.00     0.029 A 
ATOM     69  C   UNL A   1      41.147  32.182  36.271  1.00  0.00     0.049 A 
ATOM     70  H   UNL A   1      40.963  31.069  34.486  1.00  0.00     0.167 HD
ATOM     71  C   UNL A   1      39.323  33.314  35.032  1.00  0.00     0.074 A 
ATOM     72  C   UNL A   1      38.294  34.324  34.899  1.00  0.00     0.031 C 
ATOM     73  C   UNL A   1      40.112  33.171  36.126  1.00  0.00     0.037 A 
BRANCH  60  74
ATOM     74  C   UNL A   1      44.160  28.537  35.748  1.00  0.00     0.058 A 
ATOM     75  C   UNL A   1      45.501  28.903  35.560  1.00  0.00     0.135 A 
ATOM     76  C   UNL A   1      43.879  27.510  36.664  1.00  0.00     0.135 A 
ATOM     77  F   UNL A   1      45.823  29.865  34.681  1.00  0.00    -0.206 F 
ATOM     78  C   UNL A   1      46.527  28.281  36.264  1.00  0.00     0.059 A 
ATOM     79  C   UNL A   1      44.888  26.886  37.392  1.00  0.00     0.059 A 
ATOM     80  F   UNL A   1      42.612  27.121  36.875  1.00  0.00    -0.206 F 
ATOM     81  C   UNL A   1      46.210  27.279  37.184  1.00  0.00     0.060 A 
BRANCH  81  82
ATOM     82  S   UNL A   1      47.550  26.522  38.128  1.00  0.00     0.124 S 
ATOM     83  O   UNL A   1      46.820  25.928  39.245  1.00  0.00    -0.237 OA
ATOM     84  O   UNL A   1      48.113  25.579  37.167  1.00  0.00    -0.237 OA
ATOM     85  O   UNL A   1      48.407  27.653  38.470  1.00  0.00    -0.744 OA
ENDBRANCH  81  82
ENDBRANCH  60  74
BRANCH  61  86
ATOM     86  C   UNL A   1      36.747  33.345  31.101  1.00  0.00     0.058 A 
ATOM     87  C   UNL A   1      35.424  33.157  31.524  1.00  0.00     0.135 A 
ATOM     88  C   UNL A   1      36.977  34.219  30.028  1.00  0.00     0.135 A 
ATOM     89  F   UNL A   1      35.157  32.324  32.542  1.00  0.00    -0.206 F 
ATOM     90  C   UNL A   1      34.363  33.799  30.895  1.00  0.00     0.059 A 
ATOM     91  C   UNL A   1      35.935  34.891  29.399  1.00  0.00     0.059 A 
ATOM     92  F   UNL A   1      38.228  34.442  29.596  1.00  0.00    -0.206 F 
ATOM     93  C   UNL A   1      34.629  34.664  29.832  1.00  0.00     0.060 A 
BRANCH  93  94
ATOM     94  S   UNL A   1      33.251  35.525  29.045  1.00  0.00     0.124 S 
ATOM     95  O   UNL A   1      32.547  34.423  28.401  1.00  0.00    -0.237 OA
ATOM     96  O   UNL A   1      32.576  36.135  30.186  1.00  0.00    -0.237 OA
ATOM     97  O   UNL A   1      33.915  36.465  28.145  1.00  0.00    -0.744 OA
ENDBRANCH  93  94
ENDBRANCH  61  86
BRANCH  73  98
ATOM     98  C   UNL A   1      39.887  34.126  37.261  1.00  0.00     0.058 A 
ATOM     99  C   UNL A   1      40.513  35.383  37.288  1.00  0.00     0.135 A 
ATOM    100  C   UNL A   1      39.015  33.801  38.311  1.00  0.00     0.135 A 
ATOM    101  F   UNL A   1      41.360  35.736  36.309  1.00  0.00    -0.206 F 
ATOM    102  C   UNL A   1      40.297  36.277  38.331  1.00  0.00     0.059 A 
ATOM    103  C   UNL A   1      38.768  34.688  39.353  1.00  0.00     0.059 A 
ATOM    104  F   UNL A   1      38.386  32.615  38.325  1.00  0.00    -0.206 F 
ATOM    105  C   UNL A   1      39.425  35.919  39.360  1.00  0.00     0.060 A 
BRANCH 105 106
ATOM    106  S   UNL A   1      39.139  37.096  40.700  1.00  0.00     0.124 S 
ATOM    107  O   UNL A   1      40.494  37.556  40.980  1.00  0.00    -0.237 OA
ATOM    108  O   UNL A   1      38.254  38.073  40.075  1.00  0.00    -0.237 OA
ATOM    109  O   UNL A   1      38.525  36.279  41.742  1.00  0.00    -0.744 OA
ENDBRANCH 105 106
ENDBRANCH  73  98
ENDBRANCH  47  48
ENDBRANCH  39  42
ENDBRANCH  37  38
ENDBRANCH  36  37
ENDBRANCH  35  36
ENDBRANCH   1  35
TORSDOF 20
ENDMDL
MODEL 3
REMARK VINA RESULT:     -11.4      6.177     11.210
REMARK SMILES COc1ccc2c(c1)OC[C@@]1(C(=O)NCCCCCCNC(=O)c3ccc(-c4c5nc(c(-c6c(F)cc(S(=O)(=O)[O-])cc6F)c6ccc([nH]6)c(-c6c(F)cc(S(=O)(=O)[O-])cc6F)c6nc(c(-c7c(F)cc(S(=O)(=O)[O-])cc7F)c7ccc4[nH]7)C=C6)C=C5)cc3)C[N@@H+](Cc3cc(C(C)(C)C)n[nH]3)C[C@H]21
REMARK SMILES IDX 17 1 16 2 15 3 14 4 12 5 13 6 11 8 3 9 4 10 8 11 5 12 7 13
REMARK SMILES IDX 6 14 9 15 103 16 10 17 102 18 90 19 91 20 2 22 1 23 92 24
REMARK SMILES IDX 93 25 94 26 101 27 95 28 100 29 96 31 97 32 98 33 99 34
REMARK SMILES IDX 18 35 19 36 20 37 21 38 22 39 23 41 24 42 25 43 89 44 26 45
REMARK SMILES IDX 88 46 27 47 28 48 29 49 82 50 30 51 87 52 81 53 83 54 31 55
REMARK SMILES IDX 86 56 80 57 79 58 32 60 66 61 45 62 65 63 46 64 49 65 64 66
REMARK SMILES IDX 84 67 47 68 48 69 63 71 85 72 50 73 33 74 34 75 43 76 35 77
REMARK SMILES IDX 36 78 42 79 44 80 37 81 38 82 39 83 40 84 41 85 67 86 68 87
REMARK SMILES IDX 77 88 69 89 70 90 76 91 78 92 71 93 72 94 73 95 74 96 75 97
REMARK SMILES IDX 51 98 52 99 61 100 53 101 54 102 60 103 62 104 55 105 56 106
REMARK SMILES IDX 57 107 58 108 59 109
REMARK H PARENT 14 7 91 21 101 30 21 40 83 59 49 70
REMARK Flexibility Score: inf
ROOT
ATOM      1  C   UNL A   1      31.869  29.345  26.501  1.00  0.00     0.002 C 
ENDROOT
BRANCH   1   2
ATOM      2  C   UNL A   1      31.611  28.000  27.185  1.00  0.00     0.021 C 
BRANCH   2   3
ATOM      3  C   UNL A   1      31.939  26.739  26.401  1.00  0.00     0.116 C 
BRANCH   3   4
ATOM      4  N   UNL A   1      33.322  26.307  26.488  1.00  0.00    -0.355 N 
ATOM      5  C   UNL A   1      33.936  25.454  25.590  1.00  0.00     0.236 C 
ATOM      6  O   UNL A   1      35.151  25.569  25.410  1.00  0.00    -0.274 OA
ATOM      7  H   UNL A   1      33.861  26.645  27.240  1.00  0.00     0.163 HD
BRANCH   5   8
ATOM      8  C   UNL A   1      33.024  24.377  24.916  1.00  0.00     0.144 C 
ATOM      9  C   UNL A   1      32.482  19.126  24.444  1.00  0.00     0.122 A 
ATOM     10  C   UNL A   1      32.247  19.622  23.160  1.00  0.00     0.047 A 
ATOM     11  C   UNL A   1      32.793  20.016  25.471  1.00  0.00     0.093 A 
ATOM     12  C   UNL A   1      32.306  20.994  22.905  1.00  0.00     0.012 A 
ATOM     13  C   UNL A   1      32.878  21.382  25.197  1.00  0.00     0.126 A 
ATOM     14  C   UNL A   1      32.608  21.892  23.937  1.00  0.00     0.005 A 
ATOM     15  O   UNL A   1      33.265  22.225  26.192  1.00  0.00    -0.492 OA
ATOM     16  C   UNL A   1      32.745  23.379  23.697  1.00  0.00     0.103 C 
ATOM     17  C   UNL A   1      34.006  23.347  25.649  1.00  0.00     0.253 C 
ATOM     18  C   UNL A   1      31.440  23.913  23.089  1.00  0.00     0.272 C 
ATOM     19  C   UNL A   1      32.922  25.548  23.789  1.00  0.00     0.284 C 
ATOM     20  N   UNL A   1      31.582  25.349  23.212  1.00  0.00    -0.328 N 
ATOM     21  H   UNL A   1      30.862  25.735  23.822  1.00  0.00     0.348 HD
BRANCH   9  22
ATOM     22  O   UNL A   1      32.408  17.764  24.549  1.00  0.00    -0.497 OA
ATOM     23  C   UNL A   1      33.252  17.011  23.689  1.00  0.00     0.278 C 
ENDBRANCH   9  22
BRANCH  20  24
ATOM     24  C   UNL A   1      31.282  26.128  22.008  1.00  0.00     0.319 C 
BRANCH  24  25
ATOM     25  C   UNL A   1      30.782  27.494  22.303  1.00  0.00     0.090 A 
ATOM     26  C   UNL A   1      29.584  27.954  22.800  1.00  0.00     0.055 A 
ATOM     27  N   UNL A   1      31.511  28.615  22.018  1.00  0.00    -0.277 N 
ATOM     28  C   UNL A   1      29.599  29.348  22.567  1.00  0.00     0.068 A 
ATOM     29  N   UNL A   1      30.801  29.748  22.130  1.00  0.00    -0.180 NA
ATOM     30  H   UNL A   1      32.460  28.594  21.757  1.00  0.00     0.190 HD
BRANCH  28  31
ATOM     31  C   UNL A   1      28.458  30.337  22.704  1.00  0.00     0.006 C 
ATOM     32  C   UNL A   1      27.207  29.623  23.241  1.00  0.00     0.017 C 
ATOM     33  C   UNL A   1      28.853  31.476  23.669  1.00  0.00     0.017 C 
ATOM     34  C   UNL A   1      28.111  30.986  21.345  1.00  0.00     0.017 C 
ENDBRANCH  28  31
ENDBRANCH  24  25
ENDBRANCH  20  24
ENDBRANCH   5   8
ENDBRANCH   3   4
ENDBRANCH   2   3
ENDBRANCH   1   2
BRANCH   1  35
ATOM     35  C   UNL A   1      33.211  30.040  26.745  1.00  0.00     0.002 C 
BRANCH  35  36
ATOM     36  C   UNL A   1      33.238  31.185  27.752  1.00  0.00     0.021 C 
BRANCH  36  37
ATOM     37  C   UNL A   1      33.802  32.508  27.257  1.00  0.00     0.116 C 
BRANCH  37  38
ATOM     38  N   UNL A   1      33.066  33.674  27.717  1.00  0.00    -0.352 N 
ATOM     39  C   UNL A   1      33.320  34.470  28.813  1.00  0.00     0.251 C 
ATOM     40  H   UNL A   1      32.283  33.927  27.176  1.00  0.00     0.163 HD
ATOM     41  O   UNL A   1      32.562  35.392  29.102  1.00  0.00    -0.269 OA
BRANCH  39  42
ATOM     42  C   UNL A   1      34.488  34.166  29.669  1.00  0.00     0.039 A 
ATOM     43  C   UNL A   1      35.784  34.437  29.226  1.00  0.00     0.014 A 
ATOM     44  C   UNL A   1      34.281  33.517  30.888  1.00  0.00     0.014 A 
ATOM     45  C   UNL A   1      36.870  33.898  29.910  1.00  0.00     0.010 A 
ATOM     46  C   UNL A   1      35.377  33.043  31.613  1.00  0.00     0.010 A 
ATOM     47  C   UNL A   1      36.678  33.176  31.100  1.00  0.00    -0.014 A 
BRANCH  47  48
ATOM     48  C   UNL A   1      37.839  32.530  31.768  1.00  0.00     0.031 A 
ATOM     49  C   UNL A   1      38.319  33.023  33.111  1.00  0.00     0.074 A 
ATOM     50  C   UNL A   1      38.435  31.470  31.188  1.00  0.00     0.049 A 
ATOM     51  N   UNL A   1      39.340  32.613  33.821  1.00  0.00    -0.248 NA
ATOM     52  C   UNL A   1      37.558  34.117  33.738  1.00  0.00     0.031 C 
ATOM     53  C   UNL A   1      38.056  30.889  29.898  1.00  0.00     0.029 A 
ATOM     54  N   UNL A   1      39.477  30.684  31.612  1.00  0.00    -0.354 N 
ATOM     55  C   UNL A   1      39.363  33.414  34.958  1.00  0.00     0.074 A 
ATOM     56  C   UNL A   1      38.261  34.343  34.842  1.00  0.00     0.031 C 
ATOM     57  C   UNL A   1      38.834  29.825  29.650  1.00  0.00     0.029 A 
ATOM     58  C   UNL A   1      39.802  29.680  30.731  1.00  0.00     0.049 A 
ATOM     59  H   UNL A   1      39.947  30.827  32.465  1.00  0.00     0.167 HD
ATOM     60  C   UNL A   1      40.218  33.370  36.007  1.00  0.00     0.037 A 
ATOM     61  C   UNL A   1      40.785  28.761  30.775  1.00  0.00     0.037 A 
ATOM     62  C   UNL A   1      41.288  32.416  36.145  1.00  0.00     0.049 A 
ATOM     63  C   UNL A   1      41.731  28.749  31.943  1.00  0.00     0.074 A 
ATOM     64  C   UNL A   1      42.183  32.273  37.192  1.00  0.00     0.029 A 
ATOM     65  N   UNL A   1      41.603  31.438  35.214  1.00  0.00    -0.354 N 
ATOM     66  N   UNL A   1      41.739  29.521  33.002  1.00  0.00    -0.248 NA
ATOM     67  C   UNL A   1      42.809  27.750  31.914  1.00  0.00     0.031 C 
ATOM     68  C   UNL A   1      43.058  31.227  36.881  1.00  0.00     0.029 A 
ATOM     69  C   UNL A   1      42.688  30.698  35.657  1.00  0.00     0.049 A 
ATOM     70  H   UNL A   1      41.126  31.291  34.365  1.00  0.00     0.167 HD
ATOM     71  C   UNL A   1      42.823  29.104  33.764  1.00  0.00     0.074 A 
ATOM     72  C   UNL A   1      43.428  27.992  33.061  1.00  0.00     0.031 C 
ATOM     73  C   UNL A   1      43.283  29.603  34.938  1.00  0.00     0.037 A 
BRANCH  60  74
ATOM     74  C   UNL A   1      40.046  34.379  37.108  1.00  0.00     0.058 A 
ATOM     75  C   UNL A   1      40.638  35.649  37.036  1.00  0.00     0.135 A 
ATOM     76  C   UNL A   1      39.195  34.109  38.192  1.00  0.00     0.135 A 
ATOM     77  F   UNL A   1      41.475  35.950  36.031  1.00  0.00    -0.206 F 
ATOM     78  C   UNL A   1      40.386  36.621  37.999  1.00  0.00     0.059 A 
ATOM     79  C   UNL A   1      38.914  35.072  39.157  1.00  0.00     0.059 A 
ATOM     80  F   UNL A   1      38.609  32.907  38.307  1.00  0.00    -0.206 F 
ATOM     81  C   UNL A   1      39.515  36.326  39.051  1.00  0.00     0.060 A 
BRANCH  81  82
ATOM     82  S   UNL A   1      39.157  37.619  40.259  1.00  0.00     0.124 S 
ATOM     83  O   UNL A   1      38.175  38.425  39.541  1.00  0.00    -0.237 OA
ATOM     84  O   UNL A   1      38.642  36.853  41.390  1.00  0.00    -0.237 OA
ATOM     85  O   UNL A   1      40.454  38.254  40.474  1.00  0.00    -0.744 OA
ENDBRANCH  81  82
ENDBRANCH  60  74
BRANCH  61  86
ATOM     86  C   UNL A   1      40.950  27.799  29.656  1.00  0.00     0.058 A 
ATOM     87  C   UNL A   1      40.055  26.735  29.477  1.00  0.00     0.135 A 
ATOM     88  C   UNL A   1      42.008  27.928  28.743  1.00  0.00     0.135 A 
ATOM     89  F   UNL A   1      39.033  26.568  30.330  1.00  0.00    -0.206 F 
ATOM     90  C   UNL A   1      40.211  25.821  28.441  1.00  0.00     0.059 A 
ATOM     91  C   UNL A   1      42.171  27.041  27.684  1.00  0.00     0.059 A 
ATOM     92  F   UNL A   1      42.882  28.939  28.864  1.00  0.00    -0.206 F 
ATOM     93  C   UNL A   1      41.274  25.983  27.550  1.00  0.00     0.060 A 
BRANCH  93  94
ATOM     94  S   UNL A   1      41.449  24.815  26.183  1.00  0.00     0.124 S 
ATOM     95  O   UNL A   1      40.358  23.886  26.452  1.00  0.00    -0.237 OA
ATOM     96  O   UNL A   1      41.283  25.678  25.017  1.00  0.00    -0.237 OA
ATOM     97  O   UNL A   1      42.796  24.283  26.371  1.00  0.00    -0.744 OA
ENDBRANCH  93  94
ENDBRANCH  61  86
BRANCH  73  98
ATOM     98  C   UNL A   1      44.500  28.952  35.528  1.00  0.00     0.058 A 
ATOM     99  C   UNL A   1      44.388  27.859  36.401  1.00  0.00     0.135 A 
ATOM    100  C   UNL A   1      45.788  29.399  35.192  1.00  0.00     0.135 A 
ATOM    101  F   UNL A   1      43.178  27.400  36.757  1.00  0.00    -0.206 F 
ATOM    102  C   UNL A   1      45.514  27.245  36.941  1.00  0.00     0.059 A 
ATOM    103  C   UNL A   1      46.926  28.786  35.702  1.00  0.00     0.059 A 
ATOM    104  F   UNL A   1      45.946  30.435  34.353  1.00  0.00    -0.206 F 
ATOM    105  C   UNL A   1      46.778  27.717  36.587  1.00  0.00     0.060 A 
BRANCH 105 106
ATOM    106  S   UNL A   1      48.231  26.900  37.279  1.00  0.00     0.124 S 
ATOM    107  O   UNL A   1      48.976  26.556  36.073  1.00  0.00    -0.237 OA
ATOM    108  O   UNL A   1      48.816  27.948  38.109  1.00  0.00    -0.237 OA
ATOM    109  O   UNL A   1      47.667  25.770  38.012  1.00  0.00    -0.744 OA
ENDBRANCH 105 106
ENDBRANCH  73  98
ENDBRANCH  47  48
ENDBRANCH  39  42
ENDBRANCH  37  38
ENDBRANCH  36  37
ENDBRANCH  35  36
ENDBRANCH   1  35
TORSDOF 20
ENDMDL
