MODEL 1
REMARK VINA RESULT:     -10.7      0.000      0.000
REMARK SMILES O=C(C[C@H]1CN(S(=O)(=O)N2CCCCC2)CCO1)NCCCCCCNC(=O)c1ccc(-c2c3nc(c(-c4c(F)cc(S(=O)(=O)[O-])cc4F)c4ccc([nH]4)c(-c4c(F)cc(S(=O)(=O)[O-])cc4F)c4nc(c(-c5c(F)cc(S(=O)(=O)[O-])cc5F)c5ccc2[nH]5)C=C4)C=C3)cc1
REMARK SMILES IDX 22 1 21 2 20 3 19 4 1 5 2 6 3 8 4 9 5 10 18 11 6 12 17 13
REMARK SMILES IDX 16 14 7 15 8 16 9 17 10 18 11 19 15 20 12 21 14 22 13 23
REMARK SMILES IDX 23 24 24 25 25 26 26 27 27 28 28 30 29 31 30 32 94 33 31 34
REMARK SMILES IDX 93 35 32 36 33 37 34 38 87 39 35 40 92 41 86 42 88 43 36 44
REMARK SMILES IDX 91 45 85 46 84 47 37 49 71 50 50 51 70 52 51 53 54 54 69 55
REMARK SMILES IDX 89 56 52 57 53 58 68 60 90 61 55 62 38 63 39 64 48 65 40 66
REMARK SMILES IDX 41 67 47 68 49 69 42 70 43 71 44 72 45 73 46 74 72 75 73 76
REMARK SMILES IDX 82 77 74 78 75 79 81 80 83 81 76 82 77 83 78 84 79 85 80 86
REMARK SMILES IDX 56 87 57 88 66 89 58 90 59 91 65 92 67 93 60 94 61 95 62 96
REMARK SMILES IDX 63 97 64 98
REMARK H PARENT 19 7 26 29 88 48 54 59
REMARK Flexibility Score: inf
ROOT
ATOM      1  C   UNL A   1      33.249  28.771  23.330  1.00  0.00     0.002 C 
ENDROOT
BRANCH   1   2
ATOM      2  C   UNL A   1      31.867  28.548  22.703  1.00  0.00     0.021 C 
BRANCH   2   3
ATOM      3  C   UNL A   1      31.454  27.082  22.601  1.00  0.00     0.116 C 
BRANCH   3   4
ATOM      4  N   UNL A   1      31.540  26.397  23.868  1.00  0.00    -0.356 N 
ATOM      5  O   UNL A   1      29.293  26.366  24.280  1.00  0.00    -0.275 OA
ATOM      6  C   UNL A   1      30.434  26.041  24.595  1.00  0.00     0.222 C 
ATOM      7  H   UNL A   1      32.431  26.177  24.226  1.00  0.00     0.163 HD
BRANCH   6   8
ATOM      8  C   UNL A   1      30.734  25.365  25.918  1.00  0.00     0.133 C 
BRANCH   8   9
ATOM      9  C   UNL A   1      30.587  23.839  26.056  1.00  0.00     0.142 C 
ATOM     10  C   UNL A   1      31.244  22.989  24.950  1.00  0.00     0.136 C 
ATOM     11  O   UNL A   1      30.841  23.288  27.357  1.00  0.00    -0.375 OA
ATOM     12  N   UNL A   1      32.689  22.703  25.151  1.00  0.00    -0.184 NA
ATOM     13  C   UNL A   1      32.235  23.017  27.598  1.00  0.00     0.177 C 
ATOM     14  C   UNL A   1      32.850  22.109  26.527  1.00  0.00     0.132 C 
BRANCH  12  15
ATOM     15  S   UNL A   1      33.897  23.823  24.763  1.00  0.00     0.282 S 
ATOM     16  O   UNL A   1      33.780  24.134  23.366  1.00  0.00    -0.195 OA
ATOM     17  O   UNL A   1      33.800  24.876  25.753  1.00  0.00    -0.195 OA
BRANCH  15  18
ATOM     18  N   UNL A   1      35.353  23.018  25.022  1.00  0.00    -0.189 NA
ATOM     19  C   UNL A   1      35.518  21.705  24.374  1.00  0.00     0.103 C 
ATOM     20  C   UNL A   1      36.574  23.794  25.317  1.00  0.00     0.103 C 
ATOM     21  C   UNL A   1      36.607  20.896  25.073  1.00  0.00     0.017 C 
ATOM     22  C   UNL A   1      37.721  22.954  25.865  1.00  0.00     0.017 C 
ATOM     23  C   UNL A   1      37.915  21.669  25.078  1.00  0.00     0.003 C 
ENDBRANCH  15  18
ENDBRANCH  12  15
ENDBRANCH   8   9
ENDBRANCH   6   8
ENDBRANCH   3   4
ENDBRANCH   2   3
ENDBRANCH   1   2
BRANCH   1  24
ATOM     24  C   UNL A   1      33.238  29.236  24.788  1.00  0.00     0.002 C 
BRANCH  24  25
ATOM     25  C   UNL A   1      33.881  28.264  25.779  1.00  0.00     0.021 C 
BRANCH  25  26
ATOM     26  C   UNL A   1      33.482  28.484  27.233  1.00  0.00     0.116 C 
BRANCH  26  27
ATOM     27  N   UNL A   1      33.415  29.896  27.577  1.00  0.00    -0.352 N 
ATOM     28  C   UNL A   1      34.358  30.681  28.196  1.00  0.00     0.251 C 
ATOM     29  H   UNL A   1      32.578  30.353  27.335  1.00  0.00     0.163 HD
ATOM     30  O   UNL A   1      34.065  31.807  28.584  1.00  0.00    -0.269 OA
BRANCH  28  31
ATOM     31  C   UNL A   1      35.718  30.147  28.414  1.00  0.00     0.039 A 
ATOM     32  C   UNL A   1      36.633  30.174  27.360  1.00  0.00     0.014 A 
ATOM     33  C   UNL A   1      36.097  29.648  29.665  1.00  0.00     0.014 A 
ATOM     34  C   UNL A   1      37.949  29.767  27.580  1.00  0.00     0.010 A 
ATOM     35  C   UNL A   1      37.428  29.317  29.902  1.00  0.00     0.010 A 
ATOM     36  C   UNL A   1      38.369  29.379  28.863  1.00  0.00    -0.014 A 
BRANCH  36  37
ATOM     37  C   UNL A   1      39.795  29.072  29.143  1.00  0.00     0.031 A 
ATOM     38  C   UNL A   1      40.707  30.124  29.708  1.00  0.00     0.074 A 
ATOM     39  C   UNL A   1      40.283  27.858  28.820  1.00  0.00     0.049 A 
ATOM     40  N   UNL A   1      41.988  30.054  29.966  1.00  0.00    -0.248 NA
ATOM     41  C   UNL A   1      40.105  31.435  29.999  1.00  0.00     0.031 C 
ATOM     42  C   UNL A   1      39.510  26.774  28.209  1.00  0.00     0.029 A 
ATOM     43  N   UNL A   1      41.546  27.336  28.942  1.00  0.00    -0.354 N 
ATOM     44  C   UNL A   1      42.347  31.308  30.445  1.00  0.00     0.074 A 
ATOM     45  C   UNL A   1      41.162  32.137  30.382  1.00  0.00     0.031 C 
ATOM     46  C   UNL A   1      40.310  25.713  28.024  1.00  0.00     0.029 A 
ATOM     47  C   UNL A   1      41.662  26.053  28.460  1.00  0.00     0.049 A 
ATOM     48  H   UNL A   1      42.299  27.832  29.337  1.00  0.00     0.167 HD
ATOM     49  C   UNL A   1      43.547  31.724  30.919  1.00  0.00     0.037 A 
ATOM     50  C   UNL A   1      42.735  25.246  28.362  1.00  0.00     0.037 A 
ATOM     51  C   UNL A   1      44.723  30.891  30.971  1.00  0.00     0.049 A 
ATOM     52  C   UNL A   1      44.065  25.730  28.869  1.00  0.00     0.074 A 
ATOM     53  C   UNL A   1      45.974  31.198  31.476  1.00  0.00     0.029 A 
ATOM     54  N   UNL A   1      44.798  29.592  30.485  1.00  0.00    -0.354 N 
ATOM     55  N   UNL A   1      44.369  26.892  29.396  1.00  0.00    -0.248 NA
ATOM     56  C   UNL A   1      45.194  24.796  28.776  1.00  0.00     0.031 C 
ATOM     57  C   UNL A   1      46.820  30.108  31.244  1.00  0.00     0.029 A 
ATOM     58  C   UNL A   1      46.083  29.096  30.648  1.00  0.00     0.049 A 
ATOM     59  H   UNL A   1      44.049  29.096  30.082  1.00  0.00     0.167 HD
ATOM     60  C   UNL A   1      45.722  26.826  29.707  1.00  0.00     0.074 A 
ATOM     61  C   UNL A   1      46.171  25.501  29.331  1.00  0.00     0.031 C 
ATOM     62  C   UNL A   1      46.521  27.778  30.255  1.00  0.00     0.037 A 
BRANCH  49  63
ATOM     63  C   UNL A   1      43.643  33.145  31.408  1.00  0.00     0.058 A 
ATOM     64  C   UNL A   1      44.035  34.193  30.557  1.00  0.00     0.135 A 
ATOM     65  C   UNL A   1      43.340  33.468  32.741  1.00  0.00     0.135 A 
ATOM     66  F   UNL A   1      44.346  33.945  29.275  1.00  0.00    -0.206 F 
ATOM     67  C   UNL A   1      44.173  35.498  31.023  1.00  0.00     0.059 A 
ATOM     68  C   UNL A   1      43.439  34.773  33.219  1.00  0.00     0.059 A 
ATOM     69  F   UNL A   1      42.955  32.510  33.598  1.00  0.00    -0.206 F 
ATOM     70  C   UNL A   1      43.879  35.776  32.357  1.00  0.00     0.060 A 
BRANCH  70  71
ATOM     71  S   UNL A   1      44.096  37.467  32.952  1.00  0.00     0.124 S 
ATOM     72  O   UNL A   1      43.036  37.562  33.951  1.00  0.00    -0.237 OA
ATOM     73  O   UNL A   1      45.458  37.441  33.474  1.00  0.00    -0.237 OA
ATOM     74  O   UNL A   1      43.901  38.277  31.753  1.00  0.00    -0.744 OA
ENDBRANCH  70  71
ENDBRANCH  49  63
BRANCH  50  75
ATOM     75  C   UNL A   1      42.579  23.895  27.758  1.00  0.00     0.058 A 
ATOM     76  C   UNL A   1      42.628  23.708  26.370  1.00  0.00     0.135 A 
ATOM     77  C   UNL A   1      42.436  22.755  28.567  1.00  0.00     0.135 A 
ATOM     78  F   UNL A   1      42.754  24.766  25.555  1.00  0.00    -0.206 F 
ATOM     79  C   UNL A   1      42.544  22.440  25.803  1.00  0.00     0.059 A 
ATOM     80  C   UNL A   1      42.377  21.476  28.025  1.00  0.00     0.059 A 
ATOM     81  F   UNL A   1      42.399  22.879  29.903  1.00  0.00    -0.206 F 
ATOM     82  C   UNL A   1      42.431  21.328  26.640  1.00  0.00     0.060 A 
BRANCH  82  83
ATOM     83  S   UNL A   1      42.415  19.683  25.896  1.00  0.00     0.124 S 
ATOM     84  O   UNL A   1      42.802  18.845  27.025  1.00  0.00    -0.237 OA
ATOM     85  O   UNL A   1      41.029  19.561  25.455  1.00  0.00    -0.237 OA
ATOM     86  O   UNL A   1      43.399  19.790  24.823  1.00  0.00    -0.744 OA
ENDBRANCH  82  83
ENDBRANCH  50  75
BRANCH  62  87
ATOM     87  C   UNL A   1      47.965  27.421  30.486  1.00  0.00     0.058 A 
ATOM     88  C   UNL A   1      48.376  26.711  31.625  1.00  0.00     0.135 A 
ATOM     89  C   UNL A   1      48.942  27.746  29.530  1.00  0.00     0.135 A 
ATOM     90  F   UNL A   1      47.485  26.384  32.575  1.00  0.00    -0.206 F 
ATOM     91  C   UNL A   1      49.706  26.353  31.818  1.00  0.00     0.059 A 
ATOM     92  C   UNL A   1      50.273  27.370  29.689  1.00  0.00     0.059 A 
ATOM     93  F   UNL A   1      48.604  28.418  28.418  1.00  0.00    -0.206 F 
ATOM     94  C   UNL A   1      50.646  26.683  30.841  1.00  0.00     0.060 A 
BRANCH  94  95
ATOM     95  S   UNL A   1      52.362  26.176  31.087  1.00  0.00     0.124 S 
ATOM     96  O   UNL A   1      52.834  26.057  29.711  1.00  0.00    -0.237 OA
ATOM     97  O   UNL A   1      52.911  27.292  31.851  1.00  0.00    -0.237 OA
ATOM     98  O   UNL A   1      52.245  24.920  31.821  1.00  0.00    -0.744 OA
ENDBRANCH  94  95
ENDBRANCH  62  87
ENDBRANCH  36  37
ENDBRANCH  28  31
ENDBRANCH  26  27
ENDBRANCH  25  26
ENDBRANCH  24  25
ENDBRANCH   1  24
TORSDOF 19
ENDMDL
MODEL 2
REMARK VINA RESULT:     -10.6      4.714     10.619
REMARK SMILES O=C(C[C@H]1CN(S(=O)(=O)N2CCCCC2)CCO1)NCCCCCCNC(=O)c1ccc(-c2c3nc(c(-c4c(F)cc(S(=O)(=O)[O-])cc4F)c4ccc([nH]4)c(-c4c(F)cc(S(=O)(=O)[O-])cc4F)c4nc(c(-c5c(F)cc(S(=O)(=O)[O-])cc5F)c5ccc2[nH]5)C=C4)C=C3)cc1
REMARK SMILES IDX 22 1 21 2 20 3 19 4 1 5 2 6 3 8 4 9 5 10 18 11 6 12 17 13
REMARK SMILES IDX 16 14 7 15 8 16 9 17 10 18 11 19 15 20 12 21 14 22 13 23
REMARK SMILES IDX 23 24 24 25 25 26 26 27 27 28 28 30 29 31 30 32 94 33 31 34
REMARK SMILES IDX 93 35 32 36 33 37 34 38 87 39 35 40 92 41 86 42 88 43 36 44
REMARK SMILES IDX 91 45 85 46 84 47 37 49 71 50 50 51 70 52 51 53 54 54 69 55
REMARK SMILES IDX 89 56 52 57 53 58 68 60 90 61 55 62 38 63 39 64 48 65 40 66
REMARK SMILES IDX 41 67 47 68 49 69 42 70 43 71 44 72 45 73 46 74 72 75 73 76
REMARK SMILES IDX 82 77 74 78 75 79 81 80 83 81 76 82 77 83 78 84 79 85 80 86
REMARK SMILES IDX 56 87 57 88 66 89 58 90 59 91 65 92 67 93 60 94 61 95 62 96
REMARK SMILES IDX 63 97 64 98
REMARK H PARENT 19 7 26 29 88 48 54 59
REMARK Flexibility Score: inf
ROOT
ATOM      1  C   UNL A   1      35.885  21.830  24.368  1.00  0.00     0.002 C 
ENDROOT
BRANCH   1   2
ATOM      2  C   UNL A   1      35.014  20.893  25.215  1.00  0.00     0.021 C 
BRANCH   2   3
ATOM      3  C   UNL A   1      33.690  20.506  24.562  1.00  0.00     0.116 C 
BRANCH   3   4
ATOM      4  N   UNL A   1      33.031  21.631  23.945  1.00  0.00    -0.356 N 
ATOM      5  O   UNL A   1      31.566  22.021  25.655  1.00  0.00    -0.275 OA
ATOM      6  C   UNL A   1      32.041  22.345  24.569  1.00  0.00     0.222 C 
ATOM      7  H   UNL A   1      33.304  21.898  23.037  1.00  0.00     0.163 HD
BRANCH   6   8
ATOM      8  C   UNL A   1      31.446  23.465  23.741  1.00  0.00     0.133 C 
BRANCH   8   9
ATOM      9  C   UNL A   1      32.346  24.304  22.816  1.00  0.00     0.142 C 
ATOM     10  C   UNL A   1      31.710  25.574  22.216  1.00  0.00     0.136 C 
ATOM     11  O   UNL A   1      33.680  24.559  23.282  1.00  0.00    -0.375 OA
ATOM     12  N   UNL A   1      31.765  26.777  23.087  1.00  0.00    -0.184 NA
ATOM     13  C   UNL A   1      33.771  25.706  24.147  1.00  0.00     0.177 C 
ATOM     14  C   UNL A   1      33.201  26.975  23.503  1.00  0.00     0.132 C 
BRANCH  12  15
ATOM     15  S   UNL A   1      30.666  27.034  24.347  1.00  0.00     0.282 S 
ATOM     16  O   UNL A   1      29.946  25.810  24.563  1.00  0.00    -0.195 OA
ATOM     17  O   UNL A   1      31.424  27.632  25.427  1.00  0.00    -0.195 OA
BRANCH  15  18
ATOM     18  N   UNL A   1      29.595  28.201  23.775  1.00  0.00    -0.189 NA
ATOM     19  C   UNL A   1      30.176  29.463  23.285  1.00  0.00     0.103 C 
ATOM     20  C   UNL A   1      28.292  27.785  23.215  1.00  0.00     0.103 C 
ATOM     21  C   UNL A   1      29.125  30.570  23.283  1.00  0.00     0.017 C 
ATOM     22  C   UNL A   1      27.295  28.926  23.060  1.00  0.00     0.017 C 
ATOM     23  C   UNL A   1      27.930  30.159  22.440  1.00  0.00     0.003 C 
ENDBRANCH  15  18
ENDBRANCH  12  15
ENDBRANCH   8   9
ENDBRANCH   6   8
ENDBRANCH   3   4
ENDBRANCH   2   3
ENDBRANCH   1   2
BRANCH   1  24
ATOM     24  C   UNL A   1      37.229  22.214  24.992  1.00  0.00     0.002 C 
BRANCH  24  25
ATOM     25  C   UNL A   1      37.404  23.707  25.276  1.00  0.00     0.021 C 
BRANCH  25  26
ATOM     26  C   UNL A   1      38.270  24.025  26.488  1.00  0.00     0.116 C 
BRANCH  26  27
ATOM     27  N   UNL A   1      39.686  23.828  26.220  1.00  0.00    -0.352 N 
ATOM     28  C   UNL A   1      40.753  24.612  26.586  1.00  0.00     0.251 C 
ATOM     29  H   UNL A   1      39.911  23.020  25.705  1.00  0.00     0.163 HD
ATOM     30  O   UNL A   1      41.865  24.400  26.113  1.00  0.00    -0.269 OA
BRANCH  28  31
ATOM     31  C   UNL A   1      40.544  25.729  27.530  1.00  0.00     0.039 A 
ATOM     32  C   UNL A   1      39.587  25.593  28.538  1.00  0.00     0.014 A 
ATOM     33  C   UNL A   1      41.311  26.895  27.438  1.00  0.00     0.014 A 
ATOM     34  C   UNL A   1      39.450  26.597  29.497  1.00  0.00     0.010 A 
ATOM     35  C   UNL A   1      41.227  27.858  28.439  1.00  0.00     0.010 A 
ATOM     36  C   UNL A   1      40.299  27.716  29.482  1.00  0.00    -0.014 A 
BRANCH  36  37
ATOM     37  C   UNL A   1      40.256  28.726  30.570  1.00  0.00     0.031 A 
ATOM     38  C   UNL A   1      41.135  28.583  31.781  1.00  0.00     0.074 A 
ATOM     39  C   UNL A   1      39.368  29.737  30.496  1.00  0.00     0.049 A 
ATOM     40  N   UNL A   1      41.194  29.334  32.851  1.00  0.00    -0.248 NA
ATOM     41  C   UNL A   1      42.049  27.431  31.803  1.00  0.00     0.031 C 
ATOM     42  C   UNL A   1      38.419  29.946  29.400  1.00  0.00     0.029 A 
ATOM     43  N   UNL A   1      39.105  30.767  31.363  1.00  0.00    -0.354 N 
ATOM     44  C   UNL A   1      42.147  28.747  33.674  1.00  0.00     0.074 A 
ATOM     45  C   UNL A   1      42.593  27.542  33.007  1.00  0.00     0.031 C 
ATOM     46  C   UNL A   1      37.690  31.043  29.653  1.00  0.00     0.029 A 
ATOM     47  C   UNL A   1      38.085  31.591  30.947  1.00  0.00     0.049 A 
ATOM     48  H   UNL A   1      39.599  30.904  32.203  1.00  0.00     0.167 HD
ATOM     49  C   UNL A   1      42.626  29.185  34.864  1.00  0.00     0.037 A 
ATOM     50  C   UNL A   1      37.518  32.656  31.545  1.00  0.00     0.037 A 
ATOM     51  C   UNL A   1      42.170  30.383  35.523  1.00  0.00     0.049 A 
ATOM     52  C   UNL A   1      38.044  33.115  32.876  1.00  0.00     0.074 A 
ATOM     53  C   UNL A   1      42.622  30.942  36.705  1.00  0.00     0.029 A 
ATOM     54  N   UNL A   1      41.144  31.199  35.064  1.00  0.00    -0.354 N 
ATOM     55  N   UNL A   1      39.004  32.595  33.604  1.00  0.00    -0.248 NA
ATOM     56  C   UNL A   1      37.418  34.305  33.466  1.00  0.00     0.031 C 
ATOM     57  C   UNL A   1      41.833  32.061  36.991  1.00  0.00     0.029 A 
ATOM     58  C   UNL A   1      40.927  32.238  35.957  1.00  0.00     0.049 A 
ATOM     59  H   UNL A   1      40.643  31.061  34.228  1.00  0.00     0.167 HD
ATOM     60  C   UNL A   1      39.105  33.400  34.733  1.00  0.00     0.074 A 
ATOM     61  C   UNL A   1      38.124  34.455  34.579  1.00  0.00     0.031 C 
ATOM     62  C   UNL A   1      39.935  33.276  35.800  1.00  0.00     0.037 A 
BRANCH  49  63
ATOM     63  C   UNL A   1      43.692  28.353  35.528  1.00  0.00     0.058 A 
ATOM     64  C   UNL A   1      43.372  27.350  36.459  1.00  0.00     0.135 A 
ATOM     65  C   UNL A   1      45.050  28.558  35.234  1.00  0.00     0.135 A 
ATOM     66  F   UNL A   1      42.092  27.114  36.788  1.00  0.00    -0.206 F 
ATOM     67  C   UNL A   1      44.360  26.617  37.111  1.00  0.00     0.059 A 
ATOM     68  C   UNL A   1      46.054  27.813  35.849  1.00  0.00     0.059 A 
ATOM     69  F   UNL A   1      45.417  29.498  34.349  1.00  0.00    -0.206 F 
ATOM     70  C   UNL A   1      45.699  26.861  36.803  1.00  0.00     0.060 A 
BRANCH  70  71
ATOM     71  S   UNL A   1      46.968  25.925  37.683  1.00  0.00     0.124 S 
ATOM     72  O   UNL A   1      46.156  25.109  38.581  1.00  0.00    -0.237 OA
ATOM     73  O   UNL A   1      47.631  25.206  36.600  1.00  0.00    -0.237 OA
ATOM     74  O   UNL A   1      47.769  26.960  38.329  1.00  0.00    -0.744 OA
ENDBRANCH  70  71
ENDBRANCH  49  63
BRANCH  50  75
ATOM     75  C   UNL A   1      36.389  33.354  30.874  1.00  0.00     0.058 A 
ATOM     76  C   UNL A   1      35.082  33.270  31.372  1.00  0.00     0.135 A 
ATOM     77  C   UNL A   1      36.610  34.168  29.750  1.00  0.00     0.135 A 
ATOM     78  F   UNL A   1      34.818  32.499  32.437  1.00  0.00    -0.206 F 
ATOM     79  C   UNL A   1      34.033  33.971  30.784  1.00  0.00     0.059 A 
ATOM     80  C   UNL A   1      35.582  34.899  29.162  1.00  0.00     0.059 A 
ATOM     81  F   UNL A   1      37.847  34.294  29.243  1.00  0.00    -0.206 F 
ATOM     82  C   UNL A   1      34.296  34.792  29.686  1.00  0.00     0.060 A 
BRANCH  82  83
ATOM     83  S   UNL A   1      32.943  35.766  28.989  1.00  0.00     0.124 S 
ATOM     84  O   UNL A   1      32.338  34.813  28.067  1.00  0.00    -0.237 OA
ATOM     85  O   UNL A   1      32.160  36.093  30.176  1.00  0.00    -0.237 OA
ATOM     86  O   UNL A   1      33.629  36.897  28.370  1.00  0.00    -0.744 OA
ENDBRANCH  82  83
ENDBRANCH  50  75
BRANCH  62  87
ATOM     87  C   UNL A   1      39.823  34.309  36.888  1.00  0.00     0.058 A 
ATOM     88  C   UNL A   1      40.398  35.584  36.756  1.00  0.00     0.135 A 
ATOM     89  C   UNL A   1      39.087  34.042  38.054  1.00  0.00     0.135 A 
ATOM     90  F   UNL A   1      41.120  35.890  35.665  1.00  0.00    -0.206 F 
ATOM     91  C   UNL A   1      40.264  36.548  37.748  1.00  0.00     0.059 A 
ATOM     92  C   UNL A   1      38.915  35.003  39.046  1.00  0.00     0.059 A 
ATOM     93  F   UNL A   1      38.511  32.843  38.230  1.00  0.00    -0.206 F 
ATOM     94  C   UNL A   1      39.515  36.250  38.888  1.00  0.00     0.060 A 
BRANCH  94  95
ATOM     95  S   UNL A   1      39.316  37.527  40.149  1.00  0.00     0.124 S 
ATOM     96  O   UNL A   1      38.274  38.362  39.561  1.00  0.00    -0.237 OA
ATOM     97  O   UNL A   1      38.918  36.749  41.319  1.00  0.00    -0.237 OA
ATOM     98  O   UNL A   1      40.638  38.137  40.230  1.00  0.00    -0.744 OA
ENDBRANCH  94  95
ENDBRANCH  62  87
ENDBRANCH  36  37
ENDBRANCH  28  31
ENDBRANCH  26  27
ENDBRANCH  25  26
ENDBRANCH  24  25
ENDBRANCH   1  24
TORSDOF 19
ENDMDL
MODEL 3
REMARK VINA RESULT:     -10.5      2.844      3.645
REMARK SMILES O=C(C[C@H]1CN(S(=O)(=O)N2CCCCC2)CCO1)NCCCCCCNC(=O)c1ccc(-c2c3nc(c(-c4c(F)cc(S(=O)(=O)[O-])cc4F)c4ccc([nH]4)c(-c4c(F)cc(S(=O)(=O)[O-])cc4F)c4nc(c(-c5c(F)cc(S(=O)(=O)[O-])cc5F)c5ccc2[nH]5)C=C4)C=C3)cc1
REMARK SMILES IDX 22 1 21 2 20 3 19 4 1 5 2 6 3 8 4 9 5 10 18 11 6 12 17 13
REMARK SMILES IDX 16 14 7 15 8 16 9 17 10 18 11 19 15 20 12 21 14 22 13 23
REMARK SMILES IDX 23 24 24 25 25 26 26 27 27 28 28 30 29 31 30 32 94 33 31 34
REMARK SMILES IDX 93 35 32 36 33 37 34 38 87 39 35 40 92 41 86 42 88 43 36 44
REMARK SMILES IDX 91 45 85 46 84 47 37 49 71 50 50 51 70 52 51 53 54 54 69 55
REMARK SMILES IDX 89 56 52 57 53 58 68 60 90 61 55 62 38 63 39 64 48 65 40 66
REMARK SMILES IDX 41 67 47 68 49 69 42 70 43 71 44 72 45 73 46 74 72 75 73 76
REMARK SMILES IDX 82 77 74 78 75 79 81 80 83 81 76 82 77 83 78 84 79 85 80 86
REMARK SMILES IDX 56 87 57 88 66 89 58 90 59 91 65 92 67 93 60 94 61 95 62 96
REMARK SMILES IDX 63 97 64 98
REMARK H PARENT 19 7 26 29 88 48 54 59
REMARK Flexibility Score: inf
ROOT
ATOM      1  C   UNL A   1      32.741  28.596  24.786  1.00  0.00     0.002 C 
ENDROOT
BRANCH   1   2
ATOM      2  C   UNL A   1      31.212  28.542  24.881  1.00  0.00     0.021 C 
BRANCH   2   3
ATOM      3  C   UNL A   1      30.579  27.358  24.155  1.00  0.00     0.116 C 
BRANCH   3   4
ATOM      4  N   UNL A   1      31.144  26.096  24.565  1.00  0.00    -0.356 N 
ATOM      5  O   UNL A   1      30.057  25.984  26.572  1.00  0.00    -0.275 OA
ATOM      6  C   UNL A   1      30.796  25.472  25.735  1.00  0.00     0.222 C 
ATOM      7  H   UNL A   1      31.809  25.665  23.981  1.00  0.00     0.163 HD
BRANCH   6   8
ATOM      8  C   UNL A   1      31.529  24.175  26.007  1.00  0.00     0.133 C 
BRANCH   8   9
ATOM      9  C   UNL A   1      33.066  24.127  25.937  1.00  0.00     0.142 C 
ATOM     10  C   UNL A   1      33.716  22.747  26.160  1.00  0.00     0.136 C 
ATOM     11  O   UNL A   1      33.677  24.820  24.838  1.00  0.00    -0.375 OA
ATOM     12  N   UNL A   1      33.798  21.888  24.949  1.00  0.00    -0.184 NA
ATOM     13  C   UNL A   1      33.756  24.026  23.639  1.00  0.00     0.177 C 
ATOM     14  C   UNL A   1      34.471  22.689  23.864  1.00  0.00     0.132 C 
BRANCH  12  15
ATOM     15  S   UNL A   1      32.482  20.983  24.389  1.00  0.00     0.282 S 
ATOM     16  O   UNL A   1      31.505  20.927  25.440  1.00  0.00    -0.195 OA
ATOM     17  O   UNL A   1      32.132  21.540  23.098  1.00  0.00    -0.195 OA
BRANCH  15  18
ATOM     18  N   UNL A   1      33.085  19.434  24.123  1.00  0.00    -0.189 NA
ATOM     19  C   UNL A   1      32.471  18.650  23.037  1.00  0.00     0.103 C 
ATOM     20  C   UNL A   1      34.484  19.123  24.484  1.00  0.00     0.103 C 
ATOM     21  C   UNL A   1      32.739  17.161  23.234  1.00  0.00     0.017 C 
ATOM     22  C   UNL A   1      34.794  17.631  24.520  1.00  0.00     0.017 C 
ATOM     23  C   UNL A   1      34.233  16.901  23.312  1.00  0.00     0.003 C 
ENDBRANCH  15  18
ENDBRANCH  12  15
ENDBRANCH   8   9
ENDBRANCH   6   8
ENDBRANCH   3   4
ENDBRANCH   2   3
ENDBRANCH   1   2
BRANCH   1  24
ATOM     24  C   UNL A   1      33.488  28.271  26.083  1.00  0.00     0.002 C 
BRANCH  24  25
ATOM     25  C   UNL A   1      33.825  29.483  26.953  1.00  0.00     0.021 C 
BRANCH  25  26
ATOM     26  C   UNL A   1      35.146  29.377  27.704  1.00  0.00     0.116 C 
BRANCH  26  27
ATOM     27  N   UNL A   1      35.252  30.359  28.772  1.00  0.00    -0.352 N 
ATOM     28  C   UNL A   1      36.318  30.629  29.596  1.00  0.00     0.251 C 
ATOM     29  H   UNL A   1      34.448  30.905  28.927  1.00  0.00     0.163 HD
ATOM     30  O   UNL A   1      36.174  31.359  30.571  1.00  0.00    -0.269 OA
BRANCH  28  31
ATOM     31  C   UNL A   1      37.630  30.012  29.312  1.00  0.00     0.039 A 
ATOM     32  C   UNL A   1      38.030  29.852  27.984  1.00  0.00     0.014 A 
ATOM     33  C   UNL A   1      38.474  29.619  30.355  1.00  0.00     0.014 A 
ATOM     34  C   UNL A   1      39.307  29.365  27.704  1.00  0.00     0.010 A 
ATOM     35  C   UNL A   1      39.774  29.207  30.075  1.00  0.00     0.010 A 
ATOM     36  C   UNL A   1      40.205  29.081  28.746  1.00  0.00    -0.014 A 
BRANCH  36  37
ATOM     37  C   UNL A   1      41.609  28.690  28.462  1.00  0.00     0.031 A 
ATOM     38  C   UNL A   1      42.700  29.723  28.435  1.00  0.00     0.074 A 
ATOM     39  C   UNL A   1      41.887  27.406  28.159  1.00  0.00     0.049 A 
ATOM     40  N   UNL A   1      43.970  29.576  28.153  1.00  0.00    -0.248 NA
ATOM     41  C   UNL A   1      42.309  31.108  28.739  1.00  0.00     0.031 C 
ATOM     42  C   UNL A   1      40.903  26.324  28.093  1.00  0.00     0.029 A 
ATOM     43  N   UNL A   1      43.072  26.796  27.833  1.00  0.00    -0.354 N 
ATOM     44  C   UNL A   1      44.528  30.845  28.244  1.00  0.00     0.074 A 
ATOM     45  C   UNL A   1      43.446  31.759  28.543  1.00  0.00     0.031 C 
ATOM     46  C   UNL A   1      41.526  25.182  27.763  1.00  0.00     0.029 A 
ATOM     47  C   UNL A   1      42.944  25.457  27.551  1.00  0.00     0.049 A 
ATOM     48  H   UNL A   1      43.934  27.272  27.804  1.00  0.00     0.167 HD
ATOM     49  C   UNL A   1      45.826  31.212  28.115  1.00  0.00     0.037 A 
ATOM     50  C   UNL A   1      43.857  24.553  27.148  1.00  0.00     0.037 A 
ATOM     51  C   UNL A   1      46.895  30.294  27.809  1.00  0.00     0.049 A 
ATOM     52  C   UNL A   1      45.289  24.980  26.986  1.00  0.00     0.074 A 
ATOM     53  C   UNL A   1      48.250  30.554  27.705  1.00  0.00     0.029 A 
ATOM     54  N   UNL A   1      46.727  28.941  27.542  1.00  0.00    -0.354 N 
ATOM     55  N   UNL A   1      45.815  26.170  27.155  1.00  0.00    -0.248 NA
ATOM     56  C   UNL A   1      46.252  23.947  26.585  1.00  0.00     0.031 C 
ATOM     57  C   UNL A   1      48.894  29.373  27.318  1.00  0.00     0.029 A 
ATOM     58  C   UNL A   1      47.950  28.361  27.241  1.00  0.00     0.049 A 
ATOM     59  H   UNL A   1      45.866  28.464  27.564  1.00  0.00     0.167 HD
ATOM     60  C   UNL A   1      47.172  26.028  26.893  1.00  0.00     0.074 A 
ATOM     61  C   UNL A   1      47.389  24.630  26.575  1.00  0.00     0.031 C 
ATOM     62  C   UNL A   1      48.150  26.969  26.911  1.00  0.00     0.037 A 
BRANCH  49  63
ATOM     63  C   UNL A   1      46.154  32.671  28.296  1.00  0.00     0.058 A 
ATOM     64  C   UNL A   1      46.549  33.190  29.541  1.00  0.00     0.135 A 
ATOM     65  C   UNL A   1      46.074  33.565  27.215  1.00  0.00     0.135 A 
ATOM     66  F   UNL A   1      46.635  32.386  30.613  1.00  0.00    -0.206 F 
ATOM     67  C   UNL A   1      46.801  34.547  29.719  1.00  0.00     0.059 A 
ATOM     68  C   UNL A   1      46.355  34.921  27.363  1.00  0.00     0.059 A 
ATOM     69  F   UNL A   1      45.707  33.127  26.001  1.00  0.00    -0.206 F 
ATOM     70  C   UNL A   1      46.695  35.405  28.625  1.00  0.00     0.060 A 
BRANCH  70  71
ATOM     71  S   UNL A   1      46.994  37.168  28.882  1.00  0.00     0.124 S 
ATOM     72  O   UNL A   1      46.754  37.297  30.316  1.00  0.00    -0.237 OA
ATOM     73  O   UNL A   1      48.382  37.314  28.456  1.00  0.00    -0.237 OA
ATOM     74  O   UNL A   1      46.005  37.810  28.021  1.00  0.00    -0.744 OA
ENDBRANCH  70  71
ENDBRANCH  49  63
BRANCH  50  75
ATOM     75  C   UNL A   1      43.429  23.154  26.878  1.00  0.00     0.058 A 
ATOM     76  C   UNL A   1      43.376  22.649  25.572  1.00  0.00     0.135 A 
ATOM     77  C   UNL A   1      43.120  22.277  27.931  1.00  0.00     0.135 A 
ATOM     78  F   UNL A   1      43.654  23.448  24.531  1.00  0.00    -0.206 F 
ATOM     79  C   UNL A   1      43.036  21.323  25.318  1.00  0.00     0.059 A 
ATOM     80  C   UNL A   1      42.804  20.942  27.704  1.00  0.00     0.059 A 
ATOM     81  F   UNL A   1      43.171  22.708  29.202  1.00  0.00    -0.206 F 
ATOM     82  C   UNL A   1      42.763  20.474  26.392  1.00  0.00     0.060 A 
BRANCH  82  83
ATOM     83  S   UNL A   1      42.412  18.735  26.054  1.00  0.00     0.124 S 
ATOM     84  O   UNL A   1      41.003  18.785  25.683  1.00  0.00    -0.237 OA
ATOM     85  O   UNL A   1      43.348  18.440  24.974  1.00  0.00    -0.237 OA
ATOM     86  O   UNL A   1      42.708  18.080  27.325  1.00  0.00    -0.744 OA
ENDBRANCH  82  83
ENDBRANCH  50  75
BRANCH  62  87
ATOM     87  C   UNL A   1      49.549  26.521  26.584  1.00  0.00     0.058 A 
ATOM     88  C   UNL A   1      50.404  25.995  27.565  1.00  0.00     0.135 A 
ATOM     89  C   UNL A   1      50.022  26.567  25.262  1.00  0.00     0.135 A 
ATOM     90  F   UNL A   1      50.006  25.936  28.847  1.00  0.00    -0.206 F 
ATOM     91  C   UNL A   1      51.684  25.550  27.253  1.00  0.00     0.059 A 
ATOM     92  C   UNL A   1      51.288  26.098  24.922  1.00  0.00     0.059 A 
ATOM     93  F   UNL A   1      49.245  27.054  24.282  1.00  0.00    -0.206 F 
ATOM     94  C   UNL A   1      52.115  25.601  25.926  1.00  0.00     0.060 A 
BRANCH  94  95
ATOM     95  S   UNL A   1      53.764  24.981  25.529  1.00  0.00     0.124 S 
ATOM     96  O   UNL A   1      54.115  25.799  24.373  1.00  0.00    -0.237 OA
ATOM     97  O   UNL A   1      54.507  25.264  26.754  1.00  0.00    -0.237 OA
ATOM     98  O   UNL A   1      53.540  23.566  25.253  1.00  0.00    -0.744 OA
ENDBRANCH  94  95
ENDBRANCH  62  87
ENDBRANCH  36  37
ENDBRANCH  28  31
ENDBRANCH  26  27
ENDBRANCH  25  26
ENDBRANCH  24  25
ENDBRANCH   1  24
TORSDOF 19
ENDMDL
