MODEL 1
REMARK VINA RESULT:     -11.2      0.000      0.000
REMARK SMILES C[C@H]1C[C@H](C)CN(S(=O)(=O)N[C@@H](CCC(N)=O)C(=O)NCCCCCCNC(=O)c2ccc(-c3c4nc(c(-c5c(F)cc(S(=O)(=O)[O-])cc5F)c5ccc([nH]5)c(-c5c(F)cc(S(=O)(=O)[O-])cc5F)c5nc(c(-c6c(F)cc(S(=O)(=O)[O-])cc6F)c6ccc3[nH]6)C=C5)C=C4)cc2)C1
REMARK SMILES IDX 23 1 22 2 21 3 20 4 18 5 19 6 12 8 11 9 8 11 9 12 10 13 7 14
REMARK SMILES IDX 1 15 2 16 3 17 96 18 4 19 5 20 6 21 13 22 14 23 15 24 16 25
REMARK SMILES IDX 17 26 24 29 25 30 26 31 27 32 28 33 29 35 30 36 31 37 95 38
REMARK SMILES IDX 32 39 94 40 33 41 34 42 35 43 88 44 36 45 93 46 87 47 89 48
REMARK SMILES IDX 37 49 92 50 86 51 85 52 38 54 72 55 51 56 71 57 52 58 55 59
REMARK SMILES IDX 70 60 90 61 53 62 54 63 69 65 91 66 56 67 39 68 40 69 49 70
REMARK SMILES IDX 41 71 42 72 48 73 50 74 43 75 44 76 45 77 46 78 47 79 73 80
REMARK SMILES IDX 74 81 83 82 75 83 76 84 82 85 84 86 77 87 78 88 79 89 80 90
REMARK SMILES IDX 81 91 57 92 58 93 67 94 59 95 60 96 66 97 68 98 61 99 62 100
REMARK SMILES IDX 63 101 64 102 65 103
REMARK H PARENT 20 7 11 10 16 27 16 28 27 34 89 53 55 64
REMARK Flexibility Score: inf
ROOT
ATOM      1  C   UNL A   1      33.649  27.350  26.229  1.00  0.00     0.002 C 
ENDROOT
BRANCH   1   2
ATOM      2  C   UNL A   1      33.989  26.384  25.087  1.00  0.00     0.021 C 
BRANCH   2   3
ATOM      3  C   UNL A   1      34.405  24.991  25.545  1.00  0.00     0.116 C 
BRANCH   3   4
ATOM      4  N   UNL A   1      35.201  24.307  24.546  1.00  0.00    -0.355 N 
ATOM      5  C   UNL A   1      34.837  23.643  23.417  1.00  0.00     0.238 C 
ATOM      6  O   UNL A   1      35.743  23.177  22.716  1.00  0.00    -0.273 OA
ATOM      7  H   UNL A   1      36.171  24.328  24.711  1.00  0.00     0.163 HD
BRANCH   5   8
ATOM      8  C   UNL A   1      33.370  23.399  23.045  1.00  0.00     0.160 C 
BRANCH   8   9
ATOM      9  N   UNL A   1      33.077  24.020  21.742  1.00  0.00    -0.190 NA
ATOM     10  H   UNL A   1      33.915  23.851  21.185  1.00  0.00     0.143 HD
BRANCH   9  11
ATOM     11  S   UNL A   1      32.676  25.580  21.415  1.00  0.00     0.280 S 
ATOM     12  O   UNL A   1      31.963  25.651  20.161  1.00  0.00    -0.195 OA
ATOM     13  O   UNL A   1      33.893  26.324  21.617  1.00  0.00    -0.195 OA
BRANCH  11  14
ATOM     14  N   UNL A   1      31.611  26.032  22.677  1.00  0.00    -0.188 NA
ATOM     15  C   UNL A   1      29.368  29.173  23.026  1.00  0.00     0.009 C 
ATOM     16  C   UNL A   1      30.066  27.881  23.459  1.00  0.00     0.001 C 
ATOM     17  C   UNL A   1      29.028  26.825  23.847  1.00  0.00     0.009 C 
ATOM     18  C   UNL A   1      30.986  27.366  22.343  1.00  0.00     0.106 C 
ATOM     19  C   UNL A   1      29.694  25.498  24.197  1.00  0.00     0.001 C 
ATOM     20  C   UNL A   1      30.482  25.563  25.511  1.00  0.00     0.009 C 
ATOM     21  C   UNL A   1      30.562  25.036  23.024  1.00  0.00     0.106 C 
ENDBRANCH  11  14
ENDBRANCH   9  11
ENDBRANCH   8   9
BRANCH   8  22
ATOM     22  C   UNL A   1      32.844  21.978  23.297  1.00  0.00     0.040 C 
BRANCH  22  23
ATOM     23  C   UNL A   1      32.541  21.537  24.729  1.00  0.00     0.102 C 
BRANCH  23  24
ATOM     24  C   UNL A   1      33.584  20.586  25.283  1.00  0.00     0.217 C 
ATOM     25  N   UNL A   1      33.209  19.906  26.402  1.00  0.00    -0.370 N 
ATOM     26  O   UNL A   1      34.695  20.416  24.797  1.00  0.00    -0.275 OA
ATOM     27  H   UNL A   1      32.315  20.047  26.789  1.00  0.00     0.159 HD
ATOM     28  H   UNL A   1      33.833  19.273  26.825  1.00  0.00     0.159 HD
ENDBRANCH  23  24
ENDBRANCH  22  23
ENDBRANCH   8  22
ENDBRANCH   5   8
ENDBRANCH   3   4
ENDBRANCH   2   3
ENDBRANCH   1   2
BRANCH   1  29
ATOM     29  C   UNL A   1      34.307  28.732  26.142  1.00  0.00     0.002 C 
BRANCH  29  30
ATOM     30  C   UNL A   1      34.353  29.517  27.453  1.00  0.00     0.021 C 
BRANCH  30  31
ATOM     31  C   UNL A   1      35.710  29.523  28.145  1.00  0.00     0.116 C 
BRANCH  31  32
ATOM     32  N   UNL A   1      35.614  29.829  29.563  1.00  0.00    -0.352 N 
ATOM     33  C   UNL A   1      36.625  29.924  30.486  1.00  0.00     0.251 C 
ATOM     34  H   UNL A   1      34.705  29.989  29.905  1.00  0.00     0.163 HD
ATOM     35  O   UNL A   1      36.370  30.054  31.679  1.00  0.00    -0.269 OA
BRANCH  33  36
ATOM     36  C   UNL A   1      38.025  29.831  30.024  1.00  0.00     0.039 A 
ATOM     37  C   UNL A   1      39.028  29.555  30.954  1.00  0.00     0.014 A 
ATOM     38  C   UNL A   1      38.330  29.961  28.665  1.00  0.00     0.014 A 
ATOM     39  C   UNL A   1      40.335  29.343  30.512  1.00  0.00     0.010 A 
ATOM     40  C   UNL A   1      39.615  29.674  28.221  1.00  0.00     0.010 A 
ATOM     41  C   UNL A   1      40.631  29.362  29.139  1.00  0.00    -0.014 A 
BRANCH  41  42
ATOM     42  C   UNL A   1      41.994  29.058  28.636  1.00  0.00     0.031 A 
ATOM     43  C   UNL A   1      42.332  27.662  28.189  1.00  0.00     0.074 A 
ATOM     44  C   UNL A   1      42.943  30.016  28.657  1.00  0.00     0.049 A 
ATOM     45  N   UNL A   1      43.485  27.174  27.814  1.00  0.00    -0.248 NA
ATOM     46  C   UNL A   1      41.235  26.682  28.190  1.00  0.00     0.031 C 
ATOM     47  C   UNL A   1      42.745  31.396  29.108  1.00  0.00     0.029 A 
ATOM     48  N   UNL A   1      44.268  29.972  28.303  1.00  0.00    -0.354 N 
ATOM     49  C   UNL A   1      43.257  25.827  27.550  1.00  0.00     0.074 A 
ATOM     50  C   UNL A   1      41.869  25.566  27.861  1.00  0.00     0.031 C 
ATOM     51  C   UNL A   1      43.900  32.069  28.987  1.00  0.00     0.029 A 
ATOM     52  C   UNL A   1      44.932  31.161  28.495  1.00  0.00     0.049 A 
ATOM     53  H   UNL A   1      44.703  29.165  27.945  1.00  0.00     0.167 HD
ATOM     54  C   UNL A   1      44.121  24.902  27.071  1.00  0.00     0.037 A 
ATOM     55  C   UNL A   1      46.228  31.481  28.310  1.00  0.00     0.037 A 
ATOM     56  C   UNL A   1      45.495  25.178  26.746  1.00  0.00     0.049 A 
ATOM     57  C   UNL A   1      47.173  30.429  27.794  1.00  0.00     0.074 A 
ATOM     58  C   UNL A   1      46.438  24.324  26.202  1.00  0.00     0.029 A 
ATOM     59  N   UNL A   1      46.125  26.400  26.937  1.00  0.00    -0.354 N 
ATOM     60  N   UNL A   1      46.926  29.177  27.490  1.00  0.00    -0.248 NA
ATOM     61  C   UNL A   1      48.572  30.832  27.592  1.00  0.00     0.031 C 
ATOM     62  C   UNL A   1      47.652  25.013  26.115  1.00  0.00     0.029 A 
ATOM     63  C   UNL A   1      47.451  26.315  26.546  1.00  0.00     0.049 A 
ATOM     64  H   UNL A   1      45.694  27.207  27.298  1.00  0.00     0.167 HD
ATOM     65  C   UNL A   1      48.130  28.651  27.031  1.00  0.00     0.074 A 
ATOM     66  C   UNL A   1      49.102  29.724  27.090  1.00  0.00     0.031 C 
ATOM     67  C   UNL A   1      48.404  27.396  26.598  1.00  0.00     0.037 A 
BRANCH  54  68
ATOM     68  C   UNL A   1      43.604  23.502  26.870  1.00  0.00     0.058 A 
ATOM     69  C   UNL A   1      43.338  22.650  27.954  1.00  0.00     0.135 A 
ATOM     70  C   UNL A   1      43.336  23.020  25.579  1.00  0.00     0.135 A 
ATOM     71  F   UNL A   1      43.591  23.053  29.210  1.00  0.00    -0.206 F 
ATOM     72  C   UNL A   1      42.854  21.360  27.764  1.00  0.00     0.059 A 
ATOM     73  C   UNL A   1      42.821  21.744  25.366  1.00  0.00     0.059 A 
ATOM     74  F   UNL A   1      43.572  23.790  24.506  1.00  0.00    -0.206 F 
ATOM     75  C   UNL A   1      42.597  20.916  26.466  1.00  0.00     0.060 A 
BRANCH  75  76
ATOM     76  S   UNL A   1      41.961  19.242  26.239  1.00  0.00     0.124 S 
ATOM     77  O   UNL A   1      42.560  18.875  24.960  1.00  0.00    -0.237 OA
ATOM     78  O   UNL A   1      42.488  18.548  27.408  1.00  0.00    -0.237 OA
ATOM     79  O   UNL A   1      40.513  19.427  26.222  1.00  0.00    -0.744 OA
ENDBRANCH  75  76
ENDBRANCH  54  68
BRANCH  55  80
ATOM     80  C   UNL A   1      46.704  32.859  28.604  1.00  0.00     0.058 A 
ATOM     81  C   UNL A   1      47.182  33.204  29.877  1.00  0.00     0.135 A 
ATOM     82  C   UNL A   1      46.702  33.858  27.617  1.00  0.00     0.135 A 
ATOM     83  F   UNL A   1      47.199  32.287  30.857  1.00  0.00    -0.206 F 
ATOM     84  C   UNL A   1      47.625  34.490  30.168  1.00  0.00     0.059 A 
ATOM     85  C   UNL A   1      47.165  35.144  27.875  1.00  0.00     0.059 A 
ATOM     86  F   UNL A   1      46.272  33.578  26.376  1.00  0.00    -0.206 F 
ATOM     87  C   UNL A   1      47.614  35.454  29.158  1.00  0.00     0.060 A 
BRANCH  87  88
ATOM     88  S   UNL A   1      48.236  37.107  29.533  1.00  0.00     0.124 S 
ATOM     89  O   UNL A   1      49.052  37.389  28.358  1.00  0.00    -0.237 OA
ATOM     90  O   UNL A   1      47.002  37.877  29.655  1.00  0.00    -0.237 OA
ATOM     91  O   UNL A   1      48.971  36.914  30.781  1.00  0.00    -0.744 OA
ENDBRANCH  87  88
ENDBRANCH  55  80
BRANCH  67  92
ATOM     92  C   UNL A   1      49.798  27.115  26.109  1.00  0.00     0.058 A 
ATOM     93  C   UNL A   1      50.813  26.679  26.975  1.00  0.00     0.135 A 
ATOM     94  C   UNL A   1      50.101  27.215  24.741  1.00  0.00     0.135 A 
ATOM     95  F   UNL A   1      50.579  26.573  28.293  1.00  0.00    -0.206 F 
ATOM     96  C   UNL A   1      52.083  26.364  26.503  1.00  0.00     0.059 A 
ATOM     97  C   UNL A   1      51.355  26.876  24.244  1.00  0.00     0.059 A 
ATOM     98  F   UNL A   1      49.164  27.618  23.868  1.00  0.00    -0.206 F 
ATOM     99  C   UNL A   1      52.343  26.460  25.134  1.00  0.00     0.060 A 
BRANCH  99 100
ATOM    100  S   UNL A   1      53.981  25.997  24.531  1.00  0.00     0.124 S 
ATOM    101  O   UNL A   1      53.996  24.563  24.792  1.00  0.00    -0.237 OA
ATOM    102  O   UNL A   1      53.916  26.385  23.125  1.00  0.00    -0.237 OA
ATOM    103  O   UNL A   1      54.884  26.796  25.354  1.00  0.00    -0.744 OA
ENDBRANCH  99 100
ENDBRANCH  67  92
ENDBRANCH  41  42
ENDBRANCH  33  36
ENDBRANCH  31  32
ENDBRANCH  30  31
ENDBRANCH  29  30
ENDBRANCH   1  29
TORSDOF 22
ENDMDL
MODEL 2
REMARK VINA RESULT:     -10.7      5.047      9.555
REMARK SMILES C[C@H]1C[C@H](C)CN(S(=O)(=O)N[C@@H](CCC(N)=O)C(=O)NCCCCCCNC(=O)c2ccc(-c3c4nc(c(-c5c(F)cc(S(=O)(=O)[O-])cc5F)c5ccc([nH]5)c(-c5c(F)cc(S(=O)(=O)[O-])cc5F)c5nc(c(-c6c(F)cc(S(=O)(=O)[O-])cc6F)c6ccc3[nH]6)C=C5)C=C4)cc2)C1
REMARK SMILES IDX 23 1 22 2 21 3 20 4 18 5 19 6 12 8 11 9 8 11 9 12 10 13 7 14
REMARK SMILES IDX 1 15 2 16 3 17 96 18 4 19 5 20 6 21 13 22 14 23 15 24 16 25
REMARK SMILES IDX 17 26 24 29 25 30 26 31 27 32 28 33 29 35 30 36 31 37 95 38
REMARK SMILES IDX 32 39 94 40 33 41 34 42 35 43 88 44 36 45 93 46 87 47 89 48
REMARK SMILES IDX 37 49 92 50 86 51 85 52 38 54 72 55 51 56 71 57 52 58 55 59
REMARK SMILES IDX 70 60 90 61 53 62 54 63 69 65 91 66 56 67 39 68 40 69 49 70
REMARK SMILES IDX 41 71 42 72 48 73 50 74 43 75 44 76 45 77 46 78 47 79 73 80
REMARK SMILES IDX 74 81 83 82 75 83 76 84 82 85 84 86 77 87 78 88 79 89 80 90
REMARK SMILES IDX 81 91 57 92 58 93 67 94 59 95 60 96 66 97 68 98 61 99 62 100
REMARK SMILES IDX 63 101 64 102 65 103
REMARK H PARENT 20 7 11 10 16 27 16 28 27 34 89 53 55 64
REMARK Flexibility Score: inf
ROOT
ATOM      1  C   UNL A   1      32.369  26.231  24.290  1.00  0.00     0.002 C 
ENDROOT
BRANCH   1   2
ATOM      2  C   UNL A   1      32.508  25.432  22.988  1.00  0.00     0.021 C 
BRANCH   2   3
ATOM      3  C   UNL A   1      33.083  24.032  23.169  1.00  0.00     0.116 C 
BRANCH   3   4
ATOM      4  N   UNL A   1      32.404  23.056  22.341  1.00  0.00    -0.355 N 
ATOM      5  C   UNL A   1      32.155  21.734  22.541  1.00  0.00     0.238 C 
ATOM      6  O   UNL A   1      31.512  21.139  21.669  1.00  0.00    -0.273 OA
ATOM      7  H   UNL A   1      32.063  23.409  21.488  1.00  0.00     0.163 HD
BRANCH   5   8
ATOM      8  C   UNL A   1      32.705  20.969  23.751  1.00  0.00     0.160 C 
BRANCH   8   9
ATOM      9  N   UNL A   1      32.409  21.714  24.987  1.00  0.00    -0.190 NA
ATOM     10  H   UNL A   1      32.042  22.609  24.663  1.00  0.00     0.143 HD
BRANCH   9  11
ATOM     11  S   UNL A   1      33.424  22.109  26.217  1.00  0.00     0.280 S 
ATOM     12  O   UNL A   1      33.644  20.958  27.061  1.00  0.00    -0.195 OA
ATOM     13  O   UNL A   1      32.890  23.332  26.758  1.00  0.00    -0.195 OA
BRANCH  11  14
ATOM     14  N   UNL A   1      34.900  22.517  25.452  1.00  0.00    -0.188 NA
ATOM     15  C   UNL A   1      37.992  24.383  26.859  1.00  0.00     0.009 C 
ATOM     16  C   UNL A   1      37.095  23.733  25.802  1.00  0.00     0.001 C 
ATOM     17  C   UNL A   1      37.828  22.568  25.132  1.00  0.00     0.009 C 
ATOM     18  C   UNL A   1      35.774  23.267  26.430  1.00  0.00     0.106 C 
ATOM     19  C   UNL A   1      36.924  21.845  24.138  1.00  0.00     0.001 C 
ATOM     20  C   UNL A   1      36.621  22.692  22.895  1.00  0.00     0.009 C 
ATOM     21  C   UNL A   1      35.649  21.382  24.847  1.00  0.00     0.106 C 
ENDBRANCH  11  14
ENDBRANCH   9  11
ENDBRANCH   8   9
BRANCH   8  22
ATOM     22  C   UNL A   1      32.459  19.453  23.751  1.00  0.00     0.040 C 
BRANCH  22  23
ATOM     23  C   UNL A   1      33.525  18.524  24.333  1.00  0.00     0.102 C 
BRANCH  23  24
ATOM     24  C   UNL A   1      32.969  17.576  25.378  1.00  0.00     0.217 C 
ATOM     25  N   UNL A   1      32.715  18.138  26.592  1.00  0.00    -0.370 N 
ATOM     26  O   UNL A   1      32.756  16.385  25.189  1.00  0.00    -0.275 OA
ATOM     27  H   UNL A   1      32.890  19.095  26.738  1.00  0.00     0.159 HD
ATOM     28  H   UNL A   1      32.358  17.586  27.325  1.00  0.00     0.159 HD
ENDBRANCH  23  24
ENDBRANCH  22  23
ENDBRANCH   8  22
ENDBRANCH   5   8
ENDBRANCH   3   4
ENDBRANCH   2   3
ENDBRANCH   1   2
BRANCH   1  29
ATOM     29  C   UNL A   1      33.655  26.383  25.111  1.00  0.00     0.002 C 
BRANCH  29  30
ATOM     30  C   UNL A   1      34.042  27.820  25.459  1.00  0.00     0.021 C 
BRANCH  30  31
ATOM     31  C   UNL A   1      33.506  28.320  26.794  1.00  0.00     0.116 C 
BRANCH  31  32
ATOM     32  N   UNL A   1      33.434  29.770  26.861  1.00  0.00    -0.352 N 
ATOM     33  C   UNL A   1      34.293  30.640  27.486  1.00  0.00     0.251 C 
ATOM     34  H   UNL A   1      32.669  30.182  26.398  1.00  0.00     0.163 HD
ATOM     35  O   UNL A   1      34.019  31.832  27.571  1.00  0.00    -0.269 OA
BRANCH  33  36
ATOM     36  C   UNL A   1      35.534  30.109  28.086  1.00  0.00     0.039 A 
ATOM     37  C   UNL A   1      36.715  30.149  27.344  1.00  0.00     0.014 A 
ATOM     38  C   UNL A   1      35.534  29.626  29.398  1.00  0.00     0.014 A 
ATOM     39  C   UNL A   1      37.916  29.765  27.942  1.00  0.00     0.010 A 
ATOM     40  C   UNL A   1      36.741  29.319  30.015  1.00  0.00     0.010 A 
ATOM     41  C   UNL A   1      37.943  29.384  29.294  1.00  0.00    -0.014 A 
BRANCH  41  42
ATOM     42  C   UNL A   1      39.218  29.051  29.978  1.00  0.00     0.031 A 
ATOM     43  C   UNL A   1      39.649  29.842  31.184  1.00  0.00     0.074 A 
ATOM     44  C   UNL A   1      40.020  28.094  29.470  1.00  0.00     0.049 A 
ATOM     45  N   UNL A   1      40.766  29.773  31.859  1.00  0.00    -0.248 NA
ATOM     46  C   UNL A   1      38.709  30.861  31.678  1.00  0.00     0.031 C 
ATOM     47  C   UNL A   1      39.729  27.289  28.280  1.00  0.00     0.029 A 
ATOM     48  N   UNL A   1      41.251  27.645  29.878  1.00  0.00    -0.354 N 
ATOM     49  C   UNL A   1      40.672  30.749  32.845  1.00  0.00     0.074 A 
ATOM     50  C   UNL A   1      39.412  31.431  32.646  1.00  0.00     0.031 C 
ATOM     51  C   UNL A   1      40.743  26.435  28.068  1.00  0.00     0.029 A 
ATOM     52  C   UNL A   1      41.775  26.661  29.074  1.00  0.00     0.049 A 
ATOM     53  H   UNL A   1      41.714  27.995  30.674  1.00  0.00     0.167 HD
ATOM     54  C   UNL A   1      41.547  31.033  33.839  1.00  0.00     0.037 A 
ATOM     55  C   UNL A   1      42.962  26.024  29.131  1.00  0.00     0.037 A 
ATOM     56  C   UNL A   1      42.787  30.333  34.040  1.00  0.00     0.049 A 
ATOM     57  C   UNL A   1      43.925  26.370  30.234  1.00  0.00     0.074 A 
ATOM     58  C   UNL A   1      43.718  30.507  35.050  1.00  0.00     0.029 A 
ATOM     59  N   UNL A   1      43.276  29.330  33.215  1.00  0.00    -0.354 N 
ATOM     60  N   UNL A   1      43.793  27.251  31.197  1.00  0.00    -0.248 NA
ATOM     61  C   UNL A   1      45.197  25.634  30.264  1.00  0.00     0.031 C 
ATOM     62  C   UNL A   1      44.793  29.647  34.805  1.00  0.00     0.029 A 
ATOM     63  C   UNL A   1      44.506  28.893  33.678  1.00  0.00     0.049 A 
ATOM     64  H   UNL A   1      42.816  28.981  32.418  1.00  0.00     0.167 HD
ATOM     65  C   UNL A   1      44.949  27.154  31.965  1.00  0.00     0.074 A 
ATOM     66  C   UNL A   1      45.765  26.122  31.359  1.00  0.00     0.031 C 
ATOM     67  C   UNL A   1      45.301  27.854  33.071  1.00  0.00     0.037 A 
BRANCH  54  68
ATOM     68  C   UNL A   1      41.191  32.148  34.785  1.00  0.00     0.058 A 
ATOM     69  C   UNL A   1      40.402  31.926  35.926  1.00  0.00     0.135 A 
ATOM     70  C   UNL A   1      41.675  33.448  34.569  1.00  0.00     0.135 A 
ATOM     71  F   UNL A   1      39.899  30.706  36.174  1.00  0.00    -0.206 F 
ATOM     72  C   UNL A   1      40.082  32.958  36.801  1.00  0.00     0.059 A 
ATOM     73  C   UNL A   1      41.394  34.490  35.448  1.00  0.00     0.059 A 
ATOM     74  F   UNL A   1      42.432  33.718  33.494  1.00  0.00    -0.206 F 
ATOM     75  C   UNL A   1      40.584  34.237  36.554  1.00  0.00     0.060 A 
BRANCH  75  76
ATOM     76  S   UNL A   1      40.164  35.563  37.706  1.00  0.00     0.124 S 
ATOM     77  O   UNL A   1      38.991  35.006  38.373  1.00  0.00    -0.237 OA
ATOM     78  O   UNL A   1      41.370  35.660  38.521  1.00  0.00    -0.237 OA
ATOM     79  O   UNL A   1      39.906  36.704  36.833  1.00  0.00    -0.744 OA
ENDBRANCH  75  76
ENDBRANCH  54  68
BRANCH  55  80
ATOM     80  C   UNL A   1      43.298  24.985  28.120  1.00  0.00     0.058 A 
ATOM     81  C   UNL A   1      43.023  23.630  28.356  1.00  0.00     0.135 A 
ATOM     82  C   UNL A   1      43.890  25.325  26.894  1.00  0.00     0.135 A 
ATOM     83  F   UNL A   1      42.462  23.252  29.515  1.00  0.00    -0.206 F 
ATOM     84  C   UNL A   1      43.336  22.647  27.422  1.00  0.00     0.059 A 
ATOM     85  C   UNL A   1      44.189  24.365  25.932  1.00  0.00     0.059 A 
ATOM     86  F   UNL A   1      44.160  26.610  26.609  1.00  0.00    -0.206 F 
ATOM     87  C   UNL A   1      43.918  23.026  26.211  1.00  0.00     0.060 A 
BRANCH  87  88
ATOM     88  S   UNL A   1      44.277  21.748  24.987  1.00  0.00     0.124 S 
ATOM     89  O   UNL A   1      45.629  21.352  25.362  1.00  0.00    -0.237 OA
ATOM     90  O   UNL A   1      43.227  20.768  25.250  1.00  0.00    -0.237 OA
ATOM     91  O   UNL A   1      44.156  22.457  23.716  1.00  0.00    -0.744 OA
ENDBRANCH  87  88
ENDBRANCH  55  80
BRANCH  67  92
ATOM     92  C   UNL A   1      46.606  27.504  33.733  1.00  0.00     0.058 A 
ATOM     93  C   UNL A   1      47.800  28.168  33.416  1.00  0.00     0.135 A 
ATOM     94  C   UNL A   1      46.643  26.537  34.753  1.00  0.00     0.135 A 
ATOM     95  F   UNL A   1      47.820  29.095  32.444  1.00  0.00    -0.206 F 
ATOM     96  C   UNL A   1      48.989  27.879  34.076  1.00  0.00     0.059 A 
ATOM     97  C   UNL A   1      47.815  26.253  35.446  1.00  0.00     0.059 A 
ATOM     98  F   UNL A   1      45.527  25.879  35.102  1.00  0.00    -0.206 F 
ATOM     99  C   UNL A   1      48.985  26.923  35.095  1.00  0.00     0.060 A 
BRANCH  99 100
ATOM    100  S   UNL A   1      50.526  26.596  35.979  1.00  0.00     0.124 S 
ATOM    101  O   UNL A   1      51.239  27.856  35.803  1.00  0.00    -0.237 OA
ATOM    102  O   UNL A   1      50.055  26.317  37.332  1.00  0.00    -0.237 OA
ATOM    103  O   UNL A   1      51.089  25.452  35.268  1.00  0.00    -0.744 OA
ENDBRANCH  99 100
ENDBRANCH  67  92
ENDBRANCH  41  42
ENDBRANCH  33  36
ENDBRANCH  31  32
ENDBRANCH  30  31
ENDBRANCH  29  30
ENDBRANCH   1  29
TORSDOF 22
ENDMDL
MODEL 3
REMARK VINA RESULT:     -10.7      6.283     11.076
REMARK SMILES C[C@H]1C[C@H](C)CN(S(=O)(=O)N[C@@H](CCC(N)=O)C(=O)NCCCCCCNC(=O)c2ccc(-c3c4nc(c(-c5c(F)cc(S(=O)(=O)[O-])cc5F)c5ccc([nH]5)c(-c5c(F)cc(S(=O)(=O)[O-])cc5F)c5nc(c(-c6c(F)cc(S(=O)(=O)[O-])cc6F)c6ccc3[nH]6)C=C5)C=C4)cc2)C1
REMARK SMILES IDX 23 1 22 2 21 3 20 4 18 5 19 6 12 8 11 9 8 11 9 12 10 13 7 14
REMARK SMILES IDX 1 15 2 16 3 17 96 18 4 19 5 20 6 21 13 22 14 23 15 24 16 25
REMARK SMILES IDX 17 26 24 29 25 30 26 31 27 32 28 33 29 35 30 36 31 37 95 38
REMARK SMILES IDX 32 39 94 40 33 41 34 42 35 43 88 44 36 45 93 46 87 47 89 48
REMARK SMILES IDX 37 49 92 50 86 51 85 52 38 54 72 55 51 56 71 57 52 58 55 59
REMARK SMILES IDX 70 60 90 61 53 62 54 63 69 65 91 66 56 67 39 68 40 69 49 70
REMARK SMILES IDX 41 71 42 72 48 73 50 74 43 75 44 76 45 77 46 78 47 79 73 80
REMARK SMILES IDX 74 81 83 82 75 83 76 84 82 85 84 86 77 87 78 88 79 89 80 90
REMARK SMILES IDX 81 91 57 92 58 93 67 94 59 95 60 96 66 97 68 98 61 99 62 100
REMARK SMILES IDX 63 101 64 102 65 103
REMARK H PARENT 20 7 11 10 16 27 16 28 27 34 89 53 55 64
REMARK Flexibility Score: inf
ROOT
ATOM      1  C   UNL A   1      37.955  21.758  25.209  1.00  0.00     0.002 C 
ENDROOT
BRANCH   1   2
ATOM      2  C   UNL A   1      36.863  22.463  24.393  1.00  0.00     0.021 C 
BRANCH   2   3
ATOM      3  C   UNL A   1      35.486  21.819  24.500  1.00  0.00     0.116 C 
BRANCH   3   4
ATOM      4  N   UNL A   1      35.083  21.626  25.878  1.00  0.00    -0.355 N 
ATOM      5  C   UNL A   1      33.871  21.336  26.422  1.00  0.00     0.238 C 
ATOM      6  O   UNL A   1      33.820  21.189  27.648  1.00  0.00    -0.273 OA
ATOM      7  H   UNL A   1      35.811  21.720  26.534  1.00  0.00     0.163 HD
BRANCH   5   8
ATOM      8  C   UNL A   1      32.590  21.265  25.581  1.00  0.00     0.160 C 
BRANCH   8   9
ATOM      9  N   UNL A   1      32.106  22.626  25.297  1.00  0.00    -0.190 NA
ATOM     10  H   UNL A   1      32.546  22.874  24.411  1.00  0.00     0.143 HD
BRANCH   9  11
ATOM     11  S   UNL A   1      32.248  23.981  26.217  1.00  0.00     0.280 S 
ATOM     12  O   UNL A   1      33.643  24.312  26.392  1.00  0.00    -0.195 OA
ATOM     13  O   UNL A   1      31.396  23.744  27.355  1.00  0.00    -0.195 OA
BRANCH  11  14
ATOM     14  N   UNL A   1      31.502  25.216  25.296  1.00  0.00    -0.188 NA
ATOM     15  C   UNL A   1      33.044  28.386  23.685  1.00  0.00     0.009 C 
ATOM     16  C   UNL A   1      31.940  27.430  24.146  1.00  0.00     0.001 C 
ATOM     17  C   UNL A   1      31.126  26.947  22.944  1.00  0.00     0.009 C 
ATOM     18  C   UNL A   1      32.540  26.246  24.918  1.00  0.00     0.106 C 
ATOM     19  C   UNL A   1      30.075  25.923  23.363  1.00  0.00     0.001 C 
ATOM     20  C   UNL A   1      28.945  26.546  24.192  1.00  0.00     0.009 C 
ATOM     21  C   UNL A   1      30.755  24.762  24.093  1.00  0.00     0.106 C 
ENDBRANCH  11  14
ENDBRANCH   9  11
ENDBRANCH   8   9
BRANCH   8  22
ATOM     22  C   UNL A   1      32.605  20.253  24.427  1.00  0.00     0.040 C 
BRANCH  22  23
ATOM     23  C   UNL A   1      32.575  18.758  24.745  1.00  0.00     0.102 C 
BRANCH  23  24
ATOM     24  C   UNL A   1      33.716  17.997  24.097  1.00  0.00     0.217 C 
ATOM     25  N   UNL A   1      34.946  18.234  24.632  1.00  0.00    -0.370 N 
ATOM     26  O   UNL A   1      33.588  17.224  23.156  1.00  0.00    -0.275 OA
ATOM     27  H   UNL A   1      35.043  18.857  25.388  1.00  0.00     0.159 HD
ATOM     28  H   UNL A   1      35.738  17.781  24.263  1.00  0.00     0.159 HD
ENDBRANCH  23  24
ENDBRANCH  22  23
ENDBRANCH   8  22
ENDBRANCH   5   8
ENDBRANCH   3   4
ENDBRANCH   2   3
ENDBRANCH   1   2
BRANCH   1  29
ATOM     29  C   UNL A   1      38.705  22.643  26.211  1.00  0.00     0.002 C 
BRANCH  29  30
ATOM     30  C   UNL A   1      39.993  22.044  26.775  1.00  0.00     0.021 C 
BRANCH  30  31
ATOM     31  C   UNL A   1      41.035  23.067  27.208  1.00  0.00     0.116 C 
BRANCH  31  32
ATOM     32  N   UNL A   1      41.737  23.661  26.082  1.00  0.00    -0.352 N 
ATOM     33  C   UNL A   1      42.011  24.986  25.850  1.00  0.00     0.251 C 
ATOM     34  H   UNL A   1      42.057  23.032  25.397  1.00  0.00     0.163 HD
ATOM     35  O   UNL A   1      42.493  25.346  24.781  1.00  0.00    -0.269 OA
BRANCH  33  36
ATOM     36  C   UNL A   1      41.682  25.976  26.896  1.00  0.00     0.039 A 
ATOM     37  C   UNL A   1      40.761  25.633  27.887  1.00  0.00     0.014 A 
ATOM     38  C   UNL A   1      42.326  27.217  26.923  1.00  0.00     0.014 A 
ATOM     39  C   UNL A   1      40.533  26.511  28.947  1.00  0.00     0.010 A 
ATOM     40  C   UNL A   1      42.156  28.054  28.019  1.00  0.00     0.010 A 
ATOM     41  C   UNL A   1      41.258  27.711  29.042  1.00  0.00    -0.014 A 
BRANCH  41  42
ATOM     42  C   UNL A   1      41.097  28.623  30.202  1.00  0.00     0.031 A 
ATOM     43  C   UNL A   1      41.967  28.450  31.417  1.00  0.00     0.074 A 
ATOM     44  C   UNL A   1      40.120  29.553  30.191  1.00  0.00     0.049 A 
ATOM     45  N   UNL A   1      41.916  29.075  32.564  1.00  0.00    -0.248 NA
ATOM     46  C   UNL A   1      43.014  27.418  31.340  1.00  0.00     0.031 C 
ATOM     47  C   UNL A   1      39.187  29.788  29.086  1.00  0.00     0.029 A 
ATOM     48  N   UNL A   1      39.739  30.464  31.143  1.00  0.00    -0.354 N 
ATOM     49  C   UNL A   1      42.910  28.503  33.350  1.00  0.00     0.074 A 
ATOM     50  C   UNL A   1      43.511  27.445  32.569  1.00  0.00     0.031 C 
ATOM     51  C   UNL A   1      38.355  30.788  29.417  1.00  0.00     0.029 A 
ATOM     52  C   UNL A   1      38.662  31.234  30.772  1.00  0.00     0.049 A 
ATOM     53  H   UNL A   1      40.194  30.557  32.012  1.00  0.00     0.167 HD
ATOM     54  C   UNL A   1      43.300  28.846  34.601  1.00  0.00     0.037 A 
ATOM     55  C   UNL A   1      37.988  32.184  31.453  1.00  0.00     0.037 A 
ATOM     56  C   UNL A   1      42.709  29.915  35.361  1.00  0.00     0.049 A 
ATOM     57  C   UNL A   1      38.430  32.534  32.848  1.00  0.00     0.074 A 
ATOM     58  C   UNL A   1      43.068  30.378  36.614  1.00  0.00     0.029 A 
ATOM     59  N   UNL A   1      41.632  30.685  34.944  1.00  0.00    -0.354 N 
ATOM     60  N   UNL A   1      39.413  32.027  33.553  1.00  0.00    -0.248 NA
ATOM     61  C   UNL A   1      37.675  33.588  33.540  1.00  0.00     0.031 C 
ATOM     62  C   UNL A   1      42.175  31.392  36.977  1.00  0.00     0.029 A 
ATOM     63  C   UNL A   1      41.298  31.603  35.925  1.00  0.00     0.049 A 
ATOM     64  H   UNL A   1      41.174  30.592  34.078  1.00  0.00     0.167 HD
ATOM     65  C   UNL A   1      39.415  32.721  34.759  1.00  0.00     0.074 A 
ATOM     66  C   UNL A   1      38.340  33.689  34.684  1.00  0.00     0.031 C 
ATOM     67  C   UNL A   1      40.233  32.571  35.830  1.00  0.00     0.037 A 
BRANCH  54  68
ATOM     68  C   UNL A   1      44.419  28.057  35.224  1.00  0.00     0.058 A 
ATOM     69  C   UNL A   1      45.763  28.441  35.083  1.00  0.00     0.135 A 
ATOM     70  C   UNL A   1      44.144  26.922  36.005  1.00  0.00     0.135 A 
ATOM     71  F   UNL A   1      46.087  29.508  34.334  1.00  0.00    -0.206 F 
ATOM     72  C   UNL A   1      46.794  27.712  35.666  1.00  0.00     0.059 A 
ATOM     73  C   UNL A   1      45.156  26.196  36.625  1.00  0.00     0.059 A 
ATOM     74  F   UNL A   1      42.878  26.509  36.173  1.00  0.00    -0.206 F 
ATOM     75  C   UNL A   1      46.480  26.592  36.437  1.00  0.00     0.060 A 
BRANCH  75  76
ATOM     76  S   UNL A   1      47.831  25.663  37.194  1.00  0.00     0.124 S 
ATOM     77  O   UNL A   1      47.354  24.290  37.052  1.00  0.00    -0.237 OA
ATOM     78  O   UNL A   1      48.967  26.029  36.357  1.00  0.00    -0.237 OA
ATOM     79  O   UNL A   1      47.871  26.174  38.561  1.00  0.00    -0.744 OA
ENDBRANCH  75  76
ENDBRANCH  54  68
BRANCH  55  80
ATOM     80  C   UNL A   1      36.835  32.877  30.818  1.00  0.00     0.058 A 
ATOM     81  C   UNL A   1      35.516  32.572  31.187  1.00  0.00     0.135 A 
ATOM     82  C   UNL A   1      37.025  33.864  29.839  1.00  0.00     0.135 A 
ATOM     83  F   UNL A   1      35.280  31.631  32.114  1.00  0.00    -0.206 F 
ATOM     84  C   UNL A   1      34.427  33.207  30.598  1.00  0.00     0.059 A 
ATOM     85  C   UNL A   1      35.954  34.533  29.255  1.00  0.00     0.059 A 
ATOM     86  F   UNL A   1      38.267  34.207  29.460  1.00  0.00    -0.206 F 
ATOM     87  C   UNL A   1      34.657  34.189  29.634  1.00  0.00     0.060 A 
BRANCH  87  88
ATOM     88  S   UNL A   1      33.239  35.041  28.911  1.00  0.00     0.124 S 
ATOM     89  O   UNL A   1      32.761  34.055  27.949  1.00  0.00    -0.237 OA
ATOM     90  O   UNL A   1      32.388  35.262  30.076  1.00  0.00    -0.237 OA
ATOM     91  O   UNL A   1      33.829  36.248  28.338  1.00  0.00    -0.744 OA
ENDBRANCH  87  88
ENDBRANCH  55  80
BRANCH  67  92
ATOM     92  C   UNL A   1      40.035  33.500  36.996  1.00  0.00     0.058 A 
ATOM     93  C   UNL A   1      40.829  34.643  37.176  1.00  0.00     0.135 A 
ATOM     94  C   UNL A   1      38.986  33.280  37.905  1.00  0.00     0.135 A 
ATOM     95  F   UNL A   1      41.849  34.897  36.340  1.00  0.00    -0.206 F 
ATOM     96  C   UNL A   1      40.599  35.529  38.224  1.00  0.00     0.059 A 
ATOM     97  C   UNL A   1      38.721  34.168  38.942  1.00  0.00     0.059 A 
ATOM     98  F   UNL A   1      38.191  32.207  37.773  1.00  0.00    -0.206 F 
ATOM     99  C   UNL A   1      39.538  35.285  39.098  1.00  0.00     0.060 A 
BRANCH  99 100
ATOM    100  S   UNL A   1      39.220  36.471  40.422  1.00  0.00     0.124 S 
ATOM    101  O   UNL A   1      38.534  37.538  39.703  1.00  0.00    -0.237 OA
ATOM    102  O   UNL A   1      38.397  35.696  41.344  1.00  0.00    -0.237 OA
ATOM    103  O   UNL A   1      40.556  36.802  40.911  1.00  0.00    -0.744 OA
ENDBRANCH  99 100
ENDBRANCH  67  92
ENDBRANCH  41  42
ENDBRANCH  33  36
ENDBRANCH  31  32
ENDBRANCH  30  31
ENDBRANCH  29  30
ENDBRANCH   1  29
TORSDOF 22
ENDMDL
