MODEL 1
REMARK VINA RESULT:     -10.6      0.000      0.000
REMARK SMILES C[C@H]([C@@H](C)C(=O)NCCCCCCNC(=O)c1ccc(-c2c3nc(c(-c4c(F)cc(S(=O)(=O)[O-])cc4F)c4ccc([nH]4)c(-c4c(F)cc(S(=O)(=O)[O-])cc4F)c4nc(c(-c5c(F)cc(S(=O)(=O)[O-])cc5F)c5ccc2[nH]5)C=C4)C=C3)cc1)[NH+]1CCN(c2nccs2)CC1
REMARK SMILES IDX 10 1 9 2 8 3 7 4 5 5 6 6 3 8 4 9 2 10 1 11 83 12 84 13 93 14
REMARK SMILES IDX 85 16 92 17 86 18 87 19 88 20 91 21 89 22 90 23 11 24 12 25
REMARK SMILES IDX 13 26 14 27 15 28 16 30 17 31 18 32 82 33 19 34 81 35 20 36
REMARK SMILES IDX 21 37 22 38 75 39 23 40 80 41 74 42 76 43 24 44 79 45 73 46
REMARK SMILES IDX 72 47 25 49 59 50 38 51 58 52 39 53 42 54 57 55 77 56 40 57
REMARK SMILES IDX 41 58 56 60 78 61 43 62 26 63 27 64 36 65 28 66 29 67 35 68
REMARK SMILES IDX 37 69 30 70 31 71 32 72 33 73 34 74 60 75 61 76 70 77 62 78
REMARK SMILES IDX 63 79 69 80 71 81 64 82 65 83 66 84 67 85 68 86 44 87 45 88
REMARK SMILES IDX 54 89 46 90 47 91 53 92 55 93 48 94 49 95 50 96 51 97 52 98
REMARK H PARENT 7 7 83 15 14 29 76 48 42 59
REMARK Flexibility Score: inf
ROOT
ATOM      1  C   UNL A   1      34.744  21.591  24.583  1.00  0.00     0.002 C 
ENDROOT
BRANCH   1   2
ATOM      2  C   UNL A   1      33.325  21.381  25.101  1.00  0.00     0.021 C 
BRANCH   2   3
ATOM      3  C   UNL A   1      32.221  22.040  24.263  1.00  0.00     0.116 C 
BRANCH   3   4
ATOM      4  N   UNL A   1      31.271  22.740  25.116  1.00  0.00    -0.356 N 
ATOM      5  C   UNL A   1      31.271  23.965  25.708  1.00  0.00     0.228 C 
ATOM      6  O   UNL A   1      30.338  24.188  26.490  1.00  0.00    -0.275 OA
ATOM      7  H   UNL A   1      30.458  22.216  25.303  1.00  0.00     0.163 HD
BRANCH   5   8
ATOM      8  C   UNL A   1      32.334  25.052  25.464  1.00  0.00     0.133 C 
ATOM      9  C   UNL A   1      33.568  24.840  26.338  1.00  0.00     0.024 C 
BRANCH   8  10
ATOM     10  C   UNL A   1      31.724  26.494  25.347  1.00  0.00     0.193 C 
ATOM     11  C   UNL A   1      31.584  27.176  26.699  1.00  0.00     0.076 C 
BRANCH  10  12
ATOM     12  N   UNL A   1      32.271  27.351  24.266  1.00  0.00    -0.329 N 
ATOM     13  C   UNL A   1      31.667  27.096  22.931  1.00  0.00     0.284 C 
ATOM     14  C   UNL A   1      32.313  28.809  24.458  1.00  0.00     0.284 C 
ATOM     15  H   UNL A   1      33.241  27.037  24.315  1.00  0.00     0.348 HD
ATOM     16  C   UNL A   1      30.360  27.847  22.547  1.00  0.00     0.180 C 
ATOM     17  C   UNL A   1      30.981  29.557  24.305  1.00  0.00     0.180 C 
ATOM     18  N   UNL A   1      30.308  29.216  23.052  1.00  0.00    -0.337 N 
BRANCH  18  19
ATOM     19  C   UNL A   1      29.429  30.123  22.552  1.00  0.00     0.185 A 
ATOM     20  N   UNL A   1      28.996  30.082  21.311  1.00  0.00    -0.229 NA
ATOM     21  S   UNL A   1      28.811  31.458  23.470  1.00  0.00    -0.106 S 
ATOM     22  C   UNL A   1      28.096  31.099  21.073  1.00  0.00     0.125 A 
ATOM     23  C   UNL A   1      27.902  31.973  22.116  1.00  0.00     0.088 A 
ENDBRANCH  18  19
ENDBRANCH  10  12
ENDBRANCH   8  10
ENDBRANCH   5   8
ENDBRANCH   3   4
ENDBRANCH   2   3
ENDBRANCH   1   2
BRANCH   1  24
ATOM     24  C   UNL A   1      34.940  22.851  23.742  1.00  0.00     0.002 C 
BRANCH  24  25
ATOM     25  C   UNL A   1      36.380  23.370  23.665  1.00  0.00     0.021 C 
BRANCH  25  26
ATOM     26  C   UNL A   1      37.031  23.671  25.013  1.00  0.00     0.116 C 
BRANCH  26  27
ATOM     27  N   UNL A   1      37.998  22.648  25.385  1.00  0.00    -0.352 N 
ATOM     28  C   UNL A   1      39.202  22.785  26.025  1.00  0.00     0.251 C 
ATOM     29  H   UNL A   1      37.752  21.727  25.142  1.00  0.00     0.163 HD
ATOM     30  O   UNL A   1      40.014  21.856  26.014  1.00  0.00    -0.269 OA
BRANCH  28  31
ATOM     31  C   UNL A   1      39.527  24.044  26.722  1.00  0.00     0.039 A 
ATOM     32  C   UNL A   1      38.944  24.314  27.963  1.00  0.00     0.014 A 
ATOM     33  C   UNL A   1      40.404  24.966  26.140  1.00  0.00     0.014 A 
ATOM     34  C   UNL A   1      39.291  25.478  28.650  1.00  0.00     0.010 A 
ATOM     35  C   UNL A   1      40.801  26.089  26.857  1.00  0.00     0.010 A 
ATOM     36  C   UNL A   1      40.250  26.357  28.119  1.00  0.00    -0.014 A 
BRANCH  36  37
ATOM     37  C   UNL A   1      40.705  27.555  28.873  1.00  0.00     0.031 A 
ATOM     38  C   UNL A   1      42.027  27.537  29.592  1.00  0.00     0.074 A 
ATOM     39  C   UNL A   1      39.888  28.621  28.978  1.00  0.00     0.049 A 
ATOM     40  N   UNL A   1      42.550  28.440  30.379  1.00  0.00    -0.248 NA
ATOM     41  C   UNL A   1      42.859  26.334  29.425  1.00  0.00     0.031 C 
ATOM     42  C   UNL A   1      38.561  28.733  28.368  1.00  0.00     0.029 A 
ATOM     43  N   UNL A   1      40.040  29.806  29.654  1.00  0.00    -0.354 N 
ATOM     44  C   UNL A   1      43.758  27.910  30.816  1.00  0.00     0.074 A 
ATOM     45  C   UNL A   1      43.871  26.588  30.242  1.00  0.00     0.031 C 
ATOM     46  C   UNL A   1      38.027  29.923  28.687  1.00  0.00     0.029 A 
ATOM     47  C   UNL A   1      38.950  30.640  29.560  1.00  0.00     0.049 A 
ATOM     48  H   UNL A   1      40.853  30.038  30.159  1.00  0.00     0.167 HD
ATOM     49  C   UNL A   1      44.692  28.484  31.611  1.00  0.00     0.037 A 
ATOM     50  C   UNL A   1      38.712  31.838  30.130  1.00  0.00     0.037 A 
ATOM     51  C   UNL A   1      44.581  29.813  32.154  1.00  0.00     0.049 A 
ATOM     52  C   UNL A   1      39.765  32.450  31.013  1.00  0.00     0.074 A 
ATOM     53  C   UNL A   1      45.511  30.515  32.901  1.00  0.00     0.029 A 
ATOM     54  N   UNL A   1      43.474  30.636  32.016  1.00  0.00    -0.354 N 
ATOM     55  N   UNL A   1      40.939  31.970  31.347  1.00  0.00    -0.248 NA
ATOM     56  C   UNL A   1      39.465  33.765  31.597  1.00  0.00     0.031 C 
ATOM     57  C   UNL A   1      44.943  31.740  33.263  1.00  0.00     0.029 A 
ATOM     58  C   UNL A   1      43.682  31.826  32.694  1.00  0.00     0.049 A 
ATOM     59  H   UNL A   1      42.660  30.409  31.509  1.00  0.00     0.167 HD
ATOM     60  C   UNL A   1      41.527  32.934  32.159  1.00  0.00     0.074 A 
ATOM     61  C   UNL A   1      40.586  34.030  32.255  1.00  0.00     0.031 C 
ATOM     62  C   UNL A   1      42.736  32.911  32.772  1.00  0.00     0.037 A 
BRANCH  49  63
ATOM     63  C   UNL A   1      45.919  27.681  31.949  1.00  0.00     0.058 A 
ATOM     64  C   UNL A   1      45.956  26.810  33.050  1.00  0.00     0.135 A 
ATOM     65  C   UNL A   1      47.056  27.740  31.124  1.00  0.00     0.135 A 
ATOM     66  F   UNL A   1      44.904  26.724  33.879  1.00  0.00    -0.206 F 
ATOM     67  C   UNL A   1      47.082  26.045  33.334  1.00  0.00     0.059 A 
ATOM     68  C   UNL A   1      48.182  26.961  31.374  1.00  0.00     0.059 A 
ATOM     69  F   UNL A   1      47.077  28.555  30.058  1.00  0.00    -0.206 F 
ATOM     70  C   UNL A   1      48.190  26.125  32.489  1.00  0.00     0.060 A 
BRANCH  70  71
ATOM     71  S   UNL A   1      49.635  25.110  32.863  1.00  0.00     0.124 S 
ATOM     72  O   UNL A   1      50.468  26.054  33.603  1.00  0.00    -0.237 OA
ATOM     73  O   UNL A   1      49.058  24.024  33.650  1.00  0.00    -0.237 OA
ATOM     74  O   UNL A   1      50.136  24.730  31.547  1.00  0.00    -0.744 OA
ENDBRANCH  70  71
ENDBRANCH  49  63
BRANCH  50  75
ATOM     75  C   UNL A   1      37.420  32.536  29.884  1.00  0.00     0.058 A 
ATOM     76  C   UNL A   1      36.260  32.183  30.589  1.00  0.00     0.135 A 
ATOM     77  C   UNL A   1      37.320  33.572  28.942  1.00  0.00     0.135 A 
ATOM     78  F   UNL A   1      36.302  31.195  31.496  1.00  0.00    -0.206 F 
ATOM     79  C   UNL A   1      35.043  32.814  30.354  1.00  0.00     0.059 A 
ATOM     80  C   UNL A   1      36.122  34.238  28.710  1.00  0.00     0.059 A 
ATOM     81  F   UNL A   1      38.405  33.962  28.252  1.00  0.00    -0.206 F 
ATOM     82  C   UNL A   1      34.984  33.843  29.413  1.00  0.00     0.060 A 
BRANCH  82  83
ATOM     83  S   UNL A   1      33.408  34.681  29.142  1.00  0.00     0.124 S 
ATOM     84  O   UNL A   1      32.735  33.755  28.239  1.00  0.00    -0.237 OA
ATOM     85  O   UNL A   1      32.868  34.762  30.495  1.00  0.00    -0.237 OA
ATOM     86  O   UNL A   1      33.805  35.959  28.557  1.00  0.00    -0.744 OA
ENDBRANCH  82  83
ENDBRANCH  50  75
BRANCH  62  87
ATOM     87  C   UNL A   1      43.130  34.118  33.581  1.00  0.00     0.058 A 
ATOM     88  C   UNL A   1      42.809  34.227  34.943  1.00  0.00     0.135 A 
ATOM     89  C   UNL A   1      43.899  35.140  33.004  1.00  0.00     0.135 A 
ATOM     90  F   UNL A   1      42.068  33.282  35.541  1.00  0.00    -0.206 F 
ATOM     91  C   UNL A   1      43.229  35.315  35.701  1.00  0.00     0.059 A 
ATOM     92  C   UNL A   1      44.354  36.222  33.750  1.00  0.00     0.059 A 
ATOM     93  F   UNL A   1      44.241  35.079  31.705  1.00  0.00    -0.206 F 
ATOM     94  C   UNL A   1      44.008  36.304  35.098  1.00  0.00     0.060 A 
BRANCH  94  95
ATOM     95  S   UNL A   1      44.593  37.680  36.109  1.00  0.00     0.124 S 
ATOM     96  O   UNL A   1      43.876  38.805  35.518  1.00  0.00    -0.237 OA
ATOM     97  O   UNL A   1      44.163  37.286  37.448  1.00  0.00    -0.237 OA
ATOM     98  O   UNL A   1      46.036  37.672  35.892  1.00  0.00    -0.744 OA
ENDBRANCH  94  95
ENDBRANCH  62  87
ENDBRANCH  36  37
ENDBRANCH  28  31
ENDBRANCH  26  27
ENDBRANCH  25  26
ENDBRANCH  24  25
ENDBRANCH   1  24
TORSDOF 19
ENDMDL
MODEL 2
REMARK VINA RESULT:     -10.6      4.901      9.809
REMARK SMILES C[C@H]([C@@H](C)C(=O)NCCCCCCNC(=O)c1ccc(-c2c3nc(c(-c4c(F)cc(S(=O)(=O)[O-])cc4F)c4ccc([nH]4)c(-c4c(F)cc(S(=O)(=O)[O-])cc4F)c4nc(c(-c5c(F)cc(S(=O)(=O)[O-])cc5F)c5ccc2[nH]5)C=C4)C=C3)cc1)[NH+]1CCN(c2nccs2)CC1
REMARK SMILES IDX 10 1 9 2 8 3 7 4 5 5 6 6 3 8 4 9 2 10 1 11 83 12 84 13 93 14
REMARK SMILES IDX 85 16 92 17 86 18 87 19 88 20 91 21 89 22 90 23 11 24 12 25
REMARK SMILES IDX 13 26 14 27 15 28 16 30 17 31 18 32 82 33 19 34 81 35 20 36
REMARK SMILES IDX 21 37 22 38 75 39 23 40 80 41 74 42 76 43 24 44 79 45 73 46
REMARK SMILES IDX 72 47 25 49 59 50 38 51 58 52 39 53 42 54 57 55 77 56 40 57
REMARK SMILES IDX 41 58 56 60 78 61 43 62 26 63 27 64 36 65 28 66 29 67 35 68
REMARK SMILES IDX 37 69 30 70 31 71 32 72 33 73 34 74 60 75 61 76 70 77 62 78
REMARK SMILES IDX 63 79 69 80 71 81 64 82 65 83 66 84 67 85 68 86 44 87 45 88
REMARK SMILES IDX 54 89 46 90 47 91 53 92 55 93 48 94 49 95 50 96 51 97 52 98
REMARK H PARENT 7 7 83 15 14 29 76 48 42 59
REMARK Flexibility Score: inf
ROOT
ATOM      1  C   UNL A   1      33.534  28.705  24.742  1.00  0.00     0.002 C 
ENDROOT
BRANCH   1   2
ATOM      2  C   UNL A   1      33.845  27.793  23.561  1.00  0.00     0.021 C 
BRANCH   2   3
ATOM      3  C   UNL A   1      32.687  27.587  22.574  1.00  0.00     0.116 C 
BRANCH   3   4
ATOM      4  N   UNL A   1      31.528  28.378  22.962  1.00  0.00    -0.356 N 
ATOM      5  C   UNL A   1      30.272  28.057  23.375  1.00  0.00     0.228 C 
ATOM      6  O   UNL A   1      29.484  29.004  23.498  1.00  0.00    -0.275 OA
ATOM      7  H   UNL A   1      31.687  29.348  22.916  1.00  0.00     0.163 HD
BRANCH   5   8
ATOM      8  C   UNL A   1      29.795  26.626  23.688  1.00  0.00     0.133 C 
ATOM      9  C   UNL A   1      28.280  26.564  23.869  1.00  0.00     0.024 C 
BRANCH   8  10
ATOM     10  C   UNL A   1      30.715  25.882  24.719  1.00  0.00     0.193 C 
ATOM     11  C   UNL A   1      30.611  26.468  26.118  1.00  0.00     0.076 C 
BRANCH  10  12
ATOM     12  N   UNL A   1      30.701  24.399  24.657  1.00  0.00    -0.329 N 
ATOM     13  C   UNL A   1      31.249  23.843  23.391  1.00  0.00     0.284 C 
ATOM     14  C   UNL A   1      31.291  23.630  25.765  1.00  0.00     0.284 C 
ATOM     15  H   UNL A   1      29.693  24.264  24.732  1.00  0.00     0.348 HD
ATOM     16  C   UNL A   1      32.782  23.602  23.282  1.00  0.00     0.180 C 
ATOM     17  C   UNL A   1      32.824  23.562  25.811  1.00  0.00     0.180 C 
ATOM     18  N   UNL A   1      33.386  23.142  24.529  1.00  0.00    -0.337 N 
BRANCH  18  19
ATOM     19  C   UNL A   1      34.616  22.566  24.548  1.00  0.00     0.185 A 
ATOM     20  N   UNL A   1      35.549  22.851  23.666  1.00  0.00    -0.229 NA
ATOM     21  S   UNL A   1      35.086  21.361  25.704  1.00  0.00    -0.106 S 
ATOM     22  C   UNL A   1      36.704  22.148  23.931  1.00  0.00     0.125 A 
ATOM     23  C   UNL A   1      36.629  21.256  24.974  1.00  0.00     0.088 A 
ENDBRANCH  18  19
ENDBRANCH  10  12
ENDBRANCH   8  10
ENDBRANCH   5   8
ENDBRANCH   3   4
ENDBRANCH   2   3
ENDBRANCH   1   2
BRANCH   1  24
ATOM     24  C   UNL A   1      33.978  28.166  26.102  1.00  0.00     0.002 C 
BRANCH  24  25
ATOM     25  C   UNL A   1      34.052  29.205  27.226  1.00  0.00     0.021 C 
BRANCH  25  26
ATOM     26  C   UNL A   1      35.454  29.467  27.771  1.00  0.00     0.116 C 
BRANCH  26  27
ATOM     27  N   UNL A   1      35.426  29.821  29.183  1.00  0.00    -0.352 N 
ATOM     28  C   UNL A   1      36.432  29.761  30.112  1.00  0.00     0.251 C 
ATOM     29  H   UNL A   1      34.562  30.151  29.518  1.00  0.00     0.163 HD
ATOM     30  O   UNL A   1      36.164  29.835  31.314  1.00  0.00    -0.269 OA
BRANCH  28  31
ATOM     31  C   UNL A   1      37.832  29.602  29.673  1.00  0.00     0.039 A 
ATOM     32  C   UNL A   1      38.815  29.287  30.614  1.00  0.00     0.014 A 
ATOM     33  C   UNL A   1      38.173  29.776  28.328  1.00  0.00     0.014 A 
ATOM     34  C   UNL A   1      40.131  29.081  30.196  1.00  0.00     0.010 A 
ATOM     35  C   UNL A   1      39.470  29.503  27.903  1.00  0.00     0.010 A 
ATOM     36  C   UNL A   1      40.461  29.153  28.832  1.00  0.00    -0.014 A 
BRANCH  36  37
ATOM     37  C   UNL A   1      41.834  28.848  28.350  1.00  0.00     0.031 A 
ATOM     38  C   UNL A   1      42.192  27.449  27.926  1.00  0.00     0.074 A 
ATOM     39  C   UNL A   1      42.775  29.812  28.378  1.00  0.00     0.049 A 
ATOM     40  N   UNL A   1      43.355  26.967  27.573  1.00  0.00    -0.248 NA
ATOM     41  C   UNL A   1      41.105  26.456  27.925  1.00  0.00     0.031 C 
ATOM     42  C   UNL A   1      42.559  31.193  28.818  1.00  0.00     0.029 A 
ATOM     43  N   UNL A   1      44.108  29.776  28.051  1.00  0.00    -0.354 N 
ATOM     44  C   UNL A   1      43.146  25.615  27.327  1.00  0.00     0.074 A 
ATOM     45  C   UNL A   1      41.755  25.343  27.613  1.00  0.00     0.031 C 
ATOM     46  C   UNL A   1      43.713  31.872  28.724  1.00  0.00     0.029 A 
ATOM     47  C   UNL A   1      44.760  30.969  28.261  1.00  0.00     0.049 A 
ATOM     48  H   UNL A   1      44.555  28.972  27.701  1.00  0.00     0.167 HD
ATOM     49  C   UNL A   1      44.033  24.691  26.886  1.00  0.00     0.037 A 
ATOM     50  C   UNL A   1      46.061  31.293  28.116  1.00  0.00     0.037 A 
ATOM     51  C   UNL A   1      45.409  24.980  26.577  1.00  0.00     0.049 A 
ATOM     52  C   UNL A   1      47.026  30.246  27.631  1.00  0.00     0.074 A 
ATOM     53  C   UNL A   1      46.365  24.132  26.046  1.00  0.00     0.029 A 
ATOM     54  N   UNL A   1      46.027  26.205  26.777  1.00  0.00    -0.354 N 
ATOM     55  N   UNL A   1      46.793  28.993  27.321  1.00  0.00    -0.248 NA
ATOM     56  C   UNL A   1      48.429  30.653  27.472  1.00  0.00     0.031 C 
ATOM     57  C   UNL A   1      47.576  24.828  25.979  1.00  0.00     0.029 A 
ATOM     58  C   UNL A   1      47.361  26.127  26.414  1.00  0.00     0.049 A 
ATOM     59  H   UNL A   1      45.583  27.013  27.125  1.00  0.00     0.167 HD
ATOM     60  C   UNL A   1      48.014  28.469  26.908  1.00  0.00     0.074 A 
ATOM     61  C   UNL A   1      48.980  29.545  26.995  1.00  0.00     0.031 C 
ATOM     62  C   UNL A   1      48.308  27.211  26.499  1.00  0.00     0.037 A 
BRANCH  49  63
ATOM     63  C   UNL A   1      43.549  23.277  26.712  1.00  0.00     0.058 A 
ATOM     64  C   UNL A   1      43.400  22.695  25.443  1.00  0.00     0.135 A 
ATOM     65  C   UNL A   1      43.287  22.472  27.835  1.00  0.00     0.135 A 
ATOM     66  F   UNL A   1      43.623  23.421  24.337  1.00  0.00    -0.206 F 
ATOM     67  C   UNL A   1      42.985  21.376  25.292  1.00  0.00     0.059 A 
ATOM     68  C   UNL A   1      42.900  21.141  27.707  1.00  0.00     0.059 A 
ATOM     69  F   UNL A   1      43.413  22.976  29.072  1.00  0.00    -0.206 F 
ATOM     70  C   UNL A   1      42.740  20.605  26.430  1.00  0.00     0.060 A 
BRANCH  70  71
ATOM     71  S   UNL A   1      42.223  18.890  26.215  1.00  0.00     0.124 S 
ATOM     72  O   UNL A   1      42.423  18.356  27.559  1.00  0.00    -0.237 OA
ATOM     73  O   UNL A   1      40.833  19.034  25.792  1.00  0.00    -0.237 OA
ATOM     74  O   UNL A   1      43.136  18.383  25.197  1.00  0.00    -0.744 OA
ENDBRANCH  70  71
ENDBRANCH  49  63
BRANCH  50  75
ATOM     75  C   UNL A   1      46.526  32.670  28.437  1.00  0.00     0.058 A 
ATOM     76  C   UNL A   1      46.996  32.996  29.718  1.00  0.00     0.135 A 
ATOM     77  C   UNL A   1      46.511  33.688  27.470  1.00  0.00     0.135 A 
ATOM     78  F   UNL A   1      47.024  32.060  30.679  1.00  0.00    -0.206 F 
ATOM     79  C   UNL A   1      47.414  34.284  30.036  1.00  0.00     0.059 A 
ATOM     80  C   UNL A   1      46.951  34.976  27.755  1.00  0.00     0.059 A 
ATOM     81  F   UNL A   1      46.087  33.425  26.223  1.00  0.00    -0.206 F 
ATOM     82  C   UNL A   1      47.390  35.268  29.046  1.00  0.00     0.060 A 
BRANCH  82  83
ATOM     83  S   UNL A   1      47.969  36.927  29.459  1.00  0.00     0.124 S 
ATOM     84  O   UNL A   1      47.944  36.893  30.917  1.00  0.00    -0.237 OA
ATOM     85  O   UNL A   1      49.291  36.952  28.843  1.00  0.00    -0.237 OA
ATOM     86  O   UNL A   1      46.976  37.794  28.830  1.00  0.00    -0.744 OA
ENDBRANCH  82  83
ENDBRANCH  50  75
BRANCH  62  87
ATOM     87  C   UNL A   1      49.727  26.928  26.083  1.00  0.00     0.058 A 
ATOM     88  C   UNL A   1      50.661  26.385  26.978  1.00  0.00     0.135 A 
ATOM     89  C   UNL A   1      50.132  27.133  24.755  1.00  0.00     0.135 A 
ATOM     90  F   UNL A   1      50.327  26.178  28.261  1.00  0.00    -0.206 F 
ATOM     91  C   UNL A   1      51.953  26.067  26.573  1.00  0.00     0.059 A 
ATOM     92  C   UNL A   1      51.410  26.795  24.320  1.00  0.00     0.059 A 
ATOM     93  F   UNL A   1      49.273  27.642  23.855  1.00  0.00    -0.206 F 
ATOM     94  C   UNL A   1      52.316  26.269  25.240  1.00  0.00     0.060 A 
BRANCH  94  95
ATOM     95  S   UNL A   1      53.978  25.797  24.716  1.00  0.00     0.124 S 
ATOM     96  O   UNL A   1      54.805  26.544  25.657  1.00  0.00    -0.237 OA
ATOM     97  O   UNL A   1      53.961  24.348  24.896  1.00  0.00    -0.237 OA
ATOM     98  O   UNL A   1      54.039  26.251  23.329  1.00  0.00    -0.744 OA
ENDBRANCH  94  95
ENDBRANCH  62  87
ENDBRANCH  36  37
ENDBRANCH  28  31
ENDBRANCH  26  27
ENDBRANCH  25  26
ENDBRANCH  24  25
ENDBRANCH   1  24
TORSDOF 19
ENDMDL
MODEL 3
REMARK VINA RESULT:     -10.6      4.524      9.693
REMARK SMILES C[C@H]([C@@H](C)C(=O)NCCCCCCNC(=O)c1ccc(-c2c3nc(c(-c4c(F)cc(S(=O)(=O)[O-])cc4F)c4ccc([nH]4)c(-c4c(F)cc(S(=O)(=O)[O-])cc4F)c4nc(c(-c5c(F)cc(S(=O)(=O)[O-])cc5F)c5ccc2[nH]5)C=C4)C=C3)cc1)[NH+]1CCN(c2nccs2)CC1
REMARK SMILES IDX 10 1 9 2 8 3 7 4 5 5 6 6 3 8 4 9 2 10 1 11 83 12 84 13 93 14
REMARK SMILES IDX 85 16 92 17 86 18 87 19 88 20 91 21 89 22 90 23 11 24 12 25
REMARK SMILES IDX 13 26 14 27 15 28 16 30 17 31 18 32 82 33 19 34 81 35 20 36
REMARK SMILES IDX 21 37 22 38 75 39 23 40 80 41 74 42 76 43 24 44 79 45 73 46
REMARK SMILES IDX 72 47 25 49 59 50 38 51 58 52 39 53 42 54 57 55 77 56 40 57
REMARK SMILES IDX 41 58 56 60 78 61 43 62 26 63 27 64 36 65 28 66 29 67 35 68
REMARK SMILES IDX 37 69 30 70 31 71 32 72 33 73 34 74 60 75 61 76 70 77 62 78
REMARK SMILES IDX 63 79 69 80 71 81 64 82 65 83 66 84 67 85 68 86 44 87 45 88
REMARK SMILES IDX 54 89 46 90 47 91 53 92 55 93 48 94 49 95 50 96 51 97 52 98
REMARK H PARENT 7 7 83 15 14 29 76 48 42 59
REMARK Flexibility Score: inf
ROOT
ATOM      1  C   UNL A   1      37.497  22.271  24.974  1.00  0.00     0.002 C 
ENDROOT
BRANCH   1   2
ATOM      2  C   UNL A   1      36.887  23.080  26.113  1.00  0.00     0.021 C 
BRANCH   2   3
ATOM      3  C   UNL A   1      35.690  23.957  25.723  1.00  0.00     0.116 C 
BRANCH   3   4
ATOM      4  N   UNL A   1      35.461  23.913  24.285  1.00  0.00    -0.356 N 
ATOM      5  C   UNL A   1      34.553  23.272  23.501  1.00  0.00     0.228 C 
ATOM      6  O   UNL A   1      34.737  23.357  22.280  1.00  0.00    -0.275 OA
ATOM      7  H   UNL A   1      36.099  24.462  23.774  1.00  0.00     0.163 HD
BRANCH   5   8
ATOM      8  C   UNL A   1      33.348  22.474  24.035  1.00  0.00     0.133 C 
ATOM      9  C   UNL A   1      33.769  21.107  24.568  1.00  0.00     0.024 C 
BRANCH   8  10
ATOM     10  C   UNL A   1      32.085  22.573  23.107  1.00  0.00     0.193 C 
ATOM     11  C   UNL A   1      31.839  21.293  22.324  1.00  0.00     0.076 C 
BRANCH  10  12
ATOM     12  N   UNL A   1      30.874  23.181  23.712  1.00  0.00    -0.329 N 
ATOM     13  C   UNL A   1      30.877  23.177  25.199  1.00  0.00     0.284 C 
ATOM     14  C   UNL A   1      30.451  24.521  23.277  1.00  0.00     0.284 C 
ATOM     15  H   UNL A   1      30.186  22.534  23.328  1.00  0.00     0.348 HD
ATOM     16  C   UNL A   1      31.560  24.358  25.948  1.00  0.00     0.180 C 
ATOM     17  C   UNL A   1      31.256  25.706  23.829  1.00  0.00     0.180 C 
ATOM     18  N   UNL A   1      31.381  25.646  25.284  1.00  0.00    -0.337 N 
BRANCH  18  19
ATOM     19  C   UNL A   1      31.603  26.816  25.938  1.00  0.00     0.185 A 
ATOM     20  N   UNL A   1      31.210  27.025  27.175  1.00  0.00    -0.229 NA
ATOM     21  S   UNL A   1      32.389  28.180  25.209  1.00  0.00    -0.106 S 
ATOM     22  C   UNL A   1      31.585  28.281  27.602  1.00  0.00     0.125 A 
ATOM     23  C   UNL A   1      32.198  29.069  26.658  1.00  0.00     0.088 A 
ENDBRANCH  18  19
ENDBRANCH  10  12
ENDBRANCH   8  10
ENDBRANCH   5   8
ENDBRANCH   3   4
ENDBRANCH   2   3
ENDBRANCH   1   2
BRANCH   1  24
ATOM     24  C   UNL A   1      37.073  20.804  24.930  1.00  0.00     0.002 C 
BRANCH  24  25
ATOM     25  C   UNL A   1      38.216  19.788  25.022  1.00  0.00     0.021 C 
BRANCH  25  26
ATOM     26  C   UNL A   1      39.443  20.265  25.798  1.00  0.00     0.116 C 
BRANCH  26  27
ATOM     27  N   UNL A   1      40.396  19.187  26.014  1.00  0.00    -0.352 N 
ATOM     28  C   UNL A   1      41.756  19.251  26.174  1.00  0.00     0.251 C 
ATOM     29  H   UNL A   1      40.010  18.283  26.051  1.00  0.00     0.163 HD
ATOM     30  O   UNL A   1      42.437  18.227  26.069  1.00  0.00    -0.269 OA
BRANCH  28  31
ATOM     31  C   UNL A   1      42.404  20.545  26.463  1.00  0.00     0.039 A 
ATOM     32  C   UNL A   1      43.010  21.257  25.426  1.00  0.00     0.014 A 
ATOM     33  C   UNL A   1      42.420  21.048  27.768  1.00  0.00     0.014 A 
ATOM     34  C   UNL A   1      43.575  22.507  25.685  1.00  0.00     0.010 A 
ATOM     35  C   UNL A   1      42.922  22.323  28.011  1.00  0.00     0.010 A 
ATOM     36  C   UNL A   1      43.504  23.065  26.972  1.00  0.00    -0.014 A 
BRANCH  36  37
ATOM     37  C   UNL A   1      44.016  24.432  27.254  1.00  0.00     0.031 A 
ATOM     38  C   UNL A   1      43.061  25.535  27.622  1.00  0.00     0.074 A 
ATOM     39  C   UNL A   1      45.328  24.694  27.092  1.00  0.00     0.049 A 
ATOM     40  N   UNL A   1      43.302  26.807  27.806  1.00  0.00    -0.248 NA
ATOM     41  C   UNL A   1      41.645  25.164  27.777  1.00  0.00     0.031 C 
ATOM     42  C   UNL A   1      46.342  23.717  26.688  1.00  0.00     0.029 A 
ATOM     43  N   UNL A   1      46.033  25.864  27.226  1.00  0.00    -0.354 N 
ATOM     44  C   UNL A   1      42.070  27.391  28.078  1.00  0.00     0.074 A 
ATOM     45  C   UNL A   1      41.078  26.343  27.993  1.00  0.00     0.031 C 
ATOM     46  C   UNL A   1      47.537  24.325  26.618  1.00  0.00     0.029 A 
ATOM     47  C   UNL A   1      47.370  25.740  26.926  1.00  0.00     0.049 A 
ATOM     48  H   UNL A   1      45.622  26.712  27.509  1.00  0.00     0.167 HD
ATOM     49  C   UNL A   1      41.798  28.681  28.387  1.00  0.00     0.037 A 
ATOM     50  C   UNL A   1      48.348  26.667  26.885  1.00  0.00     0.037 A 
ATOM     51  C   UNL A   1      42.799  29.710  28.498  1.00  0.00     0.049 A 
ATOM     52  C   UNL A   1      48.018  28.095  27.227  1.00  0.00     0.074 A 
ATOM     53  C   UNL A   1      42.636  31.028  28.887  1.00  0.00     0.029 A 
ATOM     54  N   UNL A   1      44.146  29.541  28.212  1.00  0.00    -0.354 N 
ATOM     55  N   UNL A   1      46.861  28.613  27.567  1.00  0.00    -0.248 NA
ATOM     56  C   UNL A   1      49.121  29.065  27.185  1.00  0.00     0.031 C 
ATOM     57  C   UNL A   1      43.873  31.671  28.781  1.00  0.00     0.029 A 
ATOM     58  C   UNL A   1      44.820  30.739  28.382  1.00  0.00     0.049 A 
ATOM     59  H   UNL A   1      44.563  28.694  27.931  1.00  0.00     0.167 HD
ATOM     60  C   UNL A   1      47.103  29.962  27.800  1.00  0.00     0.074 A 
ATOM     61  C   UNL A   1      48.517  30.178  27.578  1.00  0.00     0.031 C 
ATOM     62  C   UNL A   1      46.231  30.935  28.163  1.00  0.00     0.037 A 
BRANCH  49  63
ATOM     63  C   UNL A   1      40.362  29.061  28.627  1.00  0.00     0.058 A 
ATOM     64  C   UNL A   1      39.839  29.199  29.923  1.00  0.00     0.135 A 
ATOM     65  C   UNL A   1      39.512  29.347  27.545  1.00  0.00     0.135 A 
ATOM     66  F   UNL A   1      40.601  28.925  30.993  1.00  0.00    -0.206 F 
ATOM     67  C   UNL A   1      38.519  29.584  30.137  1.00  0.00     0.059 A 
ATOM     68  C   UNL A   1      38.198  29.763  27.737  1.00  0.00     0.059 A 
ATOM     69  F   UNL A   1      39.960  29.231  26.285  1.00  0.00    -0.206 F 
ATOM     70  C   UNL A   1      37.707  29.866  29.037  1.00  0.00     0.060 A 
BRANCH  70  71
ATOM     71  S   UNL A   1      36.003  30.384  29.334  1.00  0.00     0.124 S 
ATOM     72  O   UNL A   1      35.899  30.218  30.781  1.00  0.00    -0.237 OA
ATOM     73  O   UNL A   1      36.007  31.762  28.854  1.00  0.00    -0.237 OA
ATOM     74  O   UNL A   1      35.218  29.447  28.539  1.00  0.00    -0.744 OA
ENDBRANCH  70  71
ENDBRANCH  49  63
BRANCH  50  75
ATOM     75  C   UNL A   1      49.732  26.274  26.501  1.00  0.00     0.058 A 
ATOM     76  C   UNL A   1      50.663  25.866  27.467  1.00  0.00     0.135 A 
ATOM     77  C   UNL A   1      50.150  26.297  25.161  1.00  0.00     0.135 A 
ATOM     78  F   UNL A   1      50.314  25.833  28.763  1.00  0.00    -0.206 F 
ATOM     79  C   UNL A   1      51.965  25.515  27.124  1.00  0.00     0.059 A 
ATOM     80  C   UNL A   1      51.437  25.923  24.789  1.00  0.00     0.059 A 
ATOM     81  F   UNL A   1      49.293  26.663  24.194  1.00  0.00    -0.206 F 
ATOM     82  C   UNL A   1      52.342  25.545  25.781  1.00  0.00     0.060 A 
BRANCH  82  83
ATOM     83  S   UNL A   1      54.023  25.053  25.341  1.00  0.00     0.124 S 
ATOM     84  O   UNL A   1      54.331  25.989  24.266  1.00  0.00    -0.237 OA
ATOM     85  O   UNL A   1      54.740  25.262  26.595  1.00  0.00    -0.237 OA
ATOM     86  O   UNL A   1      53.869  23.657  24.941  1.00  0.00    -0.744 OA
ENDBRANCH  82  83
ENDBRANCH  50  75
BRANCH  62  87
ATOM     87  C   UNL A   1      46.781  32.320  28.373  1.00  0.00     0.058 A 
ATOM     88  C   UNL A   1      47.333  32.715  29.601  1.00  0.00     0.135 A 
ATOM     89  C   UNL A   1      46.821  33.237  27.310  1.00  0.00     0.135 A 
ATOM     90  F   UNL A   1      47.311  31.881  30.652  1.00  0.00    -0.206 F 
ATOM     91  C   UNL A   1      47.896  33.976  29.771  1.00  0.00     0.059 A 
ATOM     92  C   UNL A   1      47.406  34.491  27.448  1.00  0.00     0.059 A 
ATOM     93  F   UNL A   1      46.315  32.905  26.110  1.00  0.00    -0.206 F 
ATOM     94  C   UNL A   1      47.935  34.854  28.686  1.00  0.00     0.060 A 
BRANCH  94  95
ATOM     95  S   UNL A   1      48.720  36.464  28.906  1.00  0.00     0.124 S 
ATOM     96  O   UNL A   1      49.609  36.206  30.034  1.00  0.00    -0.237 OA
ATOM     97  O   UNL A   1      49.374  36.670  27.617  1.00  0.00    -0.237 OA
ATOM     98  O   UNL A   1      47.598  37.356  29.184  1.00  0.00    -0.744 OA
ENDBRANCH  94  95
ENDBRANCH  62  87
ENDBRANCH  36  37
ENDBRANCH  28  31
ENDBRANCH  26  27
ENDBRANCH  25  26
ENDBRANCH  24  25
ENDBRANCH   1  24
TORSDOF 19
ENDMDL
