MODEL 1
REMARK VINA RESULT:      -7.8      0.000      0.000
REMARK SMILES CC/C=C/C/C=C/C/C=C/C/C=C/CC/C=C/COCC(=O)NCCCCCCNC(=O)c1ccc(-c2c3nc(c(-c4c(F)cc(S(=O)(=O)[O-])cc4F)c4ccc([nH]4)c(-c4c(F)cc(S(=O)(=O)[O-])cc4F)c4nc(c(-c5c(F)cc(S(=O)(=O)[O-])cc5F)c5ccc2[nH]5)C=C4)C=C3)cc1
REMARK SMILES IDX 20 1 19 2 18 3 17 4 16 5 15 6 14 7 13 8 12 9 11 10 10 11
REMARK SMILES IDX 9 12 8 13 7 14 6 15 5 16 4 17 3 18 2 19 1 20 21 21 22 22
REMARK SMILES IDX 23 23 24 25 25 26 26 27 27 28 28 29 29 30 30 31 31 32 32 34
REMARK SMILES IDX 33 35 34 36 98 37 35 38 97 39 36 40 37 41 38 42 91 43 39 44
REMARK SMILES IDX 96 45 90 46 92 47 40 48 95 49 89 50 88 51 41 53 75 54 54 55
REMARK SMILES IDX 74 56 55 57 58 58 73 59 93 60 56 61 57 62 72 64 94 65 59 66
REMARK SMILES IDX 42 67 43 68 52 69 44 70 45 71 51 72 53 73 46 74 47 75 48 76
REMARK SMILES IDX 49 77 50 78 76 79 77 80 86 81 78 82 79 83 85 84 87 85 80 86
REMARK SMILES IDX 81 87 82 88 83 89 84 90 60 91 61 92 70 93 62 94 63 95 69 96
REMARK SMILES IDX 71 97 64 98 65 99 66 100 67 101 68 102
REMARK H PARENT 23 24 30 33 92 52 58 63
REMARK Flexibility Score: inf
ROOT
ATOM      1  C   UNL A   1      32.742  25.167  24.162  1.00  0.00     0.260 C 
ENDROOT
BRANCH   1   2
ATOM      2  O   UNL A   1      32.110  24.470  23.096  1.00  0.00    -0.368 OA
BRANCH   2   3
ATOM      3  C   UNL A   1      30.974  23.703  23.492  1.00  0.00     0.188 C 
BRANCH   3   4
ATOM      4  C   UNL A   1      31.409  22.355  23.972  1.00  0.00    -0.003 C 
ATOM      5  C   UNL A   1      32.621  21.843  23.709  1.00  0.00    -0.029 C 
BRANCH   5   6
ATOM      6  C   UNL A   1      33.034  20.432  24.015  1.00  0.00     0.031 C 
BRANCH   6   7
ATOM      7  C   UNL A   1      34.281  20.371  24.913  1.00  0.00     0.031 C 
BRANCH   7   8
ATOM      8  C   UNL A   1      34.651  21.708  25.496  1.00  0.00    -0.031 C 
ATOM      9  C   UNL A   1      35.477  22.588  24.910  1.00  0.00    -0.027 C 
BRANCH   9  10
ATOM     10  C   UNL A   1      35.881  23.893  25.534  1.00  0.00     0.054 C 
BRANCH  10  11
ATOM     11  C   UNL A   1      37.094  23.704  26.400  1.00  0.00    -0.027 C 
ATOM     12  C   UNL A   1      38.357  23.738  25.945  1.00  0.00    -0.027 C 
BRANCH  12  13
ATOM     13  C   UNL A   1      39.567  23.503  26.801  1.00  0.00     0.054 C 
BRANCH  13  14
ATOM     14  C   UNL A   1      39.772  24.651  27.748  1.00  0.00    -0.027 C 
ATOM     15  C   UNL A   1      39.991  25.918  27.360  1.00  0.00    -0.027 C 
BRANCH  15  16
ATOM     16  C   UNL A   1      40.224  27.060  28.306  1.00  0.00     0.054 C 
BRANCH  16  17
ATOM     17  C   UNL A   1      39.589  26.785  29.639  1.00  0.00    -0.027 C 
ATOM     18  C   UNL A   1      38.930  27.703  30.364  1.00  0.00    -0.031 C 
BRANCH  18  19
ATOM     19  C   UNL A   1      38.309  27.424  31.702  1.00  0.00     0.023 C 
ATOM     20  C   UNL A   1      38.102  28.708  32.490  1.00  0.00     0.008 C 
ENDBRANCH  18  19
ENDBRANCH  16  17
ENDBRANCH  15  16
ENDBRANCH  13  14
ENDBRANCH  12  13
ENDBRANCH  10  11
ENDBRANCH   9  10
ENDBRANCH   7   8
ENDBRANCH   6   7
ENDBRANCH   5   6
ENDBRANCH   3   4
ENDBRANCH   2   3
ENDBRANCH   1   2
BRANCH   1  21
ATOM     21  C   UNL A   1      31.858  25.650  25.319  1.00  0.00     0.246 C 
ATOM     22  O   UNL A   1      31.695  24.984  26.342  1.00  0.00    -0.272 OA
ATOM     23  N   UNL A   1      31.256  26.871  25.219  1.00  0.00    -0.354 N 
ATOM     24  H   UNL A   1      30.764  27.177  26.014  1.00  0.00     0.163 HD
BRANCH  23  25
ATOM     25  C   UNL A   1      31.253  27.773  24.081  1.00  0.00     0.116 C 
BRANCH  25  26
ATOM     26  C   UNL A   1      31.142  29.228  24.534  1.00  0.00     0.021 C 
BRANCH  26  27
ATOM     27  C   UNL A   1      32.341  29.725  25.354  1.00  0.00     0.002 C 
BRANCH  27  28
ATOM     28  C   UNL A   1      32.026  30.098  26.807  1.00  0.00     0.002 C 
BRANCH  28  29
ATOM     29  C   UNL A   1      33.248  30.403  27.675  1.00  0.00     0.021 C 
BRANCH  29  30
ATOM     30  C   UNL A   1      34.005  31.667  27.285  1.00  0.00     0.116 C 
BRANCH  30  31
ATOM     31  N   UNL A   1      33.495  32.847  27.968  1.00  0.00    -0.352 N 
ATOM     32  C   UNL A   1      33.979  33.480  29.085  1.00  0.00     0.251 C 
ATOM     33  H   UNL A   1      32.688  33.246  27.572  1.00  0.00     0.163 HD
ATOM     34  O   UNL A   1      33.305  34.349  29.635  1.00  0.00    -0.269 OA
BRANCH  32  35
ATOM     35  C   UNL A   1      35.297  33.101  29.637  1.00  0.00     0.039 A 
ATOM     36  C   UNL A   1      36.422  33.846  29.273  1.00  0.00     0.014 A 
ATOM     37  C   UNL A   1      35.426  32.018  30.511  1.00  0.00     0.014 A 
ATOM     38  C   UNL A   1      37.664  33.543  29.836  1.00  0.00     0.010 A 
ATOM     39  C   UNL A   1      36.647  31.768  31.130  1.00  0.00     0.010 A 
ATOM     40  C   UNL A   1      37.780  32.525  30.798  1.00  0.00    -0.014 A 
BRANCH  40  41
ATOM     41  C   UNL A   1      39.076  32.252  31.475  1.00  0.00     0.031 A 
ATOM     42  C   UNL A   1      39.368  32.846  32.827  1.00  0.00     0.074 A 
ATOM     43  C   UNL A   1      40.014  31.518  30.842  1.00  0.00     0.049 A 
ATOM     44  N   UNL A   1      40.460  32.765  33.545  1.00  0.00    -0.248 NA
ATOM     45  C   UNL A   1      38.305  33.656  33.443  1.00  0.00     0.031 C 
ATOM     46  C   UNL A   1      39.869  30.931  29.508  1.00  0.00     0.029 A 
ATOM     47  N   UNL A   1      41.278  31.148  31.229  1.00  0.00    -0.354 N 
ATOM     48  C   UNL A   1      40.220  33.521  34.687  1.00  0.00     0.074 A 
ATOM     49  C   UNL A   1      38.900  34.096  34.541  1.00  0.00     0.031 C 
ATOM     50  C   UNL A   1      40.989  30.257  29.199  1.00  0.00     0.029 A 
ATOM     51  C   UNL A   1      41.947  30.399  30.290  1.00  0.00     0.049 A 
ATOM     52  H   UNL A   1      41.669  31.397  32.098  1.00  0.00     0.167 HD
ATOM     53  C   UNL A   1      41.018  33.701  35.767  1.00  0.00     0.037 A 
ATOM     54  C   UNL A   1      43.196  29.892  30.299  1.00  0.00     0.037 A 
ATOM     55  C   UNL A   1      42.323  33.110  35.911  1.00  0.00     0.049 A 
ATOM     56  C   UNL A   1      44.067  30.114  31.507  1.00  0.00     0.074 A 
ATOM     57  C   UNL A   1      43.184  33.181  36.992  1.00  0.00     0.029 A 
ATOM     58  N   UNL A   1      42.960  32.344  34.945  1.00  0.00    -0.354 N 
ATOM     59  N   UNL A   1      43.796  30.772  32.609  1.00  0.00    -0.248 NA
ATOM     60  C   UNL A   1      45.410  29.519  31.477  1.00  0.00     0.031 C 
ATOM     61  C   UNL A   1      44.363  32.508  36.659  1.00  0.00     0.029 A 
ATOM     62  C   UNL A   1      44.214  31.961  35.394  1.00  0.00     0.049 A 
ATOM     63  H   UNL A   1      42.577  32.108  34.069  1.00  0.00     0.167 HD
ATOM     64  C   UNL A   1      44.923  30.645  33.414  1.00  0.00     0.074 A 
ATOM     65  C   UNL A   1      45.872  29.837  32.678  1.00  0.00     0.031 C 
ATOM     66  C   UNL A   1      45.149  31.151  34.652  1.00  0.00     0.037 A 
BRANCH  53  67
ATOM     67  C   UNL A   1      40.505  34.574  36.881  1.00  0.00     0.058 A 
ATOM     68  C   UNL A   1      39.786  34.043  37.966  1.00  0.00     0.135 A 
ATOM     69  C   UNL A   1      40.774  35.952  36.889  1.00  0.00     0.135 A 
ATOM     70  F   UNL A   1      39.487  32.735  38.005  1.00  0.00    -0.206 F 
ATOM     71  C   UNL A   1      39.329  34.851  39.002  1.00  0.00     0.059 A 
ATOM     72  C   UNL A   1      40.354  36.775  37.931  1.00  0.00     0.059 A 
ATOM     73  F   UNL A   1      41.456  36.514  35.879  1.00  0.00    -0.206 F 
ATOM     74  C   UNL A   1      39.621  36.217  38.977  1.00  0.00     0.060 A 
BRANCH  74  75
ATOM     75  S   UNL A   1      39.029  37.247  40.336  1.00  0.00     0.124 S 
ATOM     76  O   UNL A   1      38.245  36.289  41.109  1.00  0.00    -0.237 OA
ATOM     77  O   UNL A   1      40.274  37.693  40.954  1.00  0.00    -0.237 OA
ATOM     78  O   UNL A   1      38.257  38.288  39.663  1.00  0.00    -0.744 OA
ENDBRANCH  74  75
ENDBRANCH  53  67
BRANCH  54  79
ATOM     79  C   UNL A   1      43.693  29.115  29.131  1.00  0.00     0.058 A 
ATOM     80  C   UNL A   1      43.706  27.712  29.148  1.00  0.00     0.135 A 
ATOM     81  C   UNL A   1      44.153  29.757  27.971  1.00  0.00     0.135 A 
ATOM     82  F   UNL A   1      43.283  27.050  30.235  1.00  0.00    -0.206 F 
ATOM     83  C   UNL A   1      44.175  26.974  28.066  1.00  0.00     0.059 A 
ATOM     84  C   UNL A   1      44.598  29.042  26.865  1.00  0.00     0.059 A 
ATOM     85  F   UNL A   1      44.145  31.098  27.896  1.00  0.00    -0.206 F 
ATOM     86  C   UNL A   1      44.617  27.649  26.926  1.00  0.00     0.060 A 
BRANCH  86  87
ATOM     87  S   UNL A   1      45.180  26.681  25.509  1.00  0.00     0.124 S 
ATOM     88  O   UNL A   1      45.654  27.726  24.609  1.00  0.00    -0.237 OA
ATOM     89  O   UNL A   1      46.210  25.837  26.107  1.00  0.00    -0.237 OA
ATOM     90  O   UNL A   1      43.974  25.979  25.082  1.00  0.00    -0.744 OA
ENDBRANCH  86  87
ENDBRANCH  54  79
BRANCH  66  91
ATOM     91  C   UNL A   1      46.460  30.816  35.312  1.00  0.00     0.058 A 
ATOM     92  C   UNL A   1      47.583  31.650  35.196  1.00  0.00     0.135 A 
ATOM     93  C   UNL A   1      46.577  29.670  36.116  1.00  0.00     0.135 A 
ATOM     94  F   UNL A   1      47.529  32.755  34.434  1.00  0.00    -0.206 F 
ATOM     95  C   UNL A   1      48.783  31.347  35.833  1.00  0.00     0.059 A 
ATOM     96  C   UNL A   1      47.756  29.364  36.787  1.00  0.00     0.059 A 
ATOM     97  F   UNL A   1      45.531  28.843  36.270  1.00  0.00    -0.206 F 
ATOM     98  C   UNL A   1      48.858  30.202  36.630  1.00  0.00     0.060 A 
BRANCH  98  99
ATOM     99  S   UNL A   1      50.409  29.841  37.478  1.00  0.00     0.124 S 
ATOM    100  O   UNL A   1      51.311  30.813  36.870  1.00  0.00    -0.237 OA
ATOM    101  O   UNL A   1      50.065  30.083  38.876  1.00  0.00    -0.237 OA
ATOM    102  O   UNL A   1      50.668  28.445  37.136  1.00  0.00    -0.744 OA
ENDBRANCH  98  99
ENDBRANCH  66  91
ENDBRANCH  40  41
ENDBRANCH  32  35
ENDBRANCH  30  31
ENDBRANCH  29  30
ENDBRANCH  28  29
ENDBRANCH  27  28
ENDBRANCH  26  27
ENDBRANCH  25  26
ENDBRANCH  23  25
ENDBRANCH   1  21
TORSDOF 29
ENDMDL
MODEL 2
REMARK VINA RESULT:      -7.7      4.909      8.764
REMARK SMILES CC/C=C/C/C=C/C/C=C/C/C=C/CC/C=C/COCC(=O)NCCCCCCNC(=O)c1ccc(-c2c3nc(c(-c4c(F)cc(S(=O)(=O)[O-])cc4F)c4ccc([nH]4)c(-c4c(F)cc(S(=O)(=O)[O-])cc4F)c4nc(c(-c5c(F)cc(S(=O)(=O)[O-])cc5F)c5ccc2[nH]5)C=C4)C=C3)cc1
REMARK SMILES IDX 20 1 19 2 18 3 17 4 16 5 15 6 14 7 13 8 12 9 11 10 10 11
REMARK SMILES IDX 9 12 8 13 7 14 6 15 5 16 4 17 3 18 2 19 1 20 21 21 22 22
REMARK SMILES IDX 23 23 24 25 25 26 26 27 27 28 28 29 29 30 30 31 31 32 32 34
REMARK SMILES IDX 33 35 34 36 98 37 35 38 97 39 36 40 37 41 38 42 91 43 39 44
REMARK SMILES IDX 96 45 90 46 92 47 40 48 95 49 89 50 88 51 41 53 75 54 54 55
REMARK SMILES IDX 74 56 55 57 58 58 73 59 93 60 56 61 57 62 72 64 94 65 59 66
REMARK SMILES IDX 42 67 43 68 52 69 44 70 45 71 51 72 53 73 46 74 47 75 48 76
REMARK SMILES IDX 49 77 50 78 76 79 77 80 86 81 78 82 79 83 85 84 87 85 80 86
REMARK SMILES IDX 81 87 82 88 83 89 84 90 60 91 61 92 70 93 62 94 63 95 69 96
REMARK SMILES IDX 71 97 64 98 65 99 66 100 67 101 68 102
REMARK H PARENT 23 24 30 33 92 52 58 63
REMARK Flexibility Score: inf
ROOT
ATOM      1  C   UNL A   1      38.312  29.408  32.244  1.00  0.00     0.260 C 
ENDROOT
BRANCH   1   2
ATOM      2  O   UNL A   1      37.060  29.961  32.630  1.00  0.00    -0.368 OA
BRANCH   2   3
ATOM      3  C   UNL A   1      36.683  31.122  31.891  1.00  0.00     0.188 C 
BRANCH   3   4
ATOM      4  C   UNL A   1      36.418  30.758  30.465  1.00  0.00    -0.003 C 
ATOM      5  C   UNL A   1      36.885  31.474  29.431  1.00  0.00    -0.029 C 
BRANCH   5   6
ATOM      6  C   UNL A   1      36.497  31.250  27.997  1.00  0.00     0.031 C 
BRANCH   6   7
ATOM      7  C   UNL A   1      36.300  29.760  27.672  1.00  0.00     0.031 C 
BRANCH   7   8
ATOM      8  C   UNL A   1      34.852  29.352  27.641  1.00  0.00    -0.031 C 
ATOM      9  C   UNL A   1      34.245  28.791  26.583  1.00  0.00    -0.027 C 
BRANCH   9  10
ATOM     10  C   UNL A   1      32.784  28.444  26.550  1.00  0.00     0.054 C 
BRANCH  10  11
ATOM     11  C   UNL A   1      31.955  29.645  26.911  1.00  0.00    -0.027 C 
ATOM     12  C   UNL A   1      31.822  30.730  26.131  1.00  0.00    -0.027 C 
BRANCH  12  13
ATOM     13  C   UNL A   1      31.032  31.948  26.511  1.00  0.00     0.054 C 
BRANCH  13  14
ATOM     14  C   UNL A   1      31.952  33.084  26.856  1.00  0.00    -0.027 C 
ATOM     15  C   UNL A   1      33.022  32.970  27.660  1.00  0.00    -0.027 C 
BRANCH  15  16
ATOM     16  C   UNL A   1      33.925  34.112  28.028  1.00  0.00     0.054 C 
BRANCH  16  17
ATOM     17  C   UNL A   1      33.781  34.457  29.482  1.00  0.00    -0.027 C 
ATOM     18  C   UNL A   1      34.507  33.901  30.465  1.00  0.00    -0.031 C 
BRANCH  18  19
ATOM     19  C   UNL A   1      34.349  34.241  31.919  1.00  0.00     0.023 C 
ATOM     20  C   UNL A   1      35.657  34.739  32.513  1.00  0.00     0.008 C 
ENDBRANCH  18  19
ENDBRANCH  16  17
ENDBRANCH  15  16
ENDBRANCH  13  14
ENDBRANCH  12  13
ENDBRANCH  10  11
ENDBRANCH   9  10
ENDBRANCH   7   8
ENDBRANCH   6   7
ENDBRANCH   5   6
ENDBRANCH   3   4
ENDBRANCH   2   3
ENDBRANCH   1   2
BRANCH   1  21
ATOM     21  C   UNL A   1      38.374  27.896  31.990  1.00  0.00     0.246 C 
ATOM     22  O   UNL A   1      38.166  27.072  32.882  1.00  0.00    -0.272 OA
ATOM     23  N   UNL A   1      38.643  27.454  30.727  1.00  0.00    -0.354 N 
ATOM     24  H   UNL A   1      38.594  26.481  30.591  1.00  0.00     0.163 HD
BRANCH  23  25
ATOM     25  C   UNL A   1      38.992  28.244  29.561  1.00  0.00     0.116 C 
BRANCH  25  26
ATOM     26  C   UNL A   1      39.526  27.359  28.436  1.00  0.00     0.021 C 
BRANCH  26  27
ATOM     27  C   UNL A   1      39.471  25.855  28.739  1.00  0.00     0.002 C 
BRANCH  27  28
ATOM     28  C   UNL A   1      40.528  25.008  28.024  1.00  0.00     0.002 C 
BRANCH  28  29
ATOM     29  C   UNL A   1      41.343  25.750  26.963  1.00  0.00     0.021 C 
BRANCH  29  30
ATOM     30  C   UNL A   1      42.810  25.962  27.320  1.00  0.00     0.116 C 
BRANCH  30  31
ATOM     31  N   UNL A   1      43.253  25.062  28.375  1.00  0.00    -0.352 N 
ATOM     32  C   UNL A   1      43.776  25.361  29.608  1.00  0.00     0.251 C 
ATOM     33  H   UNL A   1      43.166  24.103  28.174  1.00  0.00     0.163 HD
ATOM     34  O   UNL A   1      44.277  24.470  30.292  1.00  0.00    -0.269 OA
BRANCH  32  35
ATOM     35  C   UNL A   1      43.754  26.754  30.102  1.00  0.00     0.039 A 
ATOM     36  C   UNL A   1      44.865  27.244  30.794  1.00  0.00     0.014 A 
ATOM     37  C   UNL A   1      42.645  27.577  29.884  1.00  0.00     0.014 A 
ATOM     38  C   UNL A   1      44.888  28.577  31.210  1.00  0.00     0.010 A 
ATOM     39  C   UNL A   1      42.702  28.924  30.230  1.00  0.00     0.010 A 
ATOM     40  C   UNL A   1      43.823  29.439  30.898  1.00  0.00    -0.014 A 
BRANCH  40  41
ATOM     41  C   UNL A   1      43.873  30.882  31.253  1.00  0.00     0.031 A 
ATOM     42  C   UNL A   1      42.986  31.429  32.340  1.00  0.00     0.074 A 
ATOM     43  C   UNL A   1      44.673  31.712  30.553  1.00  0.00     0.049 A 
ATOM     44  N   UNL A   1      42.849  32.665  32.750  1.00  0.00    -0.248 NA
ATOM     45  C   UNL A   1      42.121  30.467  33.041  1.00  0.00     0.031 C 
ATOM     46  C   UNL A   1      45.542  31.311  29.445  1.00  0.00     0.029 A 
ATOM     47  N   UNL A   1      44.881  33.065  30.662  1.00  0.00    -0.354 N 
ATOM     48  C   UNL A   1      41.879  32.630  33.745  1.00  0.00     0.074 A 
ATOM     49  C   UNL A   1      41.422  31.261  33.839  1.00  0.00     0.031 C 
ATOM     50  C   UNL A   1      46.205  32.387  28.991  1.00  0.00     0.029 A 
ATOM     51  C   UNL A   1      45.778  33.562  29.746  1.00  0.00     0.049 A 
ATOM     52  H   UNL A   1      44.430  33.626  31.333  1.00  0.00     0.167 HD
ATOM     53  C   UNL A   1      41.426  33.643  34.522  1.00  0.00     0.037 A 
ATOM     54  C   UNL A   1      46.202  34.822  29.527  1.00  0.00     0.037 A 
ATOM     55  C   UNL A   1      41.900  35.000  34.434  1.00  0.00     0.049 A 
ATOM     56  C   UNL A   1      45.677  35.932  30.399  1.00  0.00     0.074 A 
ATOM     57  C   UNL A   1      41.550  36.085  35.218  1.00  0.00     0.029 A 
ATOM     58  N   UNL A   1      42.821  35.461  33.503  1.00  0.00    -0.354 N 
ATOM     59  N   UNL A   1      44.812  35.868  31.383  1.00  0.00    -0.248 NA
ATOM     60  C   UNL A   1      46.190  37.283  30.136  1.00  0.00     0.031 C 
ATOM     61  C   UNL A   1      42.213  37.213  34.726  1.00  0.00     0.029 A 
ATOM     62  C   UNL A   1      43.028  36.821  33.676  1.00  0.00     0.049 A 
ATOM     63  H   UNL A   1      43.261  34.904  32.821  1.00  0.00     0.167 HD
ATOM     64  C   UNL A   1      44.701  37.164  31.876  1.00  0.00     0.074 A 
ATOM     65  C   UNL A   1      45.595  37.987  31.089  1.00  0.00     0.031 C 
ATOM     66  C   UNL A   1      43.927  37.629  32.889  1.00  0.00     0.037 A 
BRANCH  53  67
ATOM     67  C   UNL A   1      40.363  33.325  35.540  1.00  0.00     0.058 A 
ATOM     68  C   UNL A   1      40.673  33.112  36.893  1.00  0.00     0.135 A 
ATOM     69  C   UNL A   1      39.009  33.279  35.166  1.00  0.00     0.135 A 
ATOM     70  F   UNL A   1      41.951  33.130  37.306  1.00  0.00    -0.206 F 
ATOM     71  C   UNL A   1      39.685  32.836  37.833  1.00  0.00     0.059 A 
ATOM     72  C   UNL A   1      38.001  33.036  36.095  1.00  0.00     0.059 A 
ATOM     73  F   UNL A   1      38.654  33.475  33.887  1.00  0.00    -0.206 F 
ATOM     74  C   UNL A   1      38.350  32.803  37.424  1.00  0.00     0.060 A 
BRANCH  74  75
ATOM     75  S   UNL A   1      37.081  32.454  38.659  1.00  0.00     0.124 S 
ATOM     76  O   UNL A   1      37.631  33.117  39.838  1.00  0.00    -0.237 OA
ATOM     77  O   UNL A   1      35.898  33.080  38.075  1.00  0.00    -0.237 OA
ATOM     78  O   UNL A   1      37.053  30.996  38.717  1.00  0.00    -0.744 OA
ENDBRANCH  74  75
ENDBRANCH  53  67
BRANCH  54  79
ATOM     79  C   UNL A   1      47.185  35.100  28.445  1.00  0.00     0.058 A 
ATOM     80  C   UNL A   1      48.563  35.126  28.708  1.00  0.00     0.135 A 
ATOM     81  C   UNL A   1      46.768  35.335  27.125  1.00  0.00     0.135 A 
ATOM     82  F   UNL A   1      49.012  34.914  29.954  1.00  0.00    -0.206 F 
ATOM     83  C   UNL A   1      49.492  35.392  27.706  1.00  0.00     0.059 A 
ATOM     84  C   UNL A   1      47.679  35.574  26.101  1.00  0.00     0.059 A 
ATOM     85  F   UNL A   1      45.461  35.305  26.817  1.00  0.00    -0.206 F 
ATOM     86  C   UNL A   1      49.039  35.612  26.403  1.00  0.00     0.060 A 
BRANCH  86  87
ATOM     87  S   UNL A   1      50.255  35.911  25.103  1.00  0.00     0.124 S 
ATOM     88  O   UNL A   1      51.340  36.533  25.854  1.00  0.00    -0.237 OA
ATOM     89  O   UNL A   1      50.511  34.562  24.608  1.00  0.00    -0.237 OA
ATOM     90  O   UNL A   1      49.545  36.788  24.176  1.00  0.00    -0.744 OA
ENDBRANCH  86  87
ENDBRANCH  54  79
BRANCH  66  91
ATOM     91  C   UNL A   1      44.039  39.089  33.236  1.00  0.00     0.058 A 
ATOM     92  C   UNL A   1      43.432  40.086  32.456  1.00  0.00     0.135 A 
ATOM     93  C   UNL A   1      44.721  39.492  34.397  1.00  0.00     0.135 A 
ATOM     94  F   UNL A   1      42.773  39.758  31.332  1.00  0.00    -0.206 F 
ATOM     95  C   UNL A   1      43.517  41.431  32.801  1.00  0.00     0.059 A 
ATOM     96  C   UNL A   1      44.792  40.828  34.777  1.00  0.00     0.059 A 
ATOM     97  F   UNL A   1      45.312  38.580  35.184  1.00  0.00    -0.206 F 
ATOM     98  C   UNL A   1      44.197  41.792  33.966  1.00  0.00     0.060 A 
BRANCH  98  99
ATOM     99  S   UNL A   1      44.269  43.537  34.420  1.00  0.00     0.124 S 
ATOM    100  O   UNL A   1      44.772  44.141  33.190  1.00  0.00    -0.237 OA
ATOM    101  O   UNL A   1      42.877  43.832  34.747  1.00  0.00    -0.237 OA
ATOM    102  O   UNL A   1      45.191  43.558  35.552  1.00  0.00    -0.744 OA
ENDBRANCH  98  99
ENDBRANCH  66  91
ENDBRANCH  40  41
ENDBRANCH  32  35
ENDBRANCH  30  31
ENDBRANCH  29  30
ENDBRANCH  28  29
ENDBRANCH  27  28
ENDBRANCH  26  27
ENDBRANCH  25  26
ENDBRANCH  23  25
ENDBRANCH   1  21
TORSDOF 29
ENDMDL
MODEL 3
REMARK VINA RESULT:      -7.5      4.941     10.939
REMARK SMILES CC/C=C/C/C=C/C/C=C/C/C=C/CC/C=C/COCC(=O)NCCCCCCNC(=O)c1ccc(-c2c3nc(c(-c4c(F)cc(S(=O)(=O)[O-])cc4F)c4ccc([nH]4)c(-c4c(F)cc(S(=O)(=O)[O-])cc4F)c4nc(c(-c5c(F)cc(S(=O)(=O)[O-])cc5F)c5ccc2[nH]5)C=C4)C=C3)cc1
REMARK SMILES IDX 20 1 19 2 18 3 17 4 16 5 15 6 14 7 13 8 12 9 11 10 10 11
REMARK SMILES IDX 9 12 8 13 7 14 6 15 5 16 4 17 3 18 2 19 1 20 21 21 22 22
REMARK SMILES IDX 23 23 24 25 25 26 26 27 27 28 28 29 29 30 30 31 31 32 32 34
REMARK SMILES IDX 33 35 34 36 98 37 35 38 97 39 36 40 37 41 38 42 91 43 39 44
REMARK SMILES IDX 96 45 90 46 92 47 40 48 95 49 89 50 88 51 41 53 75 54 54 55
REMARK SMILES IDX 74 56 55 57 58 58 73 59 93 60 56 61 57 62 72 64 94 65 59 66
REMARK SMILES IDX 42 67 43 68 52 69 44 70 45 71 51 72 53 73 46 74 47 75 48 76
REMARK SMILES IDX 49 77 50 78 76 79 77 80 86 81 78 82 79 83 85 84 87 85 80 86
REMARK SMILES IDX 81 87 82 88 83 89 84 90 60 91 61 92 70 93 62 94 63 95 69 96
REMARK SMILES IDX 71 97 64 98 65 99 66 100 67 101 68 102
REMARK H PARENT 23 24 30 33 92 52 58 63
REMARK Flexibility Score: inf
ROOT
ATOM      1  C   UNL A   1      38.186  29.384  32.247  1.00  0.00     0.260 C 
ENDROOT
BRANCH   1   2
ATOM      2  O   UNL A   1      36.882  29.808  32.625  1.00  0.00    -0.368 OA
BRANCH   2   3
ATOM      3  C   UNL A   1      36.442  30.999  31.974  1.00  0.00     0.188 C 
BRANCH   3   4
ATOM      4  C   UNL A   1      36.233  30.738  30.516  1.00  0.00    -0.003 C 
ATOM      5  C   UNL A   1      36.651  31.578  29.558  1.00  0.00    -0.029 C 
BRANCH   5   6
ATOM      6  C   UNL A   1      36.307  31.446  28.101  1.00  0.00     0.031 C 
BRANCH   6   7
ATOM      7  C   UNL A   1      36.233  29.978  27.651  1.00  0.00     0.031 C 
BRANCH   7   8
ATOM      8  C   UNL A   1      34.821  29.470  27.536  1.00  0.00    -0.031 C 
ATOM      9  C   UNL A   1      34.334  28.816  26.469  1.00  0.00    -0.027 C 
BRANCH   9  10
ATOM     10  C   UNL A   1      32.906  28.368  26.348  1.00  0.00     0.054 C 
BRANCH  10  11
ATOM     11  C   UNL A   1      31.975  29.501  26.676  1.00  0.00    -0.027 C 
ATOM     12  C   UNL A   1      31.976  30.684  26.041  1.00  0.00    -0.027 C 
BRANCH  12  13
ATOM     13  C   UNL A   1      31.077  31.832  26.398  1.00  0.00     0.054 C 
BRANCH  13  14
ATOM     14  C   UNL A   1      31.886  32.997  26.896  1.00  0.00    -0.027 C 
ATOM     15  C   UNL A   1      32.993  32.880  27.647  1.00  0.00    -0.027 C 
BRANCH  15  16
ATOM     16  C   UNL A   1      33.784  34.044  28.168  1.00  0.00     0.054 C 
BRANCH  16  17
ATOM     17  C   UNL A   1      33.163  34.592  29.421  1.00  0.00    -0.027 C 
ATOM     18  C   UNL A   1      33.240  35.877  29.801  1.00  0.00    -0.031 C 
BRANCH  18  19
ATOM     19  C   UNL A   1      32.628  36.415  31.062  1.00  0.00     0.023 C 
ATOM     20  C   UNL A   1      33.617  37.281  31.827  1.00  0.00     0.008 C 
ENDBRANCH  18  19
ENDBRANCH  16  17
ENDBRANCH  15  16
ENDBRANCH  13  14
ENDBRANCH  12  13
ENDBRANCH  10  11
ENDBRANCH   9  10
ENDBRANCH   7   8
ENDBRANCH   6   7
ENDBRANCH   5   6
ENDBRANCH   3   4
ENDBRANCH   2   3
ENDBRANCH   1   2
BRANCH   1  21
ATOM     21  C   UNL A   1      38.405  27.885  32.009  1.00  0.00     0.246 C 
ATOM     22  O   UNL A   1      38.401  27.067  32.929  1.00  0.00    -0.272 OA
ATOM     23  N   UNL A   1      38.583  27.444  30.729  1.00  0.00    -0.354 N 
ATOM     24  H   UNL A   1      38.640  26.468  30.613  1.00  0.00     0.163 HD
BRANCH  23  25
ATOM     25  C   UNL A   1      38.700  28.238  29.519  1.00  0.00     0.116 C 
BRANCH  25  26
ATOM     26  C   UNL A   1      39.231  27.398  28.359  1.00  0.00     0.021 C 
BRANCH  26  27
ATOM     27  C   UNL A   1      39.322  25.895  28.660  1.00  0.00     0.002 C 
BRANCH  27  28
ATOM     28  C   UNL A   1      40.249  25.101  27.734  1.00  0.00     0.002 C 
BRANCH  28  29
ATOM     29  C   UNL A   1      40.844  25.901  26.574  1.00  0.00     0.021 C 
BRANCH  29  30
ATOM     30  C   UNL A   1      42.359  26.064  26.625  1.00  0.00     0.116 C 
BRANCH  30  31
ATOM     31  N   UNL A   1      42.980  25.134  27.557  1.00  0.00    -0.352 N 
ATOM     32  C   UNL A   1      43.648  25.394  28.727  1.00  0.00     0.251 C 
ATOM     33  H   UNL A   1      42.911  24.183  27.312  1.00  0.00     0.163 HD
ATOM     34  O   UNL A   1      44.276  24.496  29.285  1.00  0.00    -0.269 OA
BRANCH  32  35
ATOM     35  C   UNL A   1      43.629  26.756  29.302  1.00  0.00     0.039 A 
ATOM     36  C   UNL A   1      44.803  27.275  29.853  1.00  0.00     0.014 A 
ATOM     37  C   UNL A   1      42.459  27.522  29.298  1.00  0.00     0.014 A 
ATOM     38  C   UNL A   1      44.820  28.583  30.341  1.00  0.00     0.010 A 
ATOM     39  C   UNL A   1      42.498  28.850  29.712  1.00  0.00     0.010 A 
ATOM     40  C   UNL A   1      43.678  29.395  30.240  1.00  0.00    -0.014 A 
BRANCH  40  41
ATOM     41  C   UNL A   1      43.706  30.818  30.670  1.00  0.00     0.031 A 
ATOM     42  C   UNL A   1      44.656  31.790  30.023  1.00  0.00     0.074 A 
ATOM     43  C   UNL A   1      42.918  31.221  31.688  1.00  0.00     0.049 A 
ATOM     44  N   UNL A   1      44.863  33.052  30.301  1.00  0.00    -0.248 NA
ATOM     45  C   UNL A   1      45.503  31.270  28.937  1.00  0.00     0.031 C 
ATOM     46  C   UNL A   1      41.991  30.363  32.429  1.00  0.00     0.029 A 
ATOM     47  N   UNL A   1      42.775  32.450  32.282  1.00  0.00    -0.354 N 
ATOM     48  C   UNL A   1      45.867  33.472  29.437  1.00  0.00     0.074 A 
ATOM     49  C   UNL A   1      46.266  32.318  28.662  1.00  0.00     0.031 C 
ATOM     50  C   UNL A   1      41.361  31.095  33.362  1.00  0.00     0.029 A 
ATOM     51  C   UNL A   1      41.868  32.463  33.316  1.00  0.00     0.049 A 
ATOM     52  H   UNL A   1      43.276  33.248  31.995  1.00  0.00     0.167 HD
ATOM     53  C   UNL A   1      46.394  34.712  29.289  1.00  0.00     0.037 A 
ATOM     54  C   UNL A   1      41.493  33.459  34.143  1.00  0.00     0.037 A 
ATOM     55  C   UNL A   1      45.978  35.860  30.052  1.00  0.00     0.049 A 
ATOM     56  C   UNL A   1      42.099  34.826  33.963  1.00  0.00     0.074 A 
ATOM     57  C   UNL A   1      46.405  37.171  29.935  1.00  0.00     0.029 A 
ATOM     58  N   UNL A   1      45.045  35.836  31.080  1.00  0.00    -0.354 N 
ATOM     59  N   UNL A   1      42.996  35.221  33.092  1.00  0.00    -0.248 NA
ATOM     60  C   UNL A   1      41.638  35.882  34.874  1.00  0.00     0.031 C 
ATOM     61  C   UNL A   1      45.776  37.928  30.927  1.00  0.00     0.029 A 
ATOM     62  C   UNL A   1      44.905  37.103  31.623  1.00  0.00     0.049 A 
ATOM     63  H   UNL A   1      44.555  35.036  31.378  1.00  0.00     0.167 HD
ATOM     64  C   UNL A   1      43.184  36.579  33.330  1.00  0.00     0.074 A 
ATOM     65  C   UNL A   1      42.298  36.937  34.418  1.00  0.00     0.031 C 
ATOM     66  C   UNL A   1      44.014  37.449  32.703  1.00  0.00     0.037 A 
BRANCH  53  67
ATOM     67  C   UNL A   1      47.479  34.896  28.261  1.00  0.00     0.058 A 
ATOM     68  C   UNL A   1      48.840  34.816  28.600  1.00  0.00     0.135 A 
ATOM     69  C   UNL A   1      47.154  35.108  26.911  1.00  0.00     0.135 A 
ATOM     70  F   UNL A   1      49.211  34.629  29.877  1.00  0.00    -0.206 F 
ATOM     71  C   UNL A   1      49.839  34.969  27.644  1.00  0.00     0.059 A 
ATOM     72  C   UNL A   1      48.137  35.232  25.932  1.00  0.00     0.059 A 
ATOM     73  F   UNL A   1      45.871  35.193  26.530  1.00  0.00    -0.206 F 
ATOM     74  C   UNL A   1      49.477  35.174  26.311  1.00  0.00     0.060 A 
BRANCH  74  75
ATOM     75  S   UNL A   1      50.787  35.359  25.083  1.00  0.00     0.124 S 
ATOM     76  O   UNL A   1      50.846  34.015  24.515  1.00  0.00    -0.237 OA
ATOM     77  O   UNL A   1      50.247  36.394  24.206  1.00  0.00    -0.237 OA
ATOM     78  O   UNL A   1      51.945  35.755  25.877  1.00  0.00    -0.744 OA
ENDBRANCH  74  75
ENDBRANCH  53  67
BRANCH  54  79
ATOM     79  C   UNL A   1      40.484  33.204  35.206  1.00  0.00     0.058 A 
ATOM     80  C   UNL A   1      40.874  32.966  36.533  1.00  0.00     0.135 A 
ATOM     81  C   UNL A   1      39.109  33.205  34.921  1.00  0.00     0.135 A 
ATOM     82  F   UNL A   1      42.176  32.948  36.856  1.00  0.00    -0.206 F 
ATOM     83  C   UNL A   1      39.941  32.718  37.535  1.00  0.00     0.059 A 
ATOM     84  C   UNL A   1      38.156  32.990  35.911  1.00  0.00     0.059 A 
ATOM     85  F   UNL A   1      38.681  33.445  33.671  1.00  0.00    -0.206 F 
ATOM     86  C   UNL A   1      38.582  32.735  37.213  1.00  0.00     0.060 A 
BRANCH  86  87
ATOM     87  S   UNL A   1      37.377  32.458  38.530  1.00  0.00     0.124 S 
ATOM     88  O   UNL A   1      37.232  31.007  38.495  1.00  0.00    -0.237 OA
ATOM     89  O   UNL A   1      38.068  33.003  39.695  1.00  0.00    -0.237 OA
ATOM     90  O   UNL A   1      36.214  33.220  38.086  1.00  0.00    -0.744 OA
ENDBRANCH  86  87
ENDBRANCH  54  79
BRANCH  66  91
ATOM     91  C   UNL A   1      43.981  38.887  33.148  1.00  0.00     0.058 A 
ATOM     92  C   UNL A   1      44.624  39.316  34.320  1.00  0.00     0.135 A 
ATOM     93  C   UNL A   1      43.340  39.858  32.361  1.00  0.00     0.135 A 
ATOM     94  F   UNL A   1      45.247  38.428  35.113  1.00  0.00    -0.206 F 
ATOM     95  C   UNL A   1      44.612  40.652  34.708  1.00  0.00     0.059 A 
ATOM     96  C   UNL A   1      43.342  41.203  32.714  1.00  0.00     0.059 A 
ATOM     97  F   UNL A   1      42.717  39.504  31.226  1.00  0.00    -0.206 F 
ATOM     98  C   UNL A   1      43.970  41.589  33.896  1.00  0.00     0.060 A 
BRANCH  98  99
ATOM     99  S   UNL A   1      43.993  43.324  34.394  1.00  0.00     0.124 S 
ATOM    100  O   UNL A   1      42.604  43.535  34.788  1.00  0.00    -0.237 OA
ATOM    101  O   UNL A   1      44.967  43.323  35.481  1.00  0.00    -0.237 OA
ATOM    102  O   UNL A   1      44.415  44.021  33.182  1.00  0.00    -0.744 OA
ENDBRANCH  98  99
ENDBRANCH  66  91
ENDBRANCH  40  41
ENDBRANCH  32  35
ENDBRANCH  30  31
ENDBRANCH  29  30
ENDBRANCH  28  29
ENDBRANCH  27  28
ENDBRANCH  26  27
ENDBRANCH  25  26
ENDBRANCH  23  25
ENDBRANCH   1  21
TORSDOF 29
ENDMDL
