MODEL 1
REMARK VINA RESULT:     -11.3      0.000      0.000
REMARK SMILES CS(=O)(=O)Nc1ccc(-c2cc(Cl)cc3c2O[C@H](C(F)(F)F)C(C(=O)NCCCCCCNC(=O)c2ccc(-c4c5nc(c(-c6c(F)cc(S(=O)(=O)[O-])cc6F)c6ccc([nH]6)c(-c6c(F)cc(S(=O)(=O)[O-])cc6F)c6nc(c(-c7c(F)cc(S(=O)(=O)[O-])cc7F)c7ccc4[nH]7)C=C6)C=C5)cc2)=C3)cc1
REMARK SMILES IDX 29 1 28 2 27 3 26 4 24 5 25 6 23 8 10 9 11 10 16 11 12 12
REMARK SMILES IDX 15 13 17 14 13 15 14 16 102 17 18 18 9 19 6 20 7 21 104 22
REMARK SMILES IDX 8 23 103 24 5 25 2 27 1 28 3 29 4 30 19 31 20 32 21 33 22 34
REMARK SMILES IDX 30 35 31 36 32 37 33 38 34 39 35 41 36 42 37 43 101 44 38 45
REMARK SMILES IDX 100 46 39 47 40 48 41 49 94 50 42 51 99 52 93 53 95 54 43 55
REMARK SMILES IDX 98 56 92 57 91 58 44 60 78 61 57 62 77 63 58 64 61 65 76 66
REMARK SMILES IDX 96 67 59 68 60 69 75 71 97 72 62 73 45 74 46 75 55 76 47 77
REMARK SMILES IDX 48 78 54 79 56 80 49 81 50 82 51 83 52 84 53 85 79 86 80 87
REMARK SMILES IDX 89 88 81 89 82 90 88 91 90 92 83 93 84 94 85 95 86 96 87 97
REMARK SMILES IDX 63 98 64 99 73 100 65 101 66 102 72 103 74 104 67 105 68 106
REMARK SMILES IDX 69 107 70 108 71 109
REMARK H PARENT 26 7 5 26 33 40 95 59 61 70
REMARK Flexibility Score: inf
ROOT
ATOM      1  C   UNL A   1      46.522  24.168  26.573  1.00  0.00     0.002 C 
ENDROOT
BRANCH   1   2
ATOM      2  C   UNL A   1      45.992  24.048  28.012  1.00  0.00     0.021 C 
BRANCH   2   3
ATOM      3  C   UNL A   1      44.723  23.195  28.162  1.00  0.00     0.116 C 
BRANCH   3   4
ATOM      4  N   UNL A   1      43.707  23.666  27.241  1.00  0.00    -0.352 N 
ATOM      5  C   UNL A   1      43.003  22.883  26.385  1.00  0.00     0.251 C 
ATOM      6  O   UNL A   1      42.908  23.195  25.205  1.00  0.00    -0.270 OA
ATOM      7  H   UNL A   1      43.513  24.631  27.236  1.00  0.00     0.163 HD
BRANCH   5   8
ATOM      8  C   UNL A   1      42.228  21.764  26.999  1.00  0.00     0.067 C 
ATOM      9  C   UNL A   1      38.469  23.006  26.085  1.00  0.00     0.026 A 
ATOM     10  C   UNL A   1      38.437  24.400  26.369  1.00  0.00     0.033 A 
ATOM     11  C   UNL A   1      39.573  22.302  26.593  1.00  0.00     0.135 A 
ATOM     12  C   UNL A   1      39.325  25.013  27.248  1.00  0.00     0.042 A 
ATOM     13  C   UNL A   1      40.385  22.913  27.582  1.00  0.00     0.019 A 
ATOM     14  O   UNL A   1      39.964  21.052  26.127  1.00  0.00    -0.475 OA
ATOM     15  Cl  UNL A   1      39.234  26.709  27.511  1.00  0.00    -0.084 Cl
ATOM     16  C   UNL A   1      40.256  24.254  27.926  1.00  0.00     0.032 A 
ATOM     17  C   UNL A   1      41.544  22.149  28.094  1.00  0.00     0.025 C 
ATOM     18  C   UNL A   1      41.452  20.897  26.018  1.00  0.00     0.314 C 
BRANCH   9  19
ATOM     19  C   UNL A   1      37.208  22.470  25.493  1.00  0.00    -0.014 A 
ATOM     20  C   UNL A   1      34.561  22.821  24.494  1.00  0.00     0.048 A 
ATOM     21  C   UNL A   1      35.659  22.828  23.631  1.00  0.00     0.027 A 
ATOM     22  C   UNL A   1      34.772  22.463  25.823  1.00  0.00     0.027 A 
ATOM     23  C   UNL A   1      36.960  22.619  24.115  1.00  0.00     0.011 A 
ATOM     24  C   UNL A   1      36.083  22.281  26.317  1.00  0.00     0.011 A 
BRANCH  20  25
ATOM     25  N   UNL A   1      33.353  23.380  23.979  1.00  0.00    -0.284 N 
ATOM     26  H   UNL A   1      32.660  22.735  23.707  1.00  0.00     0.180 HD
BRANCH  25  27
ATOM     27  S   UNL A   1      32.975  24.984  23.782  1.00  0.00     0.229 S 
ATOM     28  C   UNL A   1      33.152  25.265  22.028  1.00  0.00     0.183 C 
ATOM     29  O   UNL A   1      33.932  25.803  24.493  1.00  0.00    -0.207 OA
ATOM     30  O   UNL A   1      31.560  25.070  24.079  1.00  0.00    -0.207 OA
ENDBRANCH  25  27
ENDBRANCH  20  25
ENDBRANCH   9  19
BRANCH  18  31
ATOM     31  C   UNL A   1      41.903  19.433  26.229  1.00  0.00     0.429 C 
ATOM     32  F   UNL A   1      42.200  19.161  27.519  1.00  0.00    -0.167 F 
ATOM     33  F   UNL A   1      40.943  18.564  25.834  1.00  0.00    -0.167 F 
ATOM     34  F   UNL A   1      43.012  19.124  25.506  1.00  0.00    -0.167 F 
ENDBRANCH  18  31
ENDBRANCH   5   8
ENDBRANCH   3   4
ENDBRANCH   2   3
ENDBRANCH   1   2
BRANCH   1  35
ATOM     35  C   UNL A   1      47.418  25.381  26.318  1.00  0.00     0.002 C 
BRANCH  35  36
ATOM     36  C   UNL A   1      46.956  26.279  25.171  1.00  0.00     0.021 C 
BRANCH  36  37
ATOM     37  C   UNL A   1      45.790  27.198  25.519  1.00  0.00     0.116 C 
BRANCH  37  38
ATOM     38  N   UNL A   1      44.549  26.782  24.885  1.00  0.00    -0.352 N 
ATOM     39  C   UNL A   1      43.273  26.817  25.391  1.00  0.00     0.251 C 
ATOM     40  H   UNL A   1      44.636  26.427  23.972  1.00  0.00     0.163 HD
ATOM     41  O   UNL A   1      42.356  26.266  24.790  1.00  0.00    -0.269 OA
BRANCH  39  42
ATOM     42  C   UNL A   1      43.021  27.503  26.675  1.00  0.00     0.039 A 
ATOM     43  C   UNL A   1      43.045  28.899  26.713  1.00  0.00     0.014 A 
ATOM     44  C   UNL A   1      42.738  26.769  27.831  1.00  0.00     0.014 A 
ATOM     45  C   UNL A   1      42.729  29.560  27.902  1.00  0.00     0.010 A 
ATOM     46  C   UNL A   1      42.344  27.431  28.989  1.00  0.00     0.010 A 
ATOM     47  C   UNL A   1      42.343  28.832  29.040  1.00  0.00    -0.014 A 
BRANCH  47  48
ATOM     48  C   UNL A   1      41.937  29.521  30.291  1.00  0.00     0.031 A 
ATOM     49  C   UNL A   1      42.734  29.327  31.553  1.00  0.00     0.074 A 
ATOM     50  C   UNL A   1      40.817  30.270  30.307  1.00  0.00     0.049 A 
ATOM     51  N   UNL A   1      42.508  29.797  32.753  1.00  0.00    -0.248 NA
ATOM     52  C   UNL A   1      43.925  28.468  31.459  1.00  0.00     0.031 C 
ATOM     53  C   UNL A   1      39.931  30.491  29.162  1.00  0.00     0.029 A 
ATOM     54  N   UNL A   1      40.225  30.978  31.323  1.00  0.00    -0.354 N 
ATOM     55  C   UNL A   1      43.520  29.285  33.556  1.00  0.00     0.074 A 
ATOM     56  C   UNL A   1      44.322  28.417  32.721  1.00  0.00     0.031 C 
ATOM     57  C   UNL A   1      38.924  31.296  29.533  1.00  0.00     0.029 A 
ATOM     58  C   UNL A   1      39.066  31.617  30.950  1.00  0.00     0.049 A 
ATOM     59  H   UNL A   1      40.596  31.023  32.234  1.00  0.00     0.167 HD
ATOM     60  C   UNL A   1      43.775  29.535  34.863  1.00  0.00     0.037 A 
ATOM     61  C   UNL A   1      38.210  32.368  31.668  1.00  0.00     0.037 A 
ATOM     62  C   UNL A   1      42.976  30.410  35.683  1.00  0.00     0.049 A 
ATOM     63  C   UNL A   1      38.504  32.628  33.120  1.00  0.00     0.074 A 
ATOM     64  C   UNL A   1      43.176  30.772  37.003  1.00  0.00     0.029 A 
ATOM     65  N   UNL A   1      41.819  31.053  35.264  1.00  0.00    -0.354 N 
ATOM     66  N   UNL A   1      39.504  32.191  33.849  1.00  0.00    -0.248 NA
ATOM     67  C   UNL A   1      37.560  33.488  33.846  1.00  0.00     0.031 C 
ATOM     68  C   UNL A   1      42.112  31.590  37.398  1.00  0.00     0.029 A 
ATOM     69  C   UNL A   1      41.281  31.789  36.307  1.00  0.00     0.049 A 
ATOM     70  H   UNL A   1      41.437  30.995  34.358  1.00  0.00     0.167 HD
ATOM     71  C   UNL A   1      39.325  32.744  35.112  1.00  0.00     0.074 A 
ATOM     72  C   UNL A   1      38.127  33.556  35.044  1.00  0.00     0.031 C 
ATOM     73  C   UNL A   1      40.085  32.594  36.226  1.00  0.00     0.037 A 
BRANCH  60  74
ATOM     74  C   UNL A   1      44.963  28.847  35.483  1.00  0.00     0.058 A 
ATOM     75  C   UNL A   1      44.852  27.586  36.094  1.00  0.00     0.135 A 
ATOM     76  C   UNL A   1      46.230  29.450  35.460  1.00  0.00     0.135 A 
ATOM     77  F   UNL A   1      43.661  26.967  36.158  1.00  0.00    -0.206 F 
ATOM     78  C   UNL A   1      45.942  26.971  36.700  1.00  0.00     0.059 A 
ATOM     79  C   UNL A   1      47.343  28.836  36.030  1.00  0.00     0.059 A 
ATOM     80  F   UNL A   1      46.398  30.651  34.888  1.00  0.00    -0.206 F 
ATOM     81  C   UNL A   1      47.183  27.607  36.667  1.00  0.00     0.060 A 
BRANCH  81  82
ATOM     82  S   UNL A   1      48.583  26.805  37.477  1.00  0.00     0.124 S 
ATOM     83  O   UNL A   1      49.469  26.556  36.344  1.00  0.00    -0.237 OA
ATOM     84  O   UNL A   1      49.028  27.828  38.417  1.00  0.00    -0.237 OA
ATOM     85  O   UNL A   1      47.991  25.616  38.082  1.00  0.00    -0.744 OA
ENDBRANCH  81  82
ENDBRANCH  60  74
BRANCH  61  86
ATOM     86  C   UNL A   1      37.007  32.945  31.008  1.00  0.00     0.058 A 
ATOM     87  C   UNL A   1      35.726  32.436  31.264  1.00  0.00     0.135 A 
ATOM     88  C   UNL A   1      37.112  34.044  30.141  1.00  0.00     0.135 A 
ATOM     89  F   UNL A   1      35.575  31.382  32.080  1.00  0.00    -0.206 F 
ATOM     90  C   UNL A   1      34.591  32.992  30.683  1.00  0.00     0.059 A 
ATOM     91  C   UNL A   1      35.990  34.634  29.568  1.00  0.00     0.059 A 
ATOM     92  F   UNL A   1      38.314  34.579  29.875  1.00  0.00    -0.206 F 
ATOM     93  C   UNL A   1      34.733  34.097  29.841  1.00  0.00     0.060 A 
BRANCH  93  94
ATOM     94  S   UNL A   1      33.246  34.857  29.153  1.00  0.00     0.124 S 
ATOM     95  O   UNL A   1      33.784  36.082  28.571  1.00  0.00    -0.237 OA
ATOM     96  O   UNL A   1      32.795  33.843  28.206  1.00  0.00    -0.237 OA
ATOM     97  O   UNL A   1      32.390  35.037  30.322  1.00  0.00    -0.744 OA
ENDBRANCH  93  94
ENDBRANCH  61  86
BRANCH  73  98
ATOM     98  C   UNL A   1      39.665  33.346  37.459  1.00  0.00     0.058 A 
ATOM     99  C   UNL A   1      38.695  32.845  38.340  1.00  0.00     0.135 A 
ATOM    100  C   UNL A   1      40.285  34.563  37.792  1.00  0.00     0.135 A 
ATOM    101  F   UNL A   1      38.067  31.691  38.067  1.00  0.00    -0.206 F 
ATOM    102  C   UNL A   1      38.335  33.533  39.495  1.00  0.00     0.059 A 
ATOM    103  C   UNL A   1      39.964  35.253  38.956  1.00  0.00     0.059 A 
ATOM    104  F   UNL A   1      41.227  35.084  36.990  1.00  0.00    -0.206 F 
ATOM    105  C   UNL A   1      38.979  34.736  39.796  1.00  0.00     0.060 A 
BRANCH 105 106
ATOM    106  S   UNL A   1      38.528  35.601  41.315  1.00  0.00     0.124 S 
ATOM    107  O   UNL A   1      39.630  35.239  42.199  1.00  0.00    -0.237 OA
ATOM    108  O   UNL A   1      38.494  36.995  40.882  1.00  0.00    -0.237 OA
ATOM    109  O   UNL A   1      37.230  35.028  41.661  1.00  0.00    -0.744 OA
ENDBRANCH 105 106
ENDBRANCH  73  98
ENDBRANCH  47  48
ENDBRANCH  39  42
ENDBRANCH  37  38
ENDBRANCH  36  37
ENDBRANCH  35  36
ENDBRANCH   1  35
TORSDOF 20
ENDMDL
MODEL 2
REMARK VINA RESULT:     -11.0      4.543     10.923
REMARK SMILES CS(=O)(=O)Nc1ccc(-c2cc(Cl)cc3c2O[C@H](C(F)(F)F)C(C(=O)NCCCCCCNC(=O)c2ccc(-c4c5nc(c(-c6c(F)cc(S(=O)(=O)[O-])cc6F)c6ccc([nH]6)c(-c6c(F)cc(S(=O)(=O)[O-])cc6F)c6nc(c(-c7c(F)cc(S(=O)(=O)[O-])cc7F)c7ccc4[nH]7)C=C6)C=C5)cc2)=C3)cc1
REMARK SMILES IDX 29 1 28 2 27 3 26 4 24 5 25 6 23 8 10 9 11 10 16 11 12 12
REMARK SMILES IDX 15 13 17 14 13 15 14 16 102 17 18 18 9 19 6 20 7 21 104 22
REMARK SMILES IDX 8 23 103 24 5 25 2 27 1 28 3 29 4 30 19 31 20 32 21 33 22 34
REMARK SMILES IDX 30 35 31 36 32 37 33 38 34 39 35 41 36 42 37 43 101 44 38 45
REMARK SMILES IDX 100 46 39 47 40 48 41 49 94 50 42 51 99 52 93 53 95 54 43 55
REMARK SMILES IDX 98 56 92 57 91 58 44 60 78 61 57 62 77 63 58 64 61 65 76 66
REMARK SMILES IDX 96 67 59 68 60 69 75 71 97 72 62 73 45 74 46 75 55 76 47 77
REMARK SMILES IDX 48 78 54 79 56 80 49 81 50 82 51 83 52 84 53 85 79 86 80 87
REMARK SMILES IDX 89 88 81 89 82 90 88 91 90 92 83 93 84 94 85 95 86 96 87 97
REMARK SMILES IDX 63 98 64 99 73 100 65 101 66 102 72 103 74 104 67 105 68 106
REMARK SMILES IDX 69 107 70 108 71 109
REMARK H PARENT 26 7 5 26 33 40 95 59 61 70
REMARK Flexibility Score: inf
ROOT
ATOM      1  C   UNL A   1      38.926  34.956  36.029  1.00  0.00     0.002 C 
ENDROOT
BRANCH   1   2
ATOM      2  C   UNL A   1      39.167  34.725  34.527  1.00  0.00     0.021 C 
BRANCH   2   3
ATOM      3  C   UNL A   1      37.953  34.188  33.756  1.00  0.00     0.116 C 
BRANCH   3   4
ATOM      4  N   UNL A   1      38.090  32.758  33.561  1.00  0.00    -0.352 N 
ATOM      5  C   UNL A   1      37.768  32.088  32.426  1.00  0.00     0.251 C 
ATOM      6  O   UNL A   1      37.070  31.083  32.482  1.00  0.00    -0.270 OA
ATOM      7  H   UNL A   1      38.443  32.231  34.313  1.00  0.00     0.163 HD
BRANCH   5   8
ATOM      8  C   UNL A   1      38.455  32.536  31.178  1.00  0.00     0.067 C 
ATOM      9  C   UNL A   1      39.531  28.908  29.697  1.00  0.00     0.026 A 
ATOM     10  C   UNL A   1      40.040  28.169  30.801  1.00  0.00     0.033 A 
ATOM     11  C   UNL A   1      39.366  30.288  29.905  1.00  0.00     0.135 A 
ATOM     12  C   UNL A   1      40.527  28.775  31.956  1.00  0.00     0.042 A 
ATOM     13  C   UNL A   1      39.984  30.894  31.029  1.00  0.00     0.019 A 
ATOM     14  O   UNL A   1      38.565  31.093  29.104  1.00  0.00    -0.475 OA
ATOM     15  Cl  UNL A   1      41.096  27.804  33.255  1.00  0.00    -0.084 Cl
ATOM     16  C   UNL A   1      40.578  30.150  32.043  1.00  0.00     0.032 A 
ATOM     17  C   UNL A   1      39.789  32.347  31.225  1.00  0.00     0.025 C 
ATOM     18  C   UNL A   1      37.784  32.112  29.879  1.00  0.00     0.314 C 
BRANCH   9  19
ATOM     19  C   UNL A   1      39.474  28.141  28.417  1.00  0.00    -0.014 A 
ATOM     20  C   UNL A   1      40.532  26.216  26.600  1.00  0.00     0.048 A 
ATOM     21  C   UNL A   1      39.569  25.856  27.546  1.00  0.00     0.027 A 
ATOM     22  C   UNL A   1      40.831  27.568  26.450  1.00  0.00     0.027 A 
ATOM     23  C   UNL A   1      39.019  26.809  28.417  1.00  0.00     0.011 A 
ATOM     24  C   UNL A   1      40.301  28.524  27.345  1.00  0.00     0.011 A 
BRANCH  20  25
ATOM     25  N   UNL A   1      41.271  25.145  26.015  1.00  0.00    -0.284 N 
ATOM     26  H   UNL A   1      40.740  24.454  25.557  1.00  0.00     0.180 HD
BRANCH  25  27
ATOM     27  S   UNL A   1      42.916  24.921  26.015  1.00  0.00     0.229 S 
ATOM     28  C   UNL A   1      43.124  23.196  25.608  1.00  0.00     0.183 C 
ATOM     29  O   UNL A   1      43.443  25.163  27.340  1.00  0.00    -0.207 OA
ATOM     30  O   UNL A   1      43.392  25.681  24.878  1.00  0.00    -0.207 OA
ENDBRANCH  25  27
ENDBRANCH  20  25
ENDBRANCH   9  19
BRANCH  18  31
ATOM     31  C   UNL A   1      37.513  33.391  29.053  1.00  0.00     0.429 C 
ATOM     32  F   UNL A   1      36.694  33.165  28.001  1.00  0.00    -0.167 F 
ATOM     33  F   UNL A   1      36.948  34.356  29.816  1.00  0.00    -0.167 F 
ATOM     34  F   UNL A   1      38.652  33.930  28.544  1.00  0.00    -0.167 F 
ENDBRANCH  18  31
ENDBRANCH   5   8
ENDBRANCH   3   4
ENDBRANCH   2   3
ENDBRANCH   1   2
BRANCH   1  35
ATOM     35  C   UNL A   1      39.868  35.969  36.682  1.00  0.00     0.002 C 
BRANCH  35  36
ATOM     36  C   UNL A   1      39.664  36.146  38.186  1.00  0.00     0.021 C 
BRANCH  36  37
ATOM     37  C   UNL A   1      40.868  35.755  39.037  1.00  0.00     0.116 C 
BRANCH  37  38
ATOM     38  N   UNL A   1      40.612  34.575  39.848  1.00  0.00    -0.352 N 
ATOM     39  C   UNL A   1      40.690  33.252  39.488  1.00  0.00     0.251 C 
ATOM     40  H   UNL A   1      40.348  34.748  40.780  1.00  0.00     0.163 HD
ATOM     41  O   UNL A   1      40.273  32.381  40.246  1.00  0.00    -0.269 OA
BRANCH  39  42
ATOM     42  C   UNL A   1      41.255  32.891  38.172  1.00  0.00     0.039 A 
ATOM     43  C   UNL A   1      42.609  33.132  37.928  1.00  0.00     0.014 A 
ATOM     44  C   UNL A   1      40.456  32.294  37.193  1.00  0.00     0.014 A 
ATOM     45  C   UNL A   1      43.173  32.722  36.718  1.00  0.00     0.010 A 
ATOM     46  C   UNL A   1      41.039  31.813  36.025  1.00  0.00     0.010 A 
ATOM     47  C   UNL A   1      42.401  32.029  35.772  1.00  0.00    -0.014 A 
BRANCH  47  48
ATOM     48  C   UNL A   1      43.002  31.524  34.511  1.00  0.00     0.031 A 
ATOM     49  C   UNL A   1      43.571  30.132  34.448  1.00  0.00     0.074 A 
ATOM     50  C   UNL A   1      43.090  32.339  33.441  1.00  0.00     0.049 A 
ATOM     51  N   UNL A   1      44.183  29.534  33.460  1.00  0.00    -0.248 NA
ATOM     52  C   UNL A   1      43.463  29.318  35.670  1.00  0.00     0.031 C 
ATOM     53  C   UNL A   1      42.623  33.726  33.395  1.00  0.00     0.029 A 
ATOM     54  N   UNL A   1      43.612  32.124  32.190  1.00  0.00    -0.354 N 
ATOM     55  C   UNL A   1      44.540  28.280  33.940  1.00  0.00     0.074 A 
ATOM     56  C   UNL A   1      44.135  28.228  35.328  1.00  0.00     0.031 C 
ATOM     57  C   UNL A   1      42.858  34.230  32.173  1.00  0.00     0.029 A 
ATOM     58  C   UNL A   1      43.529  33.219  31.362  1.00  0.00     0.049 A 
ATOM     59  H   UNL A   1      44.009  31.267  31.913  1.00  0.00     0.167 HD
ATOM     60  C   UNL A   1      45.129  27.254  33.279  1.00  0.00     0.037 A 
ATOM     61  C   UNL A   1      43.954  33.393  30.095  1.00  0.00     0.037 A 
ATOM     62  C   UNL A   1      45.521  27.311  31.894  1.00  0.00     0.049 A 
ATOM     63  C   UNL A   1      44.613  32.245  29.381  1.00  0.00     0.074 A 
ATOM     64  C   UNL A   1      46.076  26.312  31.115  1.00  0.00     0.029 A 
ATOM     65  N   UNL A   1      45.404  28.432  31.083  1.00  0.00    -0.354 N 
ATOM     66  N   UNL A   1      44.883  31.041  29.828  1.00  0.00    -0.248 NA
ATOM     67  C   UNL A   1      45.019  32.474  27.987  1.00  0.00     0.031 C 
ATOM     68  C   UNL A   1      46.346  26.844  29.849  1.00  0.00     0.029 A 
ATOM     69  C   UNL A   1      45.902  28.156  29.819  1.00  0.00     0.049 A 
ATOM     70  H   UNL A   1      45.023  29.295  31.364  1.00  0.00     0.167 HD
ATOM     71  C   UNL A   1      45.466  30.361  28.764  1.00  0.00     0.074 A 
ATOM     72  C   UNL A   1      45.499  31.285  27.648  1.00  0.00     0.031 C 
ATOM     73  C   UNL A   1      45.929  29.087  28.716  1.00  0.00     0.037 A 
BRANCH  60  74
ATOM     74  C   UNL A   1      45.389  25.987  34.053  1.00  0.00     0.058 A 
ATOM     75  C   UNL A   1      46.642  25.716  34.627  1.00  0.00     0.135 A 
ATOM     76  C   UNL A   1      44.372  25.037  34.230  1.00  0.00     0.135 A 
ATOM     77  F   UNL A   1      47.658  26.582  34.479  1.00  0.00    -0.206 F 
ATOM     78  C   UNL A   1      46.891  24.528  35.307  1.00  0.00     0.059 A 
ATOM     79  C   UNL A   1      44.588  23.856  34.938  1.00  0.00     0.059 A 
ATOM     80  F   UNL A   1      43.153  25.244  33.708  1.00  0.00    -0.206 F 
ATOM     81  C   UNL A   1      45.858  23.602  35.453  1.00  0.00     0.060 A 
BRANCH  81  82
ATOM     82  S   UNL A   1      46.203  22.056  36.319  1.00  0.00     0.124 S 
ATOM     83  O   UNL A   1      45.399  21.109  35.552  1.00  0.00    -0.237 OA
ATOM     84  O   UNL A   1      47.648  21.929  36.168  1.00  0.00    -0.237 OA
ATOM     85  O   UNL A   1      45.737  22.316  37.678  1.00  0.00    -0.744 OA
ENDBRANCH  81  82
ENDBRANCH  60  74
BRANCH  61  86
ATOM     86  C   UNL A   1      43.741  34.702  29.422  1.00  0.00     0.058 A 
ATOM     87  C   UNL A   1      42.485  35.058  28.911  1.00  0.00     0.135 A 
ATOM     88  C   UNL A   1      44.779  35.641  29.315  1.00  0.00     0.135 A 
ATOM     89  F   UNL A   1      41.462  34.193  28.982  1.00  0.00    -0.206 F 
ATOM     90  C   UNL A   1      42.264  36.295  28.314  1.00  0.00     0.059 A 
ATOM     91  C   UNL A   1      44.577  36.894  28.746  1.00  0.00     0.059 A 
ATOM     92  F   UNL A   1      45.997  35.355  29.803  1.00  0.00    -0.206 F 
ATOM     93  C   UNL A   1      43.317  37.210  28.243  1.00  0.00     0.060 A 
BRANCH  93  94
ATOM     94  S   UNL A   1      42.999  38.841  27.534  1.00  0.00     0.124 S 
ATOM     95  O   UNL A   1      44.142  39.002  26.643  1.00  0.00    -0.237 OA
ATOM     96  O   UNL A   1      41.706  38.646  26.887  1.00  0.00    -0.237 OA
ATOM     97  O   UNL A   1      42.980  39.717  28.702  1.00  0.00    -0.744 OA
ENDBRANCH  93  94
ENDBRANCH  61  86
BRANCH  73  98
ATOM     98  C   UNL A   1      46.487  28.600  27.406  1.00  0.00     0.058 A 
ATOM     99  C   UNL A   1      45.655  28.198  26.349  1.00  0.00     0.135 A 
ATOM    100  C   UNL A   1      47.874  28.587  27.187  1.00  0.00     0.135 A 
ATOM    101  F   UNL A   1      44.322  28.185  26.507  1.00  0.00    -0.206 F 
ATOM    102  C   UNL A   1      46.178  27.778  25.131  1.00  0.00     0.059 A 
ATOM    103  C   UNL A   1      48.419  28.200  25.967  1.00  0.00     0.059 A 
ATOM    104  F   UNL A   1      48.717  28.970  28.160  1.00  0.00    -0.206 F 
ATOM    105  C   UNL A   1      47.563  27.786  24.948  1.00  0.00     0.060 A 
BRANCH 105 106
ATOM    106  S   UNL A   1      48.228  27.271  23.351  1.00  0.00     0.124 S 
ATOM    107  O   UNL A   1      48.198  25.818  23.473  1.00  0.00    -0.237 OA
ATOM    108  O   UNL A   1      47.268  27.848  22.414  1.00  0.00    -0.237 OA
ATOM    109  O   UNL A   1      49.557  27.872  23.325  1.00  0.00    -0.744 OA
ENDBRANCH 105 106
ENDBRANCH  73  98
ENDBRANCH  47  48
ENDBRANCH  39  42
ENDBRANCH  37  38
ENDBRANCH  36  37
ENDBRANCH  35  36
ENDBRANCH   1  35
TORSDOF 20
ENDMDL
MODEL 3
REMARK VINA RESULT:     -11.0      0.579      7.808
REMARK SMILES CS(=O)(=O)Nc1ccc(-c2cc(Cl)cc3c2O[C@H](C(F)(F)F)C(C(=O)NCCCCCCNC(=O)c2ccc(-c4c5nc(c(-c6c(F)cc(S(=O)(=O)[O-])cc6F)c6ccc([nH]6)c(-c6c(F)cc(S(=O)(=O)[O-])cc6F)c6nc(c(-c7c(F)cc(S(=O)(=O)[O-])cc7F)c7ccc4[nH]7)C=C6)C=C5)cc2)=C3)cc1
REMARK SMILES IDX 29 1 28 2 27 3 26 4 24 5 25 6 23 8 10 9 11 10 16 11 12 12
REMARK SMILES IDX 15 13 17 14 13 15 14 16 102 17 18 18 9 19 6 20 7 21 104 22
REMARK SMILES IDX 8 23 103 24 5 25 2 27 1 28 3 29 4 30 19 31 20 32 21 33 22 34
REMARK SMILES IDX 30 35 31 36 32 37 33 38 34 39 35 41 36 42 37 43 101 44 38 45
REMARK SMILES IDX 100 46 39 47 40 48 41 49 94 50 42 51 99 52 93 53 95 54 43 55
REMARK SMILES IDX 98 56 92 57 91 58 44 60 78 61 57 62 77 63 58 64 61 65 76 66
REMARK SMILES IDX 96 67 59 68 60 69 75 71 97 72 62 73 45 74 46 75 55 76 47 77
REMARK SMILES IDX 48 78 54 79 56 80 49 81 50 82 51 83 52 84 53 85 79 86 80 87
REMARK SMILES IDX 89 88 81 89 82 90 88 91 90 92 83 93 84 94 85 95 86 96 87 97
REMARK SMILES IDX 63 98 64 99 73 100 65 101 66 102 72 103 74 104 67 105 68 106
REMARK SMILES IDX 69 107 70 108 71 109
REMARK H PARENT 26 7 5 26 33 40 95 59 61 70
REMARK Flexibility Score: inf
ROOT
ATOM      1  C   UNL A   1      46.535  24.493  26.600  1.00  0.00     0.002 C 
ENDROOT
BRANCH   1   2
ATOM      2  C   UNL A   1      46.030  24.160  28.015  1.00  0.00     0.021 C 
BRANCH   2   3
ATOM      3  C   UNL A   1      44.810  23.228  28.060  1.00  0.00     0.116 C 
BRANCH   3   4
ATOM      4  N   UNL A   1      43.743  23.781  27.249  1.00  0.00    -0.352 N 
ATOM      5  C   UNL A   1      42.967  23.075  26.389  1.00  0.00     0.251 C 
ATOM      6  O   UNL A   1      42.798  23.474  25.244  1.00  0.00    -0.270 OA
ATOM      7  H   UNL A   1      43.568  24.746  27.327  1.00  0.00     0.163 HD
BRANCH   5   8
ATOM      8  C   UNL A   1      42.213  21.925  26.972  1.00  0.00     0.067 C 
ATOM      9  C   UNL A   1      38.429  23.144  26.132  1.00  0.00     0.026 A 
ATOM     10  C   UNL A   1      38.380  24.527  26.462  1.00  0.00     0.033 A 
ATOM     11  C   UNL A   1      39.547  22.439  26.607  1.00  0.00     0.135 A 
ATOM     12  C   UNL A   1      39.268  25.123  27.354  1.00  0.00     0.042 A 
ATOM     13  C   UNL A   1      40.360  23.028  27.609  1.00  0.00     0.019 A 
ATOM     14  O   UNL A   1      39.951  21.210  26.097  1.00  0.00    -0.475 OA
ATOM     15  Cl  UNL A   1      39.156  26.808  27.673  1.00  0.00    -0.084 Cl
ATOM     16  C   UNL A   1      40.215  24.356  27.997  1.00  0.00     0.032 A 
ATOM     17  C   UNL A   1      41.533  22.264  28.086  1.00  0.00     0.025 C 
ATOM     18  C   UNL A   1      41.440  21.080  25.970  1.00  0.00     0.314 C 
BRANCH   9  19
ATOM     19  C   UNL A   1      37.169  22.610  25.533  1.00  0.00    -0.014 A 
ATOM     20  C   UNL A   1      34.604  22.982  24.347  1.00  0.00     0.048 A 
ATOM     21  C   UNL A   1      35.744  22.826  23.555  1.00  0.00     0.027 A 
ATOM     22  C   UNL A   1      34.724  22.774  25.719  1.00  0.00     0.027 A 
ATOM     23  C   UNL A   1      37.003  22.606  24.135  1.00  0.00     0.011 A 
ATOM     24  C   UNL A   1      35.995  22.582  26.307  1.00  0.00     0.011 A 
BRANCH  20  25
ATOM     25  N   UNL A   1      33.461  23.539  23.701  1.00  0.00    -0.284 N 
ATOM     26  H   UNL A   1      32.974  22.939  23.091  1.00  0.00     0.180 HD
BRANCH  25  27
ATOM     27  S   UNL A   1      32.853  25.077  23.852  1.00  0.00     0.229 S 
ATOM     28  C   UNL A   1      31.888  25.022  25.353  1.00  0.00     0.183 C 
ATOM     29  O   UNL A   1      31.978  25.368  22.737  1.00  0.00    -0.207 OA
ATOM     30  O   UNL A   1      34.008  25.907  24.125  1.00  0.00    -0.207 OA
ENDBRANCH  25  27
ENDBRANCH  20  25
ENDBRANCH   9  19
BRANCH  18  31
ATOM     31  C   UNL A   1      41.913  19.616  26.128  1.00  0.00     0.429 C 
ATOM     32  F   UNL A   1      42.923  19.304  25.286  1.00  0.00    -0.167 F 
ATOM     33  F   UNL A   1      42.336  19.372  27.390  1.00  0.00    -0.167 F 
ATOM     34  F   UNL A   1      40.918  18.722  25.884  1.00  0.00    -0.167 F 
ENDBRANCH  18  31
ENDBRANCH   5   8
ENDBRANCH   3   4
ENDBRANCH   2   3
ENDBRANCH   1   2
BRANCH   1  35
ATOM     35  C   UNL A   1      47.321  25.800  26.490  1.00  0.00     0.002 C 
BRANCH  35  36
ATOM     36  C   UNL A   1      47.002  26.629  25.247  1.00  0.00     0.021 C 
BRANCH  36  37
ATOM     37  C   UNL A   1      45.860  27.623  25.427  1.00  0.00     0.116 C 
BRANCH  37  38
ATOM     38  N   UNL A   1      44.625  27.166  24.810  1.00  0.00    -0.352 N 
ATOM     39  C   UNL A   1      43.367  27.096  25.356  1.00  0.00     0.251 C 
ATOM     40  H   UNL A   1      44.702  26.865  23.876  1.00  0.00     0.163 HD
ATOM     41  O   UNL A   1      42.465  26.521  24.754  1.00  0.00    -0.269 OA
BRANCH  39  42
ATOM     42  C   UNL A   1      43.119  27.695  26.683  1.00  0.00     0.039 A 
ATOM     43  C   UNL A   1      43.228  29.080  26.831  1.00  0.00     0.014 A 
ATOM     44  C   UNL A   1      42.756  26.894  27.769  1.00  0.00     0.014 A 
ATOM     45  C   UNL A   1      42.917  29.667  28.060  1.00  0.00     0.010 A 
ATOM     46  C   UNL A   1      42.368  27.489  28.966  1.00  0.00     0.010 A 
ATOM     47  C   UNL A   1      42.452  28.880  29.126  1.00  0.00    -0.014 A 
BRANCH  47  48
ATOM     48  C   UNL A   1      42.051  29.495  30.417  1.00  0.00     0.031 A 
ATOM     49  C   UNL A   1      40.793  30.317  30.505  1.00  0.00     0.074 A 
ATOM     50  C   UNL A   1      42.850  29.365  31.494  1.00  0.00     0.049 A 
ATOM     51  N   UNL A   1      40.307  30.977  31.524  1.00  0.00    -0.248 NA
ATOM     52  C   UNL A   1      39.993  30.436  29.275  1.00  0.00     0.031 C 
ATOM     53  C   UNL A   1      44.121  28.638  31.521  1.00  0.00     0.029 A 
ATOM     54  N   UNL A   1      42.718  29.848  32.772  1.00  0.00    -0.354 N 
ATOM     55  C   UNL A   1      39.152  31.594  31.058  1.00  0.00     0.074 A 
ATOM     56  C   UNL A   1      39.047  31.284  29.648  1.00  0.00     0.031 C 
ATOM     57  C   UNL A   1      44.639  28.704  32.757  1.00  0.00     0.029 A 
ATOM     58  C   UNL A   1      43.762  29.510  33.601  1.00  0.00     0.049 A 
ATOM     59  H   UNL A   1      41.948  30.386  33.068  1.00  0.00     0.167 HD
ATOM     60  C   UNL A   1      38.247  32.332  31.746  1.00  0.00     0.037 A 
ATOM     61  C   UNL A   1      43.993  29.822  34.891  1.00  0.00     0.037 A 
ATOM     62  C   UNL A   1      38.355  32.627  33.152  1.00  0.00     0.049 A 
ATOM     63  C   UNL A   1      42.982  30.649  35.636  1.00  0.00     0.074 A 
ATOM     64  C   UNL A   1      37.469  33.319  33.956  1.00  0.00     0.029 A 
ATOM     65  N   UNL A   1      39.420  32.252  33.961  1.00  0.00    -0.354 N 
ATOM     66  N   UNL A   1      41.860  31.169  35.198  1.00  0.00    -0.248 NA
ATOM     67  C   UNL A   1      43.261  30.924  37.052  1.00  0.00     0.031 C 
ATOM     68  C   UNL A   1      38.021  33.412  35.238  1.00  0.00     0.029 A 
ATOM     69  C   UNL A   1      39.223  32.722  35.250  1.00  0.00     0.049 A 
ATOM     70  H   UNL A   1      40.199  31.728  33.664  1.00  0.00     0.167 HD
ATOM     71  C   UNL A   1      41.286  31.812  36.290  1.00  0.00     0.074 A 
ATOM     72  C   UNL A   1      42.181  31.604  37.411  1.00  0.00     0.031 C 
ATOM     73  C   UNL A   1      40.124  32.508  36.358  1.00  0.00     0.037 A 
BRANCH  60  74
ATOM     74  C   UNL A   1      37.067  32.873  30.982  1.00  0.00     0.058 A 
ATOM     75  C   UNL A   1      37.159  34.045  30.212  1.00  0.00     0.135 A 
ATOM     76  C   UNL A   1      35.831  32.208  31.011  1.00  0.00     0.135 A 
ATOM     77  F   UNL A   1      38.313  34.731  30.158  1.00  0.00    -0.206 F 
ATOM     78  C   UNL A   1      36.058  34.564  29.540  1.00  0.00     0.059 A 
ATOM     79  C   UNL A   1      34.724  32.691  30.317  1.00  0.00     0.059 A 
ATOM     80  F   UNL A   1      35.685  31.082  31.725  1.00  0.00    -0.206 F 
ATOM     81  C   UNL A   1      34.843  33.881  29.602  1.00  0.00     0.060 A 
BRANCH  81  82
ATOM     82  S   UNL A   1      33.418  34.580  28.741  1.00  0.00     0.124 S 
ATOM     83  O   UNL A   1      34.023  35.719  28.057  1.00  0.00    -0.237 OA
ATOM     84  O   UNL A   1      32.998  33.476  27.884  1.00  0.00    -0.237 OA
ATOM     85  O   UNL A   1      32.498  34.916  29.823  1.00  0.00    -0.744 OA
ENDBRANCH  81  82
ENDBRANCH  60  74
BRANCH  61  86
ATOM     86  C   UNL A   1      45.227  29.324  35.558  1.00  0.00     0.058 A 
ATOM     87  C   UNL A   1      45.242  28.091  36.225  1.00  0.00     0.135 A 
ATOM     88  C   UNL A   1      46.426  30.052  35.505  1.00  0.00     0.135 A 
ATOM     89  F   UNL A   1      44.119  27.361  36.310  1.00  0.00    -0.206 F 
ATOM     90  C   UNL A   1      46.399  27.597  36.819  1.00  0.00     0.059 A 
ATOM     91  C   UNL A   1      47.601  29.569  36.068  1.00  0.00     0.059 A 
ATOM     92  F   UNL A   1      46.468  31.232  34.864  1.00  0.00    -0.206 F 
ATOM     93  C   UNL A   1      47.577  28.342  36.728  1.00  0.00     0.060 A 
BRANCH  93  94
ATOM     94  S   UNL A   1      49.090  27.655  37.437  1.00  0.00     0.124 S 
ATOM     95  O   UNL A   1      49.475  26.682  36.422  1.00  0.00    -0.237 OA
ATOM     96  O   UNL A   1      49.940  28.837  37.545  1.00  0.00    -0.237 OA
ATOM     97  O   UNL A   1      48.641  27.098  38.710  1.00  0.00    -0.744 OA
ENDBRANCH  93  94
ENDBRANCH  61  86
BRANCH  73  98
ATOM     98  C   UNL A   1      39.731  33.075  37.696  1.00  0.00     0.058 A 
ATOM     99  C   UNL A   1      40.372  34.196  38.245  1.00  0.00     0.135 A 
ATOM    100  C   UNL A   1      38.658  32.519  38.413  1.00  0.00     0.135 A 
ATOM    101  F   UNL A   1      41.407  34.762  37.604  1.00  0.00    -0.206 F 
ATOM    102  C   UNL A   1      39.982  34.731  39.468  1.00  0.00     0.059 A 
ATOM    103  C   UNL A   1      38.230  33.056  39.622  1.00  0.00     0.059 A 
ATOM    104  F   UNL A   1      38.002  31.451  37.930  1.00  0.00    -0.206 F 
ATOM    105  C   UNL A   1      38.906  34.155  40.148  1.00  0.00     0.060 A 
BRANCH 105 106
ATOM    106  S   UNL A   1      38.387  34.882  41.717  1.00  0.00     0.124 S 
ATOM    107  O   UNL A   1      37.347  33.952  42.143  1.00  0.00    -0.237 OA
ATOM    108  O   UNL A   1      39.621  34.853  42.497  1.00  0.00    -0.237 OA
ATOM    109  O   UNL A   1      37.923  36.213  41.339  1.00  0.00    -0.744 OA
ENDBRANCH 105 106
ENDBRANCH  73  98
ENDBRANCH  47  48
ENDBRANCH  39  42
ENDBRANCH  37  38
ENDBRANCH  36  37
ENDBRANCH  35  36
ENDBRANCH   1  35
TORSDOF 20
ENDMDL
