MODEL 1
REMARK VINA RESULT:     -10.7      0.000      0.000
REMARK SMILES CC1(C)Cc2c(-c3ccccc3)c(-c3ccc(Cl)cc3)c(CC(=O)NCCCCCCNC(=O)c3ccc(-c4c5nc(c(-c6c(F)cc(S(=O)(=O)[O-])cc6F)c6ccc([nH]6)c(-c6c(F)cc(S(=O)(=O)[O-])cc6F)c6nc(c(-c7c(F)cc(S(=O)(=O)[O-])cc7F)c7ccc4[nH]7)C=C6)C=C5)cc3)n2C1
REMARK SMILES IDX 29 1 28 2 27 3 26 4 25 5 23 6 24 7 22 9 21 10 1 11 2 12 3 13
REMARK SMILES IDX 4 14 102 15 5 16 101 17 6 18 13 19 7 20 8 21 12 22 9 23
REMARK SMILES IDX 11 24 10 25 14 26 15 27 20 28 16 29 19 30 17 31 18 32 30 33
REMARK SMILES IDX 31 34 32 35 33 36 34 38 35 39 36 40 100 41 37 42 99 43 38 44
REMARK SMILES IDX 39 45 40 46 93 47 41 48 98 49 92 50 94 51 42 52 97 53 91 54
REMARK SMILES IDX 90 55 43 57 77 58 56 59 76 60 57 61 60 62 75 63 95 64 58 65
REMARK SMILES IDX 59 66 74 68 96 69 61 70 44 71 45 72 54 73 46 74 47 75 53 76
REMARK SMILES IDX 55 77 48 78 49 79 50 80 51 81 52 82 78 83 79 84 88 85 80 86
REMARK SMILES IDX 81 87 87 88 89 89 82 90 83 91 84 92 85 93 86 94 62 95 63 96
REMARK SMILES IDX 72 97 64 98 65 99 71 100 73 101 66 102 67 103 68 104 69 105
REMARK SMILES IDX 70 106
REMARK H PARENT 25 8 32 37 94 56 60 67
REMARK Flexibility Score: inf
ROOT
ATOM      1  C   UNL A   1      43.438  24.849  25.118  1.00  0.00     0.002 C 
ENDROOT
BRANCH   1   2
ATOM      2  C   UNL A   1      44.259  25.295  26.338  1.00  0.00     0.002 C 
BRANCH   2   3
ATOM      3  C   UNL A   1      45.779  25.276  26.163  1.00  0.00     0.021 C 
BRANCH   3   4
ATOM      4  C   UNL A   1      46.497  26.534  26.651  1.00  0.00     0.116 C 
BRANCH   4   5
ATOM      5  N   UNL A   1      46.498  27.596  25.670  1.00  0.00    -0.356 N 
ATOM      6  C   UNL A   1      47.114  27.644  24.452  1.00  0.00     0.225 C 
ATOM      7  O   UNL A   1      46.882  28.625  23.739  1.00  0.00    -0.275 OA
ATOM      8  H   UNL A   1      45.981  28.397  25.915  1.00  0.00     0.163 HD
BRANCH   6   9
ATOM      9  C   UNL A   1      47.972  26.487  23.952  1.00  0.00     0.154 C 
BRANCH   9  10
ATOM     10  C   UNL A   1      49.439  26.789  23.928  1.00  0.00     0.036 A 
ATOM     11  C   UNL A   1      51.147  28.387  19.494  1.00  0.00     0.013 C 
ATOM     12  C   UNL A   1      51.065  27.390  20.656  1.00  0.00    -0.012 C 
ATOM     13  C   UNL A   1      51.236  25.967  20.095  1.00  0.00     0.013 C 
ATOM     14  C   UNL A   1      52.148  27.674  21.750  1.00  0.00     0.063 C 
ATOM     15  C   UNL A   1      49.711  27.504  21.422  1.00  0.00     0.129 C 
ATOM     16  C   UNL A   1      51.428  27.337  23.001  1.00  0.00     0.027 A 
ATOM     17  N   UNL A   1      50.087  27.209  22.799  1.00  0.00    -0.346 N 
ATOM     18  C   UNL A   1      51.673  27.137  24.331  1.00  0.00     0.011 A 
ATOM     19  C   UNL A   1      50.412  26.790  24.932  1.00  0.00     0.011 A 
BRANCH  18  20
ATOM     20  C   UNL A   1      52.958  27.299  24.973  1.00  0.00    -0.016 A 
ATOM     21  C   UNL A   1      53.897  26.264  24.923  1.00  0.00     0.009 A 
ATOM     22  C   UNL A   1      53.313  28.542  25.512  1.00  0.00     0.009 A 
ATOM     23  C   UNL A   1      55.199  26.494  25.358  1.00  0.00     0.001 A 
ATOM     24  C   UNL A   1      54.613  28.765  25.957  1.00  0.00     0.001 A 
ATOM     25  C   UNL A   1      55.559  27.750  25.851  1.00  0.00     0.000 A 
ENDBRANCH  18  20
BRANCH  19  26
ATOM     26  C   UNL A   1      50.197  26.517  26.348  1.00  0.00    -0.016 A 
ATOM     27  C   UNL A   1      50.026  25.191  26.774  1.00  0.00     0.010 A 
ATOM     28  C   UNL A   1      49.971  27.556  27.257  1.00  0.00     0.010 A 
ATOM     29  C   UNL A   1      49.636  24.910  28.087  1.00  0.00     0.021 A 
ATOM     30  C   UNL A   1      49.600  27.275  28.576  1.00  0.00     0.021 A 
ATOM     31  C   UNL A   1      49.428  25.954  28.982  1.00  0.00     0.041 A 
ATOM     32  Cl  UNL A   1      48.924  25.617  30.594  1.00  0.00    -0.084 Cl
ENDBRANCH  19  26
ENDBRANCH   9  10
ENDBRANCH   6   9
ENDBRANCH   4   5
ENDBRANCH   3   4
ENDBRANCH   2   3
ENDBRANCH   1   2
BRANCH   1  33
ATOM     33  C   UNL A   1      43.601  23.389  24.665  1.00  0.00     0.021 C 
BRANCH  33  34
ATOM     34  C   UNL A   1      43.124  22.360  25.678  1.00  0.00     0.116 C 
BRANCH  34  35
ATOM     35  N   UNL A   1      41.745  21.942  25.439  1.00  0.00    -0.352 N 
ATOM     36  C   UNL A   1      40.611  22.275  26.158  1.00  0.00     0.251 C 
ATOM     37  H   UNL A   1      41.606  21.345  24.669  1.00  0.00     0.163 HD
ATOM     38  O   UNL A   1      39.611  21.583  26.096  1.00  0.00    -0.269 OA
BRANCH  36  39
ATOM     39  C   UNL A   1      40.645  23.484  27.005  1.00  0.00     0.039 A 
ATOM     40  C   UNL A   1      41.473  23.558  28.129  1.00  0.00     0.014 A 
ATOM     41  C   UNL A   1      39.852  24.566  26.634  1.00  0.00     0.014 A 
ATOM     42  C   UNL A   1      41.559  24.766  28.820  1.00  0.00     0.010 A 
ATOM     43  C   UNL A   1      40.055  25.791  27.218  1.00  0.00     0.010 A 
ATOM     44  C   UNL A   1      40.866  25.891  28.343  1.00  0.00    -0.014 A 
BRANCH  44  45
ATOM     45  C   UNL A   1      41.085  27.213  28.930  1.00  0.00     0.031 A 
ATOM     46  C   UNL A   1      42.200  27.972  28.300  1.00  0.00     0.074 A 
ATOM     47  C   UNL A   1      40.219  27.800  29.789  1.00  0.00     0.049 A 
ATOM     48  N   UNL A   1      43.369  28.217  28.789  1.00  0.00    -0.248 NA
ATOM     49  C   UNL A   1      42.065  28.353  26.883  1.00  0.00     0.031 C 
ATOM     50  C   UNL A   1      38.904  27.298  30.215  1.00  0.00     0.029 A 
ATOM     51  N   UNL A   1      40.273  29.026  30.384  1.00  0.00    -0.354 N 
ATOM     52  C   UNL A   1      44.005  29.034  27.853  1.00  0.00     0.074 A 
ATOM     53  C   UNL A   1      43.271  28.865  26.629  1.00  0.00     0.031 C 
ATOM     54  C   UNL A   1      38.196  28.295  30.787  1.00  0.00     0.029 A 
ATOM     55  C   UNL A   1      39.071  29.439  30.958  1.00  0.00     0.049 A 
ATOM     56  H   UNL A   1      41.091  29.574  30.407  1.00  0.00     0.167 HD
ATOM     57  C   UNL A   1      44.859  30.017  28.261  1.00  0.00     0.037 A 
ATOM     58  C   UNL A   1      38.808  30.628  31.551  1.00  0.00     0.037 A 
ATOM     59  C   UNL A   1      45.170  29.845  29.660  1.00  0.00     0.049 A 
ATOM     60  C   UNL A   1      40.096  31.229  31.946  1.00  0.00     0.074 A 
ATOM     61  C   UNL A   1      45.930  28.994  30.432  1.00  0.00     0.029 A 
ATOM     62  N   UNL A   1      44.290  30.480  30.496  1.00  0.00    -0.354 N 
ATOM     63  N   UNL A   1      40.868  30.721  32.864  1.00  0.00    -0.248 NA
ATOM     64  C   UNL A   1      40.721  32.217  31.074  1.00  0.00     0.031 C 
ATOM     65  C   UNL A   1      45.340  29.005  31.731  1.00  0.00     0.029 A 
ATOM     66  C   UNL A   1      44.266  29.893  31.730  1.00  0.00     0.049 A 
ATOM     67  H   UNL A   1      43.744  31.259  30.241  1.00  0.00     0.167 HD
ATOM     68  C   UNL A   1      42.145  30.982  32.412  1.00  0.00     0.074 A 
ATOM     69  C   UNL A   1      41.997  32.048  31.430  1.00  0.00     0.031 C 
ATOM     70  C   UNL A   1      43.147  30.084  32.624  1.00  0.00     0.037 A 
BRANCH  57  71
ATOM     71  C   UNL A   1      45.006  31.396  27.623  1.00  0.00     0.058 A 
ATOM     72  C   UNL A   1      46.242  31.726  27.015  1.00  0.00     0.135 A 
ATOM     73  C   UNL A   1      44.151  32.495  27.858  1.00  0.00     0.135 A 
ATOM     74  F   UNL A   1      47.128  30.766  26.701  1.00  0.00    -0.206 F 
ATOM     75  C   UNL A   1      46.645  33.042  26.783  1.00  0.00     0.059 A 
ATOM     76  C   UNL A   1      44.516  33.812  27.594  1.00  0.00     0.059 A 
ATOM     77  F   UNL A   1      42.951  32.370  28.431  1.00  0.00    -0.206 F 
ATOM     78  C   UNL A   1      45.782  34.083  27.104  1.00  0.00     0.060 A 
BRANCH  78  79
ATOM     79  S   UNL A   1      46.334  35.787  26.923  1.00  0.00     0.124 S 
ATOM     80  O   UNL A   1      47.152  35.954  28.118  1.00  0.00    -0.237 OA
ATOM     81  O   UNL A   1      47.051  35.739  25.654  1.00  0.00    -0.237 OA
ATOM     82  O   UNL A   1      45.084  36.541  26.902  1.00  0.00    -0.744 OA
ENDBRANCH  78  79
ENDBRANCH  57  71
BRANCH  58  83
ATOM     83  C   UNL A   1      37.555  31.415  31.563  1.00  0.00     0.058 A 
ATOM     84  C   UNL A   1      36.773  31.555  32.723  1.00  0.00     0.135 A 
ATOM     85  C   UNL A   1      37.304  32.321  30.522  1.00  0.00     0.135 A 
ATOM     86  F   UNL A   1      36.984  30.752  33.776  1.00  0.00    -0.206 F 
ATOM     87  C   UNL A   1      35.808  32.561  32.857  1.00  0.00     0.059 A 
ATOM     88  C   UNL A   1      36.379  33.352  30.653  1.00  0.00     0.059 A 
ATOM     89  F   UNL A   1      38.029  32.288  29.392  1.00  0.00    -0.206 F 
ATOM     90  C   UNL A   1      35.632  33.472  31.818  1.00  0.00     0.060 A 
BRANCH  90  91
ATOM     91  S   UNL A   1      34.475  34.848  32.011  1.00  0.00     0.124 S 
ATOM     92  O   UNL A   1      35.285  35.826  32.730  1.00  0.00    -0.237 OA
ATOM     93  O   UNL A   1      34.156  35.176  30.627  1.00  0.00    -0.237 OA
ATOM     94  O   UNL A   1      33.379  34.269  32.784  1.00  0.00    -0.744 OA
ENDBRANCH  90  91
ENDBRANCH  58  83
BRANCH  70  95
ATOM     95  C   UNL A   1      42.995  29.148  33.785  1.00  0.00     0.058 A 
ATOM     96  C   UNL A   1      43.209  29.485  35.132  1.00  0.00     0.135 A 
ATOM     97  C   UNL A   1      42.536  27.854  33.507  1.00  0.00     0.135 A 
ATOM     98  F   UNL A   1      43.578  30.724  35.483  1.00  0.00    -0.206 F 
ATOM     99  C   UNL A   1      43.004  28.559  36.157  1.00  0.00     0.059 A 
ATOM    100  C   UNL A   1      42.296  26.925  34.511  1.00  0.00     0.059 A 
ATOM    101  F   UNL A   1      42.274  27.491  32.239  1.00  0.00    -0.206 F 
ATOM    102  C   UNL A   1      42.544  27.281  35.834  1.00  0.00     0.060 A 
BRANCH 102 103
ATOM    103  S   UNL A   1      42.211  26.102  37.160  1.00  0.00     0.124 S 
ATOM    104  O   UNL A   1      42.537  24.828  36.529  1.00  0.00    -0.237 OA
ATOM    105  O   UNL A   1      43.123  26.541  38.211  1.00  0.00    -0.237 OA
ATOM    106  O   UNL A   1      40.794  26.309  37.451  1.00  0.00    -0.744 OA
ENDBRANCH 102 103
ENDBRANCH  70  95
ENDBRANCH  44  45
ENDBRANCH  36  39
ENDBRANCH  34  35
ENDBRANCH  33  34
ENDBRANCH   1  33
TORSDOF 19
ENDMDL
MODEL 2
REMARK VINA RESULT:     -10.7      1.837      3.329
REMARK SMILES CC1(C)Cc2c(-c3ccccc3)c(-c3ccc(Cl)cc3)c(CC(=O)NCCCCCCNC(=O)c3ccc(-c4c5nc(c(-c6c(F)cc(S(=O)(=O)[O-])cc6F)c6ccc([nH]6)c(-c6c(F)cc(S(=O)(=O)[O-])cc6F)c6nc(c(-c7c(F)cc(S(=O)(=O)[O-])cc7F)c7ccc4[nH]7)C=C6)C=C5)cc3)n2C1
REMARK SMILES IDX 29 1 28 2 27 3 26 4 25 5 23 6 24 7 22 9 21 10 1 11 2 12 3 13
REMARK SMILES IDX 4 14 102 15 5 16 101 17 6 18 13 19 7 20 8 21 12 22 9 23
REMARK SMILES IDX 11 24 10 25 14 26 15 27 20 28 16 29 19 30 17 31 18 32 30 33
REMARK SMILES IDX 31 34 32 35 33 36 34 38 35 39 36 40 100 41 37 42 99 43 38 44
REMARK SMILES IDX 39 45 40 46 93 47 41 48 98 49 92 50 94 51 42 52 97 53 91 54
REMARK SMILES IDX 90 55 43 57 77 58 56 59 76 60 57 61 60 62 75 63 95 64 58 65
REMARK SMILES IDX 59 66 74 68 96 69 61 70 44 71 45 72 54 73 46 74 47 75 53 76
REMARK SMILES IDX 55 77 48 78 49 79 50 80 51 81 52 82 78 83 79 84 88 85 80 86
REMARK SMILES IDX 81 87 87 88 89 89 82 90 83 91 84 92 85 93 86 94 62 95 63 96
REMARK SMILES IDX 72 97 64 98 65 99 71 100 73 101 66 102 67 103 68 104 69 105
REMARK SMILES IDX 70 106
REMARK H PARENT 25 8 32 37 94 56 60 67
REMARK Flexibility Score: inf
ROOT
ATOM      1  C   UNL A   1      42.420  23.240  29.035  1.00  0.00     0.002 C 
ENDROOT
BRANCH   1   2
ATOM      2  C   UNL A   1      43.447  24.116  28.301  1.00  0.00     0.002 C 
BRANCH   2   3
ATOM      3  C   UNL A   1      43.811  25.436  28.985  1.00  0.00     0.021 C 
BRANCH   3   4
ATOM      4  C   UNL A   1      45.162  25.440  29.698  1.00  0.00     0.116 C 
BRANCH   4   5
ATOM      5  N   UNL A   1      46.170  24.677  28.995  1.00  0.00    -0.356 N 
ATOM      6  C   UNL A   1      47.318  25.112  28.397  1.00  0.00     0.225 C 
ATOM      7  O   UNL A   1      48.081  24.253  27.945  1.00  0.00    -0.275 OA
ATOM      8  H   UNL A   1      46.004  23.709  28.941  1.00  0.00     0.163 HD
BRANCH   6   9
ATOM      9  C   UNL A   1      47.691  26.590  28.377  1.00  0.00     0.154 C 
BRANCH   9  10
ATOM     10  C   UNL A   1      48.287  27.046  27.081  1.00  0.00     0.036 A 
ATOM     11  C   UNL A   1      52.555  29.630  27.566  1.00  0.00     0.013 C 
ATOM     12  C   UNL A   1      51.080  29.476  27.179  1.00  0.00    -0.012 C 
ATOM     13  C   UNL A   1      50.360  30.811  27.444  1.00  0.00     0.013 C 
ATOM     14  C   UNL A   1      50.907  29.056  25.681  1.00  0.00     0.063 C 
ATOM     15  C   UNL A   1      50.390  28.327  27.977  1.00  0.00     0.129 C 
ATOM     16  C   UNL A   1      49.733  28.153  25.740  1.00  0.00     0.027 A 
ATOM     17  N   UNL A   1      49.434  27.788  27.017  1.00  0.00    -0.346 N 
ATOM     18  C   UNL A   1      48.849  27.527  24.906  1.00  0.00     0.011 A 
ATOM     19  C   UNL A   1      47.925  26.816  25.751  1.00  0.00     0.011 A 
BRANCH  18  20
ATOM     20  C   UNL A   1      48.899  27.563  23.462  1.00  0.00    -0.016 A 
ATOM     21  C   UNL A   1      49.924  26.899  22.783  1.00  0.00     0.009 A 
ATOM     22  C   UNL A   1      47.840  28.136  22.746  1.00  0.00     0.009 A 
ATOM     23  C   UNL A   1      49.858  26.760  21.401  1.00  0.00     0.001 A 
ATOM     24  C   UNL A   1      47.783  28.006  21.361  1.00  0.00     0.001 A 
ATOM     25  C   UNL A   1      48.776  27.292  20.697  1.00  0.00     0.000 A 
ENDBRANCH  18  20
BRANCH  19  26
ATOM     26  C   UNL A   1      46.822  25.982  25.284  1.00  0.00    -0.016 A 
ATOM     27  C   UNL A   1      45.502  26.424  25.466  1.00  0.00     0.010 A 
ATOM     28  C   UNL A   1      47.045  24.678  24.833  1.00  0.00     0.010 A 
ATOM     29  C   UNL A   1      44.425  25.573  25.201  1.00  0.00     0.021 A 
ATOM     30  C   UNL A   1      45.968  23.833  24.547  1.00  0.00     0.021 A 
ATOM     31  C   UNL A   1      44.664  24.282  24.739  1.00  0.00     0.041 A 
ATOM     32  Cl  UNL A   1      43.343  23.221  24.434  1.00  0.00    -0.084 Cl
ENDBRANCH  19  26
ENDBRANCH   9  10
ENDBRANCH   6   9
ENDBRANCH   4   5
ENDBRANCH   3   4
ENDBRANCH   2   3
ENDBRANCH   1   2
BRANCH   1  33
ATOM     33  C   UNL A   1      41.770  22.105  28.228  1.00  0.00     0.021 C 
BRANCH  33  34
ATOM     34  C   UNL A   1      41.776  22.322  26.724  1.00  0.00     0.116 C 
BRANCH  34  35
ATOM     35  N   UNL A   1      40.445  22.185  26.136  1.00  0.00    -0.352 N 
ATOM     36  C   UNL A   1      39.318  22.952  26.378  1.00  0.00     0.251 C 
ATOM     37  H   UNL A   1      40.336  21.454  25.487  1.00  0.00     0.163 HD
ATOM     38  O   UNL A   1      38.208  22.519  26.127  1.00  0.00    -0.269 OA
BRANCH  36  39
ATOM     39  C   UNL A   1      39.495  24.301  26.951  1.00  0.00     0.039 A 
ATOM     40  C   UNL A   1      39.018  24.613  28.227  1.00  0.00     0.014 A 
ATOM     41  C   UNL A   1      40.180  25.248  26.197  1.00  0.00     0.014 A 
ATOM     42  C   UNL A   1      39.321  25.862  28.769  1.00  0.00     0.010 A 
ATOM     43  C   UNL A   1      40.608  26.411  26.788  1.00  0.00     0.010 A 
ATOM     44  C   UNL A   1      40.141  26.750  28.053  1.00  0.00    -0.014 A 
BRANCH  44  45
ATOM     45  C   UNL A   1      40.632  27.982  28.671  1.00  0.00     0.031 A 
ATOM     46  C   UNL A   1      41.853  28.534  28.022  1.00  0.00     0.074 A 
ATOM     47  C   UNL A   1      39.924  28.694  29.578  1.00  0.00     0.049 A 
ATOM     48  N   UNL A   1      43.063  28.530  28.473  1.00  0.00    -0.248 NA
ATOM     49  C   UNL A   1      41.750  28.985  26.622  1.00  0.00     0.031 C 
ATOM     50  C   UNL A   1      38.550  28.440  30.039  1.00  0.00     0.029 A 
ATOM     51  N   UNL A   1      40.235  29.864  30.208  1.00  0.00    -0.354 N 
ATOM     52  C   UNL A   1      43.815  29.242  27.538  1.00  0.00     0.074 A 
ATOM     53  C   UNL A   1      43.025  29.263  26.339  1.00  0.00     0.031 C 
ATOM     54  C   UNL A   1      38.069  29.535  30.667  1.00  0.00     0.029 A 
ATOM     55  C   UNL A   1      39.155  30.480  30.839  1.00  0.00     0.049 A 
ATOM     56  H   UNL A   1      41.144  30.242  30.216  1.00  0.00     0.167 HD
ATOM     57  C   UNL A   1      44.857  30.025  27.943  1.00  0.00     0.037 A 
ATOM     58  C   UNL A   1      39.146  31.676  31.476  1.00  0.00     0.037 A 
ATOM     59  C   UNL A   1      45.173  29.745  29.324  1.00  0.00     0.049 A 
ATOM     60  C   UNL A   1      40.539  32.001  31.840  1.00  0.00     0.074 A 
ATOM     61  C   UNL A   1      45.776  28.735  30.040  1.00  0.00     0.029 A 
ATOM     62  N   UNL A   1      44.459  30.508  30.211  1.00  0.00    -0.354 N 
ATOM     63  N   UNL A   1      41.226  31.319  32.713  1.00  0.00    -0.248 NA
ATOM     64  C   UNL A   1      41.317  32.880  30.976  1.00  0.00     0.031 C 
ATOM     65  C   UNL A   1      45.240  28.813  31.361  1.00  0.00     0.029 A 
ATOM     66  C   UNL A   1      44.360  29.892  31.427  1.00  0.00     0.049 A 
ATOM     67  H   UNL A   1      44.068  31.386  30.000  1.00  0.00     0.167 HD
ATOM     68  C   UNL A   1      42.514  31.345  32.221  1.00  0.00     0.074 A 
ATOM     69  C   UNL A   1      42.546  32.454  31.277  1.00  0.00     0.031 C 
ATOM     70  C   UNL A   1      43.329  30.262  32.368  1.00  0.00     0.037 A 
BRANCH  57  71
ATOM     71  C   UNL A   1      45.250  31.373  27.342  1.00  0.00     0.058 A 
ATOM     72  C   UNL A   1      46.541  31.503  26.774  1.00  0.00     0.135 A 
ATOM     73  C   UNL A   1      44.582  32.594  27.579  1.00  0.00     0.135 A 
ATOM     74  F   UNL A   1      47.265  30.415  26.461  1.00  0.00    -0.206 F 
ATOM     75  C   UNL A   1      47.164  32.738  26.583  1.00  0.00     0.059 A 
ATOM     76  C   UNL A   1      45.168  33.837  27.356  1.00  0.00     0.059 A 
ATOM     77  F   UNL A   1      43.361  32.660  28.117  1.00  0.00    -0.206 F 
ATOM     78  C   UNL A   1      46.475  33.901  26.905  1.00  0.00     0.060 A 
BRANCH  78  79
ATOM     79  S   UNL A   1      47.308  35.493  26.779  1.00  0.00     0.124 S 
ATOM     80  O   UNL A   1      47.598  35.780  28.179  1.00  0.00    -0.237 OA
ATOM     81  O   UNL A   1      48.454  35.168  25.938  1.00  0.00    -0.237 OA
ATOM     82  O   UNL A   1      46.301  36.346  26.154  1.00  0.00    -0.744 OA
ENDBRANCH  78  79
ENDBRANCH  57  71
BRANCH  58  83
ATOM     83  C   UNL A   1      38.073  32.689  31.560  1.00  0.00     0.058 A 
ATOM     84  C   UNL A   1      37.441  33.204  30.415  1.00  0.00     0.135 A 
ATOM     85  C   UNL A   1      37.424  32.901  32.785  1.00  0.00     0.135 A 
ATOM     86  F   UNL A   1      37.981  33.005  29.203  1.00  0.00    -0.206 F 
ATOM     87  C   UNL A   1      36.211  33.870  30.476  1.00  0.00     0.059 A 
ATOM     88  C   UNL A   1      36.182  33.523  32.860  1.00  0.00     0.059 A 
ATOM     89  F   UNL A   1      37.933  32.411  33.927  1.00  0.00    -0.206 F 
ATOM     90  C   UNL A   1      35.577  34.008  31.708  1.00  0.00     0.060 A 
BRANCH  90  91
ATOM     91  S   UNL A   1      33.935  34.762  31.799  1.00  0.00     0.124 S 
ATOM     92  O   UNL A   1      34.254  36.141  32.152  1.00  0.00    -0.237 OA
ATOM     93  O   UNL A   1      33.426  34.549  30.449  1.00  0.00    -0.237 OA
ATOM     94  O   UNL A   1      33.264  33.996  32.847  1.00  0.00    -0.744 OA
ENDBRANCH  90  91
ENDBRANCH  58  83
BRANCH  70  95
ATOM     95  C   UNL A   1      43.034  29.332  33.505  1.00  0.00     0.058 A 
ATOM     96  C   UNL A   1      43.369  29.563  34.850  1.00  0.00     0.135 A 
ATOM     97  C   UNL A   1      42.304  28.173  33.210  1.00  0.00     0.135 A 
ATOM     98  F   UNL A   1      44.002  30.684  35.221  1.00  0.00    -0.206 F 
ATOM     99  C   UNL A   1      43.018  28.658  35.854  1.00  0.00     0.059 A 
ATOM    100  C   UNL A   1      41.919  27.274  34.195  1.00  0.00     0.059 A 
ATOM    101  F   UNL A   1      41.920  27.924  31.946  1.00  0.00    -0.206 F 
ATOM    102  C   UNL A   1      42.290  27.516  35.515  1.00  0.00     0.060 A 
BRANCH 102 103
ATOM    103  S   UNL A   1      41.774  26.379  36.818  1.00  0.00     0.124 S 
ATOM    104  O   UNL A   1      41.608  25.128  36.087  1.00  0.00    -0.237 OA
ATOM    105  O   UNL A   1      42.900  26.427  37.746  1.00  0.00    -0.237 OA
ATOM    106  O   UNL A   1      40.539  26.976  37.322  1.00  0.00    -0.744 OA
ENDBRANCH 102 103
ENDBRANCH  70  95
ENDBRANCH  44  45
ENDBRANCH  36  39
ENDBRANCH  34  35
ENDBRANCH  33  34
ENDBRANCH   1  33
TORSDOF 19
ENDMDL
MODEL 3
REMARK VINA RESULT:     -10.5      4.668     11.761
REMARK SMILES CC1(C)Cc2c(-c3ccccc3)c(-c3ccc(Cl)cc3)c(CC(=O)NCCCCCCNC(=O)c3ccc(-c4c5nc(c(-c6c(F)cc(S(=O)(=O)[O-])cc6F)c6ccc([nH]6)c(-c6c(F)cc(S(=O)(=O)[O-])cc6F)c6nc(c(-c7c(F)cc(S(=O)(=O)[O-])cc7F)c7ccc4[nH]7)C=C6)C=C5)cc3)n2C1
REMARK SMILES IDX 29 1 28 2 27 3 26 4 25 5 23 6 24 7 22 9 21 10 1 11 2 12 3 13
REMARK SMILES IDX 4 14 102 15 5 16 101 17 6 18 13 19 7 20 8 21 12 22 9 23
REMARK SMILES IDX 11 24 10 25 14 26 15 27 20 28 16 29 19 30 17 31 18 32 30 33
REMARK SMILES IDX 31 34 32 35 33 36 34 38 35 39 36 40 100 41 37 42 99 43 38 44
REMARK SMILES IDX 39 45 40 46 93 47 41 48 98 49 92 50 94 51 42 52 97 53 91 54
REMARK SMILES IDX 90 55 43 57 77 58 56 59 76 60 57 61 60 62 75 63 95 64 58 65
REMARK SMILES IDX 59 66 74 68 96 69 61 70 44 71 45 72 54 73 46 74 47 75 53 76
REMARK SMILES IDX 55 77 48 78 49 79 50 80 51 81 52 82 78 83 79 84 88 85 80 86
REMARK SMILES IDX 81 87 87 88 89 89 82 90 83 91 84 92 85 93 86 94 62 95 63 96
REMARK SMILES IDX 72 97 64 98 65 99 71 100 73 101 66 102 67 103 68 104 69 105
REMARK SMILES IDX 70 106
REMARK H PARENT 25 8 32 37 94 56 60 67
REMARK Flexibility Score: inf
ROOT
ATOM      1  C   UNL A   1      35.628  34.393  32.495  1.00  0.00     0.002 C 
ENDROOT
BRANCH   1   2
ATOM      2  C   UNL A   1      36.265  33.169  33.172  1.00  0.00     0.002 C 
BRANCH   2   3
ATOM      3  C   UNL A   1      37.757  32.956  32.903  1.00  0.00     0.021 C 
BRANCH   3   4
ATOM      4  C   UNL A   1      38.587  34.237  32.836  1.00  0.00     0.116 C 
BRANCH   4   5
ATOM      5  N   UNL A   1      38.961  34.594  31.485  1.00  0.00    -0.356 N 
ATOM      6  C   UNL A   1      40.139  34.373  30.831  1.00  0.00     0.225 C 
ATOM      7  O   UNL A   1      40.189  34.679  29.636  1.00  0.00    -0.275 OA
ATOM      8  H   UNL A   1      38.269  35.062  30.965  1.00  0.00     0.163 HD
BRANCH   6   9
ATOM      9  C   UNL A   1      41.312  33.685  31.521  1.00  0.00     0.154 C 
BRANCH   9  10
ATOM     10  C   UNL A   1      42.312  34.634  32.106  1.00  0.00     0.036 A 
ATOM     11  C   UNL A   1      45.541  36.542  28.780  1.00  0.00     0.013 C 
ATOM     12  C   UNL A   1      45.170  35.702  30.008  1.00  0.00    -0.012 C 
ATOM     13  C   UNL A   1      46.116  34.490  30.079  1.00  0.00     0.013 C 
ATOM     14  C   UNL A   1      45.255  36.533  31.333  1.00  0.00     0.063 C 
ATOM     15  C   UNL A   1      43.687  35.223  29.955  1.00  0.00     0.129 C 
ATOM     16  C   UNL A   1      44.126  35.984  32.122  1.00  0.00     0.027 A 
ATOM     17  N   UNL A   1      43.288  35.231  31.357  1.00  0.00    -0.346 N 
ATOM     18  C   UNL A   1      43.624  36.012  33.393  1.00  0.00     0.011 A 
ATOM     19  C   UNL A   1      42.465  35.158  33.393  1.00  0.00     0.011 A 
BRANCH  18  20
ATOM     20  C   UNL A   1      44.159  36.798  34.481  1.00  0.00    -0.016 A 
ATOM     21  C   UNL A   1      43.822  38.150  34.596  1.00  0.00     0.009 A 
ATOM     22  C   UNL A   1      44.889  36.169  35.497  1.00  0.00     0.009 A 
ATOM     23  C   UNL A   1      44.166  38.850  35.748  1.00  0.00     0.001 A 
ATOM     24  C   UNL A   1      45.242  36.876  36.644  1.00  0.00     0.001 A 
ATOM     25  C   UNL A   1      44.853  38.206  36.778  1.00  0.00     0.000 A 
ENDBRANCH  18  20
BRANCH  19  26
ATOM     26  C   UNL A   1      41.596  34.912  34.539  1.00  0.00    -0.016 A 
ATOM     27  C   UNL A   1      41.460  33.604  35.029  1.00  0.00     0.010 A 
ATOM     28  C   UNL A   1      40.756  35.914  35.035  1.00  0.00     0.010 A 
ATOM     29  C   UNL A   1      40.500  33.305  36.001  1.00  0.00     0.021 A 
ATOM     30  C   UNL A   1      39.809  35.620  36.021  1.00  0.00     0.021 A 
ATOM     31  C   UNL A   1      39.681  34.317  36.494  1.00  0.00     0.041 A 
ATOM     32  Cl  UNL A   1      38.480  33.951  37.673  1.00  0.00    -0.084 Cl
ENDBRANCH  19  26
ENDBRANCH   9  10
ENDBRANCH   6   9
ENDBRANCH   4   5
ENDBRANCH   3   4
ENDBRANCH   2   3
ENDBRANCH   1   2
BRANCH   1  33
ATOM     33  C   UNL A   1      34.848  34.142  31.194  1.00  0.00     0.021 C 
BRANCH  33  34
ATOM     34  C   UNL A   1      34.392  32.704  31.004  1.00  0.00     0.116 C 
BRANCH  34  35
ATOM     35  N   UNL A   1      34.110  32.390  29.606  1.00  0.00    -0.352 N 
ATOM     36  C   UNL A   1      34.979  31.908  28.643  1.00  0.00     0.251 C 
ATOM     37  H   UNL A   1      33.183  32.542  29.310  1.00  0.00     0.163 HD
ATOM     38  O   UNL A   1      34.731  32.044  27.458  1.00  0.00    -0.269 OA
BRANCH  36  39
ATOM     39  C   UNL A   1      36.215  31.232  29.085  1.00  0.00     0.039 A 
ATOM     40  C   UNL A   1      36.281  29.841  29.194  1.00  0.00     0.014 A 
ATOM     41  C   UNL A   1      37.328  32.020  29.362  1.00  0.00     0.014 A 
ATOM     42  C   UNL A   1      37.507  29.249  29.495  1.00  0.00     0.010 A 
ATOM     43  C   UNL A   1      38.561  31.433  29.505  1.00  0.00     0.010 A 
ATOM     44  C   UNL A   1      38.653  30.051  29.624  1.00  0.00    -0.014 A 
BRANCH  44  45
ATOM     45  C   UNL A   1      39.981  29.449  29.749  1.00  0.00     0.031 A 
ATOM     46  C   UNL A   1      40.422  29.256  31.157  1.00  0.00     0.074 A 
ATOM     47  C   UNL A   1      40.647  28.891  28.711  1.00  0.00     0.049 A 
ATOM     48  N   UNL A   1      41.318  29.923  31.807  1.00  0.00    -0.248 NA
ATOM     49  C   UNL A   1      39.652  28.329  32.005  1.00  0.00     0.031 C 
ATOM     50  C   UNL A   1      40.161  28.703  27.335  1.00  0.00     0.029 A 
ATOM     51  N   UNL A   1      41.861  28.270  28.682  1.00  0.00    -0.354 N 
ATOM     52  C   UNL A   1      41.422  29.299  33.051  1.00  0.00     0.074 A 
ATOM     53  C   UNL A   1      40.224  28.520  33.196  1.00  0.00     0.031 C 
ATOM     54  C   UNL A   1      40.951  27.818  26.688  1.00  0.00     0.029 A 
ATOM     55  C   UNL A   1      42.104  27.539  27.521  1.00  0.00     0.049 A 
ATOM     56  H   UNL A   1      42.511  28.333  29.419  1.00  0.00     0.167 HD
ATOM     57  C   UNL A   1      42.628  29.222  33.685  1.00  0.00     0.037 A 
ATOM     58  C   UNL A   1      43.184  26.768  27.244  1.00  0.00     0.037 A 
ATOM     59  C   UNL A   1      43.581  30.087  33.032  1.00  0.00     0.049 A 
ATOM     60  C   UNL A   1      44.285  27.203  28.125  1.00  0.00     0.074 A 
ATOM     61  C   UNL A   1      43.823  31.440  32.938  1.00  0.00     0.029 A 
ATOM     62  N   UNL A   1      44.258  29.478  32.008  1.00  0.00    -0.354 N 
ATOM     63  N   UNL A   1      44.851  28.373  28.033  1.00  0.00    -0.248 NA
ATOM     64  C   UNL A   1      44.540  26.475  29.362  1.00  0.00     0.031 C 
ATOM     65  C   UNL A   1      44.515  31.633  31.704  1.00  0.00     0.029 A 
ATOM     66  C   UNL A   1      44.716  30.392  31.102  1.00  0.00     0.049 A 
ATOM     67  H   UNL A   1      44.396  28.505  31.934  1.00  0.00     0.167 HD
ATOM     68  C   UNL A   1      45.151  28.705  29.338  1.00  0.00     0.074 A 
ATOM     69  C   UNL A   1      45.114  27.449  30.075  1.00  0.00     0.031 C 
ATOM     70  C   UNL A   1      45.064  29.999  29.756  1.00  0.00     0.037 A 
BRANCH  57  71
ATOM     71  C   UNL A   1      43.130  28.040  34.512  1.00  0.00     0.058 A 
ATOM     72  C   UNL A   1      43.448  28.262  35.874  1.00  0.00     0.135 A 
ATOM     73  C   UNL A   1      43.615  26.825  33.980  1.00  0.00     0.135 A 
ATOM     74  F   UNL A   1      43.010  29.361  36.510  1.00  0.00    -0.206 F 
ATOM     75  C   UNL A   1      44.286  27.415  36.604  1.00  0.00     0.059 A 
ATOM     76  C   UNL A   1      44.416  25.946  34.704  1.00  0.00     0.059 A 
ATOM     77  F   UNL A   1      43.416  26.458  32.712  1.00  0.00    -0.206 F 
ATOM     78  C   UNL A   1      44.788  26.270  35.996  1.00  0.00     0.060 A 
BRANCH  78  79
ATOM     79  S   UNL A   1      45.964  25.235  36.884  1.00  0.00     0.124 S 
ATOM     80  O   UNL A   1      46.667  24.586  35.784  1.00  0.00    -0.237 OA
ATOM     81  O   UNL A   1      46.725  26.222  37.641  1.00  0.00    -0.237 OA
ATOM     82  O   UNL A   1      45.105  24.367  37.685  1.00  0.00    -0.744 OA
ENDBRANCH  78  79
ENDBRANCH  57  71
BRANCH  58  83
ATOM     83  C   UNL A   1      43.267  25.508  26.474  1.00  0.00     0.058 A 
ATOM     84  C   UNL A   1      44.163  25.345  25.403  1.00  0.00     0.135 A 
ATOM     85  C   UNL A   1      42.707  24.339  27.009  1.00  0.00     0.135 A 
ATOM     86  F   UNL A   1      44.770  26.415  24.867  1.00  0.00    -0.206 F 
ATOM     87  C   UNL A   1      44.512  24.084  24.906  1.00  0.00     0.059 A 
ATOM     88  C   UNL A   1      43.074  23.075  26.555  1.00  0.00     0.059 A 
ATOM     89  F   UNL A   1      41.871  24.394  28.058  1.00  0.00    -0.206 F 
ATOM     90  C   UNL A   1      43.974  22.948  25.506  1.00  0.00     0.060 A 
BRANCH  90  91
ATOM     91  S   UNL A   1      44.497  21.305  24.958  1.00  0.00     0.124 S 
ATOM     92  O   UNL A   1      43.431  20.458  25.483  1.00  0.00    -0.237 OA
ATOM     93  O   UNL A   1      44.533  21.463  23.509  1.00  0.00    -0.237 OA
ATOM     94  O   UNL A   1      45.798  21.128  25.599  1.00  0.00    -0.744 OA
ENDBRANCH  90  91
ENDBRANCH  58  83
BRANCH  70  95
ATOM     95  C   UNL A   1      45.203  31.066  28.715  1.00  0.00     0.058 A 
ATOM     96  C   UNL A   1      46.393  31.397  28.046  1.00  0.00     0.135 A 
ATOM     97  C   UNL A   1      44.036  31.740  28.330  1.00  0.00     0.135 A 
ATOM     98  F   UNL A   1      47.535  30.746  28.306  1.00  0.00    -0.206 F 
ATOM     99  C   UNL A   1      46.424  32.381  27.055  1.00  0.00     0.059 A 
ATOM    100  C   UNL A   1      44.037  32.702  27.328  1.00  0.00     0.059 A 
ATOM    101  F   UNL A   1      42.862  31.434  28.907  1.00  0.00    -0.206 F 
ATOM    102  C   UNL A   1      45.238  33.027  26.703  1.00  0.00     0.060 A 
BRANCH 102 103
ATOM    103  S   UNL A   1      45.259  34.251  25.376  1.00  0.00     0.124 S 
ATOM    104  O   UNL A   1      44.694  33.503  24.259  1.00  0.00    -0.237 OA
ATOM    105  O   UNL A   1      44.420  35.317  25.915  1.00  0.00    -0.237 OA
ATOM    106  O   UNL A   1      46.675  34.589  25.248  1.00  0.00    -0.744 OA
ENDBRANCH 102 103
ENDBRANCH  70  95
ENDBRANCH  44  45
ENDBRANCH  36  39
ENDBRANCH  34  35
ENDBRANCH  33  34
ENDBRANCH   1  33
TORSDOF 19
ENDMDL
