MODEL 1
REMARK VINA RESULT:     -10.0      0.000      0.000
REMARK SMILES CC(C)[C@H](NC(=O)OCc1ccccc1)C(=O)NCC(=O)NCCCCCCNC(=O)c1ccc(-c2c3nc(c(-c4c(F)cc(S(=O)(=O)[O-])cc4F)c4ccc([nH]4)c(-c4c(F)cc(S(=O)(=O)[O-])cc4F)c4nc(c(-c5c(F)cc(S(=O)(=O)[O-])cc5F)c5ccc2[nH]5)C=C4)C=C3)cc1
REMARK SMILES IDX 24 1 23 2 22 3 20 4 21 5 19 7 18 8 16 9 17 10 4 12 2 13 1 14
REMARK SMILES IDX 3 15 5 16 6 17 7 19 8 20 9 21 10 22 11 23 15 24 12 25 14 26
REMARK SMILES IDX 13 27 25 28 26 29 27 30 28 31 29 32 30 33 31 35 32 36 33 37
REMARK SMILES IDX 97 38 34 39 96 40 35 41 36 42 37 43 90 44 38 45 95 46 89 47
REMARK SMILES IDX 91 48 39 49 94 50 88 51 87 52 40 54 74 55 53 56 73 57 54 58
REMARK SMILES IDX 57 59 72 60 92 61 55 62 56 63 71 65 93 66 58 67 41 68 42 69
REMARK SMILES IDX 51 70 43 71 44 72 50 73 52 74 45 75 46 76 47 77 48 78 49 79
REMARK SMILES IDX 75 80 76 81 85 82 77 83 78 84 84 85 86 86 79 87 80 88 81 89
REMARK SMILES IDX 82 90 83 91 59 92 60 93 69 94 61 95 62 96 68 97 70 98 63 99
REMARK SMILES IDX 64 100 65 101 66 102 67 103
REMARK H PARENT 22 6 18 11 5 18 29 34 91 53 57 64
REMARK Flexibility Score: inf
ROOT
ATOM      1  C   UNL A   1      39.748  23.212  27.330  1.00  0.00     0.021 C 
ENDROOT
BRANCH   1   2
ATOM      2  C   UNL A   1      38.847  23.203  26.099  1.00  0.00     0.116 C 
BRANCH   2   3
ATOM      3  N   UNL A   1      38.303  21.889  25.816  1.00  0.00    -0.355 N 
ATOM      4  C   UNL A   1      37.027  21.535  25.481  1.00  0.00     0.239 C 
ATOM      5  O   UNL A   1      36.837  20.396  25.047  1.00  0.00    -0.273 OA
ATOM      6  H   UNL A   1      38.945  21.145  25.875  1.00  0.00     0.163 HD
BRANCH   4   7
ATOM      7  C   UNL A   1      35.886  22.564  25.503  1.00  0.00     0.216 C 
BRANCH   7   8
ATOM      8  N   UNL A   1      35.584  23.119  24.196  1.00  0.00    -0.345 N 
ATOM      9  C   UNL A   1      34.452  23.064  23.446  1.00  0.00     0.243 C 
ATOM     10  O   UNL A   1      34.512  23.562  22.316  1.00  0.00    -0.273 OA
ATOM     11  H   UNL A   1      36.324  23.622  23.783  1.00  0.00     0.164 HD
BRANCH   9  12
ATOM     12  C   UNL A   1      33.147  22.377  23.929  1.00  0.00     0.177 C 
BRANCH  12  13
ATOM     13  C   UNL A   1      33.197  20.836  23.951  1.00  0.00     0.015 C 
ATOM     14  C   UNL A   1      32.891  20.265  25.343  1.00  0.00     0.010 C 
ATOM     15  C   UNL A   1      32.170  20.265  22.961  1.00  0.00     0.010 C 
ENDBRANCH  12  13
BRANCH  12  16
ATOM     16  N   UNL A   1      32.009  23.046  23.283  1.00  0.00    -0.309 N 
ATOM     17  C   UNL A   1      31.332  24.191  23.555  1.00  0.00     0.408 C 
ATOM     18  H   UNL A   1      31.667  22.565  22.493  1.00  0.00     0.167 HD
ATOM     19  O   UNL A   1      30.158  24.295  23.208  1.00  0.00    -0.225 OA
BRANCH  17  20
ATOM     20  O   UNL A   1      32.032  25.124  24.232  1.00  0.00    -0.445 OA
BRANCH  20  21
ATOM     21  C   UNL A   1      31.468  25.567  25.477  1.00  0.00     0.270 C 
BRANCH  21  22
ATOM     22  C   UNL A   1      31.593  27.055  25.712  1.00  0.00    -0.011 A 
ATOM     23  C   UNL A   1      31.703  27.954  24.643  1.00  0.00     0.007 A 
ATOM     24  C   UNL A   1      31.604  27.564  27.020  1.00  0.00     0.007 A 
ATOM     25  C   UNL A   1      31.829  29.327  24.880  1.00  0.00     0.000 A 
ATOM     26  C   UNL A   1      31.716  28.934  27.257  1.00  0.00     0.000 A 
ATOM     27  C   UNL A   1      31.832  29.816  26.186  1.00  0.00     0.000 A 
ENDBRANCH  21  22
ENDBRANCH  20  21
ENDBRANCH  17  20
ENDBRANCH  12  16
ENDBRANCH   9  12
ENDBRANCH   7   8
ENDBRANCH   4   7
ENDBRANCH   2   3
ENDBRANCH   1   2
BRANCH   1  28
ATOM     28  C   UNL A   1      40.520  21.908  27.555  1.00  0.00     0.002 C 
BRANCH  28  29
ATOM     29  C   UNL A   1      41.851  21.788  26.804  1.00  0.00     0.002 C 
BRANCH  29  30
ATOM     30  C   UNL A   1      43.104  22.179  27.595  1.00  0.00     0.021 C 
BRANCH  30  31
ATOM     31  C   UNL A   1      43.493  23.654  27.516  1.00  0.00     0.116 C 
BRANCH  31  32
ATOM     32  N   UNL A   1      43.166  24.248  26.230  1.00  0.00    -0.352 N 
ATOM     33  C   UNL A   1      42.531  25.434  25.955  1.00  0.00     0.251 C 
ATOM     34  H   UNL A   1      43.437  23.724  25.443  1.00  0.00     0.163 HD
ATOM     35  O   UNL A   1      42.202  25.701  24.804  1.00  0.00    -0.269 OA
BRANCH  33  36
ATOM     36  C   UNL A   1      42.224  26.378  27.053  1.00  0.00     0.039 A 
ATOM     37  C   UNL A   1      41.433  25.940  28.119  1.00  0.00     0.014 A 
ATOM     38  C   UNL A   1      42.702  27.691  27.023  1.00  0.00     0.014 A 
ATOM     39  C   UNL A   1      41.174  26.799  29.190  1.00  0.00     0.010 A 
ATOM     40  C   UNL A   1      42.483  28.530  28.113  1.00  0.00     0.010 A 
ATOM     41  C   UNL A   1      41.722  28.091  29.208  1.00  0.00    -0.014 A 
BRANCH  41  42
ATOM     42  C   UNL A   1      41.511  29.012  30.353  1.00  0.00     0.031 A 
ATOM     43  C   UNL A   1      42.395  28.910  31.565  1.00  0.00     0.074 A 
ATOM     44  C   UNL A   1      40.480  29.879  30.336  1.00  0.00     0.049 A 
ATOM     45  N   UNL A   1      42.279  29.500  32.726  1.00  0.00    -0.248 NA
ATOM     46  C   UNL A   1      43.550  28.003  31.463  1.00  0.00     0.031 C 
ATOM     47  C   UNL A   1      39.542  30.059  29.227  1.00  0.00     0.029 A 
ATOM     48  N   UNL A   1      40.035  30.758  31.292  1.00  0.00    -0.354 N 
ATOM     49  C   UNL A   1      43.330  29.025  33.499  1.00  0.00     0.074 A 
ATOM     50  C   UNL A   1      44.055  28.071  32.687  1.00  0.00     0.031 C 
ATOM     51  C   UNL A   1      38.635  30.990  29.563  1.00  0.00     0.029 A 
ATOM     52  C   UNL A   1      38.902  31.444  30.925  1.00  0.00     0.049 A 
ATOM     53  H   UNL A   1      40.484  30.884  32.158  1.00  0.00     0.167 HD
ATOM     54  C   UNL A   1      43.669  29.363  34.766  1.00  0.00     0.037 A 
ATOM     55  C   UNL A   1      38.152  32.325  31.616  1.00  0.00     0.037 A 
ATOM     56  C   UNL A   1      42.959  30.329  35.561  1.00  0.00     0.049 A 
ATOM     57  C   UNL A   1      38.544  32.681  33.025  1.00  0.00     0.074 A 
ATOM     58  C   UNL A   1      43.233  30.754  36.850  1.00  0.00     0.029 A 
ATOM     59  N   UNL A   1      41.840  31.031  35.138  1.00  0.00    -0.354 N 
ATOM     60  N   UNL A   1      39.549  32.229  33.737  1.00  0.00    -0.248 NA
ATOM     61  C   UNL A   1      37.703  33.661  33.724  1.00  0.00     0.031 C 
ATOM     62  C   UNL A   1      42.268  31.700  37.212  1.00  0.00     0.029 A 
ATOM     63  C   UNL A   1      41.411  31.885  36.140  1.00  0.00     0.049 A 
ATOM     64  H   UNL A   1      41.414  30.935  34.256  1.00  0.00     0.167 HD
ATOM     65  C   UNL A   1      39.475  32.891  34.957  1.00  0.00     0.074 A 
ATOM     66  C   UNL A   1      38.331  33.775  34.887  1.00  0.00     0.031 C 
ATOM     67  C   UNL A   1      40.283  32.776  36.039  1.00  0.00     0.037 A 
BRANCH  54  68
ATOM     68  C   UNL A   1      44.866  28.683  35.366  1.00  0.00     0.058 A 
ATOM     69  C   UNL A   1      44.744  27.474  36.069  1.00  0.00     0.135 A 
ATOM     70  C   UNL A   1      46.151  29.231  35.221  1.00  0.00     0.135 A 
ATOM     71  F   UNL A   1      43.536  26.918  36.251  1.00  0.00    -0.206 F 
ATOM     72  C   UNL A   1      45.849  26.846  36.632  1.00  0.00     0.059 A 
ATOM     73  C   UNL A   1      47.274  28.607  35.755  1.00  0.00     0.059 A 
ATOM     74  F   UNL A   1      46.322  30.386  34.558  1.00  0.00    -0.206 F 
ATOM     75  C   UNL A   1      47.110  27.423  36.473  1.00  0.00     0.060 A 
BRANCH  75  76
ATOM     76  S   UNL A   1      48.538  26.599  37.212  1.00  0.00     0.124 S 
ATOM     77  O   UNL A   1      49.643  27.299  36.564  1.00  0.00    -0.237 OA
ATOM     78  O   UNL A   1      48.361  26.875  38.634  1.00  0.00    -0.237 OA
ATOM     79  O   UNL A   1      48.362  25.203  36.821  1.00  0.00    -0.744 OA
ENDBRANCH  75  76
ENDBRANCH  54  68
BRANCH  55  80
ATOM     80  C   UNL A   1      36.954  32.940  30.987  1.00  0.00     0.058 A 
ATOM     81  C   UNL A   1      37.081  34.046  30.133  1.00  0.00     0.135 A 
ATOM     82  C   UNL A   1      35.666  32.438  31.224  1.00  0.00     0.135 A 
ATOM     83  F   UNL A   1      38.293  34.564  29.882  1.00  0.00    -0.206 F 
ATOM     84  C   UNL A   1      35.969  34.648  29.553  1.00  0.00     0.059 A 
ATOM     85  C   UNL A   1      34.540  33.010  30.637  1.00  0.00     0.059 A 
ATOM     86  F   UNL A   1      35.496  31.372  32.020  1.00  0.00    -0.206 F 
ATOM     87  C   UNL A   1      34.702  34.124  29.813  1.00  0.00     0.060 A 
BRANCH  87  88
ATOM     88  S   UNL A   1      33.265  34.887  29.029  1.00  0.00     0.124 S 
ATOM     89  O   UNL A   1      32.782  33.802  28.184  1.00  0.00    -0.237 OA
ATOM     90  O   UNL A   1      32.427  35.224  30.177  1.00  0.00    -0.237 OA
ATOM     91  O   UNL A   1      33.837  36.031  28.326  1.00  0.00    -0.744 OA
ENDBRANCH  87  88
ENDBRANCH  55  80
BRANCH  67  92
ATOM     92  C   UNL A   1      39.991  33.657  37.219  1.00  0.00     0.058 A 
ATOM     93  C   UNL A   1      40.610  34.905  37.374  1.00  0.00     0.135 A 
ATOM     94  C   UNL A   1      39.022  33.277  38.162  1.00  0.00     0.135 A 
ATOM     95  F   UNL A   1      41.548  35.308  36.502  1.00  0.00    -0.206 F 
ATOM     96  C   UNL A   1      40.283  35.748  38.432  1.00  0.00     0.059 A 
ATOM     97  C   UNL A   1      38.667  34.111  39.215  1.00  0.00     0.059 A 
ATOM     98  F   UNL A   1      38.398  32.093  38.051  1.00  0.00    -0.206 F 
ATOM     99  C   UNL A   1      39.307  35.344  39.346  1.00  0.00     0.060 A 
BRANCH  99 100
ATOM    100  S   UNL A   1      38.844  36.471  40.678  1.00  0.00     0.124 S 
ATOM    101  O   UNL A   1      38.464  37.667  39.932  1.00  0.00    -0.237 OA
ATOM    102  O   UNL A   1      37.752  35.757  41.331  1.00  0.00    -0.237 OA
ATOM    103  O   UNL A   1      40.069  36.584  41.465  1.00  0.00    -0.744 OA
ENDBRANCH  99 100
ENDBRANCH  67  92
ENDBRANCH  41  42
ENDBRANCH  33  36
ENDBRANCH  31  32
ENDBRANCH  30  31
ENDBRANCH  29  30
ENDBRANCH  28  29
ENDBRANCH   1  28
TORSDOF 23
ENDMDL
MODEL 2
REMARK VINA RESULT:      -9.7      1.749      2.611
REMARK SMILES CC(C)[C@H](NC(=O)OCc1ccccc1)C(=O)NCC(=O)NCCCCCCNC(=O)c1ccc(-c2c3nc(c(-c4c(F)cc(S(=O)(=O)[O-])cc4F)c4ccc([nH]4)c(-c4c(F)cc(S(=O)(=O)[O-])cc4F)c4nc(c(-c5c(F)cc(S(=O)(=O)[O-])cc5F)c5ccc2[nH]5)C=C4)C=C3)cc1
REMARK SMILES IDX 24 1 23 2 22 3 20 4 21 5 19 7 18 8 16 9 17 10 4 12 2 13 1 14
REMARK SMILES IDX 3 15 5 16 6 17 7 19 8 20 9 21 10 22 11 23 15 24 12 25 14 26
REMARK SMILES IDX 13 27 25 28 26 29 27 30 28 31 29 32 30 33 31 35 32 36 33 37
REMARK SMILES IDX 97 38 34 39 96 40 35 41 36 42 37 43 90 44 38 45 95 46 89 47
REMARK SMILES IDX 91 48 39 49 94 50 88 51 87 52 40 54 74 55 53 56 73 57 54 58
REMARK SMILES IDX 57 59 72 60 92 61 55 62 56 63 71 65 93 66 58 67 41 68 42 69
REMARK SMILES IDX 51 70 43 71 44 72 50 73 52 74 45 75 46 76 47 77 48 78 49 79
REMARK SMILES IDX 75 80 76 81 85 82 77 83 78 84 84 85 86 86 79 87 80 88 81 89
REMARK SMILES IDX 82 90 83 91 59 92 60 93 69 94 61 95 62 96 68 97 70 98 63 99
REMARK SMILES IDX 64 100 65 101 66 102 67 103
REMARK H PARENT 22 6 18 11 5 18 29 34 91 53 57 64
REMARK Flexibility Score: inf
ROOT
ATOM      1  C   UNL A   1      39.708  24.158  26.945  1.00  0.00     0.021 C 
ENDROOT
BRANCH   1   2
ATOM      2  C   UNL A   1      38.265  24.074  26.457  1.00  0.00     0.116 C 
BRANCH   2   3
ATOM      3  N   UNL A   1      38.073  23.031  25.467  1.00  0.00    -0.355 N 
ATOM      4  C   UNL A   1      36.922  22.621  24.855  1.00  0.00     0.239 C 
ATOM      5  O   UNL A   1      37.021  21.885  23.870  1.00  0.00    -0.273 OA
ATOM      6  H   UNL A   1      38.888  22.550  25.197  1.00  0.00     0.163 HD
BRANCH   4   7
ATOM      7  C   UNL A   1      35.554  23.171  25.287  1.00  0.00     0.216 C 
BRANCH   7   8
ATOM      8  N   UNL A   1      34.971  24.089  24.325  1.00  0.00    -0.345 N 
ATOM      9  C   UNL A   1      33.753  24.689  24.295  1.00  0.00     0.243 C 
ATOM     10  O   UNL A   1      33.494  25.365  23.292  1.00  0.00    -0.273 OA
ATOM     11  H   UNL A   1      35.559  24.316  23.568  1.00  0.00     0.164 HD
BRANCH   9  12
ATOM     12  C   UNL A   1      32.696  24.521  25.418  1.00  0.00     0.177 C 
BRANCH  12  13
ATOM     13  C   UNL A   1      31.503  23.615  25.052  1.00  0.00     0.015 C 
ATOM     14  C   UNL A   1      31.954  22.271  24.462  1.00  0.00     0.010 C 
ATOM     15  C   UNL A   1      30.659  23.330  26.304  1.00  0.00     0.010 C 
ENDBRANCH  12  13
BRANCH  12  16
ATOM     16  N   UNL A   1      32.434  25.843  26.006  1.00  0.00    -0.309 N 
ATOM     17  C   UNL A   1      31.686  26.903  25.605  1.00  0.00     0.408 C 
ATOM     18  H   UNL A   1      32.895  25.989  26.864  1.00  0.00     0.167 HD
ATOM     19  O   UNL A   1      31.996  28.033  25.974  1.00  0.00    -0.225 OA
BRANCH  17  20
ATOM     20  O   UNL A   1      30.659  26.602  24.784  1.00  0.00    -0.445 OA
BRANCH  20  21
ATOM     21  C   UNL A   1      30.644  27.267  23.510  1.00  0.00     0.270 C 
BRANCH  21  22
ATOM     22  C   UNL A   1      29.590  28.343  23.392  1.00  0.00    -0.011 A 
ATOM     23  C   UNL A   1      28.249  28.023  23.142  1.00  0.00     0.007 A 
ATOM     24  C   UNL A   1      29.943  29.694  23.531  1.00  0.00     0.007 A 
ATOM     25  C   UNL A   1      27.289  29.034  23.024  1.00  0.00     0.000 A 
ATOM     26  C   UNL A   1      28.983  30.701  23.428  1.00  0.00     0.000 A 
ATOM     27  C   UNL A   1      27.656  30.371  23.171  1.00  0.00     0.000 A 
ENDBRANCH  21  22
ENDBRANCH  20  21
ENDBRANCH  17  20
ENDBRANCH  12  16
ENDBRANCH   9  12
ENDBRANCH   7   8
ENDBRANCH   4   7
ENDBRANCH   2   3
ENDBRANCH   1   2
BRANCH   1  28
ATOM     28  C   UNL A   1      40.133  25.552  27.419  1.00  0.00     0.002 C 
BRANCH  28  29
ATOM     29  C   UNL A   1      40.943  26.375  26.411  1.00  0.00     0.002 C 
BRANCH  29  30
ATOM     30  C   UNL A   1      41.748  25.571  25.384  1.00  0.00     0.021 C 
BRANCH  30  31
ATOM     31  C   UNL A   1      43.228  25.932  25.285  1.00  0.00     0.116 C 
BRANCH  31  32
ATOM     32  N   UNL A   1      44.080  24.988  25.991  1.00  0.00    -0.352 N 
ATOM     33  C   UNL A   1      44.541  25.030  27.284  1.00  0.00     0.251 C 
ATOM     34  H   UNL A   1      44.369  24.208  25.466  1.00  0.00     0.163 HD
ATOM     35  O   UNL A   1      45.380  24.218  27.662  1.00  0.00    -0.269 OA
BRANCH  33  36
ATOM     36  C   UNL A   1      44.040  26.067  28.213  1.00  0.00     0.039 A 
ATOM     37  C   UNL A   1      43.203  25.684  29.265  1.00  0.00     0.014 A 
ATOM     38  C   UNL A   1      44.383  27.411  28.039  1.00  0.00     0.014 A 
ATOM     39  C   UNL A   1      42.761  26.639  30.183  1.00  0.00     0.010 A 
ATOM     40  C   UNL A   1      43.980  28.354  28.982  1.00  0.00     0.010 A 
ATOM     41  C   UNL A   1      43.170  27.976  30.065  1.00  0.00    -0.014 A 
BRANCH  41  42
ATOM     42  C   UNL A   1      42.763  29.008  31.052  1.00  0.00     0.031 A 
ATOM     43  C   UNL A   1      43.548  29.175  32.323  1.00  0.00     0.074 A 
ATOM     44  C   UNL A   1      41.647  29.733  30.843  1.00  0.00     0.049 A 
ATOM     45  N   UNL A   1      43.270  29.895  33.379  1.00  0.00    -0.248 NA
ATOM     46  C   UNL A   1      44.801  28.410  32.428  1.00  0.00     0.031 C 
ATOM     47  C   UNL A   1      40.791  29.649  29.658  1.00  0.00     0.029 A 
ATOM     48  N   UNL A   1      41.028  30.669  31.633  1.00  0.00    -0.354 N 
ATOM     49  C   UNL A   1      44.299  29.657  34.281  1.00  0.00     0.074 A 
ATOM     50  C   UNL A   1      45.192  28.700  33.662  1.00  0.00     0.031 C 
ATOM     51  C   UNL A   1      39.761  30.499  29.798  1.00  0.00     0.029 A 
ATOM     52  C   UNL A   1      39.860  31.158  31.097  1.00  0.00     0.049 A 
ATOM     53  H   UNL A   1      41.386  30.962  32.501  1.00  0.00     0.167 HD
ATOM     54  C   UNL A   1      44.491  30.198  35.508  1.00  0.00     0.037 A 
ATOM     55  C   UNL A   1      38.961  32.024  31.604  1.00  0.00     0.037 A 
ATOM     56  C   UNL A   1      43.613  31.167  36.108  1.00  0.00     0.049 A 
ATOM     57  C   UNL A   1      39.192  32.607  32.972  1.00  0.00     0.074 A 
ATOM     58  C   UNL A   1      43.729  31.789  37.340  1.00  0.00     0.029 A 
ATOM     59  N   UNL A   1      42.462  31.665  35.516  1.00  0.00    -0.354 N 
ATOM     60  N   UNL A   1      40.177  32.380  33.807  1.00  0.00    -0.248 NA
ATOM     61  C   UNL A   1      38.191  33.562  33.468  1.00  0.00     0.031 C 
ATOM     62  C   UNL A   1      42.637  32.649  37.499  1.00  0.00     0.029 A 
ATOM     63  C   UNL A   1      41.858  32.586  36.355  1.00  0.00     0.049 A 
ATOM     64  H   UNL A   1      42.125  31.402  34.629  1.00  0.00     0.167 HD
ATOM     65  C   UNL A   1      39.928  33.183  34.915  1.00  0.00     0.074 A 
ATOM     66  C   UNL A   1      38.703  33.904  34.643  1.00  0.00     0.031 C 
ATOM     67  C   UNL A   1      40.650  33.311  36.054  1.00  0.00     0.037 A 
BRANCH  54  68
ATOM     68  C   UNL A   1      45.701  29.755  36.278  1.00  0.00     0.058 A 
ATOM     69  C   UNL A   1      46.921  30.442  36.181  1.00  0.00     0.135 A 
ATOM     70  C   UNL A   1      45.639  28.647  37.138  1.00  0.00     0.135 A 
ATOM     71  F   UNL A   1      47.038  31.497  35.359  1.00  0.00    -0.206 F 
ATOM     72  C   UNL A   1      48.045  30.031  36.887  1.00  0.00     0.059 A 
ATOM     73  C   UNL A   1      46.745  28.231  37.873  1.00  0.00     0.059 A 
ATOM     74  F   UNL A   1      44.495  27.955  37.267  1.00  0.00    -0.206 F 
ATOM     75  C   UNL A   1      47.948  28.920  37.728  1.00  0.00     0.060 A 
BRANCH  75  76
ATOM     76  S   UNL A   1      49.417  28.393  38.637  1.00  0.00     0.124 S 
ATOM     77  O   UNL A   1      48.831  27.529  39.658  1.00  0.00    -0.237 OA
ATOM     78  O   UNL A   1      50.200  27.716  37.609  1.00  0.00    -0.237 OA
ATOM     79  O   UNL A   1      49.981  29.648  39.125  1.00  0.00    -0.744 OA
ENDBRANCH  75  76
ENDBRANCH  54  68
BRANCH  55  80
ATOM     80  C   UNL A   1      37.760  32.400  30.815  1.00  0.00     0.058 A 
ATOM     81  C   UNL A   1      37.766  33.541  30.000  1.00  0.00     0.135 A 
ATOM     82  C   UNL A   1      36.588  31.631  30.859  1.00  0.00     0.135 A 
ATOM     83  F   UNL A   1      38.863  34.311  29.931  1.00  0.00    -0.206 F 
ATOM     84  C   UNL A   1      36.643  33.921  29.271  1.00  0.00     0.059 A 
ATOM     85  C   UNL A   1      35.459  31.977  30.121  1.00  0.00     0.059 A 
ATOM     86  F   UNL A   1      36.539  30.521  31.611  1.00  0.00    -0.206 F 
ATOM     87  C   UNL A   1      35.493  33.133  29.340  1.00  0.00     0.060 A 
BRANCH  87  88
ATOM     88  S   UNL A   1      34.050  33.610  28.365  1.00  0.00     0.124 S 
ATOM     89  O   UNL A   1      33.267  34.353  29.345  1.00  0.00    -0.237 OA
ATOM     90  O   UNL A   1      34.647  34.402  27.292  1.00  0.00    -0.237 OA
ATOM     91  O   UNL A   1      33.490  32.329  27.948  1.00  0.00    -0.744 OA
ENDBRANCH  87  88
ENDBRANCH  55  80
BRANCH  67  92
ATOM     92  C   UNL A   1      40.164  34.298  37.075  1.00  0.00     0.058 A 
ATOM     93  C   UNL A   1      39.313  33.913  38.121  1.00  0.00     0.135 A 
ATOM     94  C   UNL A   1      40.619  35.626  37.047  1.00  0.00     0.135 A 
ATOM     95  F   UNL A   1      38.846  32.656  38.184  1.00  0.00    -0.206 F 
ATOM     96  C   UNL A   1      38.921  34.815  39.105  1.00  0.00     0.059 A 
ATOM     97  C   UNL A   1      40.255  36.539  38.031  1.00  0.00     0.059 A 
ATOM     98  F   UNL A   1      41.439  36.040  36.069  1.00  0.00    -0.206 F 
ATOM     99  C   UNL A   1      39.401  36.126  39.054  1.00  0.00     0.060 A 
BRANCH  99 100
ATOM    100  S   UNL A   1      38.938  37.272  40.369  1.00  0.00     0.124 S 
ATOM    101  O   UNL A   1      38.198  38.287  39.627  1.00  0.00    -0.237 OA
ATOM    102  O   UNL A   1      38.143  36.430  41.257  1.00  0.00    -0.237 OA
ATOM    103  O   UNL A   1      40.225  37.702  40.911  1.00  0.00    -0.744 OA
ENDBRANCH  99 100
ENDBRANCH  67  92
ENDBRANCH  41  42
ENDBRANCH  33  36
ENDBRANCH  31  32
ENDBRANCH  30  31
ENDBRANCH  29  30
ENDBRANCH  28  29
ENDBRANCH   1  28
TORSDOF 23
ENDMDL
MODEL 3
REMARK VINA RESULT:      -9.6      1.716      8.289
REMARK SMILES CC(C)[C@H](NC(=O)OCc1ccccc1)C(=O)NCC(=O)NCCCCCCNC(=O)c1ccc(-c2c3nc(c(-c4c(F)cc(S(=O)(=O)[O-])cc4F)c4ccc([nH]4)c(-c4c(F)cc(S(=O)(=O)[O-])cc4F)c4nc(c(-c5c(F)cc(S(=O)(=O)[O-])cc5F)c5ccc2[nH]5)C=C4)C=C3)cc1
REMARK SMILES IDX 24 1 23 2 22 3 20 4 21 5 19 7 18 8 16 9 17 10 4 12 2 13 1 14
REMARK SMILES IDX 3 15 5 16 6 17 7 19 8 20 9 21 10 22 11 23 15 24 12 25 14 26
REMARK SMILES IDX 13 27 25 28 26 29 27 30 28 31 29 32 30 33 31 35 32 36 33 37
REMARK SMILES IDX 97 38 34 39 96 40 35 41 36 42 37 43 90 44 38 45 95 46 89 47
REMARK SMILES IDX 91 48 39 49 94 50 88 51 87 52 40 54 74 55 53 56 73 57 54 58
REMARK SMILES IDX 57 59 72 60 92 61 55 62 56 63 71 65 93 66 58 67 41 68 42 69
REMARK SMILES IDX 51 70 43 71 44 72 50 73 52 74 45 75 46 76 47 77 48 78 49 79
REMARK SMILES IDX 75 80 76 81 85 82 77 83 78 84 84 85 86 86 79 87 80 88 81 89
REMARK SMILES IDX 82 90 83 91 59 92 60 93 69 94 61 95 62 96 68 97 70 98 63 99
REMARK SMILES IDX 64 100 65 101 66 102 67 103
REMARK H PARENT 22 6 18 11 5 18 29 34 91 53 57 64
REMARK Flexibility Score: inf
ROOT
ATOM      1  C   UNL A   1      39.860  25.193  26.576  1.00  0.00     0.021 C 
ENDROOT
BRANCH   1   2
ATOM      2  C   UNL A   1      39.161  24.089  27.362  1.00  0.00     0.116 C 
BRANCH   2   3
ATOM      3  N   UNL A   1      38.826  22.944  26.537  1.00  0.00    -0.355 N 
ATOM      4  C   UNL A   1      37.727  22.735  25.754  1.00  0.00     0.239 C 
ATOM      5  O   UNL A   1      37.759  21.800  24.950  1.00  0.00    -0.273 OA
ATOM      6  H   UNL A   1      39.485  22.213  26.542  1.00  0.00     0.163 HD
BRANCH   4   7
ATOM      7  C   UNL A   1      36.544  23.716  25.766  1.00  0.00     0.216 C 
BRANCH   7   8
ATOM      8  N   UNL A   1      35.950  23.921  24.458  1.00  0.00    -0.345 N 
ATOM      9  C   UNL A   1      34.655  23.867  24.051  1.00  0.00     0.243 C 
ATOM     10  O   UNL A   1      34.449  24.000  22.840  1.00  0.00    -0.273 OA
ATOM     11  H   UNL A   1      36.594  24.136  23.744  1.00  0.00     0.164 HD
BRANCH   9  12
ATOM     12  C   UNL A   1      33.471  23.604  25.020  1.00  0.00     0.177 C 
BRANCH  12  13
ATOM     13  C   UNL A   1      32.377  22.670  24.465  1.00  0.00     0.015 C 
ATOM     14  C   UNL A   1      32.912  21.262  24.168  1.00  0.00     0.010 C 
ATOM     15  C   UNL A   1      31.232  22.543  25.483  1.00  0.00     0.010 C 
ENDBRANCH  12  13
BRANCH  12  16
ATOM     16  N   UNL A   1      33.078  24.885  25.624  1.00  0.00    -0.309 N 
ATOM     17  C   UNL A   1      32.501  26.007  25.121  1.00  0.00     0.408 C 
ATOM     18  H   UNL A   1      33.274  24.942  26.588  1.00  0.00     0.167 HD
ATOM     19  O   UNL A   1      32.713  27.089  25.663  1.00  0.00    -0.225 OA
BRANCH  17  20
ATOM     20  O   UNL A   1      31.750  25.820  24.017  1.00  0.00    -0.445 OA
BRANCH  20  21
ATOM     21  C   UNL A   1      30.326  25.913  24.189  1.00  0.00     0.270 C 
BRANCH  21  22
ATOM     22  C   UNL A   1      29.710  27.138  23.555  1.00  0.00    -0.011 A 
ATOM     23  C   UNL A   1      28.330  27.372  23.612  1.00  0.00     0.007 A 
ATOM     24  C   UNL A   1      30.522  28.072  22.890  1.00  0.00     0.007 A 
ATOM     25  C   UNL A   1      27.776  28.506  23.009  1.00  0.00     0.000 A 
ATOM     26  C   UNL A   1      29.972  29.211  22.302  1.00  0.00     0.000 A 
ATOM     27  C   UNL A   1      28.598  29.426  22.358  1.00  0.00     0.000 A 
ENDBRANCH  21  22
ENDBRANCH  20  21
ENDBRANCH  17  20
ENDBRANCH  12  16
ENDBRANCH   9  12
ENDBRANCH   7   8
ENDBRANCH   4   7
ENDBRANCH   2   3
ENDBRANCH   1   2
BRANCH   1  28
ATOM     28  C   UNL A   1      40.131  26.467  27.382  1.00  0.00     0.002 C 
BRANCH  28  29
ATOM     29  C   UNL A   1      40.977  27.531  26.673  1.00  0.00     0.002 C 
BRANCH  29  30
ATOM     30  C   UNL A   1      41.680  27.081  25.388  1.00  0.00     0.021 C 
BRANCH  30  31
ATOM     31  C   UNL A   1      43.166  27.420  25.302  1.00  0.00     0.116 C 
BRANCH  31  32
ATOM     32  N   UNL A   1      44.016  26.291  25.644  1.00  0.00    -0.352 N 
ATOM     33  C   UNL A   1      44.532  25.927  26.863  1.00  0.00     0.251 C 
ATOM     34  H   UNL A   1      44.258  25.704  24.892  1.00  0.00     0.163 HD
ATOM     35  O   UNL A   1      45.360  25.024  26.934  1.00  0.00    -0.269 OA
BRANCH  33  36
ATOM     36  C   UNL A   1      44.104  26.640  28.088  1.00  0.00     0.039 A 
ATOM     37  C   UNL A   1      44.485  27.974  28.261  1.00  0.00     0.014 A 
ATOM     38  C   UNL A   1      43.344  25.992  29.066  1.00  0.00     0.014 A 
ATOM     39  C   UNL A   1      44.050  28.680  29.384  1.00  0.00     0.010 A 
ATOM     40  C   UNL A   1      42.872  26.711  30.161  1.00  0.00     0.010 A 
ATOM     41  C   UNL A   1      43.215  28.062  30.328  1.00  0.00    -0.014 A 
BRANCH  41  42
ATOM     42  C   UNL A   1      42.691  28.797  31.506  1.00  0.00     0.031 A 
ATOM     43  C   UNL A   1      41.433  29.610  31.379  1.00  0.00     0.074 A 
ATOM     44  C   UNL A   1      43.386  28.799  32.660  1.00  0.00     0.049 A 
ATOM     45  N   UNL A   1      40.900  30.449  32.229  1.00  0.00    -0.248 NA
ATOM     46  C   UNL A   1      40.689  29.478  30.115  1.00  0.00     0.031 C 
ATOM     47  C   UNL A   1      44.630  28.065  32.902  1.00  0.00     0.029 A 
ATOM     48  N   UNL A   1      43.157  29.460  33.841  1.00  0.00    -0.354 N 
ATOM     49  C   UNL A   1      39.772  30.960  31.600  1.00  0.00     0.074 A 
ATOM     50  C   UNL A   1      39.714  30.362  30.283  1.00  0.00     0.031 C 
ATOM     51  C   UNL A   1      45.052  28.313  34.152  1.00  0.00     0.029 A 
ATOM     52  C   UNL A   1      44.133  29.254  34.787  1.00  0.00     0.049 A 
ATOM     53  H   UNL A   1      42.368  30.027  33.996  1.00  0.00     0.167 HD
ATOM     54  C   UNL A   1      38.858  31.837  32.081  1.00  0.00     0.037 A 
ATOM     55  C   UNL A   1      44.281  29.779  36.019  1.00  0.00     0.037 A 
ATOM     56  C   UNL A   1      38.906  32.409  33.400  1.00  0.00     0.049 A 
ATOM     57  C   UNL A   1      43.257  30.757  36.530  1.00  0.00     0.074 A 
ATOM     58  C   UNL A   1      38.019  33.294  33.989  1.00  0.00     0.029 A 
ATOM     59  N   UNL A   1      39.891  32.144  34.341  1.00  0.00    -0.354 N 
ATOM     60  N   UNL A   1      42.190  31.220  35.925  1.00  0.00    -0.248 NA
ATOM     61  C   UNL A   1      43.457  31.283  37.887  1.00  0.00     0.031 C 
ATOM     62  C   UNL A   1      38.478  33.579  35.280  1.00  0.00     0.029 A 
ATOM     63  C   UNL A   1      39.633  32.848  35.505  1.00  0.00     0.049 A 
ATOM     64  H   UNL A   1      40.659  31.545  34.201  1.00  0.00     0.167 HD
ATOM     65  C   UNL A   1      41.577  32.072  36.838  1.00  0.00     0.074 A 
ATOM     66  C   UNL A   1      42.390  32.057  38.036  1.00  0.00     0.031 C 
ATOM     67  C   UNL A   1      40.443  32.799  36.696  1.00  0.00     0.037 A 
BRANCH  54  68
ATOM     68  C   UNL A   1      37.726  32.223  31.174  1.00  0.00     0.058 A 
ATOM     69  C   UNL A   1      36.474  31.596  31.260  1.00  0.00     0.135 A 
ATOM     70  C   UNL A   1      37.884  33.245  30.225  1.00  0.00     0.135 A 
ATOM     71  F   UNL A   1      36.276  30.601  32.140  1.00  0.00    -0.206 F 
ATOM     72  C   UNL A   1      35.425  31.947  30.418  1.00  0.00     0.059 A 
ATOM     73  C   UNL A   1      36.841  33.630  29.387  1.00  0.00     0.059 A 
ATOM     74  F   UNL A   1      39.062  33.878  30.101  1.00  0.00    -0.206 F 
ATOM     75  C   UNL A   1      35.621  32.963  29.480  1.00  0.00     0.060 A 
BRANCH  75  76
ATOM     76  S   UNL A   1      34.253  33.408  28.389  1.00  0.00     0.124 S 
ATOM     77  O   UNL A   1      33.321  34.024  29.328  1.00  0.00    -0.237 OA
ATOM     78  O   UNL A   1      34.887  34.316  27.439  1.00  0.00    -0.237 OA
ATOM     79  O   UNL A   1      33.830  32.124  27.836  1.00  0.00    -0.744 OA
ENDBRANCH  75  76
ENDBRANCH  54  68
BRANCH  55  80
ATOM     80  C   UNL A   1      45.442  29.391  36.861  1.00  0.00     0.058 A 
ATOM     81  C   UNL A   1      45.367  28.284  37.719  1.00  0.00     0.135 A 
ATOM     82  C   UNL A   1      46.644  30.114  36.826  1.00  0.00     0.135 A 
ATOM     83  F   UNL A   1      44.235  27.566  37.790  1.00  0.00    -0.206 F 
ATOM     84  C   UNL A   1      46.436  27.918  38.531  1.00  0.00     0.059 A 
ATOM     85  C   UNL A   1      47.735  29.755  37.613  1.00  0.00     0.059 A 
ATOM     86  F   UNL A   1      46.770  31.170  36.009  1.00  0.00    -0.206 F 
ATOM     87  C   UNL A   1      47.615  28.662  38.472  1.00  0.00     0.060 A 
BRANCH  87  88
ATOM     88  S   UNL A   1      49.012  28.163  39.502  1.00  0.00     0.124 S 
ATOM     89  O   UNL A   1      48.865  29.054  40.647  1.00  0.00    -0.237 OA
ATOM     90  O   UNL A   1      48.727  26.752  39.752  1.00  0.00    -0.237 OA
ATOM     91  O   UNL A   1      50.166  28.417  38.646  1.00  0.00    -0.744 OA
ENDBRANCH  87  88
ENDBRANCH  55  80
BRANCH  67  92
ATOM     92  C   UNL A   1      39.985  33.606  37.876  1.00  0.00     0.058 A 
ATOM     93  C   UNL A   1      39.053  33.101  38.793  1.00  0.00     0.135 A 
ATOM     94  C   UNL A   1      40.547  34.868  38.131  1.00  0.00     0.135 A 
ATOM     95  F   UNL A   1      38.483  31.903  38.587  1.00  0.00    -0.206 F 
ATOM     96  C   UNL A   1      38.684  33.823  39.924  1.00  0.00     0.059 A 
ATOM     97  C   UNL A   1      40.208  35.599  39.264  1.00  0.00     0.059 A 
ATOM     98  F   UNL A   1      41.449  35.390  37.285  1.00  0.00    -0.206 F 
ATOM     99  C   UNL A   1      39.271  35.071  40.153  1.00  0.00     0.060 A 
BRANCH  99 100
ATOM    100  S   UNL A   1      38.835  35.973  41.654  1.00  0.00     0.124 S 
ATOM    101  O   UNL A   1      39.902  35.565  42.563  1.00  0.00    -0.237 OA
ATOM    102  O   UNL A   1      38.877  37.362  41.212  1.00  0.00    -0.237 OA
ATOM    103  O   UNL A   1      37.504  35.466  41.978  1.00  0.00    -0.744 OA
ENDBRANCH  99 100
ENDBRANCH  67  92
ENDBRANCH  41  42
ENDBRANCH  33  36
ENDBRANCH  31  32
ENDBRANCH  30  31
ENDBRANCH  29  30
ENDBRANCH  28  29
ENDBRANCH   1  28
TORSDOF 23
ENDMDL
