MODEL 1
REMARK VINA RESULT:     -12.4      0.000      0.000
REMARK SMILES O=C(NCCCCCCNC(=O)c1cc2c(c(S(=O)(=O)Nc3cc(C(F)(F)F)ccc3-n3cccn3)c1)CCC2)c1ccc(-c2c3nc(c(-c4c(F)cc(S(=O)(=O)[O-])cc4F)c4ccc([nH]4)c(-c4c(F)cc(S(=O)(=O)[O-])cc4F)c4nc(c(-c5c(F)cc(S(=O)(=O)[O-])cc5F)c5ccc2[nH]5)C=C4)C=C3)cc1
REMARK SMILES IDX 7 1 6 2 5 3 4 4 3 5 1 6 2 7 41 9 42 10 106 11 43 12 105 13
REMARK SMILES IDX 44 14 45 15 46 16 99 17 47 18 104 19 98 20 100 21 48 22
REMARK SMILES IDX 103 23 97 24 96 25 49 27 83 28 62 29 82 30 63 31 66 32 81 33
REMARK SMILES IDX 101 34 64 35 65 36 80 38 102 39 67 40 50 41 51 42 60 43
REMARK SMILES IDX 52 44 53 45 59 46 61 47 54 48 55 49 56 50 57 51 58 52 84 53
REMARK SMILES IDX 85 54 94 55 86 56 87 57 93 58 95 59 88 60 89 61 90 62 91 63
REMARK SMILES IDX 92 64 68 65 69 66 78 67 70 68 71 69 77 70 79 71 72 72 73 73
REMARK SMILES IDX 74 74 75 75 76 76 8 77 9 78 10 79 11 80 12 82 13 83 14 84
REMARK SMILES IDX 37 85 15 86 17 87 16 88 40 89 38 90 39 91 18 92 19 93 20 94
REMARK SMILES IDX 21 95 22 97 23 98 31 99 24 100 30 101 29 102 32 103 33 104
REMARK SMILES IDX 36 105 34 106 35 107 25 108 26 109 27 110 28 111
REMARK H PARENT 3 8 100 26 66 37 10 81 21 96
REMARK Flexibility Score: inf
ROOT
ATOM      1  C   UNL A   1      38.865  23.477  26.884  1.00  0.00     0.002 C 
ENDROOT
BRANCH   1   2
ATOM      2  C   UNL A   1      39.691  22.220  26.585  1.00  0.00     0.002 C 
BRANCH   2   3
ATOM      3  C   UNL A   1      40.942  22.005  27.447  1.00  0.00     0.021 C 
BRANCH   3   4
ATOM      4  C   UNL A   1      42.018  21.120  26.821  1.00  0.00     0.116 C 
BRANCH   4   5
ATOM      5  N   UNL A   1      42.616  21.660  25.618  1.00  0.00    -0.352 N 
ATOM      6  O   UNL A   1      43.615  22.954  24.135  1.00  0.00    -0.269 OA
ATOM      7  C   UNL A   1      43.022  22.902  25.218  1.00  0.00     0.251 C 
ATOM      8  H   UNL A   1      42.763  20.973  24.929  1.00  0.00     0.163 HD
BRANCH   7   9
ATOM      9  C   UNL A   1      42.744  24.172  25.944  1.00  0.00     0.039 A 
ATOM     10  C   UNL A   1      41.863  25.174  25.534  1.00  0.00     0.014 A 
ATOM     11  C   UNL A   1      43.448  24.348  27.151  1.00  0.00     0.014 A 
ATOM     12  C   UNL A   1      41.750  26.354  26.269  1.00  0.00     0.010 A 
ATOM     13  C   UNL A   1      43.331  25.518  27.893  1.00  0.00     0.010 A 
ATOM     14  C   UNL A   1      42.501  26.536  27.436  1.00  0.00    -0.014 A 
BRANCH  14  15
ATOM     15  C   UNL A   1      42.245  27.719  28.255  1.00  0.00     0.031 A 
ATOM     16  C   UNL A   1      43.337  28.736  28.208  1.00  0.00     0.074 A 
ATOM     17  C   UNL A   1      41.078  27.980  28.880  1.00  0.00     0.049 A 
ATOM     18  N   UNL A   1      44.125  29.103  29.165  1.00  0.00    -0.248 NA
ATOM     19  C   UNL A   1      43.682  29.317  26.900  1.00  0.00     0.031 C 
ATOM     20  C   UNL A   1      39.816  27.245  28.774  1.00  0.00     0.029 A 
ATOM     21  N   UNL A   1      40.747  29.034  29.682  1.00  0.00    -0.354 N 
ATOM     22  C   UNL A   1      44.925  30.116  28.638  1.00  0.00     0.074 A 
ATOM     23  C   UNL A   1      44.727  30.084  27.213  1.00  0.00     0.031 C 
ATOM     24  C   UNL A   1      38.818  27.993  29.300  1.00  0.00     0.029 A 
ATOM     25  C   UNL A   1      39.380  29.195  29.893  1.00  0.00     0.049 A 
ATOM     26  H   UNL A   1      41.421  29.631  30.081  1.00  0.00     0.167 HD
ATOM     27  C   UNL A   1      45.523  31.046  29.436  1.00  0.00     0.037 A 
ATOM     28  C   UNL A   1      38.759  30.263  30.463  1.00  0.00     0.037 A 
ATOM     29  C   UNL A   1      45.519  30.632  30.814  1.00  0.00     0.049 A 
ATOM     30  C   UNL A   1      39.779  30.991  31.261  1.00  0.00     0.074 A 
ATOM     31  C   UNL A   1      46.043  29.562  31.514  1.00  0.00     0.029 A 
ATOM     32  N   UNL A   1      44.587  31.203  31.644  1.00  0.00    -0.354 N 
ATOM     33  N   UNL A   1      40.338  30.515  32.338  1.00  0.00    -0.248 NA
ATOM     34  C   UNL A   1      40.502  32.072  30.609  1.00  0.00     0.031 C 
ATOM     35  C   UNL A   1      45.065  29.257  32.505  1.00  0.00     0.029 A 
ATOM     36  C   UNL A   1      44.036  30.195  32.393  1.00  0.00     0.049 A 
ATOM     37  H   UNL A   1      44.354  32.158  31.692  1.00  0.00     0.167 HD
ATOM     38  C   UNL A   1      41.663  30.912  32.252  1.00  0.00     0.074 A 
ATOM     39  C   UNL A   1      41.686  31.942  31.215  1.00  0.00     0.031 C 
ATOM     40  C   UNL A   1      42.659  30.178  32.828  1.00  0.00     0.037 A 
BRANCH  27  41
ATOM     41  C   UNL A   1      45.787  32.482  29.044  1.00  0.00     0.058 A 
ATOM     42  C   UNL A   1      44.721  33.275  28.565  1.00  0.00     0.135 A 
ATOM     43  C   UNL A   1      47.078  33.016  28.841  1.00  0.00     0.135 A 
ATOM     44  F   UNL A   1      43.448  32.863  28.697  1.00  0.00    -0.206 F 
ATOM     45  C   UNL A   1      44.927  34.464  27.867  1.00  0.00     0.059 A 
ATOM     46  C   UNL A   1      47.303  34.227  28.195  1.00  0.00     0.059 A 
ATOM     47  F   UNL A   1      48.187  32.342  29.168  1.00  0.00    -0.206 F 
ATOM     48  C   UNL A   1      46.225  34.925  27.675  1.00  0.00     0.060 A 
BRANCH  48  49
ATOM     49  S   UNL A   1      46.500  36.410  26.693  1.00  0.00     0.124 S 
ATOM     50  O   UNL A   1      46.722  35.845  25.367  1.00  0.00    -0.237 OA
ATOM     51  O   UNL A   1      45.245  37.131  26.880  1.00  0.00    -0.237 OA
ATOM     52  O   UNL A   1      47.666  37.019  27.326  1.00  0.00    -0.744 OA
ENDBRANCH  48  49
ENDBRANCH  27  41
BRANCH  28  53
ATOM     53  C   UNL A   1      37.450  30.885  30.107  1.00  0.00     0.058 A 
ATOM     54  C   UNL A   1      36.601  31.423  31.095  1.00  0.00     0.135 A 
ATOM     55  C   UNL A   1      37.144  31.233  28.778  1.00  0.00     0.135 A 
ATOM     56  F   UNL A   1      36.824  31.165  32.392  1.00  0.00    -0.206 F 
ATOM     57  C   UNL A   1      35.550  32.298  30.786  1.00  0.00     0.059 A 
ATOM     58  C   UNL A   1      36.098  32.095  28.445  1.00  0.00     0.059 A 
ATOM     59  F   UNL A   1      37.917  30.824  27.761  1.00  0.00    -0.206 F 
ATOM     60  C   UNL A   1      35.320  32.647  29.456  1.00  0.00     0.060 A 
BRANCH  60  61
ATOM     61  S   UNL A   1      34.093  33.917  29.062  1.00  0.00     0.124 S 
ATOM     62  O   UNL A   1      33.217  33.213  28.131  1.00  0.00    -0.237 OA
ATOM     63  O   UNL A   1      33.523  34.214  30.372  1.00  0.00    -0.237 OA
ATOM     64  O   UNL A   1      34.891  34.991  28.477  1.00  0.00    -0.744 OA
ENDBRANCH  60  61
ENDBRANCH  28  53
BRANCH  40  65
ATOM     65  C   UNL A   1      42.285  29.121  33.833  1.00  0.00     0.058 A 
ATOM     66  C   UNL A   1      42.120  27.756  33.538  1.00  0.00     0.135 A 
ATOM     67  C   UNL A   1      42.246  29.494  35.185  1.00  0.00     0.135 A 
ATOM     68  F   UNL A   1      42.245  27.297  32.285  1.00  0.00    -0.206 F 
ATOM     69  C   UNL A   1      41.892  26.812  34.544  1.00  0.00     0.059 A 
ATOM     70  C   UNL A   1      42.054  28.568  36.204  1.00  0.00     0.059 A 
ATOM     71  F   UNL A   1      42.455  30.775  35.536  1.00  0.00    -0.206 F 
ATOM     72  C   UNL A   1      41.866  27.228  35.875  1.00  0.00     0.060 A 
BRANCH  72  73
ATOM     73  S   UNL A   1      41.658  25.997  37.180  1.00  0.00     0.124 S 
ATOM     74  O   UNL A   1      40.305  26.273  37.650  1.00  0.00    -0.237 OA
ATOM     75  O   UNL A   1      41.837  24.739  36.459  1.00  0.00    -0.237 OA
ATOM     76  O   UNL A   1      42.726  26.317  38.124  1.00  0.00    -0.744 OA
ENDBRANCH  72  73
ENDBRANCH  40  65
ENDBRANCH  14  15
ENDBRANCH   7   9
ENDBRANCH   4   5
ENDBRANCH   3   4
ENDBRANCH   2   3
ENDBRANCH   1   2
BRANCH   1  77
ATOM     77  C   UNL A   1      37.918  23.931  25.773  1.00  0.00     0.021 C 
BRANCH  77  78
ATOM     78  C   UNL A   1      36.438  23.665  26.032  1.00  0.00     0.116 C 
BRANCH  78  79
ATOM     79  N   UNL A   1      35.902  22.564  25.233  1.00  0.00    -0.352 N 
ATOM     80  C   UNL A   1      34.654  22.440  24.652  1.00  0.00     0.251 C 
ATOM     81  H   UNL A   1      36.515  21.807  25.088  1.00  0.00     0.163 HD
ATOM     82  O   UNL A   1      34.300  21.390  24.123  1.00  0.00    -0.269 OA
BRANCH  80  83
ATOM     83  C   UNL A   1      33.721  23.589  24.710  1.00  0.00     0.041 A 
ATOM     84  C   UNL A   1      32.780  23.630  25.735  1.00  0.00     0.018 A 
ATOM     85  C   UNL A   1      33.694  24.533  23.663  1.00  0.00     0.036 A 
ATOM     86  C   UNL A   1      31.677  24.429  25.541  1.00  0.00    -0.043 A 
ATOM     87  C   UNL A   1      32.605  25.423  23.523  1.00  0.00     0.092 A 
ATOM     88  C   UNL A   1      31.543  25.254  24.403  1.00  0.00    -0.024 A 
ATOM     89  C   UNL A   1      30.434  24.414  26.379  1.00  0.00     0.036 C 
ATOM     90  C   UNL A   1      30.107  25.669  24.332  1.00  0.00     0.037 C 
ATOM     91  C   UNL A   1      29.718  25.637  25.815  1.00  0.00     0.010 C 
BRANCH  87  92
ATOM     92  S   UNL A   1      32.582  26.485  22.095  1.00  0.00     0.262 S 
ATOM     93  O   UNL A   1      33.954  26.597  21.624  1.00  0.00    -0.201 OA
ATOM     94  O   UNL A   1      31.567  25.981  21.198  1.00  0.00    -0.201 OA
BRANCH  92  95
ATOM     95  N   UNL A   1      32.151  28.111  22.415  1.00  0.00    -0.277 N 
ATOM     96  H   UNL A   1      31.955  28.702  21.651  1.00  0.00     0.180 HD
BRANCH  95  97
ATOM     97  C   UNL A   1      32.063  28.657  23.738  1.00  0.00     0.075 A 
ATOM     98  C   UNL A   1      33.131  28.437  24.627  1.00  0.00     0.042 A 
ATOM     99  C   UNL A   1      31.005  29.488  24.133  1.00  0.00     0.089 A 
ATOM    100  C   UNL A   1      33.192  29.105  25.869  1.00  0.00     0.058 A 
ATOM    101  C   UNL A   1      31.041  30.126  25.384  1.00  0.00     0.031 A 
ATOM    102  C   UNL A   1      32.125  29.933  26.246  1.00  0.00     0.015 A 
BRANCH  99 103
ATOM    103  N   UNL A   1      29.920  29.763  23.270  1.00  0.00    -0.239 N 
ATOM    104  C   UNL A   1      28.676  29.174  23.254  1.00  0.00     0.115 A 
ATOM    105  N   UNL A   1      30.070  30.625  22.235  1.00  0.00    -0.177 NA
ATOM    106  C   UNL A   1      28.091  29.513  22.059  1.00  0.00     0.042 A 
ATOM    107  C   UNL A   1      29.020  30.371  21.449  1.00  0.00     0.135 A 
ENDBRANCH  99 103
BRANCH 100 108
ATOM    108  C   UNL A   1      34.433  29.006  26.727  1.00  0.00     0.416 C 
ATOM    109  F   UNL A   1      35.460  29.759  26.249  1.00  0.00    -0.166 F 
ATOM    110  F   UNL A   1      34.213  29.437  28.001  1.00  0.00    -0.166 F 
ATOM    111  F   UNL A   1      34.915  27.738  26.844  1.00  0.00    -0.166 F 
ENDBRANCH 100 108
ENDBRANCH  95  97
ENDBRANCH  92  95
ENDBRANCH  87  92
ENDBRANCH  80  83
ENDBRANCH  78  79
ENDBRANCH  77  78
ENDBRANCH   1  77
TORSDOF 21
ENDMDL
MODEL 2
REMARK VINA RESULT:     -12.1      1.794      2.536
REMARK SMILES O=C(NCCCCCCNC(=O)c1cc2c(c(S(=O)(=O)Nc3cc(C(F)(F)F)ccc3-n3cccn3)c1)CCC2)c1ccc(-c2c3nc(c(-c4c(F)cc(S(=O)(=O)[O-])cc4F)c4ccc([nH]4)c(-c4c(F)cc(S(=O)(=O)[O-])cc4F)c4nc(c(-c5c(F)cc(S(=O)(=O)[O-])cc5F)c5ccc2[nH]5)C=C4)C=C3)cc1
REMARK SMILES IDX 7 1 6 2 5 3 4 4 3 5 1 6 2 7 41 9 42 10 106 11 43 12 105 13
REMARK SMILES IDX 44 14 45 15 46 16 99 17 47 18 104 19 98 20 100 21 48 22
REMARK SMILES IDX 103 23 97 24 96 25 49 27 83 28 62 29 82 30 63 31 66 32 81 33
REMARK SMILES IDX 101 34 64 35 65 36 80 38 102 39 67 40 50 41 51 42 60 43
REMARK SMILES IDX 52 44 53 45 59 46 61 47 54 48 55 49 56 50 57 51 58 52 84 53
REMARK SMILES IDX 85 54 94 55 86 56 87 57 93 58 95 59 88 60 89 61 90 62 91 63
REMARK SMILES IDX 92 64 68 65 69 66 78 67 70 68 71 69 77 70 79 71 72 72 73 73
REMARK SMILES IDX 74 74 75 75 76 76 8 77 9 78 10 79 11 80 12 82 13 83 14 84
REMARK SMILES IDX 37 85 15 86 17 87 16 88 40 89 38 90 39 91 18 92 19 93 20 94
REMARK SMILES IDX 21 95 22 97 23 98 31 99 24 100 30 101 29 102 32 103 33 104
REMARK SMILES IDX 36 105 34 106 35 107 25 108 26 109 27 110 28 111
REMARK H PARENT 3 8 100 26 66 37 10 81 21 96
REMARK Flexibility Score: inf
ROOT
ATOM      1  C   UNL A   1      39.710  23.576  27.375  1.00  0.00     0.002 C 
ENDROOT
BRANCH   1   2
ATOM      2  C   UNL A   1      40.445  22.350  26.820  1.00  0.00     0.002 C 
BRANCH   2   3
ATOM      3  C   UNL A   1      41.870  22.116  27.338  1.00  0.00     0.021 C 
BRANCH   3   4
ATOM      4  C   UNL A   1      42.704  21.130  26.522  1.00  0.00     0.116 C 
BRANCH   4   5
ATOM      5  N   UNL A   1      43.421  21.722  25.413  1.00  0.00    -0.352 N 
ATOM      6  O   UNL A   1      44.551  23.085  24.095  1.00  0.00    -0.269 OA
ATOM      7  C   UNL A   1      43.840  22.985  25.101  1.00  0.00     0.251 C 
ATOM      8  H   UNL A   1      43.663  21.062  24.724  1.00  0.00     0.163 HD
BRANCH   7   9
ATOM      9  C   UNL A   1      43.450  24.223  25.829  1.00  0.00     0.039 A 
ATOM     10  C   UNL A   1      42.544  25.187  25.382  1.00  0.00     0.014 A 
ATOM     11  C   UNL A   1      44.067  24.411  27.082  1.00  0.00     0.014 A 
ATOM     12  C   UNL A   1      42.324  26.344  26.129  1.00  0.00     0.010 A 
ATOM     13  C   UNL A   1      43.843  25.558  27.835  1.00  0.00     0.010 A 
ATOM     14  C   UNL A   1      42.990  26.540  27.343  1.00  0.00    -0.014 A 
BRANCH  14  15
ATOM     15  C   UNL A   1      42.621  27.692  28.164  1.00  0.00     0.031 A 
ATOM     16  C   UNL A   1      43.652  28.771  28.193  1.00  0.00     0.074 A 
ATOM     17  C   UNL A   1      41.409  27.873  28.729  1.00  0.00     0.049 A 
ATOM     18  N   UNL A   1      44.364  29.167  29.197  1.00  0.00    -0.248 NA
ATOM     19  C   UNL A   1      44.032  29.395  26.914  1.00  0.00     0.031 C 
ATOM     20  C   UNL A   1      40.200  27.068  28.544  1.00  0.00     0.029 A 
ATOM     21  N   UNL A   1      40.974  28.891  29.528  1.00  0.00    -0.354 N 
ATOM     22  C   UNL A   1      45.130  30.234  28.729  1.00  0.00     0.074 A 
ATOM     23  C   UNL A   1      45.011  30.215  27.295  1.00  0.00     0.031 C 
ATOM     24  C   UNL A   1      39.132  27.748  29.025  1.00  0.00     0.029 A 
ATOM     25  C   UNL A   1      39.590  28.969  29.666  1.00  0.00     0.049 A 
ATOM     26  H   UNL A   1      41.589  29.520  29.971  1.00  0.00     0.167 HD
ATOM     27  C   UNL A   1      45.629  31.182  29.572  1.00  0.00     0.037 A 
ATOM     28  C   UNL A   1      38.878  29.989  30.217  1.00  0.00     0.037 A 
ATOM     29  C   UNL A   1      45.576  30.743  30.942  1.00  0.00     0.049 A 
ATOM     30  C   UNL A   1      39.809  30.761  31.080  1.00  0.00     0.074 A 
ATOM     31  C   UNL A   1      46.124  29.693  31.653  1.00  0.00     0.029 A 
ATOM     32  N   UNL A   1      44.568  31.244  31.728  1.00  0.00    -0.354 N 
ATOM     33  N   UNL A   1      40.337  30.298  32.179  1.00  0.00    -0.248 NA
ATOM     34  C   UNL A   1      40.501  31.894  30.485  1.00  0.00     0.031 C 
ATOM     35  C   UNL A   1      45.113  29.315  32.584  1.00  0.00     0.029 A 
ATOM     36  C   UNL A   1      44.039  30.193  32.431  1.00  0.00     0.049 A 
ATOM     37  H   UNL A   1      44.277  32.184  31.778  1.00  0.00     0.167 HD
ATOM     38  C   UNL A   1      41.639  30.774  32.172  1.00  0.00     0.074 A 
ATOM     39  C   UNL A   1      41.656  31.821  31.153  1.00  0.00     0.031 C 
ATOM     40  C   UNL A   1      42.644  30.088  32.790  1.00  0.00     0.037 A 
BRANCH  27  41
ATOM     41  C   UNL A   1      45.828  32.638  29.217  1.00  0.00     0.058 A 
ATOM     42  C   UNL A   1      44.761  33.360  28.639  1.00  0.00     0.135 A 
ATOM     43  C   UNL A   1      47.092  33.262  29.145  1.00  0.00     0.135 A 
ATOM     44  F   UNL A   1      43.514  32.860  28.643  1.00  0.00    -0.206 F 
ATOM     45  C   UNL A   1      44.951  34.570  27.972  1.00  0.00     0.059 A 
ATOM     46  C   UNL A   1      47.294  34.494  28.532  1.00  0.00     0.059 A 
ATOM     47  F   UNL A   1      48.209  32.663  29.577  1.00  0.00    -0.206 F 
ATOM     48  C   UNL A   1      46.226  35.122  27.912  1.00  0.00     0.060 A 
BRANCH  48  49
ATOM     49  S   UNL A   1      46.491  36.635  26.971  1.00  0.00     0.124 S 
ATOM     50  O   UNL A   1      47.839  37.005  27.387  1.00  0.00    -0.237 OA
ATOM     51  O   UNL A   1      46.352  36.163  25.597  1.00  0.00    -0.237 OA
ATOM     52  O   UNL A   1      45.421  37.512  27.438  1.00  0.00    -0.744 OA
ENDBRANCH  48  49
ENDBRANCH  27  41
BRANCH  28  53
ATOM     53  C   UNL A   1      37.555  30.540  29.800  1.00  0.00     0.058 A 
ATOM     54  C   UNL A   1      36.673  31.118  30.735  1.00  0.00     0.135 A 
ATOM     55  C   UNL A   1      37.260  30.783  28.445  1.00  0.00     0.135 A 
ATOM     56  F   UNL A   1      36.884  30.959  32.050  1.00  0.00    -0.206 F 
ATOM     57  C   UNL A   1      35.600  31.933  30.349  1.00  0.00     0.059 A 
ATOM     58  C   UNL A   1      36.192  31.584  28.037  1.00  0.00     0.059 A 
ATOM     59  F   UNL A   1      38.062  30.329  27.470  1.00  0.00    -0.206 F 
ATOM     60  C   UNL A   1      35.381  32.180  28.996  1.00  0.00     0.060 A 
BRANCH  60  61
ATOM     61  S   UNL A   1      34.119  33.377  28.495  1.00  0.00     0.124 S 
ATOM     62  O   UNL A   1      33.153  32.529  27.806  1.00  0.00    -0.237 OA
ATOM     63  O   UNL A   1      33.686  33.924  29.776  1.00  0.00    -0.237 OA
ATOM     64  O   UNL A   1      34.854  34.307  27.642  1.00  0.00    -0.744 OA
ENDBRANCH  60  61
ENDBRANCH  28  53
BRANCH  40  65
ATOM     65  C   UNL A   1      42.279  28.993  33.757  1.00  0.00     0.058 A 
ATOM     66  C   UNL A   1      42.323  27.618  33.466  1.00  0.00     0.135 A 
ATOM     67  C   UNL A   1      42.024  29.359  35.087  1.00  0.00     0.135 A 
ATOM     68  F   UNL A   1      42.660  27.178  32.245  1.00  0.00    -0.206 F 
ATOM     69  C   UNL A   1      42.088  26.654  34.450  1.00  0.00     0.059 A 
ATOM     70  C   UNL A   1      41.821  28.416  36.089  1.00  0.00     0.059 A 
ATOM     71  F   UNL A   1      42.027  30.656  35.441  1.00  0.00    -0.206 F 
ATOM     72  C   UNL A   1      41.843  27.063  35.760  1.00  0.00     0.060 A 
BRANCH  72  73
ATOM     73  S   UNL A   1      41.626  25.817  37.049  1.00  0.00     0.124 S 
ATOM     74  O   UNL A   1      42.777  26.062  37.910  1.00  0.00    -0.237 OA
ATOM     75  O   UNL A   1      40.324  26.167  37.612  1.00  0.00    -0.237 OA
ATOM     76  O   UNL A   1      41.654  24.556  36.313  1.00  0.00    -0.744 OA
ENDBRANCH  72  73
ENDBRANCH  40  65
ENDBRANCH  14  15
ENDBRANCH   7   9
ENDBRANCH   4   5
ENDBRANCH   3   4
ENDBRANCH   2   3
ENDBRANCH   1   2
BRANCH   1  77
ATOM     77  C   UNL A   1      38.852  24.348  26.374  1.00  0.00     0.021 C 
BRANCH  77  78
ATOM     78  C   UNL A   1      37.586  23.632  25.914  1.00  0.00     0.116 C 
BRANCH  78  79
ATOM     79  N   UNL A   1      37.580  23.336  24.483  1.00  0.00    -0.352 N 
ATOM     80  C   UNL A   1      36.501  23.190  23.630  1.00  0.00     0.251 C 
ATOM     81  H   UNL A   1      38.466  23.226  24.067  1.00  0.00     0.163 HD
ATOM     82  O   UNL A   1      36.651  22.804  22.475  1.00  0.00    -0.269 OA
BRANCH  80  83
ATOM     83  C   UNL A   1      35.141  23.470  24.145  1.00  0.00     0.041 A 
ATOM     84  C   UNL A   1      34.512  22.504  24.925  1.00  0.00     0.018 A 
ATOM     85  C   UNL A   1      34.448  24.624  23.723  1.00  0.00     0.036 A 
ATOM     86  C   UNL A   1      33.143  22.574  25.028  1.00  0.00    -0.043 A 
ATOM     87  C   UNL A   1      33.053  24.739  23.919  1.00  0.00     0.092 A 
ATOM     88  C   UNL A   1      32.404  23.633  24.455  1.00  0.00    -0.024 A 
ATOM     89  C   UNL A   1      32.256  21.500  25.582  1.00  0.00     0.036 C 
ATOM     90  C   UNL A   1      30.972  23.200  24.426  1.00  0.00     0.037 C 
ATOM     91  C   UNL A   1      30.928  22.250  25.630  1.00  0.00     0.010 C 
BRANCH  87  92
ATOM     92  S   UNL A   1      32.235  26.163  23.232  1.00  0.00     0.262 S 
ATOM     93  O   UNL A   1      33.260  27.163  22.978  1.00  0.00    -0.201 OA
ATOM     94  O   UNL A   1      31.412  25.701  22.137  1.00  0.00    -0.201 OA
BRANCH  92  95
ATOM     95  N   UNL A   1      31.170  26.967  24.305  1.00  0.00    -0.277 N 
ATOM     96  H   UNL A   1      30.766  26.447  25.039  1.00  0.00     0.180 HD
BRANCH  95  97
ATOM     97  C   UNL A   1      30.836  28.357  24.191  1.00  0.00     0.075 A 
ATOM     98  C   UNL A   1      29.812  28.728  23.300  1.00  0.00     0.042 A 
ATOM     99  C   UNL A   1      31.415  29.334  25.012  1.00  0.00     0.089 A 
ATOM    100  C   UNL A   1      29.307  30.046  23.283  1.00  0.00     0.058 A 
ATOM    101  C   UNL A   1      30.943  30.656  24.973  1.00  0.00     0.031 A 
ATOM    102  C   UNL A   1      29.899  31.009  24.112  1.00  0.00     0.015 A 
BRANCH  99 103
ATOM    103  N   UNL A   1      32.429  29.010  25.943  1.00  0.00    -0.239 N 
ATOM    104  C   UNL A   1      32.366  29.048  27.317  1.00  0.00     0.115 A 
ATOM    105  N   UNL A   1      33.681  28.715  25.515  1.00  0.00    -0.177 NA
ATOM    106  C   UNL A   1      33.658  28.981  27.776  1.00  0.00     0.042 A 
ATOM    107  C   UNL A   1      34.431  28.826  26.615  1.00  0.00     0.135 A 
ENDBRANCH  99 103
BRANCH 100 108
ATOM    108  C   UNL A   1      28.084  30.382  22.459  1.00  0.00     0.416 C 
ATOM    109  F   UNL A   1      28.120  31.649  21.964  1.00  0.00    -0.166 F 
ATOM    110  F   UNL A   1      27.950  29.562  21.380  1.00  0.00    -0.166 F 
ATOM    111  F   UNL A   1      26.916  30.279  23.149  1.00  0.00    -0.166 F 
ENDBRANCH 100 108
ENDBRANCH  95  97
ENDBRANCH  92  95
ENDBRANCH  87  92
ENDBRANCH  80  83
ENDBRANCH  78  79
ENDBRANCH  77  78
ENDBRANCH   1  77
TORSDOF 21
ENDMDL
MODEL 3
REMARK VINA RESULT:     -11.4      2.236      3.323
REMARK SMILES O=C(NCCCCCCNC(=O)c1cc2c(c(S(=O)(=O)Nc3cc(C(F)(F)F)ccc3-n3cccn3)c1)CCC2)c1ccc(-c2c3nc(c(-c4c(F)cc(S(=O)(=O)[O-])cc4F)c4ccc([nH]4)c(-c4c(F)cc(S(=O)(=O)[O-])cc4F)c4nc(c(-c5c(F)cc(S(=O)(=O)[O-])cc5F)c5ccc2[nH]5)C=C4)C=C3)cc1
REMARK SMILES IDX 7 1 6 2 5 3 4 4 3 5 1 6 2 7 41 9 42 10 106 11 43 12 105 13
REMARK SMILES IDX 44 14 45 15 46 16 99 17 47 18 104 19 98 20 100 21 48 22
REMARK SMILES IDX 103 23 97 24 96 25 49 27 83 28 62 29 82 30 63 31 66 32 81 33
REMARK SMILES IDX 101 34 64 35 65 36 80 38 102 39 67 40 50 41 51 42 60 43
REMARK SMILES IDX 52 44 53 45 59 46 61 47 54 48 55 49 56 50 57 51 58 52 84 53
REMARK SMILES IDX 85 54 94 55 86 56 87 57 93 58 95 59 88 60 89 61 90 62 91 63
REMARK SMILES IDX 92 64 68 65 69 66 78 67 70 68 71 69 77 70 79 71 72 72 73 73
REMARK SMILES IDX 74 74 75 75 76 76 8 77 9 78 10 79 11 80 12 82 13 83 14 84
REMARK SMILES IDX 37 85 15 86 17 87 16 88 40 89 38 90 39 91 18 92 19 93 20 94
REMARK SMILES IDX 21 95 22 97 23 98 31 99 24 100 30 101 29 102 32 103 33 104
REMARK SMILES IDX 36 105 34 106 35 107 25 108 26 109 27 110 28 111
REMARK H PARENT 3 8 100 26 66 37 10 81 21 96
REMARK Flexibility Score: inf
ROOT
ATOM      1  C   UNL A   1      36.961  22.191  24.096  1.00  0.00     0.002 C 
ENDROOT
BRANCH   1   2
ATOM      2  C   UNL A   1      37.111  23.404  25.022  1.00  0.00     0.002 C 
BRANCH   2   3
ATOM      3  C   UNL A   1      38.242  23.337  26.056  1.00  0.00     0.021 C 
BRANCH   3   4
ATOM      4  C   UNL A   1      38.976  22.000  26.129  1.00  0.00     0.116 C 
BRANCH   4   5
ATOM      5  N   UNL A   1      40.312  22.016  25.573  1.00  0.00    -0.352 N 
ATOM      6  O   UNL A   1      42.460  22.371  25.206  1.00  0.00    -0.269 OA
ATOM      7  C   UNL A   1      41.450  22.732  25.819  1.00  0.00     0.251 C 
ATOM      8  H   UNL A   1      40.428  21.358  24.850  1.00  0.00     0.163 HD
BRANCH   7   9
ATOM      9  C   UNL A   1      41.537  23.931  26.698  1.00  0.00     0.039 A 
ATOM     10  C   UNL A   1      42.076  23.967  27.985  1.00  0.00     0.014 A 
ATOM     11  C   UNL A   1      41.020  25.122  26.151  1.00  0.00     0.014 A 
ATOM     12  C   UNL A   1      42.026  25.142  28.735  1.00  0.00     0.010 A 
ATOM     13  C   UNL A   1      40.978  26.299  26.892  1.00  0.00     0.010 A 
ATOM     14  C   UNL A   1      41.456  26.301  28.197  1.00  0.00    -0.014 A 
BRANCH  14  15
ATOM     15  C   UNL A   1      41.557  27.546  28.956  1.00  0.00     0.031 A 
ATOM     16  C   UNL A   1      42.633  28.463  28.476  1.00  0.00     0.074 A 
ATOM     17  C   UNL A   1      40.680  27.938  29.904  1.00  0.00     0.049 A 
ATOM     18  N   UNL A   1      43.713  28.816  29.093  1.00  0.00    -0.248 NA
ATOM     19  C   UNL A   1      42.561  28.939  27.085  1.00  0.00     0.031 C 
ATOM     20  C   UNL A   1      39.412  27.307  30.273  1.00  0.00     0.029 A 
ATOM     21  N   UNL A   1      40.697  29.060  30.683  1.00  0.00    -0.354 N 
ATOM     22  C   UNL A   1      44.354  29.727  28.255  1.00  0.00     0.074 A 
ATOM     23  C   UNL A   1      43.696  29.632  26.978  1.00  0.00     0.031 C 
ATOM     24  C   UNL A   1      38.690  28.165  31.032  1.00  0.00     0.029 A 
ATOM     25  C   UNL A   1      39.488  29.347  31.312  1.00  0.00     0.049 A 
ATOM     26  H   UNL A   1      41.500  29.620  30.791  1.00  0.00     0.167 HD
ATOM     27  C   UNL A   1      45.237  30.647  28.738  1.00  0.00     0.037 A 
ATOM     28  C   UNL A   1      39.157  30.494  31.965  1.00  0.00     0.037 A 
ATOM     29  C   UNL A   1      45.663  30.312  30.071  1.00  0.00     0.049 A 
ATOM     30  C   UNL A   1      40.425  31.177  32.327  1.00  0.00     0.074 A 
ATOM     31  C   UNL A   1      46.323  29.243  30.646  1.00  0.00     0.029 A 
ATOM     32  N   UNL A   1      45.094  31.005  31.110  1.00  0.00    -0.354 N 
ATOM     33  N   UNL A   1      41.278  30.716  33.199  1.00  0.00    -0.248 NA
ATOM     34  C   UNL A   1      40.957  32.155  31.391  1.00  0.00     0.031 C 
ATOM     35  C   UNL A   1      45.709  29.078  31.922  1.00  0.00     0.029 A 
ATOM     36  C   UNL A   1      44.761  30.091  32.075  1.00  0.00     0.049 A 
ATOM     37  H   UNL A   1      44.949  31.978  31.154  1.00  0.00     0.167 HD
ATOM     38  C   UNL A   1      42.523  30.996  32.656  1.00  0.00     0.074 A 
ATOM     39  C   UNL A   1      42.264  31.960  31.588  1.00  0.00     0.031 C 
ATOM     40  C   UNL A   1      43.606  30.213  32.934  1.00  0.00     0.037 A 
BRANCH  27  41
ATOM     41  C   UNL A   1      45.444  32.031  28.167  1.00  0.00     0.058 A 
ATOM     42  C   UNL A   1      46.745  32.439  27.798  1.00  0.00     0.135 A 
ATOM     43  C   UNL A   1      44.485  33.064  28.244  1.00  0.00     0.135 A 
ATOM     44  F   UNL A   1      47.742  31.543  27.699  1.00  0.00    -0.206 F 
ATOM     45  C   UNL A   1      47.083  33.778  27.600  1.00  0.00     0.059 A 
ATOM     46  C   UNL A   1      44.787  34.399  27.998  1.00  0.00     0.059 A 
ATOM     47  F   UNL A   1      43.232  32.843  28.660  1.00  0.00    -0.206 F 
ATOM     48  C   UNL A   1      46.097  34.752  27.716  1.00  0.00     0.060 A 
BRANCH  48  49
ATOM     49  S   UNL A   1      46.549  36.489  27.555  1.00  0.00     0.124 S 
ATOM     50  O   UNL A   1      46.701  36.617  26.110  1.00  0.00    -0.237 OA
ATOM     51  O   UNL A   1      45.390  37.157  28.138  1.00  0.00    -0.237 OA
ATOM     52  O   UNL A   1      47.780  36.589  28.333  1.00  0.00    -0.744 OA
ENDBRANCH  48  49
ENDBRANCH  27  41
BRANCH  28  53
ATOM     53  C   UNL A   1      37.844  31.202  32.005  1.00  0.00     0.058 A 
ATOM     54  C   UNL A   1      37.233  31.547  33.228  1.00  0.00     0.135 A 
ATOM     55  C   UNL A   1      37.311  31.819  30.857  1.00  0.00     0.135 A 
ATOM     56  F   UNL A   1      37.685  31.026  34.379  1.00  0.00    -0.206 F 
ATOM     57  C   UNL A   1      36.198  32.488  33.310  1.00  0.00     0.059 A 
ATOM     58  C   UNL A   1      36.275  32.752  30.913  1.00  0.00     0.059 A 
ATOM     59  F   UNL A   1      37.849  31.608  29.647  1.00  0.00    -0.206 F 
ATOM     60  C   UNL A   1      35.741  33.104  32.147  1.00  0.00     0.060 A 
BRANCH  60  61
ATOM     61  S   UNL A   1      34.540  34.454  32.260  1.00  0.00     0.124 S 
ATOM     62  O   UNL A   1      34.251  34.720  30.855  1.00  0.00    -0.237 OA
ATOM     63  O   UNL A   1      33.460  33.844  33.028  1.00  0.00    -0.237 OA
ATOM     64  O   UNL A   1      35.276  35.506  32.955  1.00  0.00    -0.744 OA
ENDBRANCH  60  61
ENDBRANCH  28  53
BRANCH  40  65
ATOM     65  C   UNL A   1      43.520  29.250  34.088  1.00  0.00     0.058 A 
ATOM     66  C   UNL A   1      43.687  29.598  35.439  1.00  0.00     0.135 A 
ATOM     67  C   UNL A   1      43.094  27.942  33.810  1.00  0.00     0.135 A 
ATOM     68  F   UNL A   1      43.992  30.853  35.799  1.00  0.00    -0.206 F 
ATOM     69  C   UNL A   1      43.473  28.674  36.466  1.00  0.00     0.059 A 
ATOM     70  C   UNL A   1      42.842  27.015  34.818  1.00  0.00     0.059 A 
ATOM     71  F   UNL A   1      42.860  27.564  32.542  1.00  0.00    -0.206 F 
ATOM     72  C   UNL A   1      43.045  27.386  36.144  1.00  0.00     0.060 A 
BRANCH  72  73
ATOM     73  S   UNL A   1      42.684  26.219  37.473  1.00  0.00     0.124 S 
ATOM     74  O   UNL A   1      43.594  26.659  38.525  1.00  0.00    -0.237 OA
ATOM     75  O   UNL A   1      41.263  26.452  37.722  1.00  0.00    -0.237 OA
ATOM     76  O   UNL A   1      42.995  24.920  36.882  1.00  0.00    -0.744 OA
ENDBRANCH  72  73
ENDBRANCH  40  65
ENDBRANCH  14  15
ENDBRANCH   7   9
ENDBRANCH   4   5
ENDBRANCH   3   4
ENDBRANCH   2   3
ENDBRANCH   1   2
BRANCH   1  77
ATOM     77  C   UNL A   1      36.103  21.046  24.634  1.00  0.00     0.021 C 
BRANCH  77  78
ATOM     78  C   UNL A   1      35.088  21.440  25.703  1.00  0.00     0.116 C 
BRANCH  78  79
ATOM     79  N   UNL A   1      33.945  20.532  25.773  1.00  0.00    -0.352 N 
ATOM     80  C   UNL A   1      32.655  20.721  25.311  1.00  0.00     0.251 C 
ATOM     81  H   UNL A   1      34.116  19.666  26.210  1.00  0.00     0.163 HD
ATOM     82  O   UNL A   1      31.764  19.918  25.567  1.00  0.00    -0.269 OA
BRANCH  80  83
ATOM     83  C   UNL A   1      32.349  21.939  24.526  1.00  0.00     0.041 A 
ATOM     84  C   UNL A   1      32.646  21.945  23.166  1.00  0.00     0.018 A 
ATOM     85  C   UNL A   1      31.912  23.111  25.178  1.00  0.00     0.036 A 
ATOM     86  C   UNL A   1      32.768  23.172  22.556  1.00  0.00    -0.043 A 
ATOM     87  C   UNL A   1      31.945  24.359  24.515  1.00  0.00     0.092 A 
ATOM     88  C   UNL A   1      32.508  24.378  23.245  1.00  0.00    -0.024 A 
ATOM     89  C   UNL A   1      33.338  23.412  21.191  1.00  0.00     0.036 C 
ATOM     90  C   UNL A   1      33.094  25.484  22.424  1.00  0.00     0.037 C 
ATOM     91  C   UNL A   1      32.995  24.888  21.015  1.00  0.00     0.010 C 
BRANCH  87  92
ATOM     92  S   UNL A   1      31.509  25.807  25.454  1.00  0.00     0.262 S 
ATOM     93  O   UNL A   1      30.109  26.089  25.178  1.00  0.00    -0.201 OA
ATOM     94  O   UNL A   1      31.928  25.578  26.819  1.00  0.00    -0.201 OA
BRANCH  92  95
ATOM     95  N   UNL A   1      32.296  27.246  24.963  1.00  0.00    -0.277 N 
ATOM     96  H   UNL A   1      33.275  27.226  24.845  1.00  0.00     0.180 HD
BRANCH  95  97
ATOM     97  C   UNL A   1      31.605  28.478  24.715  1.00  0.00     0.075 A 
ATOM     98  C   UNL A   1      30.525  28.470  23.813  1.00  0.00     0.042 A 
ATOM     99  C   UNL A   1      31.899  29.653  25.419  1.00  0.00     0.089 A 
ATOM    100  C   UNL A   1      29.688  29.598  23.673  1.00  0.00     0.058 A 
ATOM    101  C   UNL A   1      31.093  30.792  25.255  1.00  0.00     0.031 A 
ATOM    102  C   UNL A   1      29.998  30.765  24.387  1.00  0.00     0.015 A 
BRANCH  99 103
ATOM    103  N   UNL A   1      32.958  29.709  26.355  1.00  0.00    -0.239 N 
ATOM    104  C   UNL A   1      33.171  30.642  27.343  1.00  0.00     0.115 A 
ATOM    105  N   UNL A   1      33.988  28.832  26.274  1.00  0.00    -0.177 NA
ATOM    106  C   UNL A   1      34.467  30.484  27.767  1.00  0.00     0.042 A 
ATOM    107  C   UNL A   1      34.939  29.382  27.035  1.00  0.00     0.135 A 
ENDBRANCH  99 103
BRANCH 100 108
ATOM    108  C   UNL A   1      28.424  29.511  22.847  1.00  0.00     0.416 C 
ATOM    109  F   UNL A   1      28.661  29.655  21.515  1.00  0.00    -0.166 F 
ATOM    110  F   UNL A   1      27.800  28.309  22.990  1.00  0.00    -0.166 F 
ATOM    111  F   UNL A   1      27.495  30.451  23.170  1.00  0.00    -0.166 F 
ENDBRANCH 100 108
ENDBRANCH  95  97
ENDBRANCH  92  95
ENDBRANCH  87  92
ENDBRANCH  80  83
ENDBRANCH  78  79
ENDBRANCH  77  78
ENDBRANCH   1  77
TORSDOF 21
ENDMDL
