MODEL 1
REMARK VINA RESULT:     -11.2      0.000      0.000
REMARK SMILES C[C@@H]1C[C@@H]([C@@H](C)C(=O)NCCCCCCNC(=O)c2ccc(-c3c4nc(c(-c5c(F)cc(S(=O)(=O)[O-])cc5F)c5ccc([nH]5)c(-c5c(F)cc(S(=O)(=O)[O-])cc5F)c5nc(c(-c6c(F)cc(S(=O)(=O)[O-])cc6F)c6ccc3[nH]6)C=C5)C=C4)cc2)CCN1C(=O)OC(C)(C)C
REMARK SMILES IDX 12 1 11 2 10 3 9 4 7 5 8 6 5 8 6 9 4 10 1 11 2 12 3 13 87 14
REMARK SMILES IDX 86 15 85 16 88 17 89 18 90 19 91 20 92 21 93 22 94 23 13 24
REMARK SMILES IDX 14 25 15 26 16 27 17 28 18 30 19 31 20 32 84 33 21 34 83 35
REMARK SMILES IDX 22 36 23 37 24 38 77 39 25 40 82 41 76 42 78 43 26 44 81 45
REMARK SMILES IDX 75 46 74 47 27 49 61 50 40 51 60 52 41 53 44 54 59 55 79 56
REMARK SMILES IDX 42 57 43 58 58 60 80 61 45 62 28 63 29 64 38 65 30 66 31 67
REMARK SMILES IDX 37 68 39 69 32 70 33 71 34 72 35 73 36 74 62 75 63 76 72 77
REMARK SMILES IDX 64 78 65 79 71 80 73 81 66 82 67 83 68 84 69 85 70 86 46 87
REMARK SMILES IDX 47 88 56 89 48 90 49 91 55 92 57 93 50 94 51 95 52 96 53 97
REMARK SMILES IDX 54 98
REMARK H PARENT 9 7 16 29 78 48 44 59
REMARK Flexibility Score: inf
ROOT
ATOM      1  C   UNL A   1      33.199  28.253  27.103  1.00  0.00     0.002 C 
ENDROOT
BRANCH   1   2
ATOM      2  C   UNL A   1      31.677  28.187  27.014  1.00  0.00     0.021 C 
BRANCH   2   3
ATOM      3  C   UNL A   1      31.127  26.808  26.631  1.00  0.00     0.116 C 
BRANCH   3   4
ATOM      4  N   UNL A   1      32.138  25.791  26.855  1.00  0.00    -0.356 N 
ATOM      5  C   UNL A   1      32.517  24.715  26.116  1.00  0.00     0.223 C 
ATOM      6  O   UNL A   1      33.279  23.909  26.663  1.00  0.00    -0.275 OA
ATOM      7  H   UNL A   1      32.642  25.902  27.694  1.00  0.00     0.163 HD
BRANCH   5   8
ATOM      8  C   UNL A   1      32.130  24.517  24.642  1.00  0.00     0.078 C 
ATOM      9  C   UNL A   1      31.437  23.171  24.471  1.00  0.00     0.018 C 
BRANCH   8  10
ATOM     10  C   UNL A   1      33.103  25.046  23.537  1.00  0.00     0.005 C 
ATOM     11  C   UNL A   1      33.392  28.765  22.713  1.00  0.00     0.031 C 
ATOM     12  C   UNL A   1      32.665  27.606  23.402  1.00  0.00     0.085 C 
ATOM     13  C   UNL A   1      33.645  26.472  23.788  1.00  0.00     0.029 C 
ATOM     14  N   UNL A   1      31.574  27.111  22.556  1.00  0.00    -0.305 N 
ATOM     15  C   UNL A   1      31.942  26.178  21.506  1.00  0.00     0.123 C 
ATOM     16  C   UNL A   1      32.714  24.971  22.053  1.00  0.00     0.026 C 
BRANCH  14  17
ATOM     17  C   UNL A   1      30.240  27.468  22.726  1.00  0.00     0.410 C 
ATOM     18  O   UNL A   1      29.500  26.936  23.548  1.00  0.00    -0.224 OA
BRANCH  17  19
ATOM     19  O   UNL A   1      29.886  28.531  21.960  1.00  0.00    -0.444 OA
BRANCH  19  20
ATOM     20  C   UNL A   1      29.143  29.656  22.506  1.00  0.00     0.106 C 
ATOM     21  C   UNL A   1      29.163  30.863  21.566  1.00  0.00     0.056 C 
ATOM     22  C   UNL A   1      27.708  29.260  22.881  1.00  0.00     0.056 C 
ATOM     23  C   UNL A   1      29.891  30.019  23.798  1.00  0.00     0.056 C 
ENDBRANCH  19  20
ENDBRANCH  17  19
ENDBRANCH  14  17
ENDBRANCH   8  10
ENDBRANCH   5   8
ENDBRANCH   3   4
ENDBRANCH   2   3
ENDBRANCH   1   2
BRANCH   1  24
ATOM     24  C   UNL A   1      33.820  29.478  26.425  1.00  0.00     0.002 C 
BRANCH  24  25
ATOM     25  C   UNL A   1      34.072  30.681  27.342  1.00  0.00     0.021 C 
BRANCH  25  26
ATOM     26  C   UNL A   1      35.447  30.713  28.005  1.00  0.00     0.116 C 
BRANCH  26  27
ATOM     27  N   UNL A   1      35.352  30.675  29.456  1.00  0.00    -0.352 N 
ATOM     28  C   UNL A   1      36.250  30.206  30.381  1.00  0.00     0.251 C 
ATOM     29  H   UNL A   1      34.518  31.040  29.830  1.00  0.00     0.163 HD
ATOM     30  O   UNL A   1      35.893  30.025  31.542  1.00  0.00    -0.269 OA
BRANCH  28  31
ATOM     31  C   UNL A   1      37.643  29.918  29.978  1.00  0.00     0.039 A 
ATOM     32  C   UNL A   1      38.581  29.604  30.963  1.00  0.00     0.014 A 
ATOM     33  C   UNL A   1      38.025  29.984  28.636  1.00  0.00     0.014 A 
ATOM     34  C   UNL A   1      39.895  29.304  30.594  1.00  0.00     0.010 A 
ATOM     35  C   UNL A   1      39.314  29.614  28.263  1.00  0.00     0.010 A 
ATOM     36  C   UNL A   1      40.265  29.276  29.239  1.00  0.00    -0.014 A 
BRANCH  36  37
ATOM     37  C   UNL A   1      41.639  28.896  28.824  1.00  0.00     0.031 A 
ATOM     38  C   UNL A   1      42.728  29.934  28.769  1.00  0.00     0.074 A 
ATOM     39  C   UNL A   1      41.891  27.628  28.442  1.00  0.00     0.049 A 
ATOM     40  N   UNL A   1      43.970  29.808  28.374  1.00  0.00    -0.248 NA
ATOM     41  C   UNL A   1      42.369  31.298  29.186  1.00  0.00     0.031 C 
ATOM     42  C   UNL A   1      40.905  26.545  28.409  1.00  0.00     0.029 A 
ATOM     43  N   UNL A   1      43.047  27.037  27.999  1.00  0.00    -0.354 N 
ATOM     44  C   UNL A   1      44.534  31.073  28.487  1.00  0.00     0.074 A 
ATOM     45  C   UNL A   1      43.485  31.964  28.931  1.00  0.00     0.031 C 
ATOM     46  C   UNL A   1      41.504  25.418  27.991  1.00  0.00     0.029 A 
ATOM     47  C   UNL A   1      42.901  25.705  27.685  1.00  0.00     0.049 A 
ATOM     48  H   UNL A   1      43.900  27.519  27.913  1.00  0.00     0.167 HD
ATOM     49  C   UNL A   1      45.815  31.452  28.263  1.00  0.00     0.037 A 
ATOM     50  C   UNL A   1      43.790  24.818  27.197  1.00  0.00     0.037 A 
ATOM     51  C   UNL A   1      46.856  30.552  27.836  1.00  0.00     0.049 A 
ATOM     52  C   UNL A   1      45.203  25.266  26.942  1.00  0.00     0.074 A 
ATOM     53  C   UNL A   1      48.198  30.825  27.631  1.00  0.00     0.029 A 
ATOM     54  N   UNL A   1      46.674  29.208  27.543  1.00  0.00    -0.354 N 
ATOM     55  N   UNL A   1      45.737  26.452  27.116  1.00  0.00    -0.248 NA
ATOM     56  C   UNL A   1      46.140  24.254  26.432  1.00  0.00     0.031 C 
ATOM     57  C   UNL A   1      48.814  29.660  27.163  1.00  0.00     0.029 A 
ATOM     58  C   UNL A   1      47.871  28.644  27.135  1.00  0.00     0.049 A 
ATOM     59  H   UNL A   1      45.818  28.726  27.615  1.00  0.00     0.167 HD
ATOM     60  C   UNL A   1      47.076  26.323  26.765  1.00  0.00     0.074 A 
ATOM     61  C   UNL A   1      47.275  24.939  26.382  1.00  0.00     0.031 C 
ATOM     62  C   UNL A   1      48.054  27.263  26.762  1.00  0.00     0.037 A 
BRANCH  49  63
ATOM     63  C   UNL A   1      46.165  32.901  28.474  1.00  0.00     0.058 A 
ATOM     64  C   UNL A   1      46.078  33.842  27.434  1.00  0.00     0.135 A 
ATOM     65  C   UNL A   1      46.555  33.366  29.741  1.00  0.00     0.135 A 
ATOM     66  F   UNL A   1      45.724  33.454  26.199  1.00  0.00    -0.206 F 
ATOM     67  C   UNL A   1      46.394  35.181  27.635  1.00  0.00     0.059 A 
ATOM     68  C   UNL A   1      46.846  34.708  29.973  1.00  0.00     0.059 A 
ATOM     69  F   UNL A   1      46.656  32.512  30.772  1.00  0.00    -0.206 F 
ATOM     70  C   UNL A   1      46.776  35.605  28.909  1.00  0.00     0.060 A 
BRANCH  70  71
ATOM     71  S   UNL A   1      47.176  37.348  29.152  1.00  0.00     0.124 S 
ATOM     72  O   UNL A   1      46.297  37.988  28.178  1.00  0.00    -0.237 OA
ATOM     73  O   UNL A   1      46.824  37.555  30.554  1.00  0.00    -0.237 OA
ATOM     74  O   UNL A   1      48.601  37.417  28.850  1.00  0.00    -0.744 OA
ENDBRANCH  70  71
ENDBRANCH  49  63
BRANCH  50  75
ATOM     75  C   UNL A   1      43.371  23.415  26.930  1.00  0.00     0.058 A 
ATOM     76  C   UNL A   1      43.185  22.952  25.619  1.00  0.00     0.135 A 
ATOM     77  C   UNL A   1      43.161  22.505  27.978  1.00  0.00     0.135 A 
ATOM     78  F   UNL A   1      43.367  23.784  24.582  1.00  0.00    -0.206 F 
ATOM     79  C   UNL A   1      42.786  21.646  25.356  1.00  0.00     0.059 A 
ATOM     80  C   UNL A   1      42.790  21.185  27.739  1.00  0.00     0.059 A 
ATOM     81  F   UNL A   1      43.340  22.892  29.251  1.00  0.00    -0.206 F 
ATOM     82  C   UNL A   1      42.594  20.768  26.424  1.00  0.00     0.060 A 
BRANCH  82  83
ATOM     83  S   UNL A   1      42.119  19.063  26.069  1.00  0.00     0.124 S 
ATOM     84  O   UNL A   1      42.959  18.758  24.916  1.00  0.00    -0.237 OA
ATOM     85  O   UNL A   1      42.468  18.383  27.313  1.00  0.00    -0.237 OA
ATOM     86  O   UNL A   1      40.688  19.161  25.799  1.00  0.00    -0.744 OA
ENDBRANCH  82  83
ENDBRANCH  50  75
BRANCH  62  87
ATOM     87  C   UNL A   1      49.439  26.823  26.369  1.00  0.00     0.058 A 
ATOM     88  C   UNL A   1      50.300  26.187  27.275  1.00  0.00     0.135 A 
ATOM     89  C   UNL A   1      49.889  26.996  25.049  1.00  0.00     0.135 A 
ATOM     90  F   UNL A   1      49.923  26.003  28.551  1.00  0.00    -0.206 F 
ATOM     91  C   UNL A   1      51.568  25.758  26.895  1.00  0.00     0.059 A 
ATOM     92  C   UNL A   1      51.140  26.546  24.639  1.00  0.00     0.059 A 
ATOM     93  F   UNL A   1      49.102  27.589  24.137  1.00  0.00    -0.206 F 
ATOM     94  C   UNL A   1      51.978  25.939  25.573  1.00  0.00     0.060 A 
BRANCH  94  95
ATOM     95  S   UNL A   1      53.611  25.345  25.084  1.00  0.00     0.124 S 
ATOM     96  O   UNL A   1      53.551  23.947  25.495  1.00  0.00    -0.237 OA
ATOM     97  O   UNL A   1      53.610  25.584  23.645  1.00  0.00    -0.237 OA
ATOM     98  O   UNL A   1      54.523  26.187  25.853  1.00  0.00    -0.744 OA
ENDBRANCH  94  95
ENDBRANCH  62  87
ENDBRANCH  36  37
ENDBRANCH  28  31
ENDBRANCH  26  27
ENDBRANCH  25  26
ENDBRANCH  24  25
ENDBRANCH   1  24
TORSDOF 20
ENDMDL
MODEL 2
REMARK VINA RESULT:     -11.1      1.287      3.031
REMARK SMILES C[C@@H]1C[C@@H]([C@@H](C)C(=O)NCCCCCCNC(=O)c2ccc(-c3c4nc(c(-c5c(F)cc(S(=O)(=O)[O-])cc5F)c5ccc([nH]5)c(-c5c(F)cc(S(=O)(=O)[O-])cc5F)c5nc(c(-c6c(F)cc(S(=O)(=O)[O-])cc6F)c6ccc3[nH]6)C=C5)C=C4)cc2)CCN1C(=O)OC(C)(C)C
REMARK SMILES IDX 12 1 11 2 10 3 9 4 7 5 8 6 5 8 6 9 4 10 1 11 2 12 3 13 87 14
REMARK SMILES IDX 86 15 85 16 88 17 89 18 90 19 91 20 92 21 93 22 94 23 13 24
REMARK SMILES IDX 14 25 15 26 16 27 17 28 18 30 19 31 20 32 84 33 21 34 83 35
REMARK SMILES IDX 22 36 23 37 24 38 77 39 25 40 82 41 76 42 78 43 26 44 81 45
REMARK SMILES IDX 75 46 74 47 27 49 61 50 40 51 60 52 41 53 44 54 59 55 79 56
REMARK SMILES IDX 42 57 43 58 58 60 80 61 45 62 28 63 29 64 38 65 30 66 31 67
REMARK SMILES IDX 37 68 39 69 32 70 33 71 34 72 35 73 36 74 62 75 63 76 72 77
REMARK SMILES IDX 64 78 65 79 71 80 73 81 66 82 67 83 68 84 69 85 70 86 46 87
REMARK SMILES IDX 47 88 56 89 48 90 49 91 55 92 57 93 50 94 51 95 52 96 53 97
REMARK SMILES IDX 54 98
REMARK H PARENT 9 7 16 29 78 48 44 59
REMARK Flexibility Score: inf
ROOT
ATOM      1  C   UNL A   1      32.855  28.670  26.528  1.00  0.00     0.002 C 
ENDROOT
BRANCH   1   2
ATOM      2  C   UNL A   1      33.802  28.447  25.352  1.00  0.00     0.021 C 
BRANCH   2   3
ATOM      3  C   UNL A   1      33.324  29.063  24.032  1.00  0.00     0.116 C 
BRANCH   3   4
ATOM      4  N   UNL A   1      31.874  29.120  24.008  1.00  0.00    -0.356 N 
ATOM      5  C   UNL A   1      30.942  28.242  23.552  1.00  0.00     0.223 C 
ATOM      6  O   UNL A   1      29.779  28.654  23.484  1.00  0.00    -0.275 OA
ATOM      7  H   UNL A   1      31.497  29.946  24.391  1.00  0.00     0.163 HD
BRANCH   5   8
ATOM      8  C   UNL A   1      31.249  26.771  23.225  1.00  0.00     0.078 C 
ATOM      9  C   UNL A   1      31.464  26.615  21.725  1.00  0.00     0.018 C 
BRANCH   8  10
ATOM     10  C   UNL A   1      30.507  25.656  24.034  1.00  0.00     0.005 C 
ATOM     11  C   UNL A   1      32.310  23.497  26.618  1.00  0.00     0.031 C 
ATOM     12  C   UNL A   1      32.348  24.499  25.460  1.00  0.00     0.085 C 
ATOM     13  C   UNL A   1      31.084  25.393  25.443  1.00  0.00     0.029 C 
ATOM     14  N   UNL A   1      32.531  23.800  24.184  1.00  0.00    -0.305 N 
ATOM     15  C   UNL A   1      31.337  23.236  23.579  1.00  0.00     0.123 C 
ATOM     16  C   UNL A   1      30.232  24.284  23.401  1.00  0.00     0.026 C 
BRANCH  14  17
ATOM     17  C   UNL A   1      33.756  23.679  23.537  1.00  0.00     0.410 C 
ATOM     18  O   UNL A   1      34.218  24.544  22.800  1.00  0.00    -0.224 OA
BRANCH  17  19
ATOM     19  O   UNL A   1      34.422  22.551  23.895  1.00  0.00    -0.444 OA
BRANCH  19  20
ATOM     20  C   UNL A   1      35.749  22.600  24.488  1.00  0.00     0.106 C 
ATOM     21  C   UNL A   1      36.848  22.645  23.425  1.00  0.00     0.056 C 
ATOM     22  C   UNL A   1      35.883  23.760  25.484  1.00  0.00     0.056 C 
ATOM     23  C   UNL A   1      35.869  21.283  25.272  1.00  0.00     0.056 C 
ENDBRANCH  19  20
ENDBRANCH  17  19
ENDBRANCH  14  17
ENDBRANCH   8  10
ENDBRANCH   5   8
ENDBRANCH   3   4
ENDBRANCH   2   3
ENDBRANCH   1   2
BRANCH   1  24
ATOM     24  C   UNL A   1      33.084  29.983  27.284  1.00  0.00     0.002 C 
BRANCH  24  25
ATOM     25  C   UNL A   1      34.538  30.468  27.337  1.00  0.00     0.021 C 
BRANCH  25  26
ATOM     26  C   UNL A   1      35.419  29.760  28.363  1.00  0.00     0.116 C 
BRANCH  26  27
ATOM     27  N   UNL A   1      35.453  30.470  29.632  1.00  0.00    -0.352 N 
ATOM     28  C   UNL A   1      36.484  30.621  30.524  1.00  0.00     0.251 C 
ATOM     29  H   UNL A   1      34.610  30.908  29.890  1.00  0.00     0.163 HD
ATOM     30  O   UNL A   1      36.256  31.038  31.657  1.00  0.00    -0.269 OA
BRANCH  28  31
ATOM     31  C   UNL A   1      37.865  30.280  30.122  1.00  0.00     0.039 A 
ATOM     32  C   UNL A   1      38.785  29.908  31.105  1.00  0.00     0.014 A 
ATOM     33  C   UNL A   1      38.255  30.352  28.782  1.00  0.00     0.014 A 
ATOM     34  C   UNL A   1      40.086  29.558  30.736  1.00  0.00     0.010 A 
ATOM     35  C   UNL A   1      39.529  29.933  28.408  1.00  0.00     0.010 A 
ATOM     36  C   UNL A   1      40.460  29.538  29.382  1.00  0.00    -0.014 A 
BRANCH  36  37
ATOM     37  C   UNL A   1      41.819  29.106  28.966  1.00  0.00     0.031 A 
ATOM     38  C   UNL A   1      42.947  30.100  28.913  1.00  0.00     0.074 A 
ATOM     39  C   UNL A   1      42.020  27.830  28.580  1.00  0.00     0.049 A 
ATOM     40  N   UNL A   1      44.183  29.927  28.518  1.00  0.00    -0.248 NA
ATOM     41  C   UNL A   1      42.642  31.477  29.335  1.00  0.00     0.031 C 
ATOM     42  C   UNL A   1      40.993  26.786  28.543  1.00  0.00     0.029 A 
ATOM     43  N   UNL A   1      43.153  27.196  28.134  1.00  0.00    -0.354 N 
ATOM     44  C   UNL A   1      44.796  31.169  28.635  1.00  0.00     0.074 A 
ATOM     45  C   UNL A   1      43.783  32.099  29.082  1.00  0.00     0.031 C 
ATOM     46  C   UNL A   1      41.548  25.638  28.122  1.00  0.00     0.029 A 
ATOM     47  C   UNL A   1      42.955  25.872  27.816  1.00  0.00     0.049 A 
ATOM     48  H   UNL A   1      44.025  27.644  28.050  1.00  0.00     0.167 HD
ATOM     49  C   UNL A   1      46.091  31.499  28.412  1.00  0.00     0.037 A 
ATOM     50  C   UNL A   1      43.809  24.952  27.325  1.00  0.00     0.037 A 
ATOM     51  C   UNL A   1      47.096  30.560  27.982  1.00  0.00     0.049 A 
ATOM     52  C   UNL A   1      45.239  25.345  27.072  1.00  0.00     0.074 A 
ATOM     53  C   UNL A   1      48.447  30.781  27.778  1.00  0.00     0.029 A 
ATOM     54  N   UNL A   1      46.861  29.225  27.685  1.00  0.00    -0.354 N 
ATOM     55  N   UNL A   1      45.818  26.509  27.249  1.00  0.00    -0.248 NA
ATOM     56  C   UNL A   1      46.135  24.299  26.559  1.00  0.00     0.031 C 
ATOM     57  C   UNL A   1      49.018  29.594  27.306  1.00  0.00     0.029 A 
ATOM     58  C   UNL A   1      48.036  28.616  27.275  1.00  0.00     0.049 A 
ATOM     59  H   UNL A   1      45.987  28.776  27.755  1.00  0.00     0.167 HD
ATOM     60  C   UNL A   1      47.151  26.329  26.898  1.00  0.00     0.074 A 
ATOM     61  C   UNL A   1      47.296  24.940  26.510  1.00  0.00     0.031 C 
ATOM     62  C   UNL A   1      48.165  27.230  26.898  1.00  0.00     0.037 A 
BRANCH  49  63
ATOM     63  C   UNL A   1      46.497  32.932  28.628  1.00  0.00     0.058 A 
ATOM     64  C   UNL A   1      46.461  33.875  27.587  1.00  0.00     0.135 A 
ATOM     65  C   UNL A   1      46.890  33.381  29.899  1.00  0.00     0.135 A 
ATOM     66  F   UNL A   1      46.108  33.501  26.347  1.00  0.00    -0.206 F 
ATOM     67  C   UNL A   1      46.829  35.201  27.792  1.00  0.00     0.059 A 
ATOM     68  C   UNL A   1      47.232  34.710  30.135  1.00  0.00     0.059 A 
ATOM     69  F   UNL A   1      46.942  32.525  30.932  1.00  0.00    -0.206 F 
ATOM     70  C   UNL A   1      47.212  35.610  29.070  1.00  0.00     0.060 A 
BRANCH  70  71
ATOM     71  S   UNL A   1      47.680  37.335  29.318  1.00  0.00     0.124 S 
ATOM     72  O   UNL A   1      46.464  37.884  29.911  1.00  0.00    -0.237 OA
ATOM     73  O   UNL A   1      48.826  37.220  30.216  1.00  0.00    -0.237 OA
ATOM     74  O   UNL A   1      47.987  37.803  27.971  1.00  0.00    -0.744 OA
ENDBRANCH  70  71
ENDBRANCH  49  63
BRANCH  50  75
ATOM     75  C   UNL A   1      43.335  23.567  27.055  1.00  0.00     0.058 A 
ATOM     76  C   UNL A   1      43.063  23.138  25.746  1.00  0.00     0.135 A 
ATOM     77  C   UNL A   1      43.158  22.641  28.094  1.00  0.00     0.135 A 
ATOM     78  F   UNL A   1      43.212  23.987  24.718  1.00  0.00    -0.206 F 
ATOM     79  C   UNL A   1      42.613  21.850  25.480  1.00  0.00     0.059 A 
ATOM     80  C   UNL A   1      42.737  21.337  27.850  1.00  0.00     0.059 A 
ATOM     81  F   UNL A   1      43.419  22.995  29.362  1.00  0.00    -0.206 F 
ATOM     82  C   UNL A   1      42.456  20.954  26.539  1.00  0.00     0.060 A 
BRANCH  82  83
ATOM     83  S   UNL A   1      41.913  19.271  26.177  1.00  0.00     0.124 S 
ATOM     84  O   UNL A   1      42.277  18.574  27.406  1.00  0.00    -0.237 OA
ATOM     85  O   UNL A   1      40.482  19.454  25.946  1.00  0.00    -0.237 OA
ATOM     86  O   UNL A   1      42.690  18.913  24.995  1.00  0.00    -0.744 OA
ENDBRANCH  82  83
ENDBRANCH  50  75
BRANCH  62  87
ATOM     87  C   UNL A   1      49.532  26.738  26.503  1.00  0.00     0.058 A 
ATOM     88  C   UNL A   1      50.383  26.101  27.418  1.00  0.00     0.135 A 
ATOM     89  C   UNL A   1      49.972  26.860  25.174  1.00  0.00     0.135 A 
ATOM     90  F   UNL A   1      50.015  25.965  28.702  1.00  0.00    -0.206 F 
ATOM     91  C   UNL A   1      51.633  25.624  27.037  1.00  0.00     0.059 A 
ATOM     92  C   UNL A   1      51.204  26.362  24.764  1.00  0.00     0.059 A 
ATOM     93  F   UNL A   1      49.194  27.452  24.254  1.00  0.00    -0.206 F 
ATOM     94  C   UNL A   1      52.034  25.756  25.706  1.00  0.00     0.060 A 
BRANCH  94  95
ATOM     95  S   UNL A   1      53.643  25.100  25.218  1.00  0.00     0.124 S 
ATOM     96  O   UNL A   1      54.521  25.704  26.213  1.00  0.00    -0.237 OA
ATOM     97  O   UNL A   1      53.441  23.660  25.341  1.00  0.00    -0.237 OA
ATOM     98  O   UNL A   1      53.810  25.588  23.852  1.00  0.00    -0.744 OA
ENDBRANCH  94  95
ENDBRANCH  62  87
ENDBRANCH  36  37
ENDBRANCH  28  31
ENDBRANCH  26  27
ENDBRANCH  25  26
ENDBRANCH  24  25
ENDBRANCH   1  24
TORSDOF 20
ENDMDL
MODEL 3
REMARK VINA RESULT:     -11.0      3.223      4.999
REMARK SMILES C[C@@H]1C[C@@H]([C@@H](C)C(=O)NCCCCCCNC(=O)c2ccc(-c3c4nc(c(-c5c(F)cc(S(=O)(=O)[O-])cc5F)c5ccc([nH]5)c(-c5c(F)cc(S(=O)(=O)[O-])cc5F)c5nc(c(-c6c(F)cc(S(=O)(=O)[O-])cc6F)c6ccc3[nH]6)C=C5)C=C4)cc2)CCN1C(=O)OC(C)(C)C
REMARK SMILES IDX 12 1 11 2 10 3 9 4 7 5 8 6 5 8 6 9 4 10 1 11 2 12 3 13 87 14
REMARK SMILES IDX 86 15 85 16 88 17 89 18 90 19 91 20 92 21 93 22 94 23 13 24
REMARK SMILES IDX 14 25 15 26 16 27 17 28 18 30 19 31 20 32 84 33 21 34 83 35
REMARK SMILES IDX 22 36 23 37 24 38 77 39 25 40 82 41 76 42 78 43 26 44 81 45
REMARK SMILES IDX 75 46 74 47 27 49 61 50 40 51 60 52 41 53 44 54 59 55 79 56
REMARK SMILES IDX 42 57 43 58 58 60 80 61 45 62 28 63 29 64 38 65 30 66 31 67
REMARK SMILES IDX 37 68 39 69 32 70 33 71 34 72 35 73 36 74 62 75 63 76 72 77
REMARK SMILES IDX 64 78 65 79 71 80 73 81 66 82 67 83 68 84 69 85 70 86 46 87
REMARK SMILES IDX 47 88 56 89 48 90 49 91 55 92 57 93 50 94 51 95 52 96 53 97
REMARK SMILES IDX 54 98
REMARK H PARENT 9 7 16 29 78 48 44 59
REMARK Flexibility Score: inf
ROOT
ATOM      1  C   UNL A   1      32.064  27.533  23.238  1.00  0.00     0.002 C 
ENDROOT
BRANCH   1   2
ATOM      2  C   UNL A   1      30.731  27.297  23.940  1.00  0.00     0.021 C 
BRANCH   2   3
ATOM      3  C   UNL A   1      30.027  25.996  23.536  1.00  0.00     0.116 C 
BRANCH   3   4
ATOM      4  N   UNL A   1      30.115  25.029  24.615  1.00  0.00    -0.356 N 
ATOM      5  C   UNL A   1      30.974  23.999  24.838  1.00  0.00     0.223 C 
ATOM      6  O   UNL A   1      30.677  23.219  25.750  1.00  0.00    -0.275 OA
ATOM      7  H   UNL A   1      29.427  25.139  25.311  1.00  0.00     0.163 HD
BRANCH   5   8
ATOM      8  C   UNL A   1      32.308  23.829  24.095  1.00  0.00     0.078 C 
ATOM      9  C   UNL A   1      32.141  22.814  22.970  1.00  0.00     0.018 C 
BRANCH   8  10
ATOM     10  C   UNL A   1      33.636  23.874  24.922  1.00  0.00     0.005 C 
ATOM     11  C   UNL A   1      36.162  21.010  24.845  1.00  0.00     0.031 C 
ATOM     12  C   UNL A   1      34.770  21.567  24.531  1.00  0.00     0.085 C 
ATOM     13  C   UNL A   1      34.812  23.095  24.291  1.00  0.00     0.029 C 
ATOM     14  N   UNL A   1      33.825  21.214  25.596  1.00  0.00    -0.305 N 
ATOM     15  C   UNL A   1      33.834  22.063  26.775  1.00  0.00     0.123 C 
ATOM     16  C   UNL A   1      33.633  23.542  26.421  1.00  0.00     0.026 C 
BRANCH  14  17
ATOM     17  C   UNL A   1      32.932  20.150  25.519  1.00  0.00     0.410 C 
ATOM     18  O   UNL A   1      31.730  20.293  25.320  1.00  0.00    -0.224 OA
BRANCH  17  19
ATOM     19  O   UNL A   1      33.555  18.946  25.582  1.00  0.00    -0.444 OA
BRANCH  19  20
ATOM     20  C   UNL A   1      33.322  17.909  24.588  1.00  0.00     0.106 C 
ATOM     21  C   UNL A   1      32.491  16.755  25.152  1.00  0.00     0.056 C 
ATOM     22  C   UNL A   1      32.694  18.480  23.309  1.00  0.00     0.056 C 
ATOM     23  C   UNL A   1      34.725  17.388  24.239  1.00  0.00     0.056 C 
ENDBRANCH  19  20
ENDBRANCH  17  19
ENDBRANCH  14  17
ENDBRANCH   8  10
ENDBRANCH   5   8
ENDBRANCH   3   4
ENDBRANCH   2   3
ENDBRANCH   1   2
BRANCH   1  24
ATOM     24  C   UNL A   1      33.292  27.374  24.140  1.00  0.00     0.002 C 
BRANCH  24  25
ATOM     25  C   UNL A   1      33.008  27.376  25.647  1.00  0.00     0.021 C 
BRANCH  25  26
ATOM     26  C   UNL A   1      34.098  28.008  26.510  1.00  0.00     0.116 C 
BRANCH  26  27
ATOM     27  N   UNL A   1      33.734  29.346  26.950  1.00  0.00    -0.352 N 
ATOM     28  C   UNL A   1      34.406  30.208  27.779  1.00  0.00     0.251 C 
ATOM     29  H   UNL A   1      32.878  29.683  26.602  1.00  0.00     0.163 HD
ATOM     30  O   UNL A   1      33.829  31.189  28.238  1.00  0.00    -0.269 OA
BRANCH  28  31
ATOM     31  C   UNL A   1      35.821  29.952  28.121  1.00  0.00     0.039 A 
ATOM     32  C   UNL A   1      36.148  29.591  29.429  1.00  0.00     0.014 A 
ATOM     33  C   UNL A   1      36.824  30.095  27.157  1.00  0.00     0.014 A 
ATOM     34  C   UNL A   1      37.479  29.321  29.759  1.00  0.00     0.010 A 
ATOM     35  C   UNL A   1      38.137  29.755  27.469  1.00  0.00     0.010 A 
ATOM     36  C   UNL A   1      38.480  29.370  28.775  1.00  0.00    -0.014 A 
BRANCH  36  37
ATOM     37  C   UNL A   1      39.889  29.024  29.092  1.00  0.00     0.031 A 
ATOM     38  C   UNL A   1      40.801  30.049  29.711  1.00  0.00     0.074 A 
ATOM     39  C   UNL A   1      40.361  27.803  28.768  1.00  0.00     0.049 A 
ATOM     40  N   UNL A   1      42.073  29.954  30.002  1.00  0.00    -0.248 NA
ATOM     41  C   UNL A   1      40.213  31.362  30.019  1.00  0.00     0.031 C 
ATOM     42  C   UNL A   1      39.586  26.742  28.121  1.00  0.00     0.029 A 
ATOM     43  N   UNL A   1      41.608  27.252  28.926  1.00  0.00    -0.354 N 
ATOM     44  C   UNL A   1      42.438  31.192  30.518  1.00  0.00     0.074 A 
ATOM     45  C   UNL A   1      41.269  32.040  30.445  1.00  0.00     0.031 C 
ATOM     46  C   UNL A   1      40.367  25.662  27.960  1.00  0.00     0.029 A 
ATOM     47  C   UNL A   1      41.708  25.966  28.449  1.00  0.00     0.049 A 
ATOM     48  H   UNL A   1      42.360  27.731  29.342  1.00  0.00     0.167 HD
ATOM     49  C   UNL A   1      43.633  31.579  31.026  1.00  0.00     0.037 A 
ATOM     50  C   UNL A   1      42.763  25.129  28.402  1.00  0.00     0.037 A 
ATOM     51  C   UNL A   1      44.786  30.720  31.108  1.00  0.00     0.049 A 
ATOM     52  C   UNL A   1      44.083  25.586  28.960  1.00  0.00     0.074 A 
ATOM     53  C   UNL A   1      46.028  30.999  31.653  1.00  0.00     0.029 A 
ATOM     54  N   UNL A   1      44.845  29.420  30.628  1.00  0.00    -0.354 N 
ATOM     55  N   UNL A   1      44.394  26.739  29.503  1.00  0.00    -0.248 NA
ATOM     56  C   UNL A   1      45.195  24.627  28.906  1.00  0.00     0.031 C 
ATOM     57  C   UNL A   1      46.852  29.887  31.455  1.00  0.00     0.029 A 
ATOM     58  C   UNL A   1      46.108  28.891  30.842  1.00  0.00     0.049 A 
ATOM     59  H   UNL A   1      44.098  28.942  30.199  1.00  0.00     0.167 HD
ATOM     60  C   UNL A   1      45.728  26.635  29.882  1.00  0.00     0.074 A 
ATOM     61  C   UNL A   1      46.161  25.301  29.518  1.00  0.00     0.031 C 
ATOM     62  C   UNL A   1      46.522  27.558  30.478  1.00  0.00     0.037 A 
BRANCH  49  63
ATOM     63  C   UNL A   1      43.754  32.991  31.533  1.00  0.00     0.058 A 
ATOM     64  C   UNL A   1      44.179  34.041  30.702  1.00  0.00     0.135 A 
ATOM     65  C   UNL A   1      43.405  33.309  32.856  1.00  0.00     0.135 A 
ATOM     66  F   UNL A   1      44.539  33.795  29.432  1.00  0.00    -0.206 F 
ATOM     67  C   UNL A   1      44.282  35.346  31.171  1.00  0.00     0.059 A 
ATOM     68  C   UNL A   1      43.471  34.614  33.339  1.00  0.00     0.059 A 
ATOM     69  F   UNL A   1      42.993  32.347  33.696  1.00  0.00    -0.206 F 
ATOM     70  C   UNL A   1      43.925  35.623  32.491  1.00  0.00     0.060 A 
BRANCH  70  71
ATOM     71  S   UNL A   1      44.059  37.324  33.081  1.00  0.00     0.124 S 
ATOM     72  O   UNL A   1      43.912  38.076  31.839  1.00  0.00    -0.237 OA
ATOM     73  O   UNL A   1      42.941  37.418  34.015  1.00  0.00    -0.237 OA
ATOM     74  O   UNL A   1      45.385  37.370  33.689  1.00  0.00    -0.744 OA
ENDBRANCH  70  71
ENDBRANCH  49  63
BRANCH  50  75
ATOM     75  C   UNL A   1      42.607  23.769  27.817  1.00  0.00     0.058 A 
ATOM     76  C   UNL A   1      42.425  22.645  28.637  1.00  0.00     0.135 A 
ATOM     77  C   UNL A   1      42.624  23.566  26.428  1.00  0.00     0.135 A 
ATOM     78  F   UNL A   1      42.407  22.785  29.971  1.00  0.00    -0.206 F 
ATOM     79  C   UNL A   1      42.286  21.368  28.105  1.00  0.00     0.059 A 
ATOM     80  C   UNL A   1      42.457  22.302  25.871  1.00  0.00     0.059 A 
ATOM     81  F   UNL A   1      42.779  24.609  25.598  1.00  0.00    -0.206 F 
ATOM     82  C   UNL A   1      42.300  21.207  26.718  1.00  0.00     0.060 A 
BRANCH  82  83
ATOM     83  S   UNL A   1      42.075  19.550  26.036  1.00  0.00     0.124 S 
ATOM     84  O   UNL A   1      42.551  18.714  27.132  1.00  0.00    -0.237 OA
ATOM     85  O   UNL A   1      40.637  19.516  25.784  1.00  0.00    -0.237 OA
ATOM     86  O   UNL A   1      42.912  19.561  24.841  1.00  0.00    -0.744 OA
ENDBRANCH  82  83
ENDBRANCH  50  75
BRANCH  62  87
ATOM     87  C   UNL A   1      47.932  27.150  30.813  1.00  0.00     0.058 A 
ATOM     88  C   UNL A   1      48.252  26.517  32.024  1.00  0.00     0.135 A 
ATOM     89  C   UNL A   1      48.966  27.348  29.884  1.00  0.00     0.135 A 
ATOM     90  F   UNL A   1      47.302  26.309  32.951  1.00  0.00    -0.206 F 
ATOM     91  C   UNL A   1      49.553  26.117  32.313  1.00  0.00     0.059 A 
ATOM     92  C   UNL A   1      50.268  26.928  30.138  1.00  0.00     0.059 A 
ATOM     93  F   UNL A   1      48.714  27.940  28.705  1.00  0.00    -0.206 F 
ATOM     94  C   UNL A   1      50.554  26.323  31.362  1.00  0.00     0.060 A 
BRANCH  94  95
ATOM     95  S   UNL A   1      52.230  25.766  31.735  1.00  0.00     0.124 S 
ATOM     96  O   UNL A   1      52.903  25.980  30.459  1.00  0.00    -0.237 OA
ATOM     97  O   UNL A   1      52.622  26.664  32.817  1.00  0.00    -0.237 OA
ATOM     98  O   UNL A   1      52.047  24.370  32.123  1.00  0.00    -0.744 OA
ENDBRANCH  94  95
ENDBRANCH  62  87
ENDBRANCH  36  37
ENDBRANCH  28  31
ENDBRANCH  26  27
ENDBRANCH  25  26
ENDBRANCH  24  25
ENDBRANCH   1  24
TORSDOF 20
ENDMDL
