MODEL 1
REMARK VINA RESULT:     -11.1      0.000      0.000
REMARK SMILES CCCCCCNC(=O)Oc1cccc(-c2ccc([C@@H](C)C(=O)NCCCCCCNC(=O)c3ccc(-c4c5nc(c(-c6c(F)cc(S(=O)(=O)[O-])cc6F)c6ccc([nH]6)c(-c6c(F)cc(S(=O)(=O)[O-])cc6F)c6nc(c(-c7c(F)cc(S(=O)(=O)[O-])cc7F)c7ccc4[nH]7)C=C6)C=C5)cc3)cc2Cl)c1
REMARK SMILES IDX 22 1 23 2 24 3 20 5 21 6 19 7 16 8 17 9 101 10 18 11 100 12
REMARK SMILES IDX 102 13 15 14 11 15 12 16 103 17 13 18 14 19 10 20 8 21 7 22
REMARK SMILES IDX 9 24 6 25 5 26 4 27 3 28 2 29 1 30 25 31 26 32 27 33 28 34
REMARK SMILES IDX 29 35 30 36 31 37 32 38 33 40 34 41 35 42 99 43 36 44 98 45
REMARK SMILES IDX 37 46 38 47 39 48 92 49 40 50 97 51 91 52 93 53 41 54 96 55
REMARK SMILES IDX 90 56 89 57 42 59 76 60 55 61 75 62 56 63 59 64 74 65 94 66
REMARK SMILES IDX 57 67 58 68 73 70 95 71 60 72 43 73 44 74 53 75 45 76 46 77
REMARK SMILES IDX 52 78 54 79 47 80 48 81 49 82 50 83 51 84 77 85 78 86 87 87
REMARK SMILES IDX 79 88 80 89 86 90 88 91 81 92 82 93 83 94 84 95 85 96 61 97
REMARK SMILES IDX 62 98 71 99 63 100 64 101 70 102 72 103 65 104 66 105 67 106
REMARK SMILES IDX 68 107 69 108
REMARK H PARENT 24 4 7 23 31 39 93 58 59 69
REMARK Flexibility Score: inf
ROOT
ATOM      1  C   UNL A   1      34.337  21.450  26.762  1.00  0.00     0.227 C 
ATOM      2  O   UNL A   1      34.369  21.443  28.000  1.00  0.00    -0.274 OA
ATOM      3  N   UNL A   1      35.488  21.099  26.127  1.00  0.00    -0.356 N 
ATOM      4  H   UNL A   1      36.206  20.803  26.732  1.00  0.00     0.163 HD
ENDROOT
BRANCH   1   5
ATOM      5  C   UNL A   1      33.036  21.825  26.034  1.00  0.00     0.105 C 
ATOM      6  C   UNL A   1      32.791  21.038  24.747  1.00  0.00     0.023 C 
BRANCH   5   7
ATOM      7  C   UNL A   1      32.787  23.322  25.951  1.00  0.00    -0.034 A 
ATOM      8  C   UNL A   1      32.256  26.143  25.993  1.00  0.00     0.000 A 
ATOM      9  C   UNL A   1      33.551  25.626  25.807  1.00  0.00     0.010 A 
ATOM     10  C   UNL A   1      31.214  25.199  26.091  1.00  0.00     0.049 A 
ATOM     11  C   UNL A   1      33.804  24.252  25.739  1.00  0.00     0.005 A 
ATOM     12  C   UNL A   1      31.484  23.819  26.107  1.00  0.00     0.025 A 
ATOM     13  Cl  UNL A   1      29.537  25.642  26.130  1.00  0.00    -0.084 Cl
BRANCH   8  14
ATOM     14  C   UNL A   1      32.087  27.614  26.085  1.00  0.00    -0.013 A 
ATOM     15  C   UNL A   1      31.158  29.713  25.278  1.00  0.00     0.133 A 
ATOM     16  C   UNL A   1      31.728  30.414  26.336  1.00  0.00     0.047 A 
ATOM     17  C   UNL A   1      31.316  28.331  25.155  1.00  0.00     0.056 A 
ATOM     18  C   UNL A   1      32.469  29.721  27.285  1.00  0.00     0.004 A 
ATOM     19  C   UNL A   1      32.659  28.342  27.150  1.00  0.00     0.009 A 
BRANCH  15  20
ATOM     20  O   UNL A   1      30.557  30.486  24.271  1.00  0.00    -0.410 OA
BRANCH  20  21
ATOM     21  C   UNL A   1      29.688  29.907  23.358  1.00  0.00     0.412 C 
ATOM     22  N   UNL A   1      30.340  29.365  22.283  1.00  0.00    -0.321 N 
ATOM     23  H   UNL A   1      29.778  28.982  21.572  1.00  0.00     0.167 HD
ATOM     24  O   UNL A   1      28.468  29.859  23.449  1.00  0.00    -0.224 OA
BRANCH  22  25
ATOM     25  C   UNL A   1      31.774  29.301  22.087  1.00  0.00     0.119 C 
BRANCH  25  26
ATOM     26  C   UNL A   1      32.309  27.880  22.270  1.00  0.00     0.021 C 
BRANCH  26  27
ATOM     27  C   UNL A   1      31.294  26.770  21.974  1.00  0.00     0.002 C 
BRANCH  27  28
ATOM     28  C   UNL A   1      31.676  25.376  22.486  1.00  0.00    -0.000 C 
BRANCH  28  29
ATOM     29  C   UNL A   1      33.088  24.911  22.126  1.00  0.00    -0.003 C 
ATOM     30  C   UNL A   1      33.226  23.397  22.071  1.00  0.00     0.004 C 
ENDBRANCH  28  29
ENDBRANCH  27  28
ENDBRANCH  26  27
ENDBRANCH  25  26
ENDBRANCH  22  25
ENDBRANCH  20  21
ENDBRANCH  15  20
ENDBRANCH   8  14
ENDBRANCH   5   7
ENDBRANCH   1   5
BRANCH   3  31
ATOM     31  C   UNL A   1      35.848  21.084  24.725  1.00  0.00     0.116 C 
BRANCH  31  32
ATOM     32  C   UNL A   1      37.115  21.899  24.459  1.00  0.00     0.021 C 
BRANCH  32  33
ATOM     33  C   UNL A   1      37.014  23.361  24.906  1.00  0.00     0.002 C 
BRANCH  33  34
ATOM     34  C   UNL A   1      37.951  23.752  26.056  1.00  0.00     0.002 C 
BRANCH  34  35
ATOM     35  C   UNL A   1      38.958  22.676  26.479  1.00  0.00     0.021 C 
BRANCH  35  36
ATOM     36  C   UNL A   1      40.217  23.215  27.152  1.00  0.00     0.116 C 
BRANCH  36  37
ATOM     37  N   UNL A   1      41.147  23.773  26.181  1.00  0.00    -0.352 N 
ATOM     38  C   UNL A   1      41.606  25.060  26.050  1.00  0.00     0.251 C 
ATOM     39  H   UNL A   1      41.499  23.133  25.521  1.00  0.00     0.163 HD
ATOM     40  O   UNL A   1      42.182  25.400  25.022  1.00  0.00    -0.269 OA
BRANCH  38  41
ATOM     41  C   UNL A   1      41.399  26.035  27.143  1.00  0.00     0.039 A 
ATOM     42  C   UNL A   1      40.380  25.808  28.071  1.00  0.00     0.014 A 
ATOM     43  C   UNL A   1      42.187  27.186  27.231  1.00  0.00     0.014 A 
ATOM     44  C   UNL A   1      40.185  26.711  29.119  1.00  0.00     0.010 A 
ATOM     45  C   UNL A   1      42.037  28.048  28.315  1.00  0.00     0.010 A 
ATOM     46  C   UNL A   1      41.029  27.824  29.265  1.00  0.00    -0.014 A 
BRANCH  46  47
ATOM     47  C   UNL A   1      40.870  28.769  30.400  1.00  0.00     0.031 A 
ATOM     48  C   UNL A   1      41.728  28.627  31.628  1.00  0.00     0.074 A 
ATOM     49  C   UNL A   1      39.909  29.712  30.350  1.00  0.00     0.049 A 
ATOM     50  N   UNL A   1      41.688  29.305  32.746  1.00  0.00    -0.248 NA
ATOM     51  C   UNL A   1      42.748  27.566  31.607  1.00  0.00     0.031 C 
ATOM     52  C   UNL A   1      38.982  29.916  29.234  1.00  0.00     0.029 A 
ATOM     53  N   UNL A   1      39.541  30.668  31.264  1.00  0.00    -0.354 N 
ATOM     54  C   UNL A   1      42.662  28.745  33.564  1.00  0.00     0.074 A 
ATOM     55  C   UNL A   1      43.241  27.638  32.835  1.00  0.00     0.031 C 
ATOM     56  C   UNL A   1      38.166  30.944  29.522  1.00  0.00     0.029 A 
ATOM     57  C   UNL A   1      38.484  31.446  30.854  1.00  0.00     0.049 A 
ATOM     58  H   UNL A   1      39.991  30.784  32.132  1.00  0.00     0.167 HD
ATOM     59  C   UNL A   1      43.052  29.130  34.804  1.00  0.00     0.037 A 
ATOM     60  C   UNL A   1      37.837  32.445  31.485  1.00  0.00     0.037 A 
ATOM     61  C   UNL A   1      42.488  30.251  35.512  1.00  0.00     0.049 A 
ATOM     62  C   UNL A   1      38.293  32.862  32.858  1.00  0.00     0.074 A 
ATOM     63  C   UNL A   1      42.856  30.763  36.744  1.00  0.00     0.029 A 
ATOM     64  N   UNL A   1      41.438  31.033  35.052  1.00  0.00    -0.354 N 
ATOM     65  N   UNL A   1      39.259  32.361  33.592  1.00  0.00    -0.248 NA
ATOM     66  C   UNL A   1      37.580  33.983  33.484  1.00  0.00     0.031 C 
ATOM     67  C   UNL A   1      41.999  31.824  37.050  1.00  0.00     0.029 A 
ATOM     68  C   UNL A   1      41.131  32.009  35.986  1.00  0.00     0.049 A 
ATOM     69  H   UNL A   1      40.979  30.911  34.190  1.00  0.00     0.167 HD
ATOM     70  C   UNL A   1      39.287  33.124  34.755  1.00  0.00     0.074 A 
ATOM     71  C   UNL A   1      38.249  34.125  34.621  1.00  0.00     0.031 C 
ATOM     72  C   UNL A   1      40.099  33.005  35.834  1.00  0.00     0.037 A 
BRANCH  59  73
ATOM     73  C   UNL A   1      44.142  28.337  35.472  1.00  0.00     0.058 A 
ATOM     74  C   UNL A   1      45.491  28.717  35.386  1.00  0.00     0.135 A 
ATOM     75  C   UNL A   1      43.830  27.204  36.241  1.00  0.00     0.135 A 
ATOM     76  F   UNL A   1      45.846  29.784  34.653  1.00  0.00    -0.206 F 
ATOM     77  C   UNL A   1      46.495  27.986  36.012  1.00  0.00     0.059 A 
ATOM     78  C   UNL A   1      44.816  26.474  36.900  1.00  0.00     0.059 A 
ATOM     79  F   UNL A   1      42.557  26.795  36.359  1.00  0.00    -0.206 F 
ATOM     80  C   UNL A   1      46.146  26.864  36.767  1.00  0.00     0.060 A 
BRANCH  80  81
ATOM     81  S   UNL A   1      47.462  25.930  37.579  1.00  0.00     0.124 S 
ATOM     82  O   UNL A   1      47.391  24.655  36.873  1.00  0.00    -0.237 OA
ATOM     83  O   UNL A   1      48.641  26.744  37.301  1.00  0.00    -0.237 OA
ATOM     84  O   UNL A   1      47.042  25.897  38.977  1.00  0.00    -0.744 OA
ENDBRANCH  80  81
ENDBRANCH  59  73
BRANCH  60  85
ATOM     85  C   UNL A   1      36.703  33.135  30.814  1.00  0.00     0.058 A 
ATOM     86  C   UNL A   1      35.378  32.901  31.212  1.00  0.00     0.135 A 
ATOM     87  C   UNL A   1      36.921  34.055  29.777  1.00  0.00     0.135 A 
ATOM     88  F   UNL A   1      35.118  32.027  32.195  1.00  0.00    -0.206 F 
ATOM     89  C   UNL A   1      34.308  33.542  30.595  1.00  0.00     0.059 A 
ATOM     90  C   UNL A   1      35.869  34.727  29.162  1.00  0.00     0.059 A 
ATOM     91  F   UNL A   1      38.171  34.328  29.372  1.00  0.00    -0.206 F 
ATOM     92  C   UNL A   1      34.565  34.455  29.572  1.00  0.00     0.060 A 
BRANCH  92  93
ATOM     93  S   UNL A   1      33.173  35.320  28.812  1.00  0.00     0.124 S 
ATOM     94  O   UNL A   1      33.855  36.355  28.043  1.00  0.00    -0.237 OA
ATOM     95  O   UNL A   1      32.540  34.259  28.036  1.00  0.00    -0.237 OA
ATOM     96  O   UNL A   1      32.404  35.790  29.961  1.00  0.00    -0.744 OA
ENDBRANCH  92  93
ENDBRANCH  60  85
BRANCH  72  97
ATOM     97  C   UNL A   1      39.926  34.004  36.943  1.00  0.00     0.058 A 
ATOM     98  C   UNL A   1      40.561  35.256  36.917  1.00  0.00     0.135 A 
ATOM     99  C   UNL A   1      39.068  33.726  38.021  1.00  0.00     0.135 A 
ATOM    100  F   UNL A   1      41.396  35.569  35.914  1.00  0.00    -0.206 F 
ATOM    101  C   UNL A   1      40.370  36.188  37.932  1.00  0.00     0.059 A 
ATOM    102  C   UNL A   1      38.840  34.655  39.031  1.00  0.00     0.059 A 
ATOM    103  F   UNL A   1      38.428  32.549  38.089  1.00  0.00    -0.206 F 
ATOM    104  C   UNL A   1      39.506  35.879  38.984  1.00  0.00     0.060 A 
BRANCH 104 105
ATOM    105  S   UNL A   1      39.239  37.112  40.276  1.00  0.00     0.124 S 
ATOM    106  O   UNL A   1      38.495  38.138  39.553  1.00  0.00    -0.237 OA
ATOM    107  O   UNL A   1      38.479  36.361  41.272  1.00  0.00    -0.237 OA
ATOM    108  O   UNL A   1      40.592  37.482  40.678  1.00  0.00    -0.744 OA
ENDBRANCH 104 105
ENDBRANCH  72  97
ENDBRANCH  46  47
ENDBRANCH  38  41
ENDBRANCH  36  37
ENDBRANCH  35  36
ENDBRANCH  34  35
ENDBRANCH  33  34
ENDBRANCH  32  33
ENDBRANCH  31  32
ENDBRANCH   3  31
TORSDOF 25
ENDMDL
MODEL 2
REMARK VINA RESULT:     -10.4      6.327      8.373
REMARK SMILES CCCCCCNC(=O)Oc1cccc(-c2ccc([C@@H](C)C(=O)NCCCCCCNC(=O)c3ccc(-c4c5nc(c(-c6c(F)cc(S(=O)(=O)[O-])cc6F)c6ccc([nH]6)c(-c6c(F)cc(S(=O)(=O)[O-])cc6F)c6nc(c(-c7c(F)cc(S(=O)(=O)[O-])cc7F)c7ccc4[nH]7)C=C6)C=C5)cc3)cc2Cl)c1
REMARK SMILES IDX 22 1 23 2 24 3 20 5 21 6 19 7 16 8 17 9 101 10 18 11 100 12
REMARK SMILES IDX 102 13 15 14 11 15 12 16 103 17 13 18 14 19 10 20 8 21 7 22
REMARK SMILES IDX 9 24 6 25 5 26 4 27 3 28 2 29 1 30 25 31 26 32 27 33 28 34
REMARK SMILES IDX 29 35 30 36 31 37 32 38 33 40 34 41 35 42 99 43 36 44 98 45
REMARK SMILES IDX 37 46 38 47 39 48 92 49 40 50 97 51 91 52 93 53 41 54 96 55
REMARK SMILES IDX 90 56 89 57 42 59 76 60 55 61 75 62 56 63 59 64 74 65 94 66
REMARK SMILES IDX 57 67 58 68 73 70 95 71 60 72 43 73 44 74 53 75 45 76 46 77
REMARK SMILES IDX 52 78 54 79 47 80 48 81 49 82 50 83 51 84 77 85 78 86 87 87
REMARK SMILES IDX 79 88 80 89 86 90 88 91 81 92 82 93 83 94 84 95 85 96 61 97
REMARK SMILES IDX 62 98 71 99 63 100 64 101 70 102 72 103 65 104 66 105 67 106
REMARK SMILES IDX 68 107 69 108
REMARK H PARENT 24 4 7 23 31 39 93 58 59 69
REMARK Flexibility Score: inf
ROOT
ATOM      1  C   UNL A   1      37.286  21.724  24.762  1.00  0.00     0.227 C 
ATOM      2  O   UNL A   1      37.634  21.025  23.801  1.00  0.00    -0.274 OA
ATOM      3  N   UNL A   1      38.143  22.715  25.129  1.00  0.00    -0.356 N 
ATOM      4  H   UNL A   1      38.921  22.814  24.534  1.00  0.00     0.163 HD
ENDROOT
BRANCH   1   5
ATOM      5  C   UNL A   1      35.940  21.456  25.453  1.00  0.00     0.105 C 
ATOM      6  C   UNL A   1      35.495  19.995  25.410  1.00  0.00     0.023 C 
BRANCH   5   7
ATOM      7  C   UNL A   1      34.867  22.483  25.129  1.00  0.00    -0.034 A 
ATOM      8  C   UNL A   1      32.711  24.263  24.477  1.00  0.00     0.000 A 
ATOM      9  C   UNL A   1      33.259  24.190  25.771  1.00  0.00     0.010 A 
ATOM     10  C   UNL A   1      33.324  23.461  23.493  1.00  0.00     0.049 A 
ATOM     11  C   UNL A   1      34.339  23.357  26.078  1.00  0.00     0.005 A 
ATOM     12  C   UNL A   1      34.354  22.564  23.825  1.00  0.00     0.025 A 
ATOM     13  Cl  UNL A   1      32.917  23.557  21.809  1.00  0.00    -0.084 Cl
BRANCH   8  14
ATOM     14  C   UNL A   1      31.544  25.151  24.251  1.00  0.00    -0.013 A 
ATOM     15  C   UNL A   1      30.343  26.811  22.939  1.00  0.00     0.133 A 
ATOM     16  C   UNL A   1      29.264  26.777  23.816  1.00  0.00     0.047 A 
ATOM     17  C   UNL A   1      31.464  26.002  23.137  1.00  0.00     0.056 A 
ATOM     18  C   UNL A   1      29.307  25.920  24.909  1.00  0.00     0.004 A 
ATOM     19  C   UNL A   1      30.441  25.131  25.131  1.00  0.00     0.009 A 
BRANCH  15  20
ATOM     20  O   UNL A   1      30.310  27.806  21.947  1.00  0.00    -0.410 OA
BRANCH  20  21
ATOM     21  C   UNL A   1      30.184  29.143  22.291  1.00  0.00     0.412 C 
ATOM     22  N   UNL A   1      31.347  29.670  22.787  1.00  0.00    -0.321 N 
ATOM     23  H   UNL A   1      31.313  30.603  23.098  1.00  0.00     0.167 HD
ATOM     24  O   UNL A   1      29.173  29.826  22.190  1.00  0.00    -0.224 OA
BRANCH  22  25
ATOM     25  C   UNL A   1      32.622  28.991  22.899  1.00  0.00     0.119 C 
BRANCH  25  26
ATOM     26  C   UNL A   1      33.305  29.283  24.235  1.00  0.00     0.021 C 
BRANCH  26  27
ATOM     27  C   UNL A   1      33.997  28.076  24.879  1.00  0.00     0.002 C 
BRANCH  27  28
ATOM     28  C   UNL A   1      33.699  27.864  26.368  1.00  0.00    -0.000 C 
BRANCH  28  29
ATOM     29  C   UNL A   1      32.234  27.578  26.707  1.00  0.00    -0.003 C 
ATOM     30  C   UNL A   1      31.600  28.649  27.580  1.00  0.00     0.004 C 
ENDBRANCH  28  29
ENDBRANCH  27  28
ENDBRANCH  26  27
ENDBRANCH  25  26
ENDBRANCH  22  25
ENDBRANCH  20  21
ENDBRANCH  15  20
ENDBRANCH   8  14
ENDBRANCH   5   7
ENDBRANCH   1   5
BRANCH   3  31
ATOM     31  C   UNL A   1      38.119  23.649  26.235  1.00  0.00     0.116 C 
BRANCH  31  32
ATOM     32  C   UNL A   1      39.509  23.835  26.846  1.00  0.00     0.021 C 
BRANCH  32  33
ATOM     33  C   UNL A   1      40.072  22.567  27.497  1.00  0.00     0.002 C 
BRANCH  33  34
ATOM     34  C   UNL A   1      41.422  22.098  26.938  1.00  0.00     0.002 C 
BRANCH  34  35
ATOM     35  C   UNL A   1      41.373  20.833  26.076  1.00  0.00     0.021 C 
BRANCH  35  36
ATOM     36  C   UNL A   1      42.268  19.696  26.564  1.00  0.00     0.116 C 
BRANCH  36  37
ATOM     37  N   UNL A   1      43.174  19.242  25.519  1.00  0.00    -0.352 N 
ATOM     38  C   UNL A   1      44.047  19.964  24.745  1.00  0.00     0.251 C 
ATOM     39  H   UNL A   1      43.159  18.274  25.343  1.00  0.00     0.163 HD
ATOM     40  O   UNL A   1      44.541  19.453  23.744  1.00  0.00    -0.269 OA
BRANCH  38  41
ATOM     41  C   UNL A   1      44.386  21.356  25.113  1.00  0.00     0.039 A 
ATOM     42  C   UNL A   1      44.066  22.389  24.229  1.00  0.00     0.014 A 
ATOM     43  C   UNL A   1      45.049  21.636  26.312  1.00  0.00     0.014 A 
ATOM     44  C   UNL A   1      44.364  23.710  24.572  1.00  0.00     0.010 A 
ATOM     45  C   UNL A   1      45.283  22.958  26.682  1.00  0.00     0.010 A 
ATOM     46  C   UNL A   1      44.951  24.007  25.813  1.00  0.00    -0.014 A 
BRANCH  46  47
ATOM     47  C   UNL A   1      45.231  25.410  26.217  1.00  0.00     0.031 A 
ATOM     48  C   UNL A   1      46.630  25.957  26.122  1.00  0.00     0.074 A 
ATOM     49  C   UNL A   1      44.240  26.165  26.728  1.00  0.00     0.049 A 
ATOM     50  N   UNL A   1      47.086  27.126  26.494  1.00  0.00    -0.248 NA
ATOM     51  C   UNL A   1      47.657  25.064  25.561  1.00  0.00     0.031 C 
ATOM     52  C   UNL A   1      42.855  25.729  26.915  1.00  0.00     0.029 A 
ATOM     53  N   UNL A   1      44.247  27.455  27.199  1.00  0.00    -0.354 N 
ATOM     54  C   UNL A   1      48.450  27.103  26.228  1.00  0.00     0.074 A 
ATOM     55  C   UNL A   1      48.758  25.787  25.711  1.00  0.00     0.031 C 
ATOM     56  C   UNL A   1      42.143  26.739  27.442  1.00  0.00     0.029 A 
ATOM     57  C   UNL A   1      43.025  27.879  27.666  1.00  0.00     0.049 A 
ATOM     58  H   UNL A   1      45.051  28.023  27.201  1.00  0.00     0.167 HD
ATOM     59  C   UNL A   1      49.360  28.095  26.381  1.00  0.00     0.037 A 
ATOM     60  C   UNL A   1      42.660  29.050  28.223  1.00  0.00     0.037 A 
ATOM     61  C   UNL A   1      49.040  29.412  26.870  1.00  0.00     0.049 A 
ATOM     62  C   UNL A   1      43.685  30.141  28.374  1.00  0.00     0.074 A 
ATOM     63  C   UNL A   1      49.875  30.507  27.003  1.00  0.00     0.029 A 
ATOM     64  N   UNL A   1      47.785  29.812  27.308  1.00  0.00    -0.354 N 
ATOM     65  N   UNL A   1      44.959  30.124  28.058  1.00  0.00    -0.248 NA
ATOM     66  C   UNL A   1      43.225  31.412  28.950  1.00  0.00     0.031 C 
ATOM     67  C   UNL A   1      49.138  31.555  27.563  1.00  0.00     0.029 A 
ATOM     68  C   UNL A   1      47.829  31.130  27.730  1.00  0.00     0.049 A 
ATOM     69  H   UNL A   1      46.982  29.242  27.316  1.00  0.00     0.167 HD
ATOM     70  C   UNL A   1      45.446  31.388  28.371  1.00  0.00     0.074 A 
ATOM     71  C   UNL A   1      44.327  32.148  28.890  1.00  0.00     0.031 C 
ATOM     72  C   UNL A   1      46.704  31.876  28.238  1.00  0.00     0.037 A 
BRANCH  59  73
ATOM     73  C   UNL A   1      50.788  27.798  26.012  1.00  0.00     0.058 A 
ATOM     74  C   UNL A   1      51.256  27.939  24.696  1.00  0.00     0.135 A 
ATOM     75  C   UNL A   1      51.711  27.402  26.995  1.00  0.00     0.135 A 
ATOM     76  F   UNL A   1      50.415  28.301  23.715  1.00  0.00    -0.206 F 
ATOM     77  C   UNL A   1      52.579  27.671  24.361  1.00  0.00     0.059 A 
ATOM     78  C   UNL A   1      53.046  27.156  26.687  1.00  0.00     0.059 A 
ATOM     79  F   UNL A   1      51.319  27.251  28.270  1.00  0.00    -0.206 F 
ATOM     80  C   UNL A   1      53.467  27.279  25.365  1.00  0.00     0.060 A 
BRANCH  80  81
ATOM     81  S   UNL A   1      55.183  26.941  24.914  1.00  0.00     0.124 S 
ATOM     82  O   UNL A   1      55.531  25.891  25.865  1.00  0.00    -0.237 OA
ATOM     83  O   UNL A   1      55.063  26.521  23.521  1.00  0.00    -0.237 OA
ATOM     84  O   UNL A   1      55.849  28.223  25.123  1.00  0.00    -0.744 OA
ENDBRANCH  80  81
ENDBRANCH  59  73
BRANCH  60  85
ATOM     85  C   UNL A   1      41.252  29.258  28.656  1.00  0.00     0.058 A 
ATOM     86  C   UNL A   1      40.222  29.416  27.716  1.00  0.00     0.135 A 
ATOM     87  C   UNL A   1      40.905  29.283  30.016  1.00  0.00     0.135 A 
ATOM     88  F   UNL A   1      40.506  29.404  26.405  1.00  0.00    -0.206 F 
ATOM     89  C   UNL A   1      38.901  29.608  28.107  1.00  0.00     0.059 A 
ATOM     90  C   UNL A   1      39.587  29.448  30.431  1.00  0.00     0.059 A 
ATOM     91  F   UNL A   1      41.850  29.118  30.954  1.00  0.00    -0.206 F 
ATOM     92  C   UNL A   1      38.594  29.620  29.468  1.00  0.00     0.060 A 
BRANCH  92  93
ATOM     93  S   UNL A   1      36.868  29.818  29.965  1.00  0.00     0.124 S 
ATOM     94  O   UNL A   1      36.802  31.251  30.230  1.00  0.00    -0.237 OA
ATOM     95  O   UNL A   1      36.153  29.353  28.781  1.00  0.00    -0.237 OA
ATOM     96  O   UNL A   1      36.756  28.953  31.136  1.00  0.00    -0.744 OA
ENDBRANCH  92  93
ENDBRANCH  60  85
BRANCH  72  97
ATOM     97  C   UNL A   1      46.935  33.310  28.625  1.00  0.00     0.058 A 
ATOM     98  C   UNL A   1      46.762  34.360  27.710  1.00  0.00     0.135 A 
ATOM     99  C   UNL A   1      47.280  33.640  29.947  1.00  0.00     0.135 A 
ATOM    100  F   UNL A   1      46.439  34.098  26.434  1.00  0.00    -0.206 F 
ATOM    101  C   UNL A   1      46.946  35.687  28.086  1.00  0.00     0.059 A 
ATOM    102  C   UNL A   1      47.441  34.962  30.350  1.00  0.00     0.059 A 
ATOM    103  F   UNL A   1      47.448  32.674  30.863  1.00  0.00    -0.206 F 
ATOM    104  C   UNL A   1      47.284  35.978  29.409  1.00  0.00     0.060 A 
BRANCH 104 105
ATOM    105  S   UNL A   1      47.485  37.706  29.892  1.00  0.00     0.124 S 
ATOM    106  O   UNL A   1      48.938  37.840  29.902  1.00  0.00    -0.237 OA
ATOM    107  O   UNL A   1      46.790  38.413  28.819  1.00  0.00    -0.237 OA
ATOM    108  O   UNL A   1      46.839  37.771  31.199  1.00  0.00    -0.744 OA
ENDBRANCH 104 105
ENDBRANCH  72  97
ENDBRANCH  46  47
ENDBRANCH  38  41
ENDBRANCH  36  37
ENDBRANCH  35  36
ENDBRANCH  34  35
ENDBRANCH  33  34
ENDBRANCH  32  33
ENDBRANCH  31  32
ENDBRANCH   3  31
TORSDOF 25
ENDMDL
MODEL 3
REMARK VINA RESULT:     -10.0      6.562     11.697
REMARK SMILES CCCCCCNC(=O)Oc1cccc(-c2ccc([C@@H](C)C(=O)NCCCCCCNC(=O)c3ccc(-c4c5nc(c(-c6c(F)cc(S(=O)(=O)[O-])cc6F)c6ccc([nH]6)c(-c6c(F)cc(S(=O)(=O)[O-])cc6F)c6nc(c(-c7c(F)cc(S(=O)(=O)[O-])cc7F)c7ccc4[nH]7)C=C6)C=C5)cc3)cc2Cl)c1
REMARK SMILES IDX 22 1 23 2 24 3 20 5 21 6 19 7 16 8 17 9 101 10 18 11 100 12
REMARK SMILES IDX 102 13 15 14 11 15 12 16 103 17 13 18 14 19 10 20 8 21 7 22
REMARK SMILES IDX 9 24 6 25 5 26 4 27 3 28 2 29 1 30 25 31 26 32 27 33 28 34
REMARK SMILES IDX 29 35 30 36 31 37 32 38 33 40 34 41 35 42 99 43 36 44 98 45
REMARK SMILES IDX 37 46 38 47 39 48 92 49 40 50 97 51 91 52 93 53 41 54 96 55
REMARK SMILES IDX 90 56 89 57 42 59 76 60 55 61 75 62 56 63 59 64 74 65 94 66
REMARK SMILES IDX 57 67 58 68 73 70 95 71 60 72 43 73 44 74 53 75 45 76 46 77
REMARK SMILES IDX 52 78 54 79 47 80 48 81 49 82 50 83 51 84 77 85 78 86 87 87
REMARK SMILES IDX 79 88 80 89 86 90 88 91 81 92 82 93 83 94 84 95 85 96 61 97
REMARK SMILES IDX 62 98 71 99 63 100 64 101 70 102 72 103 65 104 66 105 67 106
REMARK SMILES IDX 68 107 69 108
REMARK H PARENT 24 4 7 23 31 39 93 58 59 69
REMARK Flexibility Score: inf
ROOT
ATOM      1  C   UNL A   1      34.129  35.497  28.670  1.00  0.00     0.227 C 
ATOM      2  O   UNL A   1      34.403  36.084  27.615  1.00  0.00    -0.274 OA
ATOM      3  N   UNL A   1      33.214  36.100  29.477  1.00  0.00    -0.356 N 
ATOM      4  H   UNL A   1      32.811  36.911  29.091  1.00  0.00     0.163 HD
ENDROOT
BRANCH   1   5
ATOM      5  C   UNL A   1      34.801  34.153  28.991  1.00  0.00     0.105 C 
ATOM      6  C   UNL A   1      36.328  34.194  28.963  1.00  0.00     0.023 C 
BRANCH   5   7
ATOM      7  C   UNL A   1      34.159  32.963  28.296  1.00  0.00    -0.034 A 
ATOM      8  C   UNL A   1      32.954  30.615  27.168  1.00  0.00     0.000 A 
ATOM      9  C   UNL A   1      32.271  31.842  27.253  1.00  0.00     0.010 A 
ATOM     10  C   UNL A   1      34.294  30.613  27.605  1.00  0.00     0.049 A 
ATOM     11  C   UNL A   1      32.873  32.997  27.760  1.00  0.00     0.005 A 
ATOM     12  C   UNL A   1      34.867  31.756  28.191  1.00  0.00     0.025 A 
ATOM     13  Cl  UNL A   1      35.353  29.255  27.401  1.00  0.00    -0.084 Cl
BRANCH   8  14
ATOM     14  C   UNL A   1      32.225  29.433  26.646  1.00  0.00    -0.013 A 
ATOM     15  C   UNL A   1      31.029  28.270  24.874  1.00  0.00     0.133 A 
ATOM     16  C   UNL A   1      30.902  27.129  25.659  1.00  0.00     0.047 A 
ATOM     17  C   UNL A   1      31.692  29.404  25.346  1.00  0.00     0.056 A 
ATOM     18  C   UNL A   1      31.448  27.122  26.937  1.00  0.00     0.004 A 
ATOM     19  C   UNL A   1      32.085  28.267  27.428  1.00  0.00     0.009 A 
BRANCH  15  20
ATOM     20  O   UNL A   1      30.323  28.272  23.659  1.00  0.00    -0.410 OA
BRANCH  20  21
ATOM     21  C   UNL A   1      30.955  28.622  22.476  1.00  0.00     0.412 C 
ATOM     22  N   UNL A   1      31.532  27.551  21.850  1.00  0.00    -0.321 N 
ATOM     23  H   UNL A   1      32.042  27.738  21.029  1.00  0.00     0.167 HD
ATOM     24  O   UNL A   1      31.025  29.748  21.998  1.00  0.00    -0.224 OA
BRANCH  22  25
ATOM     25  C   UNL A   1      31.469  26.167  22.276  1.00  0.00     0.119 C 
BRANCH  25  26
ATOM     26  C   UNL A   1      32.835  25.485  22.196  1.00  0.00     0.021 C 
BRANCH  26  27
ATOM     27  C   UNL A   1      33.083  24.417  23.268  1.00  0.00     0.002 C 
BRANCH  27  28
ATOM     28  C   UNL A   1      34.236  24.710  24.235  1.00  0.00    -0.000 C 
BRANCH  28  29
ATOM     29  C   UNL A   1      33.859  24.721  25.718  1.00  0.00    -0.003 C 
ATOM     30  C   UNL A   1      34.427  23.541  26.491  1.00  0.00     0.004 C 
ENDBRANCH  28  29
ENDBRANCH  27  28
ENDBRANCH  26  27
ENDBRANCH  25  26
ENDBRANCH  22  25
ENDBRANCH  20  21
ENDBRANCH  15  20
ENDBRANCH   8  14
ENDBRANCH   5   7
ENDBRANCH   1   5
BRANCH   3  31
ATOM     31  C   UNL A   1      32.728  35.766  30.799  1.00  0.00     0.116 C 
BRANCH  31  32
ATOM     32  C   UNL A   1      33.590  36.399  31.894  1.00  0.00     0.021 C 
BRANCH  32  33
ATOM     33  C   UNL A   1      33.934  35.441  33.039  1.00  0.00     0.002 C 
BRANCH  33  34
ATOM     34  C   UNL A   1      34.492  34.082  32.599  1.00  0.00     0.002 C 
BRANCH  34  35
ATOM     35  C   UNL A   1      36.020  33.969  32.592  1.00  0.00     0.021 C 
BRANCH  35  36
ATOM     36  C   UNL A   1      36.598  33.106  33.711  1.00  0.00     0.116 C 
BRANCH  36  37
ATOM     37  N   UNL A   1      36.269  31.700  33.527  1.00  0.00    -0.352 N 
ATOM     38  C   UNL A   1      36.848  30.768  32.702  1.00  0.00     0.251 C 
ATOM     39  H   UNL A   1      35.521  31.368  34.074  1.00  0.00     0.163 HD
ATOM     40  O   UNL A   1      36.278  29.702  32.491  1.00  0.00    -0.269 OA
BRANCH  38  41
ATOM     41  C   UNL A   1      38.154  31.050  32.067  1.00  0.00     0.039 A 
ATOM     42  C   UNL A   1      38.184  31.469  30.734  1.00  0.00     0.014 A 
ATOM     43  C   UNL A   1      39.346  30.871  32.775  1.00  0.00     0.014 A 
ATOM     44  C   UNL A   1      39.409  31.756  30.127  1.00  0.00     0.010 A 
ATOM     45  C   UNL A   1      40.560  31.224  32.190  1.00  0.00     0.010 A 
ATOM     46  C   UNL A   1      40.604  31.662  30.858  1.00  0.00    -0.014 A 
BRANCH  46  47
ATOM     47  C   UNL A   1      41.912  32.011  30.245  1.00  0.00     0.031 A 
ATOM     48  C   UNL A   1      42.418  33.427  30.298  1.00  0.00     0.074 A 
ATOM     49  C   UNL A   1      42.610  31.065  29.586  1.00  0.00     0.049 A 
ATOM     50  N   UNL A   1      43.495  33.940  29.761  1.00  0.00    -0.248 NA
ATOM     51  C   UNL A   1      41.591  34.401  31.029  1.00  0.00     0.031 C 
ATOM     52  C   UNL A   1      42.199  29.669  29.425  1.00  0.00     0.029 A 
ATOM     53  N   UNL A   1      43.807  31.137  28.916  1.00  0.00    -0.354 N 
ATOM     54  C   UNL A   1      43.466  35.294  30.072  1.00  0.00     0.074 A 
ATOM     55  C   UNL A   1      42.241  35.534  30.803  1.00  0.00     0.031 C 
ATOM     56  C   UNL A   1      43.135  29.013  28.719  1.00  0.00     0.029 A 
ATOM     57  C   UNL A   1      44.193  29.947  28.346  1.00  0.00     0.049 A 
ATOM     58  H   UNL A   1      44.338  31.964  28.851  1.00  0.00     0.167 HD
ATOM     59  C   UNL A   1      44.388  36.247  29.794  1.00  0.00     0.037 A 
ATOM     60  C   UNL A   1      45.271  29.645  27.598  1.00  0.00     0.037 A 
ATOM     61  C   UNL A   1      45.620  35.994  29.090  1.00  0.00     0.049 A 
ATOM     62  C   UNL A   1      46.287  30.717  27.309  1.00  0.00     0.074 A 
ATOM     63  C   UNL A   1      46.649  36.877  28.813  1.00  0.00     0.029 A 
ATOM     64  N   UNL A   1      45.988  34.769  28.552  1.00  0.00    -0.354 N 
ATOM     65  N   UNL A   1      46.275  31.980  27.666  1.00  0.00    -0.248 NA
ATOM     66  C   UNL A   1      47.463  30.325  26.522  1.00  0.00     0.031 C 
ATOM     67  C   UNL A   1      47.618  36.198  28.068  1.00  0.00     0.029 A 
ATOM     68  C   UNL A   1      47.219  34.879  27.927  1.00  0.00     0.049 A 
ATOM     69  H   UNL A   1      45.454  33.944  28.608  1.00  0.00     0.167 HD
ATOM     70  C   UNL A   1      47.455  32.526  27.172  1.00  0.00     0.074 A 
ATOM     71  C   UNL A   1      48.160  31.453  26.501  1.00  0.00     0.031 C 
ATOM     72  C   UNL A   1      47.913  33.799  27.268  1.00  0.00     0.037 A 
BRANCH  59  73
ATOM     73  C   UNL A   1      44.104  37.651  30.253  1.00  0.00     0.058 A 
ATOM     74  C   UNL A   1      44.457  38.094  31.538  1.00  0.00     0.135 A 
ATOM     75  C   UNL A   1      43.504  38.579  29.385  1.00  0.00     0.135 A 
ATOM     76  F   UNL A   1      45.021  37.247  32.413  1.00  0.00    -0.206 F 
ATOM     77  C   UNL A   1      44.200  39.396  31.956  1.00  0.00     0.059 A 
ATOM     78  C   UNL A   1      43.263  39.894  29.773  1.00  0.00     0.059 A 
ATOM     79  F   UNL A   1      43.145  38.210  28.145  1.00  0.00    -0.206 F 
ATOM     80  C   UNL A   1      43.601  40.288  31.065  1.00  0.00     0.060 A 
BRANCH  80  81
ATOM     81  S   UNL A   1      43.279  41.976  31.622  1.00  0.00     0.124 S 
ATOM     82  O   UNL A   1      44.425  42.689  31.065  1.00  0.00    -0.237 OA
ATOM     83  O   UNL A   1      41.990  42.268  31.005  1.00  0.00    -0.237 OA
ATOM     84  O   UNL A   1      43.263  41.857  33.077  1.00  0.00    -0.744 OA
ENDBRANCH  80  81
ENDBRANCH  59  73
BRANCH  60  85
ATOM     85  C   UNL A   1      45.456  28.259  27.089  1.00  0.00     0.058 A 
ATOM     86  C   UNL A   1      44.731  27.792  25.983  1.00  0.00     0.135 A 
ATOM     87  C   UNL A   1      46.375  27.381  27.686  1.00  0.00     0.135 A 
ATOM     88  F   UNL A   1      43.838  28.593  25.382  1.00  0.00    -0.206 F 
ATOM     89  C   UNL A   1      44.896  26.500  25.495  1.00  0.00     0.059 A 
ATOM     90  C   UNL A   1      46.576  26.093  27.200  1.00  0.00     0.059 A 
ATOM     91  F   UNL A   1      47.107  27.786  28.735  1.00  0.00    -0.206 F 
ATOM     92  C   UNL A   1      45.825  25.659  26.110  1.00  0.00     0.060 A 
BRANCH  92  93
ATOM     93  S   UNL A   1      46.070  24.000  25.437  1.00  0.00     0.124 S 
ATOM     94  O   UNL A   1      46.854  24.283  24.239  1.00  0.00    -0.237 OA
ATOM     95  O   UNL A   1      46.780  23.331  26.522  1.00  0.00    -0.237 OA
ATOM     96  O   UNL A   1      44.708  23.529  25.205  1.00  0.00    -0.744 OA
ENDBRANCH  92  93
ENDBRANCH  60  85
BRANCH  72  97
ATOM     97  C   UNL A   1      49.256  34.098  26.665  1.00  0.00     0.058 A 
ATOM     98  C   UNL A   1      49.383  34.691  25.398  1.00  0.00     0.135 A 
ATOM     99  C   UNL A   1      50.432  33.838  27.389  1.00  0.00     0.135 A 
ATOM    100  F   UNL A   1      48.291  34.953  24.663  1.00  0.00    -0.206 F 
ATOM    101  C   UNL A   1      50.630  34.994  24.861  1.00  0.00     0.059 A 
ATOM    102  C   UNL A   1      51.687  34.160  26.882  1.00  0.00     0.059 A 
ATOM    103  F   UNL A   1      50.366  33.282  28.608  1.00  0.00    -0.206 F 
ATOM    104  C   UNL A   1      51.776  34.727  25.611  1.00  0.00     0.060 A 
BRANCH 104 105
ATOM    105  S   UNL A   1      53.386  35.158  24.917  1.00  0.00     0.124 S 
ATOM    106  O   UNL A   1      53.072  35.269  23.496  1.00  0.00    -0.237 OA
ATOM    107  O   UNL A   1      53.693  36.413  25.598  1.00  0.00    -0.237 OA
ATOM    108  O   UNL A   1      54.231  34.028  25.288  1.00  0.00    -0.744 OA
ENDBRANCH 104 105
ENDBRANCH  72  97
ENDBRANCH  46  47
ENDBRANCH  38  41
ENDBRANCH  36  37
ENDBRANCH  35  36
ENDBRANCH  34  35
ENDBRANCH  33  34
ENDBRANCH  32  33
ENDBRANCH  31  32
ENDBRANCH   3  31
TORSDOF 25
ENDMDL
