MODEL 1
REMARK VINA RESULT:     -10.6      0.000      0.000
REMARK SMILES C[C@@H]1CN(C(=O)C[NH+]2CCC(CC(=O)NCCCCCCNC(=O)c3ccc(-c4c5nc(c(-c6c(F)cc(S(=O)(=O)[O-])cc6F)c6ccc([nH]6)c(-c6c(F)cc(S(=O)(=O)[O-])cc6F)c6nc(c(-c7c(F)cc(S(=O)(=O)[O-])cc7F)c7ccc4[nH]7)C=C6)C=C5)cc3)CC2)C[C@@H](C)O1
REMARK SMILES IDX 18 1 17 2 16 3 15 4 13 5 14 6 12 8 11 9 8 10 9 11 92 12
REMARK SMILES IDX 10 14 91 15 7 16 5 17 1 18 2 19 3 20 96 21 4 22 94 23 93 24
REMARK SMILES IDX 95 25 6 26 19 27 20 28 21 29 22 30 23 31 24 33 25 34 26 35
REMARK SMILES IDX 90 36 27 37 89 38 28 39 29 40 30 41 83 42 31 43 88 44 82 45
REMARK SMILES IDX 84 46 32 47 87 48 81 49 80 50 33 52 67 53 46 54 66 55 47 56
REMARK SMILES IDX 50 57 65 58 85 59 48 60 49 61 64 63 86 64 51 65 34 66 35 67
REMARK SMILES IDX 44 68 36 69 37 70 43 71 45 72 38 73 39 74 40 75 41 76 42 77
REMARK SMILES IDX 68 78 69 79 78 80 70 81 71 82 77 83 79 84 72 85 73 86 74 87
REMARK SMILES IDX 75 88 76 89 52 90 53 91 62 92 54 93 55 94 61 95 63 96 56 97
REMARK SMILES IDX 57 98 58 99 59 100 60 101
REMARK H PARENT 15 7 8 13 22 32 84 51 50 62
REMARK Flexibility Score: inf
ROOT
ATOM      1  C   UNL A   1      41.237  22.197  26.813  1.00  0.00     0.002 C 
ENDROOT
BRANCH   1   2
ATOM      2  C   UNL A   1      39.836  22.801  26.759  1.00  0.00     0.021 C 
BRANCH   2   3
ATOM      3  C   UNL A   1      38.789  21.884  26.124  1.00  0.00     0.116 C 
BRANCH   3   4
ATOM      4  N   UNL A   1      38.153  22.548  25.001  1.00  0.00    -0.356 N 
ATOM      5  C   UNL A   1      36.983  22.256  24.370  1.00  0.00     0.220 C 
ATOM      6  O   UNL A   1      36.701  22.866  23.337  1.00  0.00    -0.275 OA
ATOM      7  H   UNL A   1      38.640  23.325  24.644  1.00  0.00     0.163 HD
BRANCH   5   8
ATOM      8  C   UNL A   1      36.040  21.221  24.946  1.00  0.00     0.104 C 
BRANCH   8   9
ATOM      9  C   UNL A   1      34.704  21.794  25.450  1.00  0.00     0.009 C 
ATOM     10  N   UNL A   1      32.649  23.937  25.224  1.00  0.00    -0.327 N 
ATOM     11  C   UNL A   1      32.448  22.600  24.665  1.00  0.00     0.262 C 
ATOM     12  C   UNL A   1      33.531  23.888  26.391  1.00  0.00     0.262 C 
ATOM     13  H   UNL A   1      31.740  24.269  25.545  1.00  0.00     0.348 HD
ATOM     14  C   UNL A   1      33.741  21.908  24.263  1.00  0.00     0.066 C 
ATOM     15  C   UNL A   1      34.855  23.159  26.137  1.00  0.00     0.066 C 
BRANCH  10  16
ATOM     16  C   UNL A   1      33.075  24.930  24.215  1.00  0.00     0.363 C 
BRANCH  16  17
ATOM     17  C   UNL A   1      31.865  25.522  23.468  1.00  0.00     0.277 C 
ATOM     18  C   UNL A   1      33.024  28.939  23.749  1.00  0.00     0.040 C 
ATOM     19  C   UNL A   1      31.873  28.786  24.745  1.00  0.00     0.135 C 
ATOM     20  C   UNL A   1      31.626  27.342  25.211  1.00  0.00     0.151 C 
ATOM     21  O   UNL A   1      30.654  29.338  24.217  1.00  0.00    -0.372 OA
ATOM     22  N   UNL A   1      31.151  26.538  24.090  1.00  0.00    -0.333 N 
ATOM     23  C   UNL A   1      30.083  28.565  23.137  1.00  0.00     0.135 C 
ATOM     24  C   UNL A   1      29.924  27.070  23.498  1.00  0.00     0.151 C 
ATOM     25  C   UNL A   1      28.728  29.194  22.841  1.00  0.00     0.040 C 
ATOM     26  O   UNL A   1      31.525  25.054  22.379  1.00  0.00    -0.268 OA
ENDBRANCH  16  17
ENDBRANCH  10  16
ENDBRANCH   8   9
ENDBRANCH   5   8
ENDBRANCH   3   4
ENDBRANCH   2   3
ENDBRANCH   1   2
BRANCH   1  27
ATOM     27  C   UNL A   1      41.410  21.074  27.838  1.00  0.00     0.002 C 
BRANCH  27  28
ATOM     28  C   UNL A   1      41.912  19.741  27.273  1.00  0.00     0.021 C 
BRANCH  28  29
ATOM     29  C   UNL A   1      41.860  19.619  25.751  1.00  0.00     0.116 C 
BRANCH  29  30
ATOM     30  N   UNL A   1      43.112  19.121  25.204  1.00  0.00    -0.352 N 
ATOM     31  C   UNL A   1      44.242  19.806  24.837  1.00  0.00     0.251 C 
ATOM     32  H   UNL A   1      43.155  18.146  25.078  1.00  0.00     0.163 HD
ATOM     33  O   UNL A   1      45.111  19.241  24.181  1.00  0.00    -0.269 OA
BRANCH  31  34
ATOM     34  C   UNL A   1      44.407  21.224  25.222  1.00  0.00     0.039 A 
ATOM     35  C   UNL A   1      44.887  21.523  26.500  1.00  0.00     0.014 A 
ATOM     36  C   UNL A   1      44.063  22.253  24.341  1.00  0.00     0.014 A 
ATOM     37  C   UNL A   1      45.075  22.855  26.873  1.00  0.00     0.010 A 
ATOM     38  C   UNL A   1      44.310  23.579  24.692  1.00  0.00     0.010 A 
ATOM     39  C   UNL A   1      44.814  23.893  25.962  1.00  0.00    -0.014 A 
BRANCH  39  40
ATOM     40  C   UNL A   1      45.076  25.309  26.324  1.00  0.00     0.031 A 
ATOM     41  C   UNL A   1      46.465  25.877  26.215  1.00  0.00     0.074 A 
ATOM     42  C   UNL A   1      44.070  26.066  26.805  1.00  0.00     0.049 A 
ATOM     43  N   UNL A   1      46.892  27.075  26.522  1.00  0.00    -0.248 NA
ATOM     44  C   UNL A   1      47.516  24.974  25.718  1.00  0.00     0.031 C 
ATOM     45  C   UNL A   1      42.693  25.609  27.010  1.00  0.00     0.029 A 
ATOM     46  N   UNL A   1      44.050  27.374  27.218  1.00  0.00    -0.354 N 
ATOM     47  C   UNL A   1      48.259  27.068  26.270  1.00  0.00     0.074 A 
ATOM     48  C   UNL A   1      48.598  25.732  25.828  1.00  0.00     0.031 C 
ATOM     49  C   UNL A   1      41.960  26.624  27.494  1.00  0.00     0.029 A 
ATOM     50  C   UNL A   1      42.818  27.793  27.662  1.00  0.00     0.049 A 
ATOM     51  H   UNL A   1      44.843  27.957  27.200  1.00  0.00     0.167 HD
ATOM     52  C   UNL A   1      49.146  28.086  26.377  1.00  0.00     0.037 A 
ATOM     53  C   UNL A   1      42.424  28.985  28.152  1.00  0.00     0.037 A 
ATOM     54  C   UNL A   1      48.795  29.420  26.793  1.00  0.00     0.049 A 
ATOM     55  C   UNL A   1      43.423  30.106  28.245  1.00  0.00     0.074 A 
ATOM     56  C   UNL A   1      49.606  30.539  26.867  1.00  0.00     0.029 A 
ATOM     57  N   UNL A   1      47.531  29.814  27.207  1.00  0.00    -0.354 N 
ATOM     58  N   UNL A   1      44.697  30.101  27.930  1.00  0.00    -0.248 NA
ATOM     59  C   UNL A   1      42.931  31.395  28.749  1.00  0.00     0.031 C 
ATOM     60  C   UNL A   1      48.842  31.600  27.364  1.00  0.00     0.029 A 
ATOM     61  C   UNL A   1      47.544  31.155  27.556  1.00  0.00     0.049 A 
ATOM     62  H   UNL A   1      46.741  29.228  27.246  1.00  0.00     0.167 HD
ATOM     63  C   UNL A   1      45.154  31.390  28.180  1.00  0.00     0.074 A 
ATOM     64  C   UNL A   1      44.016  32.151  28.655  1.00  0.00     0.031 C 
ATOM     65  C   UNL A   1      46.403  31.898  28.028  1.00  0.00     0.037 A 
BRANCH  52  66
ATOM     66  C   UNL A   1      50.582  27.801  26.032  1.00  0.00     0.058 A 
ATOM     67  C   UNL A   1      51.524  27.468  27.019  1.00  0.00     0.135 A 
ATOM     68  C   UNL A   1      51.015  27.822  24.695  1.00  0.00     0.135 A 
ATOM     69  F   UNL A   1      51.168  27.447  28.313  1.00  0.00    -0.206 F 
ATOM     70  C   UNL A   1      52.848  27.192  26.698  1.00  0.00     0.059 A 
ATOM     71  C   UNL A   1      52.330  27.525  24.348  1.00  0.00     0.059 A 
ATOM     72  F   UNL A   1      50.156  28.134  23.712  1.00  0.00    -0.206 F 
ATOM     73  C   UNL A   1      53.243  27.224  25.358  1.00  0.00     0.060 A 
BRANCH  73  74
ATOM     74  S   UNL A   1      54.964  26.854  24.957  1.00  0.00     0.124 S 
ATOM     75  O   UNL A   1      55.581  28.170  25.088  1.00  0.00    -0.237 OA
ATOM     76  O   UNL A   1      55.323  25.880  25.983  1.00  0.00    -0.237 OA
ATOM     77  O   UNL A   1      54.890  26.328  23.597  1.00  0.00    -0.744 OA
ENDBRANCH  73  74
ENDBRANCH  52  66
BRANCH  53  78
ATOM     78  C   UNL A   1      41.012  29.183  28.570  1.00  0.00     0.058 A 
ATOM     79  C   UNL A   1      40.660  29.231  29.926  1.00  0.00     0.135 A 
ATOM     80  C   UNL A   1      39.989  29.348  27.623  1.00  0.00     0.135 A 
ATOM     81  F   UNL A   1      41.601  29.074  30.869  1.00  0.00    -0.206 F 
ATOM     82  C   UNL A   1      39.343  29.421  30.332  1.00  0.00     0.059 A 
ATOM     83  C   UNL A   1      38.668  29.563  28.003  1.00  0.00     0.059 A 
ATOM     84  F   UNL A   1      40.276  29.328  26.312  1.00  0.00    -0.206 F 
ATOM     85  C   UNL A   1      38.353  29.589  29.362  1.00  0.00     0.060 A 
BRANCH  85  86
ATOM     86  S   UNL A   1      36.654  29.888  29.896  1.00  0.00     0.124 S 
ATOM     87  O   UNL A   1      35.898  29.467  28.723  1.00  0.00    -0.237 OA
ATOM     88  O   UNL A   1      36.545  29.026  31.070  1.00  0.00    -0.237 OA
ATOM     89  O   UNL A   1      36.639  31.320  30.179  1.00  0.00    -0.744 OA
ENDBRANCH  85  86
ENDBRANCH  53  78
BRANCH  65  90
ATOM     90  C   UNL A   1      46.600  33.351  28.357  1.00  0.00     0.058 A 
ATOM     91  C   UNL A   1      46.417  34.355  27.394  1.00  0.00     0.135 A 
ATOM     92  C   UNL A   1      46.934  33.745  29.662  1.00  0.00     0.135 A 
ATOM     93  F   UNL A   1      46.103  34.030  26.130  1.00  0.00    -0.206 F 
ATOM     94  C   UNL A   1      46.581  35.700  27.709  1.00  0.00     0.059 A 
ATOM     95  C   UNL A   1      47.079  35.086  30.005  1.00  0.00     0.059 A 
ATOM     96  F   UNL A   1      47.112  32.825  30.623  1.00  0.00    -0.206 F 
ATOM     97  C   UNL A   1      46.913  36.055  29.017  1.00  0.00     0.060 A 
BRANCH  97  98
ATOM     98  S   UNL A   1      47.097  37.806  29.419  1.00  0.00     0.124 S 
ATOM     99  O   UNL A   1      48.052  37.756  30.521  1.00  0.00    -0.237 OA
ATOM    100  O   UNL A   1      47.601  38.365  28.168  1.00  0.00    -0.237 OA
ATOM    101  O   UNL A   1      45.743  38.216  29.780  1.00  0.00    -0.744 OA
ENDBRANCH  97  98
ENDBRANCH  65  90
ENDBRANCH  39  40
ENDBRANCH  31  34
ENDBRANCH  29  30
ENDBRANCH  28  29
ENDBRANCH  27  28
ENDBRANCH   1  27
TORSDOF 19
ENDMDL
MODEL 2
REMARK VINA RESULT:     -10.5      6.244      8.534
REMARK SMILES C[C@@H]1CN(C(=O)C[NH+]2CCC(CC(=O)NCCCCCCNC(=O)c3ccc(-c4c5nc(c(-c6c(F)cc(S(=O)(=O)[O-])cc6F)c6ccc([nH]6)c(-c6c(F)cc(S(=O)(=O)[O-])cc6F)c6nc(c(-c7c(F)cc(S(=O)(=O)[O-])cc7F)c7ccc4[nH]7)C=C6)C=C5)cc3)CC2)C[C@@H](C)O1
REMARK SMILES IDX 18 1 17 2 16 3 15 4 13 5 14 6 12 8 11 9 8 10 9 11 92 12
REMARK SMILES IDX 10 14 91 15 7 16 5 17 1 18 2 19 3 20 96 21 4 22 94 23 93 24
REMARK SMILES IDX 95 25 6 26 19 27 20 28 21 29 22 30 23 31 24 33 25 34 26 35
REMARK SMILES IDX 90 36 27 37 89 38 28 39 29 40 30 41 83 42 31 43 88 44 82 45
REMARK SMILES IDX 84 46 32 47 87 48 81 49 80 50 33 52 67 53 46 54 66 55 47 56
REMARK SMILES IDX 50 57 65 58 85 59 48 60 49 61 64 63 86 64 51 65 34 66 35 67
REMARK SMILES IDX 44 68 36 69 37 70 43 71 45 72 38 73 39 74 40 75 41 76 42 77
REMARK SMILES IDX 68 78 69 79 78 80 70 81 71 82 77 83 79 84 72 85 73 86 74 87
REMARK SMILES IDX 75 88 76 89 52 90 53 91 62 92 54 93 55 94 61 95 63 96 56 97
REMARK SMILES IDX 57 98 58 99 59 100 60 101
REMARK H PARENT 15 7 8 13 22 32 84 51 50 62
REMARK Flexibility Score: inf
ROOT
ATOM      1  C   UNL A   1      41.861  22.354  28.053  1.00  0.00     0.002 C 
ENDROOT
BRANCH   1   2
ATOM      2  C   UNL A   1      40.400  22.072  27.708  1.00  0.00     0.021 C 
BRANCH   2   3
ATOM      3  C   UNL A   1      40.090  22.141  26.212  1.00  0.00     0.116 C 
BRANCH   3   4
ATOM      4  N   UNL A   1      39.544  20.877  25.753  1.00  0.00    -0.356 N 
ATOM      5  C   UNL A   1      38.339  20.611  25.180  1.00  0.00     0.220 C 
ATOM      6  O   UNL A   1      38.016  19.434  25.000  1.00  0.00    -0.275 OA
ATOM      7  H   UNL A   1      40.131  20.097  25.876  1.00  0.00     0.163 HD
BRANCH   5   8
ATOM      8  C   UNL A   1      37.429  21.741  24.748  1.00  0.00     0.104 C 
BRANCH   8   9
ATOM      9  C   UNL A   1      36.153  21.885  25.593  1.00  0.00     0.009 C 
ATOM     10  N   UNL A   1      33.303  22.741  25.708  1.00  0.00    -0.327 N 
ATOM     11  C   UNL A   1      33.693  21.334  25.614  1.00  0.00     0.262 C 
ATOM     12  C   UNL A   1      34.331  23.523  26.397  1.00  0.00     0.262 C 
ATOM     13  H   UNL A   1      32.459  22.783  26.278  1.00  0.00     0.348 HD
ATOM     14  C   UNL A   1      35.020  21.117  24.905  1.00  0.00     0.066 C 
ATOM     15  C   UNL A   1      35.738  23.347  25.814  1.00  0.00     0.066 C 
BRANCH  10  16
ATOM     16  C   UNL A   1      32.906  23.322  24.408  1.00  0.00     0.363 C 
BRANCH  16  17
ATOM     17  C   UNL A   1      31.915  24.486  24.595  1.00  0.00     0.277 C 
ATOM     18  C   UNL A   1      32.563  25.915  21.334  1.00  0.00     0.040 C 
ATOM     19  C   UNL A   1      33.257  26.821  22.353  1.00  0.00     0.135 C 
ATOM     20  C   UNL A   1      33.608  26.130  23.680  1.00  0.00     0.151 C 
ATOM     21  O   UNL A   1      32.475  28.001  22.614  1.00  0.00    -0.372 OA
ATOM     22  N   UNL A   1      32.383  25.777  24.391  1.00  0.00    -0.333 N 
ATOM     23  C   UNL A   1      31.270  27.745  23.369  1.00  0.00     0.135 C 
ATOM     24  C   UNL A   1      31.537  26.940  24.661  1.00  0.00     0.151 C 
ATOM     25  C   UNL A   1      30.684  29.112  23.699  1.00  0.00     0.040 C 
ATOM     26  O   UNL A   1      30.763  24.259  24.973  1.00  0.00    -0.268 OA
ENDBRANCH  16  17
ENDBRANCH  10  16
ENDBRANCH   8   9
ENDBRANCH   5   8
ENDBRANCH   3   4
ENDBRANCH   2   3
ENDBRANCH   1   2
BRANCH   1  27
ATOM     27  C   UNL A   1      42.873  21.803  27.046  1.00  0.00     0.002 C 
BRANCH  27  28
ATOM     28  C   UNL A   1      44.114  22.672  26.819  1.00  0.00     0.021 C 
BRANCH  28  29
ATOM     29  C   UNL A   1      43.878  24.179  26.917  1.00  0.00     0.116 C 
BRANCH  29  30
ATOM     30  N   UNL A   1      42.989  24.657  25.870  1.00  0.00    -0.352 N 
ATOM     31  C   UNL A   1      41.953  25.552  25.944  1.00  0.00     0.251 C 
ATOM     32  H   UNL A   1      43.156  24.282  24.976  1.00  0.00     0.163 HD
ATOM     33  O   UNL A   1      41.170  25.657  25.004  1.00  0.00    -0.269 OA
BRANCH  31  34
ATOM     34  C   UNL A   1      41.774  26.381  27.155  1.00  0.00     0.039 A 
ATOM     35  C   UNL A   1      42.535  27.545  27.294  1.00  0.00     0.014 A 
ATOM     36  C   UNL A   1      40.882  26.001  28.161  1.00  0.00     0.014 A 
ATOM     37  C   UNL A   1      42.361  28.354  28.417  1.00  0.00     0.010 A 
ATOM     38  C   UNL A   1      40.664  26.841  29.251  1.00  0.00     0.010 A 
ATOM     39  C   UNL A   1      41.404  28.024  29.392  1.00  0.00    -0.014 A 
BRANCH  39  40
ATOM     40  C   UNL A   1      41.162  28.914  30.555  1.00  0.00     0.031 A 
ATOM     41  C   UNL A   1      41.996  28.782  31.800  1.00  0.00     0.074 A 
ATOM     42  C   UNL A   1      40.149  29.802  30.509  1.00  0.00     0.049 A 
ATOM     43  N   UNL A   1      41.906  29.442  32.927  1.00  0.00    -0.248 NA
ATOM     44  C   UNL A   1      43.056  27.762  31.786  1.00  0.00     0.031 C 
ATOM     45  C   UNL A   1      39.235  29.982  29.378  1.00  0.00     0.029 A 
ATOM     46  N   UNL A   1      39.712  30.714  31.436  1.00  0.00    -0.354 N 
ATOM     47  C   UNL A   1      42.884  28.909  33.759  1.00  0.00     0.074 A 
ATOM     48  C   UNL A   1      43.526  27.841  33.023  1.00  0.00     0.031 C 
ATOM     49  C   UNL A   1      38.357  30.954  29.673  1.00  0.00     0.029 A 
ATOM     50  C   UNL A   1      38.626  31.446  31.020  1.00  0.00     0.049 A 
ATOM     51  H   UNL A   1      40.136  30.831  32.317  1.00  0.00     0.167 HD
ATOM     52  C   UNL A   1      43.229  29.290  35.012  1.00  0.00     0.037 A 
ATOM     53  C   UNL A   1      37.922  32.405  31.654  1.00  0.00     0.037 A 
ATOM     54  C   UNL A   1      42.602  30.371  35.728  1.00  0.00     0.049 A 
ATOM     55  C   UNL A   1      38.335  32.822  33.039  1.00  0.00     0.074 A 
ATOM     56  C   UNL A   1      42.924  30.880  36.974  1.00  0.00     0.029 A 
ATOM     57  N   UNL A   1      41.523  31.109  35.262  1.00  0.00    -0.354 N 
ATOM     58  N   UNL A   1      39.312  32.357  33.782  1.00  0.00    -0.248 NA
ATOM     59  C   UNL A   1      37.559  33.899  33.669  1.00  0.00     0.031 C 
ATOM     60  C   UNL A   1      42.016  31.899  37.279  1.00  0.00     0.029 A 
ATOM     61  C   UNL A   1      41.155  32.056  36.205  1.00  0.00     0.049 A 
ATOM     62  H   UNL A   1      41.084  30.979  34.391  1.00  0.00     0.167 HD
ATOM     63  C   UNL A   1      39.280  33.099  34.958  1.00  0.00     0.074 A 
ATOM     64  C   UNL A   1      38.199  34.053  34.820  1.00  0.00     0.031 C 
ATOM     65  C   UNL A   1      40.076  32.999  36.052  1.00  0.00     0.037 A 
BRANCH  52  66
ATOM     66  C   UNL A   1      44.340  28.536  35.690  1.00  0.00     0.058 A 
ATOM     67  C   UNL A   1      45.690  28.838  35.447  1.00  0.00     0.135 A 
ATOM     68  C   UNL A   1      44.054  27.526  36.624  1.00  0.00     0.135 A 
ATOM     69  F   UNL A   1      46.021  29.784  34.554  1.00  0.00    -0.206 F 
ATOM     70  C   UNL A   1      46.716  28.149  36.084  1.00  0.00     0.059 A 
ATOM     71  C   UNL A   1      45.065  26.841  37.293  1.00  0.00     0.059 A 
ATOM     72  F   UNL A   1      42.781  27.197  36.895  1.00  0.00    -0.206 F 
ATOM     73  C   UNL A   1      46.394  27.151  37.006  1.00  0.00     0.060 A 
BRANCH  73  74
ATOM     74  S   UNL A   1      47.737  26.272  37.831  1.00  0.00     0.124 S 
ATOM     75  O   UNL A   1      48.625  25.980  36.710  1.00  0.00    -0.237 OA
ATOM     76  O   UNL A   1      48.225  27.266  38.783  1.00  0.00    -0.237 OA
ATOM     77  O   UNL A   1      47.073  25.115  38.425  1.00  0.00    -0.744 OA
ENDBRANCH  73  74
ENDBRANCH  52  66
BRANCH  53  78
ATOM     78  C   UNL A   1      36.770  33.050  30.973  1.00  0.00     0.058 A 
ATOM     79  C   UNL A   1      35.452  32.762  31.354  1.00  0.00     0.135 A 
ATOM     80  C   UNL A   1      36.963  33.982  29.941  1.00  0.00     0.135 A 
ATOM     81  F   UNL A   1      35.216  31.874  32.332  1.00  0.00    -0.206 F 
ATOM     82  C   UNL A   1      34.364  33.362  30.729  1.00  0.00     0.059 A 
ATOM     83  C   UNL A   1      35.892  34.614  29.317  1.00  0.00     0.059 A 
ATOM     84  F   UNL A   1      38.206  34.307  29.552  1.00  0.00    -0.206 F 
ATOM     85  C   UNL A   1      34.594  34.290  29.712  1.00  0.00     0.060 A 
BRANCH  85  86
ATOM     86  S   UNL A   1      33.178  35.104  28.941  1.00  0.00     0.124 S 
ATOM     87  O   UNL A   1      32.678  34.055  28.061  1.00  0.00    -0.237 OA
ATOM     88  O   UNL A   1      32.342  35.424  30.094  1.00  0.00    -0.237 OA
ATOM     89  O   UNL A   1      33.777  36.257  28.274  1.00  0.00    -0.744 OA
ENDBRANCH  85  86
ENDBRANCH  53  78
BRANCH  65  90
ATOM     90  C   UNL A   1      39.821  33.960  37.178  1.00  0.00     0.058 A 
ATOM     91  C   UNL A   1      38.981  33.628  38.253  1.00  0.00     0.135 A 
ATOM     92  C   UNL A   1      40.457  35.211  37.203  1.00  0.00     0.135 A 
ATOM     93  F   UNL A   1      38.344  32.447  38.273  1.00  0.00    -0.206 F 
ATOM     94  C   UNL A   1      38.764  34.514  39.304  1.00  0.00     0.059 A 
ATOM     95  C   UNL A   1      40.273  36.102  38.256  1.00  0.00     0.059 A 
ATOM     96  F   UNL A   1      41.277  35.574  36.204  1.00  0.00    -0.206 F 
ATOM     97  C   UNL A   1      39.414  35.749  39.296  1.00  0.00     0.060 A 
BRANCH  97  98
ATOM     98  S   UNL A   1      39.144  36.879  40.678  1.00  0.00     0.124 S 
ATOM     99  O   UNL A   1      38.303  37.900  40.064  1.00  0.00    -0.237 OA
ATOM    100  O   UNL A   1      38.487  36.023  41.660  1.00  0.00    -0.237 OA
ATOM    101  O   UNL A   1      40.494  37.308  41.033  1.00  0.00    -0.744 OA
ENDBRANCH  97  98
ENDBRANCH  65  90
ENDBRANCH  39  40
ENDBRANCH  31  34
ENDBRANCH  29  30
ENDBRANCH  28  29
ENDBRANCH  27  28
ENDBRANCH   1  27
TORSDOF 19
ENDMDL
MODEL 3
REMARK VINA RESULT:     -10.5      7.095     12.820
REMARK SMILES C[C@@H]1CN(C(=O)C[NH+]2CCC(CC(=O)NCCCCCCNC(=O)c3ccc(-c4c5nc(c(-c6c(F)cc(S(=O)(=O)[O-])cc6F)c6ccc([nH]6)c(-c6c(F)cc(S(=O)(=O)[O-])cc6F)c6nc(c(-c7c(F)cc(S(=O)(=O)[O-])cc7F)c7ccc4[nH]7)C=C6)C=C5)cc3)CC2)C[C@@H](C)O1
REMARK SMILES IDX 18 1 17 2 16 3 15 4 13 5 14 6 12 8 11 9 8 10 9 11 92 12
REMARK SMILES IDX 10 14 91 15 7 16 5 17 1 18 2 19 3 20 96 21 4 22 94 23 93 24
REMARK SMILES IDX 95 25 6 26 19 27 20 28 21 29 22 30 23 31 24 33 25 34 26 35
REMARK SMILES IDX 90 36 27 37 89 38 28 39 29 40 30 41 83 42 31 43 88 44 82 45
REMARK SMILES IDX 84 46 32 47 87 48 81 49 80 50 33 52 67 53 46 54 66 55 47 56
REMARK SMILES IDX 50 57 65 58 85 59 48 60 49 61 64 63 86 64 51 65 34 66 35 67
REMARK SMILES IDX 44 68 36 69 37 70 43 71 45 72 38 73 39 74 40 75 41 76 42 77
REMARK SMILES IDX 68 78 69 79 78 80 70 81 71 82 77 83 79 84 72 85 73 86 74 87
REMARK SMILES IDX 75 88 76 89 52 90 53 91 62 92 54 93 55 94 61 95 63 96 56 97
REMARK SMILES IDX 57 98 58 99 59 100 60 101
REMARK H PARENT 15 7 8 13 22 32 84 51 50 62
REMARK Flexibility Score: inf
ROOT
ATOM      1  C   UNL A   1      34.733  32.894  29.188  1.00  0.00     0.002 C 
ENDROOT
BRANCH   1   2
ATOM      2  C   UNL A   1      35.097  31.643  28.392  1.00  0.00     0.021 C 
BRANCH   2   3
ATOM      3  C   UNL A   1      34.045  31.237  27.358  1.00  0.00     0.116 C 
BRANCH   3   4
ATOM      4  N   UNL A   1      33.572  29.891  27.625  1.00  0.00    -0.356 N 
ATOM      5  C   UNL A   1      32.482  29.241  27.133  1.00  0.00     0.220 C 
ATOM      6  O   UNL A   1      32.182  28.144  27.609  1.00  0.00    -0.275 OA
ATOM      7  H   UNL A   1      34.121  29.371  28.254  1.00  0.00     0.163 HD
BRANCH   5   8
ATOM      8  C   UNL A   1      31.673  29.847  26.006  1.00  0.00     0.104 C 
BRANCH   8   9
ATOM      9  C   UNL A   1      32.012  29.290  24.613  1.00  0.00     0.009 C 
ATOM     10  N   UNL A   1      32.572  26.891  22.940  1.00  0.00    -0.327 N 
ATOM     11  C   UNL A   1      31.283  27.582  22.909  1.00  0.00     0.262 C 
ATOM     12  C   UNL A   1      33.653  27.819  23.275  1.00  0.00     0.262 C 
ATOM     13  H   UNL A   1      32.752  26.545  21.998  1.00  0.00     0.348 HD
ATOM     14  C   UNL A   1      30.933  28.277  24.215  1.00  0.00     0.066 C 
ATOM     15  C   UNL A   1      33.399  28.633  24.549  1.00  0.00     0.066 C 
BRANCH  10  16
ATOM     16  C   UNL A   1      32.562  25.680  23.788  1.00  0.00     0.363 C 
BRANCH  16  17
ATOM     17  C   UNL A   1      33.662  24.690  23.362  1.00  0.00     0.277 C 
ATOM     18  C   UNL A   1      32.994  22.371  26.058  1.00  0.00     0.040 C 
ATOM     19  C   UNL A   1      34.292  23.095  26.418  1.00  0.00     0.135 C 
ATOM     20  C   UNL A   1      34.453  24.473  25.756  1.00  0.00     0.151 C 
ATOM     21  O   UNL A   1      35.440  22.279  26.122  1.00  0.00    -0.372 OA
ATOM     22  N   UNL A   1      34.600  24.312  24.314  1.00  0.00    -0.333 N 
ATOM     23  C   UNL A   1      35.692  22.119  24.708  1.00  0.00     0.135 C 
ATOM     24  C   UNL A   1      35.741  23.468  23.957  1.00  0.00     0.151 C 
ATOM     25  C   UNL A   1      37.027  21.393  24.600  1.00  0.00     0.040 C 
ATOM     26  O   UNL A   1      33.724  24.305  22.192  1.00  0.00    -0.268 OA
ENDBRANCH  16  17
ENDBRANCH  10  16
ENDBRANCH   8   9
ENDBRANCH   5   8
ENDBRANCH   3   4
ENDBRANCH   2   3
ENDBRANCH   1   2
BRANCH   1  27
ATOM     27  C   UNL A   1      34.549  34.158  28.345  1.00  0.00     0.002 C 
BRANCH  27  28
ATOM     28  C   UNL A   1      33.266  34.950  28.620  1.00  0.00     0.021 C 
BRANCH  28  29
ATOM     29  C   UNL A   1      33.445  36.195  29.488  1.00  0.00     0.116 C 
BRANCH  29  30
ATOM     30  N   UNL A   1      32.519  36.210  30.610  1.00  0.00    -0.352 N 
ATOM     31  C   UNL A   1      32.550  35.496  31.780  1.00  0.00     0.251 C 
ATOM     32  H   UNL A   1      31.756  36.824  30.514  1.00  0.00     0.163 HD
ATOM     33  O   UNL A   1      31.560  35.472  32.506  1.00  0.00    -0.269 OA
BRANCH  31  34
ATOM     34  C   UNL A   1      33.768  34.751  32.162  1.00  0.00     0.039 A 
ATOM     35  C   UNL A   1      35.017  35.333  31.926  1.00  0.00     0.014 A 
ATOM     36  C   UNL A   1      33.684  33.473  32.722  1.00  0.00     0.014 A 
ATOM     37  C   UNL A   1      36.177  34.656  32.304  1.00  0.00     0.010 A 
ATOM     38  C   UNL A   1      34.839  32.826  33.156  1.00  0.00     0.010 A 
ATOM     39  C   UNL A   1      36.097  33.409  32.947  1.00  0.00    -0.014 A 
BRANCH  39  40
ATOM     40  C   UNL A   1      37.322  32.713  33.416  1.00  0.00     0.031 A 
ATOM     41  C   UNL A   1      37.984  33.123  34.703  1.00  0.00     0.074 A 
ATOM     42  C   UNL A   1      37.868  31.748  32.650  1.00  0.00     0.049 A 
ATOM     43  N   UNL A   1      39.078  32.659  35.252  1.00  0.00    -0.248 NA
ATOM     44  C   UNL A   1      37.348  34.211  35.462  1.00  0.00     0.031 C 
ATOM     45  C   UNL A   1      37.349  31.303  31.354  1.00  0.00     0.029 A 
ATOM     46  N   UNL A   1      38.984  30.974  32.843  1.00  0.00    -0.354 N 
ATOM     47  C   UNL A   1      39.268  33.405  36.409  1.00  0.00     0.074 A 
ATOM     48  C   UNL A   1      38.203  34.382  36.460  1.00  0.00     0.031 C 
ATOM     49  C   UNL A   1      38.135  30.325  30.877  1.00  0.00     0.029 A 
ATOM     50  C   UNL A   1      39.228  30.093  31.816  1.00  0.00     0.049 A 
ATOM     51  H   UNL A   1      39.556  31.043  33.640  1.00  0.00     0.167 HD
ATOM     52  C   UNL A   1      40.231  33.273  37.353  1.00  0.00     0.037 A 
ATOM     53  C   UNL A   1      40.224  29.200  31.646  1.00  0.00     0.037 A 
ATOM     54  C   UNL A   1      41.274  32.280  37.307  1.00  0.00     0.049 A 
ATOM     55  C   UNL A   1      41.272  29.060  32.717  1.00  0.00     0.074 A 
ATOM     56  C   UNL A   1      42.255  32.019  38.248  1.00  0.00     0.029 A 
ATOM     57  N   UNL A   1      41.472  31.387  36.265  1.00  0.00    -0.354 N 
ATOM     58  N   UNL A   1      41.393  29.725  33.842  1.00  0.00    -0.248 NA
ATOM     59  C   UNL A   1      42.312  28.045  32.501  1.00  0.00     0.031 C 
ATOM     60  C   UNL A   1      43.071  30.994  37.756  1.00  0.00     0.029 A 
ATOM     61  C   UNL A   1      42.572  30.586  36.530  1.00  0.00     0.049 A 
ATOM     62  H   UNL A   1      40.914  31.329  35.456  1.00  0.00     0.167 HD
ATOM     63  C   UNL A   1      42.510  29.194  34.477  1.00  0.00     0.074 A 
ATOM     64  C   UNL A   1      43.018  28.143  33.618  1.00  0.00     0.031 C 
ATOM     65  C   UNL A   1      43.064  29.544  35.664  1.00  0.00     0.037 A 
BRANCH  52  66
ATOM     66  C   UNL A   1      40.200  34.221  38.520  1.00  0.00     0.058 A 
ATOM     67  C   UNL A   1      39.486  33.923  39.692  1.00  0.00     0.135 A 
ATOM     68  C   UNL A   1      40.925  35.424  38.484  1.00  0.00     0.135 A 
ATOM     69  F   UNL A   1      38.764  32.794  39.774  1.00  0.00    -0.206 F 
ATOM     70  C   UNL A   1      39.467  34.794  40.775  1.00  0.00     0.059 A 
ATOM     71  C   UNL A   1      40.942  36.299  39.567  1.00  0.00     0.059 A 
ATOM     72  F   UNL A   1      41.626  35.758  37.390  1.00  0.00    -0.206 F 
ATOM     73  C   UNL A   1      40.199  35.982  40.704  1.00  0.00     0.060 A 
BRANCH  73  74
ATOM     74  S   UNL A   1      40.173  37.098  42.122  1.00  0.00     0.124 S 
ATOM     75  O   UNL A   1      39.254  36.406  43.019  1.00  0.00    -0.237 OA
ATOM     76  O   UNL A   1      41.573  37.111  42.536  1.00  0.00    -0.237 OA
ATOM     77  O   UNL A   1      39.678  38.351  41.560  1.00  0.00    -0.744 OA
ENDBRANCH  73  74
ENDBRANCH  52  66
BRANCH  53  78
ATOM     78  C   UNL A   1      40.261  28.355  30.425  1.00  0.00     0.058 A 
ATOM     79  C   UNL A   1      41.169  28.620  29.391  1.00  0.00     0.135 A 
ATOM     80  C   UNL A   1      39.402  27.254  30.275  1.00  0.00     0.135 A 
ATOM     81  F   UNL A   1      42.007  29.664  29.485  1.00  0.00    -0.206 F 
ATOM     82  C   UNL A   1      41.219  27.834  28.244  1.00  0.00     0.059 A 
ATOM     83  C   UNL A   1      39.449  26.438  29.150  1.00  0.00     0.059 A 
ATOM     84  F   UNL A   1      38.527  26.947  31.245  1.00  0.00    -0.206 F 
ATOM     85  C   UNL A   1      40.355  26.743  28.133  1.00  0.00     0.060 A 
BRANCH  85  86
ATOM     86  S   UNL A   1      40.461  25.696  26.666  1.00  0.00     0.124 S 
ATOM     87  O   UNL A   1      41.493  24.743  27.058  1.00  0.00    -0.237 OA
ATOM     88  O   UNL A   1      39.104  25.165  26.568  1.00  0.00    -0.237 OA
ATOM     89  O   UNL A   1      40.834  26.635  25.611  1.00  0.00    -0.744 OA
ENDBRANCH  85  86
ENDBRANCH  53  78
BRANCH  65  90
ATOM     90  C   UNL A   1      44.271  28.770  36.116  1.00  0.00     0.058 A 
ATOM     91  C   UNL A   1      44.148  27.559  36.816  1.00  0.00     0.135 A 
ATOM     92  C   UNL A   1      45.563  29.223  35.808  1.00  0.00     0.135 A 
ATOM     93  F   UNL A   1      42.935  27.087  37.141  1.00  0.00    -0.206 F 
ATOM     94  C   UNL A   1      45.268  26.836  37.215  1.00  0.00     0.059 A 
ATOM     95  C   UNL A   1      46.696  28.503  36.175  1.00  0.00     0.059 A 
ATOM     96  F   UNL A   1      45.735  30.369  35.132  1.00  0.00    -0.206 F 
ATOM     97  C   UNL A   1      46.537  27.317  36.890  1.00  0.00     0.060 A 
BRANCH  97  98
ATOM     98  S   UNL A   1      47.982  26.355  37.390  1.00  0.00     0.124 S 
ATOM     99  O   UNL A   1      47.605  25.936  38.735  1.00  0.00    -0.237 OA
ATOM    100  O   UNL A   1      48.020  25.299  36.384  1.00  0.00    -0.237 OA
ATOM    101  O   UNL A   1      49.074  27.322  37.317  1.00  0.00    -0.744 OA
ENDBRANCH  97  98
ENDBRANCH  65  90
ENDBRANCH  39  40
ENDBRANCH  31  34
ENDBRANCH  29  30
ENDBRANCH  28  29
ENDBRANCH  27  28
ENDBRANCH   1  27
TORSDOF 19
ENDMDL
