MODEL 1
REMARK VINA RESULT:     -13.1      0.000      0.000
REMARK SMILES Cc1cc(C(=O)NCCCCCCNC(=O)c2ccc(-c3c4nc(c(-c5c(F)cc(S(=O)(=O)[O-])cc5F)c5ccc([nH]5)c(-c5c(F)cc(S(=O)(=O)[O-])cc5F)c5nc(c(-c6c(F)cc(S(=O)(=O)[O-])cc6F)c6ccc3[nH]6)C=C5)C=C4)cc2)c(O)c(S(=O)(=O)N2CCCc3cc(F)cc(F)c32)c1
REMARK SMILES IDX 11 1 10 2 9 3 8 4 7 5 5 6 6 7 4 9 1 10 2 11 3 12 101 13
REMARK SMILES IDX 85 14 83 15 86 16 87 17 88 18 89 19 90 20 100 21 91 22 93 23
REMARK SMILES IDX 98 24 92 25 94 26 97 27 99 28 95 29 96 30 84 31 12 33 13 34
REMARK SMILES IDX 14 35 15 36 16 38 17 39 18 40 82 41 19 42 81 43 20 44 21 45
REMARK SMILES IDX 22 46 75 47 23 48 80 49 74 50 76 51 24 52 79 53 73 54 72 55
REMARK SMILES IDX 25 57 59 58 38 59 58 60 39 61 42 62 57 63 77 64 40 65 41 66
REMARK SMILES IDX 56 68 78 69 43 70 26 71 27 72 36 73 28 74 29 75 35 76 37 77
REMARK SMILES IDX 30 78 31 79 32 80 33 81 34 82 60 83 61 84 70 85 62 86 63 87
REMARK SMILES IDX 69 88 71 89 64 90 65 91 66 92 67 93 68 94 44 95 45 96 54 97
REMARK SMILES IDX 46 98 47 99 53 100 55 101 48 102 49 103 50 104 51 105 52 106
REMARK H PARENT 7 8 84 32 14 37 76 56 42 67
REMARK Flexibility Score: inf
ROOT
ATOM      1  C   UNL A   1      38.544  23.748  26.412  1.00  0.00     0.002 C 
ENDROOT
BRANCH   1   2
ATOM      2  C   UNL A   1      37.426  23.338  25.449  1.00  0.00     0.002 C 
BRANCH   2   3
ATOM      3  C   UNL A   1      36.030  23.270  26.074  1.00  0.00     0.021 C 
BRANCH   3   4
ATOM      4  C   UNL A   1      35.554  21.847  26.412  1.00  0.00     0.116 C 
BRANCH   4   5
ATOM      5  N   UNL A   1      34.485  21.879  27.407  1.00  0.00    -0.352 N 
ATOM      6  C   UNL A   1      33.174  22.307  27.368  1.00  0.00     0.255 C 
ATOM      7  O   UNL A   1      32.517  22.209  28.408  1.00  0.00    -0.269 OA
ATOM      8  H   UNL A   1      34.754  21.522  28.284  1.00  0.00     0.163 HD
BRANCH   6   9
ATOM      9  C   UNL A   1      32.476  22.776  26.130  1.00  0.00     0.083 A 
ATOM     10  C   UNL A   1      32.035  21.458  22.599  1.00  0.00     0.044 C 
ATOM     11  C   UNL A   1      32.046  22.436  23.739  1.00  0.00    -0.049 A 
ATOM     12  C   UNL A   1      32.596  22.006  24.968  1.00  0.00     0.021 A 
ATOM     13  C   UNL A   1      31.545  23.745  23.621  1.00  0.00     0.029 A 
ATOM     14  C   UNL A   1      31.393  24.489  24.785  1.00  0.00     0.130 A 
ATOM     15  C   UNL A   1      31.692  23.912  26.041  1.00  0.00     0.148 A 
BRANCH  14  16
ATOM     16  S   UNL A   1      31.165  26.240  24.864  1.00  0.00     0.268 S 
ATOM     17  O   UNL A   1      29.715  26.363  24.912  1.00  0.00    -0.201 OA
ATOM     18  O   UNL A   1      31.951  26.656  26.008  1.00  0.00    -0.201 OA
BRANCH  16  19
ATOM     19  N   UNL A   1      31.689  27.168  23.477  1.00  0.00    -0.263 N 
ATOM     20  C   UNL A   1      30.682  27.407  22.405  1.00  0.00     0.136 C 
ATOM     21  C   UNL A   1      32.233  28.422  24.056  1.00  0.00     0.091 A 
ATOM     22  C   UNL A   1      30.053  28.803  22.407  1.00  0.00     0.028 C 
ATOM     23  C   UNL A   1      31.281  29.373  24.480  1.00  0.00    -0.018 A 
ATOM     24  C   UNL A   1      33.508  28.420  24.642  1.00  0.00     0.150 A 
ATOM     25  C   UNL A   1      29.944  29.433  23.791  1.00  0.00     0.040 C 
ATOM     26  C   UNL A   1      31.531  30.110  25.643  1.00  0.00     0.045 A 
ATOM     27  C   UNL A   1      33.781  29.212  25.752  1.00  0.00     0.080 A 
ATOM     28  F   UNL A   1      34.449  27.573  24.199  1.00  0.00    -0.205 F 
ATOM     29  C   UNL A   1      32.762  29.992  26.285  1.00  0.00     0.126 A 
ATOM     30  F   UNL A   1      32.949  30.610  27.457  1.00  0.00    -0.207 F 
ENDBRANCH  16  19
ENDBRANCH  14  16
BRANCH  15  31
ATOM     31  O   UNL A   1      31.130  24.378  27.200  1.00  0.00    -0.506 OA
ATOM     32  H   UNL A   1      30.932  25.290  27.291  1.00  0.00     0.293 HD
ENDBRANCH  15  31
ENDBRANCH   6   9
ENDBRANCH   4   5
ENDBRANCH   3   4
ENDBRANCH   2   3
ENDBRANCH   1   2
BRANCH   1  33
ATOM     33  C   UNL A   1      39.622  22.687  26.661  1.00  0.00     0.021 C 
BRANCH  33  34
ATOM     34  C   UNL A   1      40.973  23.240  27.111  1.00  0.00     0.116 C 
BRANCH  34  35
ATOM     35  N   UNL A   1      41.619  24.009  26.058  1.00  0.00    -0.352 N 
ATOM     36  C   UNL A   1      41.843  25.365  25.972  1.00  0.00     0.251 C 
ATOM     37  H   UNL A   1      41.943  23.481  25.293  1.00  0.00     0.163 HD
ATOM     38  O   UNL A   1      42.175  25.863  24.911  1.00  0.00    -0.269 OA
BRANCH  36  39
ATOM     39  C   UNL A   1      41.674  26.213  27.176  1.00  0.00     0.039 A 
ATOM     40  C   UNL A   1      42.625  27.199  27.448  1.00  0.00     0.014 A 
ATOM     41  C   UNL A   1      40.599  26.014  28.046  1.00  0.00     0.014 A 
ATOM     42  C   UNL A   1      42.467  28.023  28.565  1.00  0.00     0.010 A 
ATOM     43  C   UNL A   1      40.406  26.880  29.119  1.00  0.00     0.010 A 
ATOM     44  C   UNL A   1      41.340  27.890  29.394  1.00  0.00    -0.014 A 
BRANCH  44  45
ATOM     45  C   UNL A   1      41.123  28.797  30.550  1.00  0.00     0.031 A 
ATOM     46  C   UNL A   1      41.967  28.659  31.788  1.00  0.00     0.074 A 
ATOM     47  C   UNL A   1      40.122  29.698  30.510  1.00  0.00     0.049 A 
ATOM     48  N   UNL A   1      41.885  29.310  32.921  1.00  0.00    -0.248 NA
ATOM     49  C   UNL A   1      43.027  27.638  31.760  1.00  0.00     0.031 C 
ATOM     50  C   UNL A   1      39.204  29.890  29.385  1.00  0.00     0.029 A 
ATOM     51  N   UNL A   1      39.702  30.616  31.439  1.00  0.00    -0.354 N 
ATOM     52  C   UNL A   1      42.869  28.771  33.741  1.00  0.00     0.074 A 
ATOM     53  C   UNL A   1      43.500  27.704  32.996  1.00  0.00     0.031 C 
ATOM     54  C   UNL A   1      38.344  30.878  29.683  1.00  0.00     0.029 A 
ATOM     55  C   UNL A   1      38.623  31.363  31.031  1.00  0.00     0.049 A 
ATOM     56  H   UNL A   1      40.134  30.729  32.318  1.00  0.00     0.167 HD
ATOM     57  C   UNL A   1      43.229  29.146  34.993  1.00  0.00     0.037 A 
ATOM     58  C   UNL A   1      37.929  32.324  31.672  1.00  0.00     0.037 A 
ATOM     59  C   UNL A   1      42.610  30.225  35.718  1.00  0.00     0.049 A 
ATOM     60  C   UNL A   1      38.347  32.722  33.062  1.00  0.00     0.074 A 
ATOM     61  C   UNL A   1      42.941  30.724  36.966  1.00  0.00     0.029 A 
ATOM     62  N   UNL A   1      41.532  30.971  35.262  1.00  0.00    -0.354 N 
ATOM     63  N   UNL A   1      39.322  32.246  33.798  1.00  0.00    -0.248 NA
ATOM     64  C   UNL A   1      37.574  33.793  33.706  1.00  0.00     0.031 C 
ATOM     65  C   UNL A   1      42.033  31.740  37.285  1.00  0.00     0.029 A 
ATOM     66  C   UNL A   1      41.169  31.910  36.215  1.00  0.00     0.049 A 
ATOM     67  H   UNL A   1      41.090  30.852  34.391  1.00  0.00     0.167 HD
ATOM     68  C   UNL A   1      39.295  32.973  34.983  1.00  0.00     0.074 A 
ATOM     69  C   UNL A   1      38.216  33.932  34.858  1.00  0.00     0.031 C 
ATOM     70  C   UNL A   1      40.092  32.860  36.075  1.00  0.00     0.037 A 
BRANCH  57  71
ATOM     71  C   UNL A   1      44.345  28.384  35.656  1.00  0.00     0.058 A 
ATOM     72  C   UNL A   1      44.096  27.266  36.467  1.00  0.00     0.135 A 
ATOM     73  C   UNL A   1      45.684  28.758  35.452  1.00  0.00     0.135 A 
ATOM     74  F   UNL A   1      42.835  26.873  36.707  1.00  0.00    -0.206 F 
ATOM     75  C   UNL A   1      45.130  26.565  37.080  1.00  0.00     0.059 A 
ATOM     76  C   UNL A   1      46.736  28.052  36.031  1.00  0.00     0.059 A 
ATOM     77  F   UNL A   1      45.982  29.818  34.686  1.00  0.00    -0.206 F 
ATOM     78  C   UNL A   1      46.447  26.967  36.856  1.00  0.00     0.060 A 
BRANCH  78  79
ATOM     79  S   UNL A   1      47.777  26.047  37.658  1.00  0.00     0.124 S 
ATOM     80  O   UNL A   1      48.933  26.461  36.868  1.00  0.00    -0.237 OA
ATOM     81  O   UNL A   1      47.729  26.554  39.025  1.00  0.00    -0.237 OA
ATOM     82  O   UNL A   1      47.375  24.654  37.495  1.00  0.00    -0.744 OA
ENDBRANCH  78  79
ENDBRANCH  57  71
BRANCH  58  83
ATOM     83  C   UNL A   1      36.784  32.989  30.997  1.00  0.00     0.058 A 
ATOM     84  C   UNL A   1      35.461  32.703  31.368  1.00  0.00     0.135 A 
ATOM     85  C   UNL A   1      36.986  33.937  29.981  1.00  0.00     0.135 A 
ATOM     86  F   UNL A   1      35.216  31.800  32.330  1.00  0.00    -0.206 F 
ATOM     87  C   UNL A   1      34.380  33.320  30.748  1.00  0.00     0.059 A 
ATOM     88  C   UNL A   1      35.922  34.586  29.363  1.00  0.00     0.059 A 
ATOM     89  F   UNL A   1      38.232  34.255  29.597  1.00  0.00    -0.206 F 
ATOM     90  C   UNL A   1      34.621  34.263  29.747  1.00  0.00     0.060 A 
BRANCH  90  91
ATOM     91  S   UNL A   1      33.211  35.091  28.980  1.00  0.00     0.124 S 
ATOM     92  O   UNL A   1      32.346  35.323  30.132  1.00  0.00    -0.237 OA
ATOM     93  O   UNL A   1      33.831  36.276  28.397  1.00  0.00    -0.237 OA
ATOM     94  O   UNL A   1      32.728  34.106  28.016  1.00  0.00    -0.744 OA
ENDBRANCH  90  91
ENDBRANCH  58  83
BRANCH  70  95
ATOM     95  C   UNL A   1      39.846  33.811  37.213  1.00  0.00     0.058 A 
ATOM     96  C   UNL A   1      40.452  35.075  37.262  1.00  0.00     0.135 A 
ATOM     97  C   UNL A   1      38.952  33.472  38.242  1.00  0.00     0.135 A 
ATOM     98  F   UNL A   1      41.320  35.447  36.308  1.00  0.00    -0.206 F 
ATOM     99  C   UNL A   1      40.198  35.962  38.304  1.00  0.00     0.059 A 
ATOM    100  C   UNL A   1      38.661  34.353  39.276  1.00  0.00     0.059 A 
ATOM    101  F   UNL A   1      38.336  32.278  38.237  1.00  0.00    -0.206 F 
ATOM    102  C   UNL A   1      39.299  35.593  39.305  1.00  0.00     0.060 A 
BRANCH 102 103
ATOM    103  S   UNL A   1      38.950  36.768  40.631  1.00  0.00     0.124 S 
ATOM    104  O   UNL A   1      38.110  35.970  41.518  1.00  0.00    -0.237 OA
ATOM    105  O   UNL A   1      40.285  37.079  41.132  1.00  0.00    -0.237 OA
ATOM    106  O   UNL A   1      38.274  37.865  39.945  1.00  0.00    -0.744 OA
ENDBRANCH 102 103
ENDBRANCH  70  95
ENDBRANCH  44  45
ENDBRANCH  36  39
ENDBRANCH  34  35
ENDBRANCH  33  34
ENDBRANCH   1  33
TORSDOF 19
ENDMDL
MODEL 2
REMARK VINA RESULT:     -12.9      5.827      7.998
REMARK SMILES Cc1cc(C(=O)NCCCCCCNC(=O)c2ccc(-c3c4nc(c(-c5c(F)cc(S(=O)(=O)[O-])cc5F)c5ccc([nH]5)c(-c5c(F)cc(S(=O)(=O)[O-])cc5F)c5nc(c(-c6c(F)cc(S(=O)(=O)[O-])cc6F)c6ccc3[nH]6)C=C5)C=C4)cc2)c(O)c(S(=O)(=O)N2CCCc3cc(F)cc(F)c32)c1
REMARK SMILES IDX 11 1 10 2 9 3 8 4 7 5 5 6 6 7 4 9 1 10 2 11 3 12 101 13
REMARK SMILES IDX 85 14 83 15 86 16 87 17 88 18 89 19 90 20 100 21 91 22 93 23
REMARK SMILES IDX 98 24 92 25 94 26 97 27 99 28 95 29 96 30 84 31 12 33 13 34
REMARK SMILES IDX 14 35 15 36 16 38 17 39 18 40 82 41 19 42 81 43 20 44 21 45
REMARK SMILES IDX 22 46 75 47 23 48 80 49 74 50 76 51 24 52 79 53 73 54 72 55
REMARK SMILES IDX 25 57 59 58 38 59 58 60 39 61 42 62 57 63 77 64 40 65 41 66
REMARK SMILES IDX 56 68 78 69 43 70 26 71 27 72 36 73 28 74 29 75 35 76 37 77
REMARK SMILES IDX 30 78 31 79 32 80 33 81 34 82 60 83 61 84 70 85 62 86 63 87
REMARK SMILES IDX 69 88 71 89 64 90 65 91 66 92 67 93 68 94 44 95 45 96 54 97
REMARK SMILES IDX 46 98 47 99 53 100 55 101 48 102 49 103 50 104 51 105 52 106
REMARK H PARENT 7 8 84 32 14 37 76 56 42 67
REMARK Flexibility Score: inf
ROOT
ATOM      1  C   UNL A   1      37.049  20.545  25.122  1.00  0.00     0.002 C 
ENDROOT
BRANCH   1   2
ATOM      2  C   UNL A   1      36.888  21.863  24.361  1.00  0.00     0.002 C 
BRANCH   2   3
ATOM      3  C   UNL A   1      37.285  23.115  25.149  1.00  0.00     0.021 C 
BRANCH   3   4
ATOM      4  C   UNL A   1      36.097  23.922  25.699  1.00  0.00     0.116 C 
BRANCH   4   5
ATOM      5  N   UNL A   1      35.397  23.172  26.738  1.00  0.00    -0.352 N 
ATOM      6  C   UNL A   1      34.087  22.768  26.888  1.00  0.00     0.255 C 
ATOM      7  O   UNL A   1      33.802  22.142  27.913  1.00  0.00    -0.269 OA
ATOM      8  H   UNL A   1      35.978  22.898  27.484  1.00  0.00     0.163 HD
BRANCH   6   9
ATOM      9  C   UNL A   1      33.025  22.943  25.848  1.00  0.00     0.083 A 
ATOM     10  C   UNL A   1      32.076  21.193  22.617  1.00  0.00     0.044 C 
ATOM     11  C   UNL A   1      32.131  22.267  23.666  1.00  0.00    -0.049 A 
ATOM     12  C   UNL A   1      33.041  22.097  24.734  1.00  0.00     0.021 A 
ATOM     13  C   UNL A   1      31.326  23.420  23.615  1.00  0.00     0.029 A 
ATOM     14  C   UNL A   1      31.286  24.234  24.741  1.00  0.00     0.130 A 
ATOM     15  C   UNL A   1      32.000  23.871  25.905  1.00  0.00     0.148 A 
BRANCH  14  16
ATOM     16  S   UNL A   1      30.684  25.895  24.787  1.00  0.00     0.268 S 
ATOM     17  O   UNL A   1      29.577  25.797  25.729  1.00  0.00    -0.201 OA
ATOM     18  O   UNL A   1      31.843  26.691  25.135  1.00  0.00    -0.201 OA
BRANCH  16  19
ATOM     19  N   UNL A   1      30.010  26.533  23.305  1.00  0.00    -0.263 N 
ATOM     20  C   UNL A   1      28.739  27.303  23.416  1.00  0.00     0.136 C 
ATOM     21  C   UNL A   1      31.117  27.319  22.704  1.00  0.00     0.091 A 
ATOM     22  C   UNL A   1      28.896  28.824  23.350  1.00  0.00     0.028 C 
ATOM     23  C   UNL A   1      31.359  28.585  23.276  1.00  0.00    -0.018 A 
ATOM     24  C   UNL A   1      32.161  26.654  22.043  1.00  0.00     0.150 A 
ATOM     25  C   UNL A   1      30.219  29.337  23.908  1.00  0.00     0.040 C 
ATOM     26  C   UNL A   1      32.680  29.028  23.405  1.00  0.00     0.045 A 
ATOM     27  C   UNL A   1      33.464  27.138  22.105  1.00  0.00     0.080 A 
ATOM     28  F   UNL A   1      31.929  25.484  21.429  1.00  0.00    -0.205 F 
ATOM     29  C   UNL A   1      33.718  28.282  22.851  1.00  0.00     0.126 A 
ATOM     30  F   UNL A   1      34.984  28.652  23.079  1.00  0.00    -0.207 F 
ENDBRANCH  16  19
ENDBRANCH  14  16
BRANCH  15  31
ATOM     31  O   UNL A   1      31.637  24.327  27.145  1.00  0.00    -0.506 OA
ATOM     32  H   UNL A   1      30.734  24.332  27.396  1.00  0.00     0.293 HD
ENDBRANCH  15  31
ENDBRANCH   6   9
ENDBRANCH   4   5
ENDBRANCH   3   4
ENDBRANCH   2   3
ENDBRANCH   1   2
BRANCH   1  33
ATOM     33  C   UNL A   1      38.408  19.853  24.962  1.00  0.00     0.021 C 
BRANCH  33  34
ATOM     34  C   UNL A   1      39.439  20.211  26.030  1.00  0.00     0.116 C 
BRANCH  34  35
ATOM     35  N   UNL A   1      40.513  19.232  26.092  1.00  0.00    -0.352 N 
ATOM     36  C   UNL A   1      41.877  19.423  26.095  1.00  0.00     0.251 C 
ATOM     37  H   UNL A   1      40.221  18.292  26.139  1.00  0.00     0.163 HD
ATOM     38  O   UNL A   1      42.626  18.481  25.903  1.00  0.00    -0.269 OA
BRANCH  36  39
ATOM     39  C   UNL A   1      42.426  20.779  26.328  1.00  0.00     0.039 A 
ATOM     40  C   UNL A   1      42.794  21.559  25.229  1.00  0.00     0.014 A 
ATOM     41  C   UNL A   1      42.605  21.265  27.626  1.00  0.00     0.014 A 
ATOM     42  C   UNL A   1      43.291  22.849  25.432  1.00  0.00     0.010 A 
ATOM     43  C   UNL A   1      43.034  22.575  27.823  1.00  0.00     0.010 A 
ATOM     44  C   UNL A   1      43.387  23.379  26.729  1.00  0.00    -0.014 A 
BRANCH  44  45
ATOM     45  C   UNL A   1      43.855  24.770  26.960  1.00  0.00     0.031 A 
ATOM     46  C   UNL A   1      45.309  25.117  26.791  1.00  0.00     0.074 A 
ATOM     47  C   UNL A   1      42.981  25.703  27.386  1.00  0.00     0.049 A 
ATOM     48  N   UNL A   1      45.918  26.255  27.011  1.00  0.00    -0.248 NA
ATOM     49  C   UNL A   1      46.203  24.037  26.342  1.00  0.00     0.031 C 
ATOM     50  C   UNL A   1      41.556  25.474  27.635  1.00  0.00     0.029 A 
ATOM     51  N   UNL A   1      43.161  27.028  27.693  1.00  0.00    -0.354 N 
ATOM     52  C   UNL A   1      47.261  26.026  26.740  1.00  0.00     0.074 A 
ATOM     53  C   UNL A   1      47.388  24.627  26.392  1.00  0.00     0.031 C 
ATOM     54  C   UNL A   1      40.988  26.623  28.036  1.00  0.00     0.029 A 
ATOM     55  C   UNL A   1      42.013  27.660  28.111  1.00  0.00     0.049 A 
ATOM     56  H   UNL A   1      44.031  27.484  27.623  1.00  0.00     0.167 HD
ATOM     57  C   UNL A   1      48.292  26.905  26.757  1.00  0.00     0.037 A 
ATOM     58  C   UNL A   1      41.809  28.929  28.516  1.00  0.00     0.037 A 
ATOM     59  C   UNL A   1      48.153  28.301  27.083  1.00  0.00     0.049 A 
ATOM     60  C   UNL A   1      42.970  29.887  28.528  1.00  0.00     0.074 A 
ATOM     61  C   UNL A   1      49.122  29.288  27.071  1.00  0.00     0.029 A 
ATOM     62  N   UNL A   1      46.969  28.908  27.481  1.00  0.00    -0.354 N 
ATOM     63  N   UNL A   1      44.222  29.669  28.206  1.00  0.00    -0.248 NA
ATOM     64  C   UNL A   1      42.689  31.265  28.954  1.00  0.00     0.031 C 
ATOM     65  C   UNL A   1      48.537  30.482  27.508  1.00  0.00     0.029 A 
ATOM     66  C   UNL A   1      47.191  30.251  27.742  1.00  0.00     0.049 A 
ATOM     67  H   UNL A   1      46.101  28.452  27.566  1.00  0.00     0.167 HD
ATOM     68  C   UNL A   1      44.874  30.887  28.368  1.00  0.00     0.074 A 
ATOM     69  C   UNL A   1      43.874  31.840  28.802  1.00  0.00     0.031 C 
ATOM     70  C   UNL A   1      46.182  31.189  28.172  1.00  0.00     0.037 A 
BRANCH  57  71
ATOM     71  C   UNL A   1      49.661  26.383  26.413  1.00  0.00     0.058 A 
ATOM     72  C   UNL A   1      50.459  25.720  27.359  1.00  0.00     0.135 A 
ATOM     73  C   UNL A   1      50.170  26.518  25.111  1.00  0.00     0.135 A 
ATOM     74  F   UNL A   1      50.028  25.574  28.622  1.00  0.00    -0.206 F 
ATOM     75  C   UNL A   1      51.724  25.240  27.038  1.00  0.00     0.059 A 
ATOM     76  C   UNL A   1      51.422  26.019  24.759  1.00  0.00     0.059 A 
ATOM     77  F   UNL A   1      49.452  27.143  24.164  1.00  0.00    -0.206 F 
ATOM     78  C   UNL A   1      52.198  25.396  25.734  1.00  0.00     0.060 A 
BRANCH  78  79
ATOM     79  S   UNL A   1      53.841  24.767  25.333  1.00  0.00     0.124 S 
ATOM     80  O   UNL A   1      54.182  25.570  24.163  1.00  0.00    -0.237 OA
ATOM     81  O   UNL A   1      54.595  25.065  26.547  1.00  0.00    -0.237 OA
ATOM     82  O   UNL A   1      53.611  23.350  25.075  1.00  0.00    -0.744 OA
ENDBRANCH  78  79
ENDBRANCH  57  71
BRANCH  58  83
ATOM     83  C   UNL A   1      40.449  29.369  28.921  1.00  0.00     0.058 A 
ATOM     84  C   UNL A   1      39.448  29.596  27.963  1.00  0.00     0.135 A 
ATOM     85  C   UNL A   1      40.113  29.555  30.271  1.00  0.00     0.135 A 
ATOM     86  F   UNL A   1      39.722  29.438  26.659  1.00  0.00    -0.206 F 
ATOM     87  C   UNL A   1      38.170  30.005  28.327  1.00  0.00     0.059 A 
ATOM     88  C   UNL A   1      38.834  29.938  30.661  1.00  0.00     0.059 A 
ATOM     89  F   UNL A   1      41.029  29.338  31.227  1.00  0.00    -0.206 F 
ATOM     90  C   UNL A   1      37.871  30.171  29.680  1.00  0.00     0.060 A 
BRANCH  90  91
ATOM     91  S   UNL A   1      36.195  30.658  30.143  1.00  0.00     0.124 S 
ATOM     92  O   UNL A   1      35.463  30.403  28.907  1.00  0.00    -0.237 OA
ATOM     93  O   UNL A   1      35.908  29.756  31.254  1.00  0.00    -0.237 OA
ATOM     94  O   UNL A   1      36.343  32.064  30.510  1.00  0.00    -0.744 OA
ENDBRANCH  90  91
ENDBRANCH  58  83
BRANCH  70  95
ATOM     95  C   UNL A   1      46.605  32.613  28.401  1.00  0.00     0.058 A 
ATOM     96  C   UNL A   1      46.491  33.588  27.398  1.00  0.00     0.135 A 
ATOM     97  C   UNL A   1      47.082  33.020  29.659  1.00  0.00     0.135 A 
ATOM     98  F   UNL A   1      46.047  33.251  26.177  1.00  0.00    -0.206 F 
ATOM     99  C   UNL A   1      46.857  34.911  27.626  1.00  0.00     0.059 A 
ATOM    100  C   UNL A   1      47.426  34.342  29.917  1.00  0.00     0.059 A 
ATOM    101  F   UNL A   1      47.200  32.130  30.657  1.00  0.00    -0.206 F 
ATOM    102  C   UNL A   1      47.321  35.279  28.889  1.00  0.00     0.060 A 
BRANCH 102 103
ATOM    103  S   UNL A   1      47.758  37.006  29.181  1.00  0.00     0.124 S 
ATOM    104  O   UNL A   1      48.895  37.177  28.284  1.00  0.00    -0.237 OA
ATOM    105  O   UNL A   1      46.536  37.706  28.798  1.00  0.00    -0.237 OA
ATOM    106  O   UNL A   1      48.072  37.041  30.607  1.00  0.00    -0.744 OA
ENDBRANCH 102 103
ENDBRANCH  70  95
ENDBRANCH  44  45
ENDBRANCH  36  39
ENDBRANCH  34  35
ENDBRANCH  33  34
ENDBRANCH   1  33
TORSDOF 19
ENDMDL
MODEL 3
REMARK VINA RESULT:     -12.5      6.211     11.754
REMARK SMILES Cc1cc(C(=O)NCCCCCCNC(=O)c2ccc(-c3c4nc(c(-c5c(F)cc(S(=O)(=O)[O-])cc5F)c5ccc([nH]5)c(-c5c(F)cc(S(=O)(=O)[O-])cc5F)c5nc(c(-c6c(F)cc(S(=O)(=O)[O-])cc6F)c6ccc3[nH]6)C=C5)C=C4)cc2)c(O)c(S(=O)(=O)N2CCCc3cc(F)cc(F)c32)c1
REMARK SMILES IDX 11 1 10 2 9 3 8 4 7 5 5 6 6 7 4 9 1 10 2 11 3 12 101 13
REMARK SMILES IDX 85 14 83 15 86 16 87 17 88 18 89 19 90 20 100 21 91 22 93 23
REMARK SMILES IDX 98 24 92 25 94 26 97 27 99 28 95 29 96 30 84 31 12 33 13 34
REMARK SMILES IDX 14 35 15 36 16 38 17 39 18 40 82 41 19 42 81 43 20 44 21 45
REMARK SMILES IDX 22 46 75 47 23 48 80 49 74 50 76 51 24 52 79 53 73 54 72 55
REMARK SMILES IDX 25 57 59 58 38 59 58 60 39 61 42 62 57 63 77 64 40 65 41 66
REMARK SMILES IDX 56 68 78 69 43 70 26 71 27 72 36 73 28 74 29 75 35 76 37 77
REMARK SMILES IDX 30 78 31 79 32 80 33 81 34 82 60 83 61 84 70 85 62 86 63 87
REMARK SMILES IDX 69 88 71 89 64 90 65 91 66 92 67 93 68 94 44 95 45 96 54 97
REMARK SMILES IDX 46 98 47 99 53 100 55 101 48 102 49 103 50 104 51 105 52 106
REMARK H PARENT 7 8 84 32 14 37 76 56 42 67
REMARK Flexibility Score: inf
ROOT
ATOM      1  C   UNL A   1      34.049  31.558  28.016  1.00  0.00     0.002 C 
ENDROOT
BRANCH   1   2
ATOM      2  C   UNL A   1      34.178  30.515  26.902  1.00  0.00     0.002 C 
BRANCH   2   3
ATOM      3  C   UNL A   1      33.223  29.325  27.020  1.00  0.00     0.021 C 
BRANCH   3   4
ATOM      4  C   UNL A   1      33.664  28.077  26.237  1.00  0.00     0.116 C 
BRANCH   4   5
ATOM      5  N   UNL A   1      33.986  28.419  24.854  1.00  0.00    -0.352 N 
ATOM      6  C   UNL A   1      33.586  27.904  23.638  1.00  0.00     0.255 C 
ATOM      7  O   UNL A   1      34.062  28.420  22.623  1.00  0.00    -0.269 OA
ATOM      8  H   UNL A   1      34.618  29.170  24.773  1.00  0.00     0.163 HD
BRANCH   6   9
ATOM      9  C   UNL A   1      32.542  26.846  23.472  1.00  0.00     0.083 A 
ATOM     10  C   UNL A   1      28.766  26.683  23.814  1.00  0.00     0.044 C 
ATOM     11  C   UNL A   1      30.186  26.205  23.711  1.00  0.00    -0.049 A 
ATOM     12  C   UNL A   1      31.211  27.176  23.751  1.00  0.00     0.021 A 
ATOM     13  C   UNL A   1      30.522  24.844  23.589  1.00  0.00     0.029 A 
ATOM     14  C   UNL A   1      31.838  24.526  23.273  1.00  0.00     0.130 A 
ATOM     15  C   UNL A   1      32.780  25.554  23.038  1.00  0.00     0.148 A 
BRANCH  14  16
ATOM     16  S   UNL A   1      32.581  22.932  23.447  1.00  0.00     0.268 S 
ATOM     17  O   UNL A   1      31.723  22.098  22.616  1.00  0.00    -0.201 OA
ATOM     18  O   UNL A   1      33.963  23.133  23.063  1.00  0.00    -0.201 OA
BRANCH  16  19
ATOM     19  N   UNL A   1      32.557  22.220  25.044  1.00  0.00    -0.263 N 
ATOM     20  C   UNL A   1      32.163  20.786  25.139  1.00  0.00     0.136 C 
ATOM     21  C   UNL A   1      33.911  22.490  25.589  1.00  0.00     0.091 A 
ATOM     22  C   UNL A   1      33.325  19.806  25.322  1.00  0.00     0.028 C 
ATOM     23  C   UNL A   1      34.948  21.664  25.109  1.00  0.00    -0.018 A 
ATOM     24  C   UNL A   1      34.222  23.771  26.073  1.00  0.00     0.150 A 
ATOM     25  C   UNL A   1      34.628  20.260  24.672  1.00  0.00     0.040 C 
ATOM     26  C   UNL A   1      36.209  22.226  24.878  1.00  0.00     0.045 A 
ATOM     27  C   UNL A   1      35.498  24.299  25.913  1.00  0.00     0.080 A 
ATOM     28  F   UNL A   1      33.259  24.540  26.602  1.00  0.00    -0.205 F 
ATOM     29  C   UNL A   1      36.457  23.545  25.248  1.00  0.00     0.126 A 
ATOM     30  F   UNL A   1      37.626  24.108  24.919  1.00  0.00    -0.207 F 
ENDBRANCH  16  19
ENDBRANCH  14  16
BRANCH  15  31
ATOM     31  O   UNL A   1      33.901  25.344  22.280  1.00  0.00    -0.506 OA
ATOM     32  H   UNL A   1      33.819  25.034  21.399  1.00  0.00     0.293 HD
ENDBRANCH  15  31
ENDBRANCH   6   9
ENDBRANCH   4   5
ENDBRANCH   3   4
ENDBRANCH   2   3
ENDBRANCH   1   2
BRANCH   1  33
ATOM     33  C   UNL A   1      35.084  32.688  27.984  1.00  0.00     0.021 C 
BRANCH  33  34
ATOM     34  C   UNL A   1      36.279  32.490  28.916  1.00  0.00     0.116 C 
BRANCH  34  35
ATOM     35  N   UNL A   1      35.933  31.673  30.069  1.00  0.00    -0.352 N 
ATOM     36  C   UNL A   1      36.568  30.564  30.581  1.00  0.00     0.251 C 
ATOM     37  H   UNL A   1      35.124  31.955  30.555  1.00  0.00     0.163 HD
ATOM     38  O   UNL A   1      36.003  29.861  31.402  1.00  0.00    -0.269 OA
BRANCH  36  39
ATOM     39  C   UNL A   1      37.937  30.229  30.126  1.00  0.00     0.039 A 
ATOM     40  C   UNL A   1      38.946  30.062  31.079  1.00  0.00     0.014 A 
ATOM     41  C   UNL A   1      38.231  30.110  28.766  1.00  0.00     0.014 A 
ATOM     42  C   UNL A   1      40.237  29.721  30.668  1.00  0.00     0.010 A 
ATOM     43  C   UNL A   1      39.500  29.704  28.363  1.00  0.00     0.010 A 
ATOM     44  C   UNL A   1      40.518  29.510  29.308  1.00  0.00    -0.014 A 
BRANCH  44  45
ATOM     45  C   UNL A   1      41.869  29.088  28.857  1.00  0.00     0.031 A 
ATOM     46  C   UNL A   1      42.983  30.095  28.760  1.00  0.00     0.074 A 
ATOM     47  C   UNL A   1      42.073  27.813  28.472  1.00  0.00     0.049 A 
ATOM     48  N   UNL A   1      44.207  29.933  28.326  1.00  0.00    -0.248 NA
ATOM     49  C   UNL A   1      42.674  31.471  29.182  1.00  0.00     0.031 C 
ATOM     50  C   UNL A   1      41.057  26.758  28.473  1.00  0.00     0.029 A 
ATOM     51  N   UNL A   1      43.198  27.187  27.998  1.00  0.00    -0.354 N 
ATOM     52  C   UNL A   1      44.809  31.183  28.411  1.00  0.00     0.074 A 
ATOM     53  C   UNL A   1      43.799  32.105  28.885  1.00  0.00     0.031 C 
ATOM     54  C   UNL A   1      41.611  25.613  28.041  1.00  0.00     0.029 A 
ATOM     55  C   UNL A   1      43.008  25.859  27.696  1.00  0.00     0.049 A 
ATOM     56  H   UNL A   1      44.062  27.647  27.883  1.00  0.00     0.167 HD
ATOM     57  C   UNL A   1      46.091  31.528  28.138  1.00  0.00     0.037 A 
ATOM     58  C   UNL A   1      43.859  24.945  27.191  1.00  0.00     0.037 A 
ATOM     59  C   UNL A   1      47.094  30.599  27.687  1.00  0.00     0.049 A 
ATOM     60  C   UNL A   1      45.277  25.352  26.896  1.00  0.00     0.074 A 
ATOM     61  C   UNL A   1      48.436  30.834  27.442  1.00  0.00     0.029 A 
ATOM     62  N   UNL A   1      46.867  29.257  27.413  1.00  0.00    -0.354 N 
ATOM     63  N   UNL A   1      45.846  26.524  27.042  1.00  0.00    -0.248 NA
ATOM     64  C   UNL A   1      46.171  24.310  26.370  1.00  0.00     0.031 C 
ATOM     65  C   UNL A   1      49.010  29.647  26.973  1.00  0.00     0.029 A 
ATOM     66  C   UNL A   1      48.038  28.659  26.976  1.00  0.00     0.049 A 
ATOM     67  H   UNL A   1      46.002  28.798  27.513  1.00  0.00     0.167 HD
ATOM     68  C   UNL A   1      47.170  26.356  26.650  1.00  0.00     0.074 A 
ATOM     69  C   UNL A   1      47.320  24.965  26.274  1.00  0.00     0.031 C 
ATOM     70  C   UNL A   1      48.172  27.270  26.607  1.00  0.00     0.037 A 
BRANCH  57  71
ATOM     71  C   UNL A   1      46.480  32.970  28.322  1.00  0.00     0.058 A 
ATOM     72  C   UNL A   1      47.007  33.444  29.534  1.00  0.00     0.135 A 
ATOM     73  C   UNL A   1      46.355  33.884  27.263  1.00  0.00     0.135 A 
ATOM     74  F   UNL A   1      47.136  32.618  30.584  1.00  0.00    -0.206 F 
ATOM     75  C   UNL A   1      47.364  34.778  29.702  1.00  0.00     0.059 A 
ATOM     76  C   UNL A   1      46.734  35.217  27.399  1.00  0.00     0.059 A 
ATOM     77  F   UNL A   1      45.858  33.487  26.081  1.00  0.00    -0.206 F 
ATOM     78  C   UNL A   1      47.222  35.658  28.627  1.00  0.00     0.060 A 
BRANCH  78  79
ATOM     79  S   UNL A   1      47.690  37.386  28.860  1.00  0.00     0.124 S 
ATOM     80  O   UNL A   1      49.144  37.310  28.743  1.00  0.00    -0.237 OA
ATOM     81  O   UNL A   1      47.000  38.048  27.758  1.00  0.00    -0.237 OA
ATOM     82  O   UNL A   1      47.185  37.700  30.192  1.00  0.00    -0.744 OA
ENDBRANCH  78  79
ENDBRANCH  57  71
BRANCH  58  83
ATOM     83  C   UNL A   1      43.397  23.552  26.956  1.00  0.00     0.058 A 
ATOM     84  C   UNL A   1      43.063  23.109  25.666  1.00  0.00     0.135 A 
ATOM     85  C   UNL A   1      43.297  22.628  28.008  1.00  0.00     0.135 A 
ATOM     86  F   UNL A   1      43.136  23.957  24.629  1.00  0.00    -0.206 F 
ATOM     87  C   UNL A   1      42.633  21.808  25.430  1.00  0.00     0.059 A 
ATOM     88  C   UNL A   1      42.894  21.314  27.793  1.00  0.00     0.059 A 
ATOM     89  F   UNL A   1      43.616  22.997  29.259  1.00  0.00    -0.206 F 
ATOM     90  C   UNL A   1      42.554  20.916  26.501  1.00  0.00     0.060 A 
BRANCH  90  91
ATOM     91  S   UNL A   1      42.037  19.216  26.175  1.00  0.00     0.124 S 
ATOM     92  O   UNL A   1      42.853  18.880  25.013  1.00  0.00    -0.237 OA
ATOM     93  O   UNL A   1      42.391  18.544  27.421  1.00  0.00    -0.237 OA
ATOM     94  O   UNL A   1      40.605  19.344  25.925  1.00  0.00    -0.744 OA
ENDBRANCH  90  91
ENDBRANCH  58  83
BRANCH  70  95
ATOM     95  C   UNL A   1      49.525  26.792  26.161  1.00  0.00     0.058 A 
ATOM     96  C   UNL A   1      49.926  26.859  24.818  1.00  0.00     0.135 A 
ATOM     97  C   UNL A   1      50.454  26.310  27.099  1.00  0.00     0.135 A 
ATOM     98  F   UNL A   1      49.075  27.306  23.881  1.00  0.00    -0.206 F 
ATOM     99  C   UNL A   1      51.191  26.442  24.416  1.00  0.00     0.059 A 
ATOM    100  C   UNL A   1      51.733  25.915  26.724  1.00  0.00     0.059 A 
ATOM    101  F   UNL A   1      50.125  26.235  28.399  1.00  0.00    -0.206 F 
ATOM    102  C   UNL A   1      52.089  25.974  25.377  1.00  0.00     0.060 A 
BRANCH 102 103
ATOM    103  S   UNL A   1      53.740  25.472  24.846  1.00  0.00     0.124 S 
ATOM    104  O   UNL A   1      53.877  26.197  23.588  1.00  0.00    -0.237 OA
ATOM    105  O   UNL A   1      54.577  25.943  25.945  1.00  0.00    -0.237 OA
ATOM    106  O   UNL A   1      53.632  24.021  24.727  1.00  0.00    -0.744 OA
ENDBRANCH 102 103
ENDBRANCH  70  95
ENDBRANCH  44  45
ENDBRANCH  36  39
ENDBRANCH  34  35
ENDBRANCH  33  34
ENDBRANCH   1  33
TORSDOF 19
ENDMDL
