MODEL 1
REMARK VINA RESULT:     -12.5      0.000      0.000
REMARK SMILES CC[C@@H](C)c1nc2cc(C(=O)NCCCCCCNC(=O)c3ccc(-c4c5nc(c(-c6c(F)cc(S(=O)(=O)[O-])cc6F)c6ccc([nH]6)c(-c6c(F)cc(S(=O)(=O)[O-])cc6F)c6nc(c(-c7c(F)cc(S(=O)(=O)[O-])cc7F)c7ccc4[nH]7)C=C6)C=C5)cc3)ccc2n1[C@@H](C)CC
REMARK SMILES IDX 16 1 15 2 14 3 13 4 12 5 10 6 11 7 9 9 5 10 6 11 91 12 7 13
REMARK SMILES IDX 90 14 8 15 89 16 88 17 3 18 4 19 2 20 1 21 92 22 93 23 94 24
REMARK SMILES IDX 95 25 17 26 18 27 19 28 20 29 21 31 22 32 23 33 87 34 24 35
REMARK SMILES IDX 86 36 25 37 26 38 27 39 80 40 28 41 85 42 79 43 81 44 29 45
REMARK SMILES IDX 84 46 78 47 77 48 30 50 64 51 43 52 63 53 44 54 47 55 62 56
REMARK SMILES IDX 82 57 45 58 46 59 61 61 83 62 48 63 31 64 32 65 41 66 33 67
REMARK SMILES IDX 34 68 40 69 42 70 35 71 36 72 37 73 38 74 39 75 65 76 66 77
REMARK SMILES IDX 75 78 67 79 68 80 74 81 76 82 69 83 70 84 71 85 72 86 73 87
REMARK SMILES IDX 49 88 50 89 59 90 51 91 52 92 58 93 60 94 53 95 54 96 55 97
REMARK SMILES IDX 56 98 57 99
REMARK H PARENT 12 8 19 30 81 49 47 60
REMARK Flexibility Score: inf
ROOT
ATOM      1  C   UNL A   1      31.891  29.791  25.087  1.00  0.00     0.002 C 
ENDROOT
BRANCH   1   2
ATOM      2  C   UNL A   1      30.896  28.938  24.290  1.00  0.00     0.002 C 
BRANCH   2   3
ATOM      3  C   UNL A   1      31.404  28.485  22.916  1.00  0.00     0.021 C 
BRANCH   3   4
ATOM      4  C   UNL A   1      31.005  27.045  22.572  1.00  0.00     0.116 C 
BRANCH   4   5
ATOM      5  N   UNL A   1      31.722  26.596  21.389  1.00  0.00    -0.352 N 
ATOM      6  C   UNL A   1      32.639  25.597  21.173  1.00  0.00     0.251 C 
ATOM      7  O   UNL A   1      33.070  25.458  20.027  1.00  0.00    -0.269 OA
ATOM      8  H   UNL A   1      31.506  27.112  20.579  1.00  0.00     0.163 HD
BRANCH   6   9
ATOM      9  C   UNL A   1      33.109  24.664  22.238  1.00  0.00     0.042 A 
ATOM     10  C   UNL A   1      33.260  20.707  24.492  1.00  0.00     0.112 A 
ATOM     11  N   UNL A   1      32.532  21.179  23.488  1.00  0.00    -0.233 NA
ATOM     12  N   UNL A   1      34.033  21.738  25.022  1.00  0.00    -0.325 N 
ATOM     13  C   UNL A   1      32.918  22.472  23.274  1.00  0.00     0.090 A 
ATOM     14  C   UNL A   1      33.880  22.844  24.196  1.00  0.00     0.068 A 
ATOM     15  C   UNL A   1      32.510  23.390  22.291  1.00  0.00     0.044 A 
ATOM     16  C   UNL A   1      34.504  24.096  24.158  1.00  0.00     0.029 A 
ATOM     17  C   UNL A   1      34.134  24.971  23.134  1.00  0.00     0.016 A 
BRANCH  10  18
ATOM     18  C   UNL A   1      33.305  19.212  24.820  1.00  0.00     0.052 C 
ATOM     19  C   UNL A   1      34.734  18.673  24.595  1.00  0.00     0.016 C 
BRANCH  18  20
ATOM     20  C   UNL A   1      32.297  18.348  24.047  1.00  0.00     0.008 C 
ATOM     21  C   UNL A   1      32.830  17.711  22.769  1.00  0.00     0.004 C 
ENDBRANCH  18  20
ENDBRANCH  10  18
BRANCH  12  22
ATOM     22  C   UNL A   1      34.935  21.773  26.171  1.00  0.00     0.085 C 
ATOM     23  C   UNL A   1      36.414  21.818  25.769  1.00  0.00     0.031 C 
BRANCH  22  24
ATOM     24  C   UNL A   1      34.495  22.721  27.298  1.00  0.00     0.022 C 
ATOM     25  C   UNL A   1      33.124  22.327  27.849  1.00  0.00     0.006 C 
ENDBRANCH  22  24
ENDBRANCH  12  22
ENDBRANCH   6   9
ENDBRANCH   4   5
ENDBRANCH   3   4
ENDBRANCH   2   3
ENDBRANCH   1   2
BRANCH   1  26
ATOM     26  C   UNL A   1      31.909  29.532  26.599  1.00  0.00     0.021 C 
BRANCH  26  27
ATOM     27  C   UNL A   1      33.300  29.632  27.228  1.00  0.00     0.116 C 
BRANCH  27  28
ATOM     28  N   UNL A   1      33.551  30.912  27.855  1.00  0.00    -0.352 N 
ATOM     29  C   UNL A   1      34.654  31.524  28.383  1.00  0.00     0.251 C 
ATOM     30  H   UNL A   1      32.742  31.471  27.912  1.00  0.00     0.163 HD
ATOM     31  O   UNL A   1      34.478  32.666  28.818  1.00  0.00    -0.269 OA
BRANCH  29  32
ATOM     32  C   UNL A   1      36.004  30.906  28.507  1.00  0.00     0.039 A 
ATOM     33  C   UNL A   1      36.318  29.573  28.246  1.00  0.00     0.014 A 
ATOM     34  C   UNL A   1      37.036  31.759  28.946  1.00  0.00     0.014 A 
ATOM     35  C   UNL A   1      37.597  29.084  28.491  1.00  0.00     0.010 A 
ATOM     36  C   UNL A   1      38.325  31.283  29.168  1.00  0.00     0.010 A 
ATOM     37  C   UNL A   1      38.594  29.932  28.977  1.00  0.00    -0.014 A 
BRANCH  37  38
ATOM     38  C   UNL A   1      39.923  29.359  29.183  1.00  0.00     0.031 A 
ATOM     39  C   UNL A   1      40.302  29.109  30.606  1.00  0.00     0.074 A 
ATOM     40  C   UNL A   1      40.735  28.977  28.179  1.00  0.00     0.049 A 
ATOM     41  N   UNL A   1      41.271  29.629  31.289  1.00  0.00    -0.248 NA
ATOM     42  C   UNL A   1      39.419  28.236  31.394  1.00  0.00     0.031 C 
ATOM     43  C   UNL A   1      40.433  28.887  26.749  1.00  0.00     0.029 A 
ATOM     44  N   UNL A   1      42.009  28.500  28.257  1.00  0.00    -0.354 N 
ATOM     45  C   UNL A   1      41.240  29.011  32.539  1.00  0.00     0.074 A 
ATOM     46  C   UNL A   1      40.005  28.271  32.591  1.00  0.00     0.031 C 
ATOM     47  C   UNL A   1      41.415  28.193  26.130  1.00  0.00     0.029 A 
ATOM     48  C   UNL A   1      42.471  27.914  27.088  1.00  0.00     0.049 A 
ATOM     49  H   UNL A   1      42.555  28.565  29.074  1.00  0.00     0.167 HD
ATOM     50  C   UNL A   1      42.317  29.003  33.376  1.00  0.00     0.037 A 
ATOM     51  C   UNL A   1      43.614  27.198  26.938  1.00  0.00     0.037 A 
ATOM     52  C   UNL A   1      43.251  30.047  33.044  1.00  0.00     0.049 A 
ATOM     53  C   UNL A   1      44.528  27.597  28.040  1.00  0.00     0.074 A 
ATOM     54  C   UNL A   1      43.191  31.426  32.994  1.00  0.00     0.029 A 
ATOM     55  N   UNL A   1      44.398  29.706  32.369  1.00  0.00    -0.354 N 
ATOM     56  N   UNL A   1      45.053  28.786  28.163  1.00  0.00    -0.248 NA
ATOM     57  C   UNL A   1      44.535  26.787  29.248  1.00  0.00     0.031 C 
ATOM     58  C   UNL A   1      44.013  31.794  31.890  1.00  0.00     0.029 A 
ATOM     59  C   UNL A   1      44.552  30.620  31.359  1.00  0.00     0.049 A 
ATOM     60  H   UNL A   1      44.997  28.950  32.573  1.00  0.00     0.167 HD
ATOM     61  C   UNL A   1      45.084  29.025  29.529  1.00  0.00     0.074 A 
ATOM     62  C   UNL A   1      44.845  27.724  30.147  1.00  0.00     0.031 C 
ATOM     63  C   UNL A   1      45.035  30.294  30.033  1.00  0.00     0.037 A 
BRANCH  50  64
ATOM     64  C   UNL A   1      42.678  27.855  34.296  1.00  0.00     0.058 A 
ATOM     65  C   UNL A   1      42.672  28.052  35.694  1.00  0.00     0.135 A 
ATOM     66  C   UNL A   1      43.304  26.666  33.858  1.00  0.00     0.135 A 
ATOM     67  F   UNL A   1      42.102  29.143  36.231  1.00  0.00    -0.206 F 
ATOM     68  C   UNL A   1      43.317  27.183  36.578  1.00  0.00     0.059 A 
ATOM     69  C   UNL A   1      43.906  25.761  34.724  1.00  0.00     0.059 A 
ATOM     70  F   UNL A   1      43.451  26.372  32.561  1.00  0.00    -0.206 F 
ATOM     71  C   UNL A   1      43.952  26.052  36.077  1.00  0.00     0.060 A 
BRANCH  71  72
ATOM     72  S   UNL A   1      44.912  25.009  37.189  1.00  0.00     0.124 S 
ATOM     73  O   UNL A   1      44.598  23.678  36.679  1.00  0.00    -0.237 OA
ATOM     74  O   UNL A   1      46.271  25.481  36.951  1.00  0.00    -0.237 OA
ATOM     75  O   UNL A   1      44.365  25.327  38.505  1.00  0.00    -0.744 OA
ENDBRANCH  71  72
ENDBRANCH  50  64
BRANCH  51  76
ATOM     76  C   UNL A   1      43.809  25.967  26.127  1.00  0.00     0.058 A 
ATOM     77  C   UNL A   1      45.000  25.743  25.412  1.00  0.00     0.135 A 
ATOM     78  C   UNL A   1      42.947  24.857  26.255  1.00  0.00     0.135 A 
ATOM     79  F   UNL A   1      45.892  26.733  25.260  1.00  0.00    -0.206 F 
ATOM     80  C   UNL A   1      45.335  24.485  24.897  1.00  0.00     0.059 A 
ATOM     81  C   UNL A   1      43.254  23.600  25.739  1.00  0.00     0.059 A 
ATOM     82  F   UNL A   1      41.815  24.935  26.969  1.00  0.00    -0.206 F 
ATOM     83  C   UNL A   1      44.463  23.413  25.084  1.00  0.00     0.060 A 
BRANCH  83  84
ATOM     84  S   UNL A   1      44.965  21.754  24.569  1.00  0.00     0.124 S 
ATOM     85  O   UNL A   1      44.531  21.725  23.177  1.00  0.00    -0.237 OA
ATOM     86  O   UNL A   1      46.408  21.790  24.787  1.00  0.00    -0.237 OA
ATOM     87  O   UNL A   1      44.223  20.879  25.472  1.00  0.00    -0.744 OA
ENDBRANCH  83  84
ENDBRANCH  51  76
BRANCH  63  88
ATOM     88  C   UNL A   1      45.218  31.454  29.088  1.00  0.00     0.058 A 
ATOM     89  C   UNL A   1      46.474  31.945  28.690  1.00  0.00     0.135 A 
ATOM     90  C   UNL A   1      44.095  31.948  28.406  1.00  0.00     0.135 A 
ATOM     91  F   UNL A   1      47.603  31.457  29.220  1.00  0.00    -0.206 F 
ATOM     92  C   UNL A   1      46.607  32.890  27.672  1.00  0.00     0.059 A 
ATOM     93  C   UNL A   1      44.205  32.870  27.366  1.00  0.00     0.059 A 
ATOM     94  F   UNL A   1      42.871  31.476  28.697  1.00  0.00    -0.206 F 
ATOM     95  C   UNL A   1      45.468  33.336  27.004  1.00  0.00     0.060 A 
BRANCH  95  96
ATOM     96  S   UNL A   1      45.657  34.444  25.589  1.00  0.00     0.124 S 
ATOM     97  O   UNL A   1      44.795  33.817  24.589  1.00  0.00    -0.237 OA
ATOM     98  O   UNL A   1      45.177  35.719  26.124  1.00  0.00    -0.237 OA
ATOM     99  O   UNL A   1      47.083  34.399  25.303  1.00  0.00    -0.744 OA
ENDBRANCH  95  96
ENDBRANCH  63  88
ENDBRANCH  37  38
ENDBRANCH  29  32
ENDBRANCH  27  28
ENDBRANCH  26  27
ENDBRANCH   1  26
TORSDOF 20
ENDMDL
MODEL 2
REMARK VINA RESULT:     -12.1      1.106      2.109
REMARK SMILES CC[C@@H](C)c1nc2cc(C(=O)NCCCCCCNC(=O)c3ccc(-c4c5nc(c(-c6c(F)cc(S(=O)(=O)[O-])cc6F)c6ccc([nH]6)c(-c6c(F)cc(S(=O)(=O)[O-])cc6F)c6nc(c(-c7c(F)cc(S(=O)(=O)[O-])cc7F)c7ccc4[nH]7)C=C6)C=C5)cc3)ccc2n1[C@@H](C)CC
REMARK SMILES IDX 16 1 15 2 14 3 13 4 12 5 10 6 11 7 9 9 5 10 6 11 91 12 7 13
REMARK SMILES IDX 90 14 8 15 89 16 88 17 3 18 4 19 2 20 1 21 92 22 93 23 94 24
REMARK SMILES IDX 95 25 17 26 18 27 19 28 20 29 21 31 22 32 23 33 87 34 24 35
REMARK SMILES IDX 86 36 25 37 26 38 27 39 80 40 28 41 85 42 79 43 81 44 29 45
REMARK SMILES IDX 84 46 78 47 77 48 30 50 64 51 43 52 63 53 44 54 47 55 62 56
REMARK SMILES IDX 82 57 45 58 46 59 61 61 83 62 48 63 31 64 32 65 41 66 33 67
REMARK SMILES IDX 34 68 40 69 42 70 35 71 36 72 37 73 38 74 39 75 65 76 66 77
REMARK SMILES IDX 75 78 67 79 68 80 74 81 76 82 69 83 70 84 71 85 72 86 73 87
REMARK SMILES IDX 49 88 50 89 59 90 51 91 52 92 58 93 60 94 53 95 54 96 55 97
REMARK SMILES IDX 56 98 57 99
REMARK H PARENT 12 8 19 30 81 49 47 60
REMARK Flexibility Score: inf
ROOT
ATOM      1  C   UNL A   1      33.774  28.206  26.089  1.00  0.00     0.002 C 
ENDROOT
BRANCH   1   2
ATOM      2  C   UNL A   1      32.398  28.490  25.473  1.00  0.00     0.002 C 
BRANCH   2   3
ATOM      3  C   UNL A   1      32.362  28.435  23.941  1.00  0.00     0.021 C 
BRANCH   3   4
ATOM      4  C   UNL A   1      30.995  28.018  23.386  1.00  0.00     0.116 C 
BRANCH   4   5
ATOM      5  N   UNL A   1      31.149  27.432  22.064  1.00  0.00    -0.352 N 
ATOM      6  C   UNL A   1      31.638  26.228  21.625  1.00  0.00     0.251 C 
ATOM      7  O   UNL A   1      31.629  26.018  20.411  1.00  0.00    -0.269 OA
ATOM      8  H   UNL A   1      30.838  28.018  21.336  1.00  0.00     0.163 HD
BRANCH   6   9
ATOM      9  C   UNL A   1      32.147  25.162  22.536  1.00  0.00     0.042 A 
ATOM     10  C   UNL A   1      35.363  22.704  24.629  1.00  0.00     0.112 A 
ATOM     11  N   UNL A   1      35.374  23.658  23.707  1.00  0.00    -0.233 NA
ATOM     12  N   UNL A   1      34.048  22.314  24.871  1.00  0.00    -0.325 N 
ATOM     13  C   UNL A   1      34.074  23.985  23.439  1.00  0.00     0.090 A 
ATOM     14  C   UNL A   1      33.218  23.185  24.176  1.00  0.00     0.068 A 
ATOM     15  C   UNL A   1      33.542  24.975  22.596  1.00  0.00     0.044 A 
ATOM     16  C   UNL A   1      31.830  23.358  24.149  1.00  0.00     0.029 A 
ATOM     17  C   UNL A   1      31.323  24.391  23.357  1.00  0.00     0.016 A 
BRANCH  10  18
ATOM     18  C   UNL A   1      36.635  22.295  25.378  1.00  0.00     0.052 C 
ATOM     19  C   UNL A   1      37.447  23.554  25.749  1.00  0.00     0.016 C 
BRANCH  18  20
ATOM     20  C   UNL A   1      37.535  21.300  24.630  1.00  0.00     0.008 C 
ATOM     21  C   UNL A   1      37.293  19.831  24.955  1.00  0.00     0.004 C 
ENDBRANCH  18  20
ENDBRANCH  10  18
BRANCH  12  22
ATOM     22  C   UNL A   1      33.495  21.264  25.723  1.00  0.00     0.085 C 
ATOM     23  C   UNL A   1      33.553  19.876  25.076  1.00  0.00     0.031 C 
BRANCH  22  24
ATOM     24  C   UNL A   1      33.911  21.358  27.200  1.00  0.00     0.022 C 
ATOM     25  C   UNL A   1      33.038  22.359  27.959  1.00  0.00     0.006 C 
ENDBRANCH  22  24
ENDBRANCH  12  22
ENDBRANCH   6   9
ENDBRANCH   4   5
ENDBRANCH   3   4
ENDBRANCH   2   3
ENDBRANCH   1   2
BRANCH   1  26
ATOM     26  C   UNL A   1      34.113  29.027  27.339  1.00  0.00     0.021 C 
BRANCH  26  27
ATOM     27  C   UNL A   1      34.161  30.536  27.095  1.00  0.00     0.116 C 
BRANCH  27  28
ATOM     28  N   UNL A   1      34.107  31.313  28.316  1.00  0.00    -0.352 N 
ATOM     29  C   UNL A   1      34.995  31.589  29.319  1.00  0.00     0.251 C 
ATOM     30  H   UNL A   1      33.231  31.741  28.455  1.00  0.00     0.163 HD
ATOM     31  O   UNL A   1      34.581  32.336  30.210  1.00  0.00    -0.269 OA
BRANCH  29  32
ATOM     32  C   UNL A   1      36.372  31.032  29.428  1.00  0.00     0.039 A 
ATOM     33  C   UNL A   1      37.553  31.712  29.132  1.00  0.00     0.014 A 
ATOM     34  C   UNL A   1      36.464  29.690  29.849  1.00  0.00     0.014 A 
ATOM     35  C   UNL A   1      38.779  31.056  29.176  1.00  0.00     0.010 A 
ATOM     36  C   UNL A   1      37.691  29.036  29.921  1.00  0.00     0.010 A 
ATOM     37  C   UNL A   1      38.846  29.712  29.545  1.00  0.00    -0.014 A 
BRANCH  37  38
ATOM     38  C   UNL A   1      40.170  29.095  29.600  1.00  0.00     0.031 A 
ATOM     39  C   UNL A   1      40.766  28.973  30.964  1.00  0.00     0.074 A 
ATOM     40  C   UNL A   1      40.796  28.571  28.528  1.00  0.00     0.049 A 
ATOM     41  N   UNL A   1      41.850  29.509  31.425  1.00  0.00    -0.248 NA
ATOM     42  C   UNL A   1      39.993  28.231  31.972  1.00  0.00     0.031 C 
ATOM     43  C   UNL A   1      40.263  28.352  27.182  1.00  0.00     0.029 A 
ATOM     44  N   UNL A   1      42.048  28.040  28.456  1.00  0.00    -0.354 N 
ATOM     45  C   UNL A   1      42.001  29.024  32.724  1.00  0.00     0.074 A 
ATOM     46  C   UNL A   1      40.766  28.358  33.050  1.00  0.00     0.031 C 
ATOM     47  C   UNL A   1      41.107  27.548  26.495  1.00  0.00     0.029 A 
ATOM     48  C   UNL A   1      42.294  27.314  27.300  1.00  0.00     0.049 A 
ATOM     49  H   UNL A   1      42.721  28.160  29.164  1.00  0.00     0.167 HD
ATOM     50  C   UNL A   1      43.199  29.046  33.377  1.00  0.00     0.037 A 
ATOM     51  C   UNL A   1      43.373  26.530  27.050  1.00  0.00     0.037 A 
ATOM     52  C   UNL A   1      44.102  30.001  32.790  1.00  0.00     0.049 A 
ATOM     53  C   UNL A   1      44.466  26.991  27.944  1.00  0.00     0.074 A 
ATOM     54  C   UNL A   1      44.083  31.369  32.600  1.00  0.00     0.029 A 
ATOM     55  N   UNL A   1      45.112  29.535  31.984  1.00  0.00    -0.354 N 
ATOM     56  N   UNL A   1      45.045  28.158  27.853  1.00  0.00    -0.248 NA
ATOM     57  C   UNL A   1      44.641  26.309  29.217  1.00  0.00     0.031 C 
ATOM     58  C   UNL A   1      44.726  31.580  31.347  1.00  0.00     0.029 A 
ATOM     59  C   UNL A   1      45.131  30.331  30.868  1.00  0.00     0.049 A 
ATOM     60  H   UNL A   1      45.709  28.774  32.172  1.00  0.00     0.167 HD
ATOM     61  C   UNL A   1      45.305  28.533  29.163  1.00  0.00     0.074 A 
ATOM     62  C   UNL A   1      45.124  27.316  29.948  1.00  0.00     0.031 C 
ATOM     63  C   UNL A   1      45.381  29.848  29.527  1.00  0.00     0.037 A 
BRANCH  50  64
ATOM     64  C   UNL A   1      43.665  27.981  34.347  1.00  0.00     0.058 A 
ATOM     65  C   UNL A   1      44.096  28.354  35.640  1.00  0.00     0.135 A 
ATOM     66  C   UNL A   1      43.975  26.656  33.968  1.00  0.00     0.135 A 
ATOM     67  F   UNL A   1      43.855  29.587  36.114  1.00  0.00    -0.206 F 
ATOM     68  C   UNL A   1      44.856  27.507  36.451  1.00  0.00     0.059 A 
ATOM     69  C   UNL A   1      44.685  25.779  34.781  1.00  0.00     0.059 A 
ATOM     70  F   UNL A   1      43.694  26.176  32.752  1.00  0.00    -0.206 F 
ATOM     71  C   UNL A   1      45.165  26.229  36.000  1.00  0.00     0.060 A 
BRANCH  71  72
ATOM     72  S   UNL A   1      46.267  25.188  36.972  1.00  0.00     0.124 S 
ATOM     73  O   UNL A   1      46.444  25.998  38.173  1.00  0.00    -0.237 OA
ATOM     74  O   UNL A   1      45.476  23.973  37.131  1.00  0.00    -0.237 OA
ATOM     75  O   UNL A   1      47.445  25.056  36.120  1.00  0.00    -0.744 OA
ENDBRANCH  71  72
ENDBRANCH  50  64
BRANCH  51  76
ATOM     76  C   UNL A   1      43.390  25.213  26.357  1.00  0.00     0.058 A 
ATOM     77  C   UNL A   1      44.245  24.973  25.265  1.00  0.00     0.135 A 
ATOM     78  C   UNL A   1      42.774  24.076  26.921  1.00  0.00     0.135 A 
ATOM     79  F   UNL A   1      44.894  25.991  24.681  1.00  0.00    -0.206 F 
ATOM     80  C   UNL A   1      44.506  23.682  24.792  1.00  0.00     0.059 A 
ATOM     81  C   UNL A   1      43.009  22.784  26.458  1.00  0.00     0.059 A 
ATOM     82  F   UNL A   1      41.991  24.175  28.005  1.00  0.00    -0.206 F 
ATOM     83  C   UNL A   1      43.898  22.589  25.410  1.00  0.00     0.060 A 
BRANCH  83  84
ATOM     84  S   UNL A   1      44.359  20.913  24.915  1.00  0.00     0.124 S 
ATOM     85  O   UNL A   1      45.610  20.718  25.637  1.00  0.00    -0.237 OA
ATOM     86  O   UNL A   1      43.220  20.131  25.385  1.00  0.00    -0.237 OA
ATOM     87  O   UNL A   1      44.486  21.011  23.463  1.00  0.00    -0.744 OA
ENDBRANCH  83  84
ENDBRANCH  51  76
BRANCH  63  88
ATOM     88  C   UNL A   1      45.449  30.895  28.444  1.00  0.00     0.058 A 
ATOM     89  C   UNL A   1      44.315  31.499  27.872  1.00  0.00     0.135 A 
ATOM     90  C   UNL A   1      46.697  31.451  28.126  1.00  0.00     0.135 A 
ATOM     91  F   UNL A   1      43.080  31.094  28.198  1.00  0.00    -0.206 F 
ATOM     92  C   UNL A   1      44.418  32.595  27.015  1.00  0.00     0.059 A 
ATOM     93  C   UNL A   1      46.822  32.564  27.296  1.00  0.00     0.059 A 
ATOM     94  F   UNL A   1      47.815  30.959  28.686  1.00  0.00    -0.206 F 
ATOM     95  C   UNL A   1      45.674  33.132  26.744  1.00  0.00     0.060 A 
BRANCH  95  96
ATOM     96  S   UNL A   1      45.790  34.640  25.755  1.00  0.00     0.124 S 
ATOM     97  O   UNL A   1      45.038  35.597  26.564  1.00  0.00    -0.237 OA
ATOM     98  O   UNL A   1      47.236  34.865  25.695  1.00  0.00    -0.237 OA
ATOM     99  O   UNL A   1      45.175  34.271  24.490  1.00  0.00    -0.744 OA
ENDBRANCH  95  96
ENDBRANCH  63  88
ENDBRANCH  37  38
ENDBRANCH  29  32
ENDBRANCH  27  28
ENDBRANCH  26  27
ENDBRANCH   1  26
TORSDOF 20
ENDMDL
MODEL 3
REMARK VINA RESULT:     -11.2      3.127      7.450
REMARK SMILES CC[C@@H](C)c1nc2cc(C(=O)NCCCCCCNC(=O)c3ccc(-c4c5nc(c(-c6c(F)cc(S(=O)(=O)[O-])cc6F)c6ccc([nH]6)c(-c6c(F)cc(S(=O)(=O)[O-])cc6F)c6nc(c(-c7c(F)cc(S(=O)(=O)[O-])cc7F)c7ccc4[nH]7)C=C6)C=C5)cc3)ccc2n1[C@@H](C)CC
REMARK SMILES IDX 16 1 15 2 14 3 13 4 12 5 10 6 11 7 9 9 5 10 6 11 91 12 7 13
REMARK SMILES IDX 90 14 8 15 89 16 88 17 3 18 4 19 2 20 1 21 92 22 93 23 94 24
REMARK SMILES IDX 95 25 17 26 18 27 19 28 20 29 21 31 22 32 23 33 87 34 24 35
REMARK SMILES IDX 86 36 25 37 26 38 27 39 80 40 28 41 85 42 79 43 81 44 29 45
REMARK SMILES IDX 84 46 78 47 77 48 30 50 64 51 43 52 63 53 44 54 47 55 62 56
REMARK SMILES IDX 82 57 45 58 46 59 61 61 83 62 48 63 31 64 32 65 41 66 33 67
REMARK SMILES IDX 34 68 40 69 42 70 35 71 36 72 37 73 38 74 39 75 65 76 66 77
REMARK SMILES IDX 75 78 67 79 68 80 74 81 76 82 69 83 70 84 71 85 72 86 73 87
REMARK SMILES IDX 49 88 50 89 59 90 51 91 52 92 58 93 60 94 53 95 54 96 55 97
REMARK SMILES IDX 56 98 57 99
REMARK H PARENT 12 8 19 30 81 49 47 60
REMARK Flexibility Score: inf
ROOT
ATOM      1  C   UNL A   1      31.980  29.864  26.828  1.00  0.00     0.002 C 
ENDROOT
BRANCH   1   2
ATOM      2  C   UNL A   1      31.530  29.785  25.363  1.00  0.00     0.002 C 
BRANCH   2   3
ATOM      3  C   UNL A   1      31.965  28.509  24.632  1.00  0.00     0.021 C 
BRANCH   3   4
ATOM      4  C   UNL A   1      30.788  27.601  24.255  1.00  0.00     0.116 C 
BRANCH   4   5
ATOM      5  N   UNL A   1      30.811  27.318  22.829  1.00  0.00    -0.352 N 
ATOM      6  C   UNL A   1      31.445  26.363  22.074  1.00  0.00     0.251 C 
ATOM      7  O   UNL A   1      31.255  26.381  20.857  1.00  0.00    -0.269 OA
ATOM      8  H   UNL A   1      30.259  27.936  22.297  1.00  0.00     0.163 HD
BRANCH   6   9
ATOM      9  C   UNL A   1      32.317  25.300  22.651  1.00  0.00     0.042 A 
ATOM     10  C   UNL A   1      33.274  21.106  24.156  1.00  0.00     0.112 A 
ATOM     11  N   UNL A   1      32.174  21.713  23.728  1.00  0.00    -0.233 NA
ATOM     12  N   UNL A   1      34.295  22.045  24.283  1.00  0.00    -0.325 N 
ATOM     13  C   UNL A   1      32.502  23.010  23.450  1.00  0.00     0.090 A 
ATOM     14  C   UNL A   1      33.832  23.243  23.755  1.00  0.00     0.068 A 
ATOM     15  C   UNL A   1      31.725  24.047  22.907  1.00  0.00     0.044 A 
ATOM     16  C   UNL A   1      34.451  24.471  23.497  1.00  0.00     0.029 A 
ATOM     17  C   UNL A   1      33.681  25.469  22.895  1.00  0.00     0.016 A 
BRANCH  10  18
ATOM     18  C   UNL A   1      33.352  19.583  24.288  1.00  0.00     0.052 C 
ATOM     19  C   UNL A   1      32.527  18.921  23.164  1.00  0.00     0.016 C 
BRANCH  18  20
ATOM     20  C   UNL A   1      32.912  19.026  25.650  1.00  0.00     0.008 C 
ATOM     21  C   UNL A   1      32.561  17.543  25.666  1.00  0.00     0.004 C 
ENDBRANCH  18  20
ENDBRANCH  10  18
BRANCH  12  22
ATOM     22  C   UNL A   1      35.662  21.920  24.783  1.00  0.00     0.085 C 
ATOM     23  C   UNL A   1      36.720  22.174  23.704  1.00  0.00     0.031 C 
BRANCH  22  24
ATOM     24  C   UNL A   1      35.900  22.572  26.154  1.00  0.00     0.022 C 
ATOM     25  C   UNL A   1      36.915  23.713  26.057  1.00  0.00     0.006 C 
ENDBRANCH  22  24
ENDBRANCH  12  22
ENDBRANCH   6   9
ENDBRANCH   4   5
ENDBRANCH   3   4
ENDBRANCH   2   3
ENDBRANCH   1   2
BRANCH   1  26
ATOM     26  C   UNL A   1      32.536  31.223  27.268  1.00  0.00     0.021 C 
BRANCH  26  27
ATOM     27  C   UNL A   1      31.834  32.419  26.624  1.00  0.00     0.116 C 
BRANCH  27  28
ATOM     28  N   UNL A   1      31.877  33.614  27.441  1.00  0.00    -0.352 N 
ATOM     29  C   UNL A   1      32.813  34.189  28.255  1.00  0.00     0.251 C 
ATOM     30  H   UNL A   1      31.039  34.130  27.400  1.00  0.00     0.163 HD
ATOM     31  O   UNL A   1      32.483  35.256  28.781  1.00  0.00    -0.269 OA
BRANCH  29  32
ATOM     32  C   UNL A   1      34.148  33.610  28.574  1.00  0.00     0.039 A 
ATOM     33  C   UNL A   1      34.462  32.862  29.709  1.00  0.00     0.014 A 
ATOM     34  C   UNL A   1      35.174  33.871  27.644  1.00  0.00     0.014 A 
ATOM     35  C   UNL A   1      35.770  32.456  29.950  1.00  0.00     0.010 A 
ATOM     36  C   UNL A   1      36.480  33.445  27.867  1.00  0.00     0.010 A 
ATOM     37  C   UNL A   1      36.784  32.770  29.044  1.00  0.00    -0.014 A 
BRANCH  37  38
ATOM     38  C   UNL A   1      38.130  32.285  29.346  1.00  0.00     0.031 A 
ATOM     39  C   UNL A   1      38.355  30.827  29.111  1.00  0.00     0.074 A 
ATOM     40  C   UNL A   1      39.147  33.085  29.715  1.00  0.00     0.049 A 
ATOM     41  N   UNL A   1      38.672  29.908  29.966  1.00  0.00    -0.248 NA
ATOM     42  C   UNL A   1      38.094  30.315  27.757  1.00  0.00     0.031 C 
ATOM     43  C   UNL A   1      39.193  34.549  29.731  1.00  0.00     0.029 A 
ATOM     44  N   UNL A   1      40.410  32.732  30.084  1.00  0.00    -0.354 N 
ATOM     45  C   UNL A   1      38.838  28.734  29.232  1.00  0.00     0.074 A 
ATOM     46  C   UNL A   1      38.338  29.013  27.910  1.00  0.00     0.031 C 
ATOM     47  C   UNL A   1      40.474  34.952  29.885  1.00  0.00     0.029 A 
ATOM     48  C   UNL A   1      41.311  33.787  30.116  1.00  0.00     0.049 A 
ATOM     49  H   UNL A   1      40.663  31.808  30.307  1.00  0.00     0.167 HD
ATOM     50  C   UNL A   1      39.541  27.667  29.709  1.00  0.00     0.037 A 
ATOM     51  C   UNL A   1      42.657  33.698  30.262  1.00  0.00     0.037 A 
ATOM     52  C   UNL A   1      39.664  27.716  31.143  1.00  0.00     0.049 A 
ATOM     53  C   UNL A   1      42.942  32.392  30.912  1.00  0.00     0.074 A 
ATOM     54  C   UNL A   1      38.771  27.708  32.196  1.00  0.00     0.029 A 
ATOM     55  N   UNL A   1      40.862  28.116  31.682  1.00  0.00    -0.354 N 
ATOM     56  N   UNL A   1      42.589  32.089  32.132  1.00  0.00    -0.248 NA
ATOM     57  C   UNL A   1      43.262  31.260  30.058  1.00  0.00     0.031 C 
ATOM     58  C   UNL A   1      39.346  28.567  33.177  1.00  0.00     0.029 A 
ATOM     59  C   UNL A   1      40.570  29.014  32.677  1.00  0.00     0.049 A 
ATOM     60  H   UNL A   1      41.759  27.815  31.408  1.00  0.00     0.167 HD
ATOM     61  C   UNL A   1      42.253  30.744  32.084  1.00  0.00     0.074 A 
ATOM     62  C   UNL A   1      42.779  30.267  30.809  1.00  0.00     0.031 C 
ATOM     63  C   UNL A   1      41.350  30.202  32.954  1.00  0.00     0.037 A 
BRANCH  50  64
ATOM     64  C   UNL A   1      40.387  26.748  28.854  1.00  0.00     0.058 A 
ATOM     65  C   UNL A   1      39.942  25.434  28.589  1.00  0.00     0.135 A 
ATOM     66  C   UNL A   1      41.738  27.003  28.528  1.00  0.00     0.135 A 
ATOM     67  F   UNL A   1      38.676  25.073  28.853  1.00  0.00    -0.206 F 
ATOM     68  C   UNL A   1      40.797  24.431  28.125  1.00  0.00     0.059 A 
ATOM     69  C   UNL A   1      42.592  26.033  28.015  1.00  0.00     0.059 A 
ATOM     70  F   UNL A   1      42.325  28.178  28.783  1.00  0.00    -0.206 F 
ATOM     71  C   UNL A   1      42.128  24.738  27.864  1.00  0.00     0.060 A 
BRANCH  71  72
ATOM     72  S   UNL A   1      43.269  23.420  27.410  1.00  0.00     0.124 S 
ATOM     73  O   UNL A   1      42.933  23.220  26.004  1.00  0.00    -0.237 OA
ATOM     74  O   UNL A   1      44.564  24.034  27.678  1.00  0.00    -0.237 OA
ATOM     75  O   UNL A   1      42.899  22.330  28.308  1.00  0.00    -0.744 OA
ENDBRANCH  71  72
ENDBRANCH  50  64
BRANCH  51  76
ATOM     76  C   UNL A   1      43.696  34.502  29.564  1.00  0.00     0.058 A 
ATOM     77  C   UNL A   1      43.969  34.313  28.196  1.00  0.00     0.135 A 
ATOM     78  C   UNL A   1      44.249  35.659  30.150  1.00  0.00     0.135 A 
ATOM     79  F   UNL A   1      43.463  33.253  27.548  1.00  0.00    -0.206 F 
ATOM     80  C   UNL A   1      44.706  35.238  27.448  1.00  0.00     0.059 A 
ATOM     81  C   UNL A   1      44.998  36.586  29.428  1.00  0.00     0.059 A 
ATOM     82  F   UNL A   1      44.003  35.977  31.429  1.00  0.00    -0.206 F 
ATOM     83  C   UNL A   1      45.200  36.385  28.070  1.00  0.00     0.060 A 
BRANCH  83  84
ATOM     84  S   UNL A   1      46.007  37.662  27.077  1.00  0.00     0.124 S 
ATOM     85  O   UNL A   1      46.586  36.879  25.991  1.00  0.00    -0.237 OA
ATOM     86  O   UNL A   1      44.885  38.522  26.715  1.00  0.00    -0.237 OA
ATOM     87  O   UNL A   1      46.969  38.254  28.001  1.00  0.00    -0.744 OA
ENDBRANCH  83  84
ENDBRANCH  51  76
BRANCH  63  88
ATOM     88  C   UNL A   1      40.918  31.017  34.147  1.00  0.00     0.058 A 
ATOM     89  C   UNL A   1      39.849  31.930  34.122  1.00  0.00     0.135 A 
ATOM     90  C   UNL A   1      41.466  30.711  35.403  1.00  0.00     0.135 A 
ATOM     91  F   UNL A   1      39.204  32.205  32.980  1.00  0.00    -0.206 F 
ATOM     92  C   UNL A   1      39.357  32.521  35.286  1.00  0.00     0.059 A 
ATOM     93  C   UNL A   1      40.972  31.266  36.582  1.00  0.00     0.059 A 
ATOM     94  F   UNL A   1      42.449  29.801  35.503  1.00  0.00    -0.206 F 
ATOM     95  C   UNL A   1      39.914  32.172  36.514  1.00  0.00     0.060 A 
BRANCH  95  96
ATOM     96  S   UNL A   1      39.177  32.824  38.030  1.00  0.00     0.124 S 
ATOM     97  O   UNL A   1      38.127  31.845  38.308  1.00  0.00    -0.237 OA
ATOM     98  O   UNL A   1      40.309  32.814  38.958  1.00  0.00    -0.237 OA
ATOM     99  O   UNL A   1      38.711  34.147  37.646  1.00  0.00    -0.744 OA
ENDBRANCH  95  96
ENDBRANCH  63  88
ENDBRANCH  37  38
ENDBRANCH  29  32
ENDBRANCH  27  28
ENDBRANCH  26  27
ENDBRANCH   1  26
TORSDOF 20
ENDMDL
