MODEL 1
REMARK VINA RESULT:     -10.6      0.000      0.000
REMARK SMILES C[C@@H](C(=O)NCCCCCCNC(=O)c1ccc(-c2c3nc(c(-c4c(F)cc(S(=O)(=O)[O-])cc4F)c4ccc([nH]4)c(-c4c(F)cc(S(=O)(=O)[O-])cc4F)c4nc(c(-c5c(F)cc(S(=O)(=O)[O-])cc5F)c5ccc2[nH]5)C=C4)C=C3)cc1)c1ccc(C[C@H]2CCC[C@H]2O)cc1
REMARK SMILES IDX 8 1 7 2 6 3 5 4 3 5 4 6 2 8 1 9 81 10 82 11 93 12 83 13
REMARK SMILES IDX 92 14 84 15 85 16 86 17 87 18 90 19 88 20 89 21 91 22 9 24
REMARK SMILES IDX 10 25 11 26 12 27 13 28 14 30 15 31 16 32 80 33 17 34 79 35
REMARK SMILES IDX 18 36 19 37 20 38 73 39 21 40 78 41 72 42 74 43 22 44 77 45
REMARK SMILES IDX 71 46 70 47 23 49 57 50 36 51 56 52 37 53 40 54 55 55 75 56
REMARK SMILES IDX 38 57 39 58 54 60 76 61 41 62 24 63 25 64 34 65 26 66 27 67
REMARK SMILES IDX 33 68 35 69 28 70 29 71 30 72 31 73 32 74 58 75 59 76 68 77
REMARK SMILES IDX 60 78 61 79 67 80 69 81 62 82 63 83 64 84 65 85 66 86 42 87
REMARK SMILES IDX 43 88 52 89 44 90 45 91 51 92 53 93 46 94 47 95 48 96 49 97
REMARK SMILES IDX 50 98
REMARK H PARENT 5 7 91 23 12 29 74 48 40 59
REMARK Flexibility Score: inf
ROOT
ATOM      1  C   UNL A   1      31.643  25.782  26.330  1.00  0.00     0.002 C 
ENDROOT
BRANCH   1   2
ATOM      2  C   UNL A   1      32.786  24.771  26.496  1.00  0.00     0.021 C 
BRANCH   2   3
ATOM      3  C   UNL A   1      32.746  23.636  25.467  1.00  0.00     0.116 C 
BRANCH   3   4
ATOM      4  N   UNL A   1      33.952  23.666  24.670  1.00  0.00    -0.356 N 
ATOM      5  C   UNL A   1      34.095  23.519  23.321  1.00  0.00     0.227 C 
ATOM      6  O   UNL A   1      35.225  23.255  22.906  1.00  0.00    -0.274 OA
ATOM      7  H   UNL A   1      34.787  23.814  25.170  1.00  0.00     0.163 HD
BRANCH   5   8
ATOM      8  C   UNL A   1      32.887  23.758  22.399  1.00  0.00     0.105 C 
ATOM      9  C   UNL A   1      33.144  23.299  20.959  1.00  0.00     0.023 C 
BRANCH   8  10
ATOM     10  C   UNL A   1      32.407  25.204  22.492  1.00  0.00    -0.036 A 
ATOM     11  C   UNL A   1      33.336  26.236  22.292  1.00  0.00     0.005 A 
ATOM     12  C   UNL A   1      31.078  25.553  22.765  1.00  0.00     0.005 A 
ATOM     13  C   UNL A   1      32.961  27.569  22.428  1.00  0.00     0.004 A 
ATOM     14  C   UNL A   1      30.715  26.887  22.948  1.00  0.00     0.004 A 
ATOM     15  C   UNL A   1      31.669  27.904  22.839  1.00  0.00    -0.048 A 
BRANCH  15  16
ATOM     16  C   UNL A   1      31.324  29.319  23.221  1.00  0.00     0.041 C 
BRANCH  16  17
ATOM     17  C   UNL A   1      29.823  29.648  23.345  1.00  0.00     0.022 C 
ATOM     18  C   UNL A   1      29.470  30.962  24.067  1.00  0.00     0.007 C 
ATOM     19  C   UNL A   1      28.972  29.670  22.065  1.00  0.00     0.117 C 
ATOM     20  C   UNL A   1      28.146  31.439  23.461  1.00  0.00     0.003 C 
ATOM     21  C   UNL A   1      27.676  30.315  22.541  1.00  0.00     0.032 C 
BRANCH  19  22
ATOM     22  O   UNL A   1      29.493  30.452  21.006  1.00  0.00    -0.393 OA
ATOM     23  H   UNL A   1      30.152  29.935  20.517  1.00  0.00     0.210 HD
ENDBRANCH  19  22
ENDBRANCH  16  17
ENDBRANCH  15  16
ENDBRANCH   8  10
ENDBRANCH   5   8
ENDBRANCH   3   4
ENDBRANCH   2   3
ENDBRANCH   1   2
BRANCH   1  24
ATOM     24  C   UNL A   1      32.089  27.245  26.288  1.00  0.00     0.002 C 
BRANCH  24  25
ATOM     25  C   UNL A   1      33.590  27.454  26.502  1.00  0.00     0.021 C 
BRANCH  25  26
ATOM     26  C   UNL A   1      34.180  28.598  25.687  1.00  0.00     0.116 C 
BRANCH  26  27
ATOM     27  N   UNL A   1      33.787  29.894  26.218  1.00  0.00    -0.352 N 
ATOM     28  C   UNL A   1      34.296  30.577  27.295  1.00  0.00     0.251 C 
ATOM     29  H   UNL A   1      33.054  30.344  25.738  1.00  0.00     0.163 HD
ATOM     30  O   UNL A   1      33.698  31.547  27.746  1.00  0.00    -0.269 OA
BRANCH  28  31
ATOM     31  C   UNL A   1      35.558  30.121  27.913  1.00  0.00     0.039 A 
ATOM     32  C   UNL A   1      36.770  30.448  27.303  1.00  0.00     0.014 A 
ATOM     33  C   UNL A   1      35.543  29.373  29.096  1.00  0.00     0.014 A 
ATOM     34  C   UNL A   1      37.970  30.072  27.910  1.00  0.00     0.010 A 
ATOM     35  C   UNL A   1      36.739  29.069  29.738  1.00  0.00     0.010 A 
ATOM     36  C   UNL A   1      37.965  29.408  29.149  1.00  0.00    -0.014 A 
BRANCH  36  37
ATOM     37  C   UNL A   1      39.233  29.061  29.840  1.00  0.00     0.031 A 
ATOM     38  C   UNL A   1      39.673  29.844  31.049  1.00  0.00     0.074 A 
ATOM     39  C   UNL A   1      40.013  28.079  29.349  1.00  0.00     0.049 A 
ATOM     40  N   UNL A   1      40.770  29.732  31.751  1.00  0.00    -0.248 NA
ATOM     41  C   UNL A   1      38.772  30.912  31.514  1.00  0.00     0.031 C 
ATOM     42  C   UNL A   1      39.716  27.279  28.158  1.00  0.00     0.029 A 
ATOM     43  N   UNL A   1      41.219  27.589  29.782  1.00  0.00    -0.354 N 
ATOM     44  C   UNL A   1      40.696  30.712  32.733  1.00  0.00     0.074 A 
ATOM     45  C   UNL A   1      39.476  31.453  32.498  1.00  0.00     0.031 C 
ATOM     46  C   UNL A   1      40.699  26.384  27.972  1.00  0.00     0.029 A 
ATOM     47  C   UNL A   1      41.716  26.572  29.000  1.00  0.00     0.049 A 
ATOM     48  H   UNL A   1      41.686  27.933  30.579  1.00  0.00     0.167 HD
ATOM     49  C   UNL A   1      41.552  30.957  33.753  1.00  0.00     0.037 A 
ATOM     50  C   UNL A   1      42.867  25.877  29.096  1.00  0.00     0.037 A 
ATOM     51  C   UNL A   1      42.758  30.206  33.988  1.00  0.00     0.049 A 
ATOM     52  C   UNL A   1      43.814  26.182  30.226  1.00  0.00     0.074 A 
ATOM     53  C   UNL A   1      43.670  30.344  35.020  1.00  0.00     0.029 A 
ATOM     54  N   UNL A   1      43.222  29.177  33.181  1.00  0.00    -0.354 N 
ATOM     55  N   UNL A   1      43.696  27.073  31.183  1.00  0.00    -0.248 NA
ATOM     56  C   UNL A   1      45.045  25.384  30.296  1.00  0.00     0.031 C 
ATOM     57  C   UNL A   1      44.712  29.436  34.807  1.00  0.00     0.029 A 
ATOM     58  C   UNL A   1      44.419  28.688  33.678  1.00  0.00     0.049 A 
ATOM     59  H   UNL A   1      42.767  28.843  32.374  1.00  0.00     0.167 HD
ATOM     60  C   UNL A   1      44.822  26.921  31.984  1.00  0.00     0.074 A 
ATOM     61  C   UNL A   1      45.601  25.843  31.408  1.00  0.00     0.031 C 
ATOM     62  C   UNL A   1      45.180  27.608  33.098  1.00  0.00     0.037 A 
BRANCH  49  63
ATOM     63  C   UNL A   1      41.213  32.081  34.697  1.00  0.00     0.058 A 
ATOM     64  C   UNL A   1      41.512  33.418  34.388  1.00  0.00     0.135 A 
ATOM     65  C   UNL A   1      40.550  31.824  35.907  1.00  0.00     0.135 A 
ATOM     66  F   UNL A   1      42.161  33.722  33.252  1.00  0.00    -0.206 F 
ATOM     67  C   UNL A   1      41.194  34.455  35.258  1.00  0.00     0.059 A 
ATOM     68  C   UNL A   1      40.192  32.849  36.779  1.00  0.00     0.059 A 
ATOM     69  F   UNL A   1      40.238  30.565  36.254  1.00  0.00    -0.206 F 
ATOM     70  C   UNL A   1      40.532  34.161  36.452  1.00  0.00     0.060 A 
BRANCH  70  71
ATOM     71  S   UNL A   1      40.121  35.520  37.566  1.00  0.00     0.124 S 
ATOM     72  O   UNL A   1      40.045  36.645  36.637  1.00  0.00    -0.237 OA
ATOM     73  O   UNL A   1      38.850  35.083  38.135  1.00  0.00    -0.237 OA
ATOM     74  O   UNL A   1      41.245  35.551  38.495  1.00  0.00    -0.744 OA
ENDBRANCH  70  71
ENDBRANCH  49  63
BRANCH  50  75
ATOM     75  C   UNL A   1      43.181  24.814  28.102  1.00  0.00     0.058 A 
ATOM     76  C   UNL A   1      43.835  25.119  26.900  1.00  0.00     0.135 A 
ATOM     77  C   UNL A   1      42.836  23.474  28.335  1.00  0.00     0.135 A 
ATOM     78  F   UNL A   1      44.182  26.386  26.627  1.00  0.00    -0.206 F 
ATOM     79  C   UNL A   1      44.114  24.139  25.952  1.00  0.00     0.059 A 
ATOM     80  C   UNL A   1      43.131  22.471  27.417  1.00  0.00     0.059 A 
ATOM     81  F   UNL A   1      42.225  23.125  29.479  1.00  0.00    -0.206 F 
ATOM     82  C   UNL A   1      43.759  22.817  26.222  1.00  0.00     0.060 A 
BRANCH  82  83
ATOM     83  S   UNL A   1      44.157  21.546  25.001  1.00  0.00     0.124 S 
ATOM     84  O   UNL A   1      43.095  20.574  25.233  1.00  0.00    -0.237 OA
ATOM     85  O   UNL A   1      44.080  22.291  23.748  1.00  0.00    -0.237 OA
ATOM     86  O   UNL A   1      45.499  21.120  25.387  1.00  0.00    -0.744 OA
ENDBRANCH  82  83
ENDBRANCH  50  75
BRANCH  62  87
ATOM     87  C   UNL A   1      46.447  27.193  33.794  1.00  0.00     0.058 A 
ATOM     88  C   UNL A   1      47.671  27.835  33.552  1.00  0.00     0.135 A 
ATOM     89  C   UNL A   1      46.424  26.169  34.756  1.00  0.00     0.135 A 
ATOM     90  F   UNL A   1      47.752  28.815  32.638  1.00  0.00    -0.206 F 
ATOM     91  C   UNL A   1      48.833  27.459  34.219  1.00  0.00     0.059 A 
ATOM     92  C   UNL A   1      47.567  25.799  35.459  1.00  0.00     0.059 A 
ATOM     93  F   UNL A   1      45.278  25.528  35.035  1.00  0.00    -0.206 F 
ATOM     94  C   UNL A   1      48.769  26.443  35.174  1.00  0.00     0.060 A 
BRANCH  94  95
ATOM     95  S   UNL A   1      50.278  25.991  36.056  1.00  0.00     0.124 S 
ATOM     96  O   UNL A   1      51.276  26.801  35.368  1.00  0.00    -0.237 OA
ATOM     97  O   UNL A   1      49.969  26.392  37.426  1.00  0.00    -0.237 OA
ATOM     98  O   UNL A   1      50.381  24.550  35.840  1.00  0.00    -0.744 OA
ENDBRANCH  94  95
ENDBRANCH  62  87
ENDBRANCH  36  37
ENDBRANCH  28  31
ENDBRANCH  26  27
ENDBRANCH  25  26
ENDBRANCH  24  25
ENDBRANCH   1  24
TORSDOF 20
ENDMDL
MODEL 2
REMARK VINA RESULT:     -10.5      1.123      2.017
REMARK SMILES C[C@@H](C(=O)NCCCCCCNC(=O)c1ccc(-c2c3nc(c(-c4c(F)cc(S(=O)(=O)[O-])cc4F)c4ccc([nH]4)c(-c4c(F)cc(S(=O)(=O)[O-])cc4F)c4nc(c(-c5c(F)cc(S(=O)(=O)[O-])cc5F)c5ccc2[nH]5)C=C4)C=C3)cc1)c1ccc(C[C@H]2CCC[C@H]2O)cc1
REMARK SMILES IDX 8 1 7 2 6 3 5 4 3 5 4 6 2 8 1 9 81 10 82 11 93 12 83 13
REMARK SMILES IDX 92 14 84 15 85 16 86 17 87 18 90 19 88 20 89 21 91 22 9 24
REMARK SMILES IDX 10 25 11 26 12 27 13 28 14 30 15 31 16 32 80 33 17 34 79 35
REMARK SMILES IDX 18 36 19 37 20 38 73 39 21 40 78 41 72 42 74 43 22 44 77 45
REMARK SMILES IDX 71 46 70 47 23 49 57 50 36 51 56 52 37 53 40 54 55 55 75 56
REMARK SMILES IDX 38 57 39 58 54 60 76 61 41 62 24 63 25 64 34 65 26 66 27 67
REMARK SMILES IDX 33 68 35 69 28 70 29 71 30 72 31 73 32 74 58 75 59 76 68 77
REMARK SMILES IDX 60 78 61 79 67 80 69 81 62 82 63 83 64 84 65 85 66 86 42 87
REMARK SMILES IDX 43 88 52 89 44 90 45 91 51 92 53 93 46 94 47 95 48 96 49 97
REMARK SMILES IDX 50 98
REMARK H PARENT 5 7 91 23 12 29 74 48 40 59
REMARK Flexibility Score: inf
ROOT
ATOM      1  C   UNL A   1      34.297  24.928  25.478  1.00  0.00     0.002 C 
ENDROOT
BRANCH   1   2
ATOM      2  C   UNL A   1      35.268  24.179  24.555  1.00  0.00     0.021 C 
BRANCH   2   3
ATOM      3  C   UNL A   1      34.681  22.889  23.974  1.00  0.00     0.116 C 
BRANCH   3   4
ATOM      4  N   UNL A   1      34.520  21.914  25.031  1.00  0.00    -0.356 N 
ATOM      5  C   UNL A   1      33.374  21.370  25.531  1.00  0.00     0.227 C 
ATOM      6  O   UNL A   1      33.452  20.820  26.631  1.00  0.00    -0.274 OA
ATOM      7  H   UNL A   1      35.355  21.600  25.447  1.00  0.00     0.163 HD
BRANCH   5   8
ATOM      8  C   UNL A   1      32.087  21.401  24.689  1.00  0.00     0.105 C 
ATOM      9  C   UNL A   1      32.314  20.936  23.246  1.00  0.00     0.023 C 
BRANCH   8  10
ATOM     10  C   UNL A   1      31.407  22.765  24.781  1.00  0.00    -0.036 A 
ATOM     11  C   UNL A   1      31.136  23.464  23.595  1.00  0.00     0.005 A 
ATOM     12  C   UNL A   1      31.037  23.355  25.997  1.00  0.00     0.005 A 
ATOM     13  C   UNL A   1      30.575  24.737  23.630  1.00  0.00     0.004 A 
ATOM     14  C   UNL A   1      30.519  24.649  26.032  1.00  0.00     0.004 A 
ATOM     15  C   UNL A   1      30.339  25.375  24.850  1.00  0.00    -0.048 A 
BRANCH  15  16
ATOM     16  C   UNL A   1      29.963  26.832  24.897  1.00  0.00     0.041 C 
BRANCH  16  17
ATOM     17  C   UNL A   1      30.040  27.602  23.564  1.00  0.00     0.022 C 
ATOM     18  C   UNL A   1      28.755  28.322  23.115  1.00  0.00     0.007 C 
ATOM     19  C   UNL A   1      31.151  28.651  23.391  1.00  0.00     0.117 C 
ATOM     20  C   UNL A   1      29.209  29.528  22.287  1.00  0.00     0.003 C 
ATOM     21  C   UNL A   1      30.720  29.384  22.125  1.00  0.00     0.032 C 
BRANCH  19  22
ATOM     22  O   UNL A   1      31.256  29.600  24.436  1.00  0.00    -0.393 OA
ATOM     23  H   UNL A   1      31.605  29.167  25.231  1.00  0.00     0.210 HD
ENDBRANCH  19  22
ENDBRANCH  16  17
ENDBRANCH  15  16
ENDBRANCH   8  10
ENDBRANCH   5   8
ENDBRANCH   3   4
ENDBRANCH   2   3
ENDBRANCH   1   2
BRANCH   1  24
ATOM     24  C   UNL A   1      33.740  26.228  24.895  1.00  0.00     0.002 C 
BRANCH  24  25
ATOM     25  C   UNL A   1      33.497  27.331  25.928  1.00  0.00     0.021 C 
BRANCH  25  26
ATOM     26  C   UNL A   1      34.553  28.429  25.923  1.00  0.00     0.116 C 
BRANCH  26  27
ATOM     27  N   UNL A   1      33.990  29.718  26.295  1.00  0.00    -0.352 N 
ATOM     28  C   UNL A   1      34.343  30.550  27.328  1.00  0.00     0.251 C 
ATOM     29  H   UNL A   1      33.252  30.037  25.725  1.00  0.00     0.163 HD
ATOM     30  O   UNL A   1      33.615  31.486  27.640  1.00  0.00    -0.269 OA
BRANCH  28  31
ATOM     31  C   UNL A   1      35.595  30.295  28.070  1.00  0.00     0.039 A 
ATOM     32  C   UNL A   1      35.535  29.612  29.287  1.00  0.00     0.014 A 
ATOM     33  C   UNL A   1      36.825  30.726  27.563  1.00  0.00     0.014 A 
ATOM     34  C   UNL A   1      36.718  29.315  29.967  1.00  0.00     0.010 A 
ATOM     35  C   UNL A   1      38.004  30.360  28.202  1.00  0.00     0.010 A 
ATOM     36  C   UNL A   1      37.964  29.657  29.415  1.00  0.00    -0.014 A 
BRANCH  36  37
ATOM     37  C   UNL A   1      39.233  29.288  30.092  1.00  0.00     0.031 A 
ATOM     38  C   UNL A   1      39.682  30.040  31.317  1.00  0.00     0.074 A 
ATOM     39  C   UNL A   1      40.007  28.314  29.574  1.00  0.00     0.049 A 
ATOM     40  N   UNL A   1      40.781  29.906  32.011  1.00  0.00    -0.248 NA
ATOM     41  C   UNL A   1      38.788  31.100  31.811  1.00  0.00     0.031 C 
ATOM     42  C   UNL A   1      39.701  27.545  28.366  1.00  0.00     0.029 A 
ATOM     43  N   UNL A   1      41.212  27.809  29.990  1.00  0.00    -0.354 N 
ATOM     44  C   UNL A   1      40.716  30.863  33.017  1.00  0.00     0.074 A 
ATOM     45  C   UNL A   1      39.498  31.614  32.805  1.00  0.00     0.031 C 
ATOM     46  C   UNL A   1      40.679  26.650  28.154  1.00  0.00     0.029 A 
ATOM     47  C   UNL A   1      41.702  26.809  29.182  1.00  0.00     0.049 A 
ATOM     48  H   UNL A   1      41.684  28.131  30.792  1.00  0.00     0.167 HD
ATOM     49  C   UNL A   1      41.577  31.079  34.039  1.00  0.00     0.037 A 
ATOM     50  C   UNL A   1      42.850  26.106  29.256  1.00  0.00     0.037 A 
ATOM     51  C   UNL A   1      42.781  30.317  34.251  1.00  0.00     0.049 A 
ATOM     52  C   UNL A   1      43.803  26.380  30.389  1.00  0.00     0.074 A 
ATOM     53  C   UNL A   1      43.698  30.427  35.282  1.00  0.00     0.029 A 
ATOM     54  N   UNL A   1      43.237  29.306  33.417  1.00  0.00    -0.354 N 
ATOM     55  N   UNL A   1      43.693  27.248  31.367  1.00  0.00    -0.248 NA
ATOM     56  C   UNL A   1      45.030  25.576  30.434  1.00  0.00     0.031 C 
ATOM     57  C   UNL A   1      44.735  29.519  35.043  1.00  0.00     0.029 A 
ATOM     58  C   UNL A   1      44.434  28.800  33.897  1.00  0.00     0.049 A 
ATOM     59  H   UNL A   1      42.777  28.993  32.605  1.00  0.00     0.167 HD
ATOM     60  C   UNL A   1      44.822  27.072  32.160  1.00  0.00     0.074 A 
ATOM     61  C   UNL A   1      45.593  26.005  31.554  1.00  0.00     0.031 C 
ATOM     62  C   UNL A   1      45.187  27.731  33.288  1.00  0.00     0.037 A 
BRANCH  49  63
ATOM     63  C   UNL A   1      41.248  32.181  35.012  1.00  0.00     0.058 A 
ATOM     64  C   UNL A   1      41.721  33.491  34.828  1.00  0.00     0.135 A 
ATOM     65  C   UNL A   1      40.420  31.935  36.119  1.00  0.00     0.135 A 
ATOM     66  F   UNL A   1      42.529  33.781  33.796  1.00  0.00    -0.206 F 
ATOM     67  C   UNL A   1      41.411  34.509  35.724  1.00  0.00     0.059 A 
ATOM     68  C   UNL A   1      40.071  32.946  37.010  1.00  0.00     0.059 A 
ATOM     69  F   UNL A   1      39.939  30.703  36.344  1.00  0.00    -0.206 F 
ATOM     70  C   UNL A   1      40.584  34.228  36.812  1.00  0.00     0.060 A 
BRANCH  70  71
ATOM     71  S   UNL A   1      40.187  35.563  37.960  1.00  0.00     0.124 S 
ATOM     72  O   UNL A   1      38.956  35.066  38.569  1.00  0.00    -0.237 OA
ATOM     73  O   UNL A   1      41.359  35.584  38.829  1.00  0.00    -0.237 OA
ATOM     74  O   UNL A   1      40.031  36.724  37.091  1.00  0.00    -0.744 OA
ENDBRANCH  70  71
ENDBRANCH  49  63
BRANCH  50  75
ATOM     75  C   UNL A   1      43.155  25.067  28.236  1.00  0.00     0.058 A 
ATOM     76  C   UNL A   1      43.755  25.405  27.014  1.00  0.00     0.135 A 
ATOM     77  C   UNL A   1      42.854  23.714  28.461  1.00  0.00     0.135 A 
ATOM     78  F   UNL A   1      44.057  26.685  26.748  1.00  0.00    -0.206 F 
ATOM     79  C   UNL A   1      44.025  24.447  26.043  1.00  0.00     0.059 A 
ATOM     80  C   UNL A   1      43.142  22.732  27.518  1.00  0.00     0.059 A 
ATOM     81  F   UNL A   1      42.296  23.333  29.621  1.00  0.00    -0.206 F 
ATOM     82  C   UNL A   1      43.715  23.112  26.305  1.00  0.00     0.060 A 
BRANCH  82  83
ATOM     83  S   UNL A   1      44.101  21.869  25.052  1.00  0.00     0.124 S 
ATOM     84  O   UNL A   1      43.120  20.833  25.355  1.00  0.00    -0.237 OA
ATOM     85  O   UNL A   1      43.887  22.610  23.812  1.00  0.00    -0.237 OA
ATOM     86  O   UNL A   1      45.491  21.526  25.338  1.00  0.00    -0.744 OA
ENDBRANCH  82  83
ENDBRANCH  50  75
BRANCH  62  87
ATOM     87  C   UNL A   1      46.456  27.293  33.968  1.00  0.00     0.058 A 
ATOM     88  C   UNL A   1      46.468  26.272  34.930  1.00  0.00     0.135 A 
ATOM     89  C   UNL A   1      47.686  27.873  33.613  1.00  0.00     0.135 A 
ATOM     90  F   UNL A   1      45.321  25.688  35.311  1.00  0.00    -0.206 F 
ATOM     91  C   UNL A   1      47.650  25.858  35.535  1.00  0.00     0.059 A 
ATOM     92  C   UNL A   1      48.884  27.453  34.182  1.00  0.00     0.059 A 
ATOM     93  F   UNL A   1      47.733  28.848  32.691  1.00  0.00    -0.206 F 
ATOM     94  C   UNL A   1      48.854  26.452  35.151  1.00  0.00     0.060 A 
BRANCH  94  95
ATOM     95  S   UNL A   1      50.384  25.881  35.920  1.00  0.00     0.124 S 
ATOM     96  O   UNL A   1      49.912  25.450  37.231  1.00  0.00    -0.237 OA
ATOM     97  O   UNL A   1      50.808  24.816  35.016  1.00  0.00    -0.237 OA
ATOM     98  O   UNL A   1      51.232  27.070  35.918  1.00  0.00    -0.744 OA
ENDBRANCH  94  95
ENDBRANCH  62  87
ENDBRANCH  36  37
ENDBRANCH  28  31
ENDBRANCH  26  27
ENDBRANCH  25  26
ENDBRANCH  24  25
ENDBRANCH   1  24
TORSDOF 20
ENDMDL
MODEL 3
REMARK VINA RESULT:     -10.4      5.103      7.213
REMARK SMILES C[C@@H](C(=O)NCCCCCCNC(=O)c1ccc(-c2c3nc(c(-c4c(F)cc(S(=O)(=O)[O-])cc4F)c4ccc([nH]4)c(-c4c(F)cc(S(=O)(=O)[O-])cc4F)c4nc(c(-c5c(F)cc(S(=O)(=O)[O-])cc5F)c5ccc2[nH]5)C=C4)C=C3)cc1)c1ccc(C[C@H]2CCC[C@H]2O)cc1
REMARK SMILES IDX 8 1 7 2 6 3 5 4 3 5 4 6 2 8 1 9 81 10 82 11 93 12 83 13
REMARK SMILES IDX 92 14 84 15 85 16 86 17 87 18 90 19 88 20 89 21 91 22 9 24
REMARK SMILES IDX 10 25 11 26 12 27 13 28 14 30 15 31 16 32 80 33 17 34 79 35
REMARK SMILES IDX 18 36 19 37 20 38 73 39 21 40 78 41 72 42 74 43 22 44 77 45
REMARK SMILES IDX 71 46 70 47 23 49 57 50 36 51 56 52 37 53 40 54 55 55 75 56
REMARK SMILES IDX 38 57 39 58 54 60 76 61 41 62 24 63 25 64 34 65 26 66 27 67
REMARK SMILES IDX 33 68 35 69 28 70 29 71 30 72 31 73 32 74 58 75 59 76 68 77
REMARK SMILES IDX 60 78 61 79 67 80 69 81 62 82 63 83 64 84 65 85 66 86 42 87
REMARK SMILES IDX 43 88 52 89 44 90 45 91 51 92 53 93 46 94 47 95 48 96 49 97
REMARK SMILES IDX 50 98
REMARK H PARENT 5 7 91 23 12 29 74 48 40 59
REMARK Flexibility Score: inf
ROOT
ATOM      1  C   UNL A   1      32.239  29.470  27.256  1.00  0.00     0.002 C 
ENDROOT
BRANCH   1   2
ATOM      2  C   UNL A   1      31.476  28.241  26.746  1.00  0.00     0.021 C 
BRANCH   2   3
ATOM      3  C   UNL A   1      31.433  28.144  25.217  1.00  0.00     0.116 C 
BRANCH   3   4
ATOM      4  N   UNL A   1      30.669  26.979  24.830  1.00  0.00    -0.356 N 
ATOM      5  C   UNL A   1      30.997  25.990  23.949  1.00  0.00     0.227 C 
ATOM      6  O   UNL A   1      30.074  25.286  23.533  1.00  0.00    -0.274 OA
ATOM      7  H   UNL A   1      29.789  26.886  25.262  1.00  0.00     0.163 HD
BRANCH   5   8
ATOM      8  C   UNL A   1      32.473  25.757  23.584  1.00  0.00     0.105 C 
ATOM      9  C   UNL A   1      32.796  26.163  22.142  1.00  0.00     0.023 C 
BRANCH   8  10
ATOM     10  C   UNL A   1      32.898  24.328  23.916  1.00  0.00    -0.036 A 
ATOM     11  C   UNL A   1      32.937  23.933  25.261  1.00  0.00     0.005 A 
ATOM     12  C   UNL A   1      33.250  23.388  22.938  1.00  0.00     0.005 A 
ATOM     13  C   UNL A   1      33.377  22.662  25.618  1.00  0.00     0.004 A 
ATOM     14  C   UNL A   1      33.736  22.132  23.301  1.00  0.00     0.004 A 
ATOM     15  C   UNL A   1      33.859  21.780  24.648  1.00  0.00    -0.048 A 
BRANCH  15  16
ATOM     16  C   UNL A   1      34.558  20.506  25.044  1.00  0.00     0.041 C 
BRANCH  16  17
ATOM     17  C   UNL A   1      33.912  19.193  24.562  1.00  0.00     0.022 C 
ATOM     18  C   UNL A   1      34.856  17.986  24.398  1.00  0.00     0.007 C 
ATOM     19  C   UNL A   1      32.711  18.639  25.347  1.00  0.00     0.117 C 
ATOM     20  C   UNL A   1      34.002  16.740  24.651  1.00  0.00     0.003 C 
ATOM     21  C   UNL A   1      32.563  17.233  24.777  1.00  0.00     0.032 C 
BRANCH  19  22
ATOM     22  O   UNL A   1      32.900  18.532  26.746  1.00  0.00    -0.393 OA
ATOM     23  H   UNL A   1      32.217  19.047  27.204  1.00  0.00     0.210 HD
ENDBRANCH  19  22
ENDBRANCH  16  17
ENDBRANCH  15  16
ENDBRANCH   8  10
ENDBRANCH   5   8
ENDBRANCH   3   4
ENDBRANCH   2   3
ENDBRANCH   1   2
BRANCH   1  24
ATOM     24  C   UNL A   1      33.552  29.755  26.522  1.00  0.00     0.002 C 
BRANCH  24  25
ATOM     25  C   UNL A   1      34.809  29.364  27.301  1.00  0.00     0.021 C 
BRANCH  25  26
ATOM     26  C   UNL A   1      35.592  30.550  27.852  1.00  0.00     0.116 C 
BRANCH  26  27
ATOM     27  N   UNL A   1      35.464  30.654  29.297  1.00  0.00    -0.352 N 
ATOM     28  C   UNL A   1      36.374  30.326  30.271  1.00  0.00     0.251 C 
ATOM     29  H   UNL A   1      34.604  31.009  29.621  1.00  0.00     0.163 HD
ATOM     30  O   UNL A   1      36.023  30.256  31.443  1.00  0.00    -0.269 OA
BRANCH  28  31
ATOM     31  C   UNL A   1      37.773  30.040  29.890  1.00  0.00     0.039 A 
ATOM     32  C   UNL A   1      38.688  29.688  30.885  1.00  0.00     0.014 A 
ATOM     33  C   UNL A   1      38.178  30.116  28.554  1.00  0.00     0.014 A 
ATOM     34  C   UNL A   1      39.997  29.359  30.529  1.00  0.00     0.010 A 
ATOM     35  C   UNL A   1      39.460  29.712  28.195  1.00  0.00     0.010 A 
ATOM     36  C   UNL A   1      40.386  29.337  29.179  1.00  0.00    -0.014 A 
BRANCH  36  37
ATOM     37  C   UNL A   1      41.756  28.924  28.779  1.00  0.00     0.031 A 
ATOM     38  C   UNL A   1      42.864  29.940  28.720  1.00  0.00     0.074 A 
ATOM     39  C   UNL A   1      41.987  27.646  28.417  1.00  0.00     0.049 A 
ATOM     40  N   UNL A   1      44.106  29.787  28.340  1.00  0.00    -0.248 NA
ATOM     41  C   UNL A   1      42.526  31.317  29.116  1.00  0.00     0.031 C 
ATOM     42  C   UNL A   1      40.983  26.580  28.389  1.00  0.00     0.029 A 
ATOM     43  N   UNL A   1      43.137  27.028  27.995  1.00  0.00    -0.354 N 
ATOM     44  C   UNL A   1      44.694  31.042  28.445  1.00  0.00     0.074 A 
ATOM     45  C   UNL A   1      43.657  31.959  28.864  1.00  0.00     0.031 C 
ATOM     46  C   UNL A   1      41.567  25.436  27.997  1.00  0.00     0.029 A 
ATOM     47  C   UNL A   1      42.972  25.693  27.704  1.00  0.00     0.049 A 
ATOM     48  H   UNL A   1      44.000  27.495  27.908  1.00  0.00     0.167 HD
ATOM     49  C   UNL A   1      45.985  31.392  28.239  1.00  0.00     0.037 A 
ATOM     50  C   UNL A   1      43.853  24.783  27.244  1.00  0.00     0.037 A 
ATOM     51  C   UNL A   1      47.015  30.469  27.836  1.00  0.00     0.049 A 
ATOM     52  C   UNL A   1      45.278  25.202  27.000  1.00  0.00     0.074 A 
ATOM     53  C   UNL A   1      48.363  30.715  27.643  1.00  0.00     0.029 A 
ATOM     54  N   UNL A   1      46.812  29.125  27.561  1.00  0.00    -0.354 N 
ATOM     55  N   UNL A   1      45.831  26.381  27.164  1.00  0.00    -0.248 NA
ATOM     56  C   UNL A   1      46.202  24.168  26.515  1.00  0.00     0.031 C 
ATOM     57  C   UNL A   1      48.965  29.532  27.201  1.00  0.00     0.029 A 
ATOM     58  C   UNL A   1      48.004  28.533  27.178  1.00  0.00     0.049 A 
ATOM     59  H   UNL A   1      45.947  28.659  27.630  1.00  0.00     0.167 HD
ATOM     60  C   UNL A   1      47.172  26.222  26.833  1.00  0.00     0.074 A 
ATOM     61  C   UNL A   1      47.349  24.830  26.473  1.00  0.00     0.031 C 
ATOM     62  C   UNL A   1      48.168  27.143  26.830  1.00  0.00     0.037 A 
BRANCH  49  63
ATOM     63  C   UNL A   1      46.361  32.836  28.449  1.00  0.00     0.058 A 
ATOM     64  C   UNL A   1      46.798  33.309  29.698  1.00  0.00     0.135 A 
ATOM     65  C   UNL A   1      46.319  33.749  27.384  1.00  0.00     0.135 A 
ATOM     66  F   UNL A   1      46.844  32.485  30.756  1.00  0.00    -0.206 F 
ATOM     67  C   UNL A   1      47.150  34.641  29.889  1.00  0.00     0.059 A 
ATOM     68  C   UNL A   1      46.697  35.080  27.544  1.00  0.00     0.059 A 
ATOM     69  F   UNL A   1      45.909  33.353  26.168  1.00  0.00    -0.206 F 
ATOM     70  C   UNL A   1      47.098  35.519  28.805  1.00  0.00     0.060 A 
BRANCH  70  71
ATOM     71  S   UNL A   1      47.564  37.243  29.071  1.00  0.00     0.124 S 
ATOM     72  O   UNL A   1      46.259  37.874  29.245  1.00  0.00    -0.237 OA
ATOM     73  O   UNL A   1      48.393  37.159  30.269  1.00  0.00    -0.237 OA
ATOM     74  O   UNL A   1      48.272  37.596  27.845  1.00  0.00    -0.744 OA
ENDBRANCH  70  71
ENDBRANCH  49  63
BRANCH  50  75
ATOM     75  C   UNL A   1      43.417  23.381  26.997  1.00  0.00     0.058 A 
ATOM     76  C   UNL A   1      43.225  22.902  25.693  1.00  0.00     0.135 A 
ATOM     77  C   UNL A   1      43.184  22.493  28.059  1.00  0.00     0.135 A 
ATOM     78  F   UNL A   1      43.428  23.713  24.644  1.00  0.00    -0.206 F 
ATOM     79  C   UNL A   1      42.795  21.601  25.450  1.00  0.00     0.059 A 
ATOM     80  C   UNL A   1      42.783  21.179  27.841  1.00  0.00     0.059 A 
ATOM     81  F   UNL A   1      43.371  22.895  29.326  1.00  0.00    -0.206 F 
ATOM     82  C   UNL A   1      42.578  20.747  26.532  1.00  0.00     0.060 A 
BRANCH  82  83
ATOM     83  S   UNL A   1      42.054  19.049  26.203  1.00  0.00     0.124 S 
ATOM     84  O   UNL A   1      40.654  19.240  25.841  1.00  0.00    -0.237 OA
ATOM     85  O   UNL A   1      42.948  18.658  25.118  1.00  0.00    -0.237 OA
ATOM     86  O   UNL A   1      42.291  18.374  27.476  1.00  0.00    -0.744 OA
ENDBRANCH  82  83
ENDBRANCH  50  75
BRANCH  62  87
ATOM     87  C   UNL A   1      49.549  26.672  26.464  1.00  0.00     0.058 A 
ATOM     88  C   UNL A   1      50.408  26.087  27.407  1.00  0.00     0.135 A 
ATOM     89  C   UNL A   1      49.999  26.762  25.135  1.00  0.00     0.135 A 
ATOM     90  F   UNL A   1      50.031  25.981  28.691  1.00  0.00    -0.206 F 
ATOM     91  C   UNL A   1      51.674  25.632  27.053  1.00  0.00     0.059 A 
ATOM     92  C   UNL A   1      51.248  26.284  24.753  1.00  0.00     0.059 A 
ATOM     93  F   UNL A   1      49.214  27.304  24.190  1.00  0.00    -0.206 F 
ATOM     94  C   UNL A   1      52.084  25.731  25.722  1.00  0.00     0.060 A 
BRANCH  94  95
ATOM     95  S   UNL A   1      53.715  25.105  25.271  1.00  0.00     0.124 S 
ATOM     96  O   UNL A   1      53.917  25.722  23.965  1.00  0.00    -0.237 OA
ATOM     97  O   UNL A   1      54.554  25.616  26.350  1.00  0.00    -0.237 OA
ATOM     98  O   UNL A   1      53.533  23.656  25.259  1.00  0.00    -0.744 OA
ENDBRANCH  94  95
ENDBRANCH  62  87
ENDBRANCH  36  37
ENDBRANCH  28  31
ENDBRANCH  26  27
ENDBRANCH  25  26
ENDBRANCH  24  25
ENDBRANCH   1  24
TORSDOF 20
ENDMDL
