MODEL 1
REMARK VINA RESULT:     -11.7      0.000      0.000
REMARK SMILES O=C(NCCCCCCNC(=O)c1ccc(-c2c3nc(c(-c4c(F)cc(S(=O)(=O)[O-])cc4F)c4ccc([nH]4)c(-c4c(F)cc(S(=O)(=O)[O-])cc4F)c4nc(c(-c5c(F)cc(S(=O)(=O)[O-])cc5F)c5ccc2[nH]5)C=C4)C=C3)cc1)c1ccc(C#CC#C[C@H]2C[C@@H](O)C2)cc1
REMARK SMILES IDX 6 1 5 2 4 3 3 4 1 5 2 6 79 8 80 9 93 10 81 11 92 12 82 13
REMARK SMILES IDX 83 14 84 15 85 16 86 17 87 18 91 19 88 20 89 21 90 22 7 24
REMARK SMILES IDX 8 25 9 26 10 27 11 28 12 30 13 31 14 32 78 33 15 34 77 35
REMARK SMILES IDX 16 36 17 37 18 38 71 39 19 40 76 41 70 42 72 43 20 44 75 45
REMARK SMILES IDX 69 46 68 47 21 49 55 50 34 51 54 52 35 53 38 54 53 55 73 56
REMARK SMILES IDX 36 57 37 58 52 60 74 61 39 62 22 63 23 64 32 65 24 66 25 67
REMARK SMILES IDX 31 68 33 69 26 70 27 71 28 72 29 73 30 74 56 75 57 76 66 77
REMARK SMILES IDX 58 78 59 79 65 80 67 81 60 82 61 83 62 84 63 85 64 86 40 87
REMARK SMILES IDX 41 88 50 89 42 90 43 91 49 92 51 93 44 94 45 95 46 96 47 97
REMARK SMILES IDX 48 98
REMARK H PARENT 3 7 90 23 10 29 72 48 38 59
REMARK Flexibility Score: inf
ROOT
ATOM      1  C   UNL A   1      33.700  28.171  24.874  1.00  0.00     0.002 C 
ENDROOT
BRANCH   1   2
ATOM      2  C   UNL A   1      32.961  29.474  24.555  1.00  0.00     0.021 C 
BRANCH   2   3
ATOM      3  C   UNL A   1      31.482  29.478  24.933  1.00  0.00     0.116 C 
BRANCH   3   4
ATOM      4  N   UNL A   1      30.631  29.725  23.781  1.00  0.00    -0.352 N 
ATOM      5  O   UNL A   1      29.729  29.317  21.755  1.00  0.00    -0.269 OA
ATOM      6  C   UNL A   1      30.291  28.882  22.755  1.00  0.00     0.251 C 
ATOM      7  H   UNL A   1      30.243  30.628  23.730  1.00  0.00     0.163 HD
BRANCH   6   8
ATOM      8  C   UNL A   1      30.615  27.442  22.844  1.00  0.00     0.039 A 
ATOM      9  C   UNL A   1      29.927  26.600  23.724  1.00  0.00     0.015 A 
ATOM     10  C   UNL A   1      31.599  26.924  21.997  1.00  0.00     0.015 A 
ATOM     11  C   UNL A   1      30.273  25.251  23.806  1.00  0.00     0.018 A 
ATOM     12  C   UNL A   1      31.934  25.570  22.071  1.00  0.00     0.018 A 
ATOM     13  C   UNL A   1      31.278  24.738  22.983  1.00  0.00     0.026 A 
BRANCH  13  14
ATOM     14  C   UNL A   1      31.617  23.352  23.058  1.00  0.00    -0.053 C 
ATOM     15  C   UNL A   1      31.895  22.187  23.154  1.00  0.00    -0.010 C 
BRANCH  15  16
ATOM     16  C   UNL A   1      32.229  20.705  23.324  1.00  0.00    -0.015 C 
ATOM     17  C   UNL A   1      32.538  19.552  23.448  1.00  0.00    -0.085 C 
BRANCH  17  18
ATOM     18  C   UNL A   1      32.958  18.178  23.593  1.00  0.00     0.070 C 
ATOM     19  C   UNL A   1      34.351  17.964  24.233  1.00  0.00     0.048 C 
ATOM     20  C   UNL A   1      32.375  17.405  24.802  1.00  0.00     0.048 C 
ATOM     21  C   UNL A   1      33.757  16.721  24.937  1.00  0.00     0.116 C 
BRANCH  21  22
ATOM     22  O   UNL A   1      34.223  16.455  26.271  1.00  0.00    -0.393 OA
ATOM     23  H   UNL A   1      33.468  16.433  26.879  1.00  0.00     0.210 HD
ENDBRANCH  21  22
ENDBRANCH  17  18
ENDBRANCH  15  16
ENDBRANCH  13  14
ENDBRANCH   6   8
ENDBRANCH   3   4
ENDBRANCH   2   3
ENDBRANCH   1   2
BRANCH   1  24
ATOM     24  C   UNL A   1      33.661  27.742  26.344  1.00  0.00     0.002 C 
BRANCH  24  25
ATOM     25  C   UNL A   1      33.785  28.882  27.357  1.00  0.00     0.021 C 
BRANCH  25  26
ATOM     26  C   UNL A   1      35.219  29.264  27.709  1.00  0.00     0.116 C 
BRANCH  26  27
ATOM     27  N   UNL A   1      35.287  30.108  28.892  1.00  0.00    -0.352 N 
ATOM     28  C   UNL A   1      36.333  30.310  29.758  1.00  0.00     0.251 C 
ATOM     29  H   UNL A   1      34.464  30.607  29.101  1.00  0.00     0.163 HD
ATOM     30  O   UNL A   1      36.146  30.900  30.817  1.00  0.00    -0.269 OA
BRANCH  28  31
ATOM     31  C   UNL A   1      37.678  29.795  29.419  1.00  0.00     0.039 A 
ATOM     32  C   UNL A   1      38.090  29.804  28.085  1.00  0.00     0.014 A 
ATOM     33  C   UNL A   1      38.532  29.311  30.414  1.00  0.00     0.014 A 
ATOM     34  C   UNL A   1      39.381  29.385  27.759  1.00  0.00     0.010 A 
ATOM     35  C   UNL A   1      39.847  28.978  30.098  1.00  0.00     0.010 A 
ATOM     36  C   UNL A   1      40.284  29.006  28.766  1.00  0.00    -0.014 A 
BRANCH  36  37
ATOM     37  C   UNL A   1      41.689  28.643  28.442  1.00  0.00     0.031 A 
ATOM     38  C   UNL A   1      42.757  29.702  28.393  1.00  0.00     0.074 A 
ATOM     39  C   UNL A   1      41.994  27.365  28.137  1.00  0.00     0.049 A 
ATOM     40  N   UNL A   1      44.022  29.586  28.077  1.00  0.00    -0.248 NA
ATOM     41  C   UNL A   1      42.344  31.077  28.715  1.00  0.00     0.031 C 
ATOM     42  C   UNL A   1      41.038  26.255  28.102  1.00  0.00     0.029 A 
ATOM     43  N   UNL A   1      43.188  26.783  27.790  1.00  0.00    -0.354 N 
ATOM     44  C   UNL A   1      44.554  30.868  28.164  1.00  0.00     0.074 A 
ATOM     45  C   UNL A   1      43.458  31.756  28.488  1.00  0.00     0.031 C 
ATOM     46  C   UNL A   1      41.686  25.126  27.777  1.00  0.00     0.029 A 
ATOM     47  C   UNL A   1      43.091  25.437  27.531  1.00  0.00     0.049 A 
ATOM     48  H   UNL A   1      44.033  27.284  27.733  1.00  0.00     0.167 HD
ATOM     49  C   UNL A   1      45.840  31.265  28.012  1.00  0.00     0.037 A 
ATOM     50  C   UNL A   1      44.022  24.551  27.122  1.00  0.00     0.037 A 
ATOM     51  C   UNL A   1      46.923  30.373  27.686  1.00  0.00     0.049 A 
ATOM     52  C   UNL A   1      45.439  25.019  26.925  1.00  0.00     0.074 A 
ATOM     53  C   UNL A   1      48.267  30.668  27.545  1.00  0.00     0.029 A 
ATOM     54  N   UNL A   1      46.786  29.014  27.434  1.00  0.00    -0.354 N 
ATOM     55  N   UNL A   1      45.937  26.224  27.072  1.00  0.00    -0.248 NA
ATOM     56  C   UNL A   1      46.422  24.008  26.514  1.00  0.00     0.031 C 
ATOM     57  C   UNL A   1      48.932  29.505  27.143  1.00  0.00     0.029 A 
ATOM     58  C   UNL A   1      48.016  28.465  27.109  1.00  0.00     0.049 A 
ATOM     59  H   UNL A   1      45.939  28.515  27.479  1.00  0.00     0.167 HD
ATOM     60  C   UNL A   1      47.296  26.111  26.799  1.00  0.00     0.074 A 
ATOM     61  C   UNL A   1      47.542  24.716  26.492  1.00  0.00     0.031 C 
ATOM     62  C   UNL A   1      48.252  27.073  26.805  1.00  0.00     0.037 A 
BRANCH  49  63
ATOM     63  C   UNL A   1      46.143  32.731  28.195  1.00  0.00     0.058 A 
ATOM     64  C   UNL A   1      46.543  33.256  29.436  1.00  0.00     0.135 A 
ATOM     65  C   UNL A   1      46.048  33.622  27.113  1.00  0.00     0.135 A 
ATOM     66  F   UNL A   1      46.639  32.457  30.509  1.00  0.00    -0.206 F 
ATOM     67  C   UNL A   1      46.795  34.614  29.606  1.00  0.00     0.059 A 
ATOM     68  C   UNL A   1      46.333  34.976  27.251  1.00  0.00     0.059 A 
ATOM     69  F   UNL A   1      45.673  33.179  25.903  1.00  0.00    -0.206 F 
ATOM     70  C   UNL A   1      46.686  35.467  28.508  1.00  0.00     0.060 A 
BRANCH  70  71
ATOM     71  S   UNL A   1      47.004  37.226  28.752  1.00  0.00     0.124 S 
ATOM     72  O   UNL A   1      45.785  37.820  28.212  1.00  0.00    -0.237 OA
ATOM     73  O   UNL A   1      47.164  37.314  30.199  1.00  0.00    -0.237 OA
ATOM     74  O   UNL A   1      48.215  37.465  27.973  1.00  0.00    -0.744 OA
ENDBRANCH  70  71
ENDBRANCH  49  63
BRANCH  50  75
ATOM     75  C   UNL A   1      43.636  23.134  26.878  1.00  0.00     0.058 A 
ATOM     76  C   UNL A   1      43.312  22.273  27.937  1.00  0.00     0.135 A 
ATOM     77  C   UNL A   1      43.555  22.623  25.573  1.00  0.00     0.135 A 
ATOM     78  F   UNL A   1      43.383  22.711  29.204  1.00  0.00    -0.206 F 
ATOM     79  C   UNL A   1      42.931  20.954  27.713  1.00  0.00     0.059 A 
ATOM     80  C   UNL A   1      43.145  21.317  25.322  1.00  0.00     0.059 A 
ATOM     81  F   UNL A   1      43.839  23.408  24.523  1.00  0.00    -0.206 F 
ATOM     82  C   UNL A   1      42.841  20.488  26.400  1.00  0.00     0.060 A 
BRANCH  82  83
ATOM     83  S   UNL A   1      42.279  18.795  26.118  1.00  0.00     0.124 S 
ATOM     84  O   UNL A   1      40.893  19.007  25.715  1.00  0.00    -0.237 OA
ATOM     85  O   UNL A   1      43.188  18.344  25.071  1.00  0.00    -0.237 OA
ATOM     86  O   UNL A   1      42.468  18.158  27.419  1.00  0.00    -0.744 OA
ENDBRANCH  82  83
ENDBRANCH  50  75
BRANCH  62  87
ATOM     87  C   UNL A   1      49.668  26.651  26.508  1.00  0.00     0.058 A 
ATOM     88  C   UNL A   1      50.492  26.065  27.481  1.00  0.00     0.135 A 
ATOM     89  C   UNL A   1      50.190  26.789  25.209  1.00  0.00     0.135 A 
ATOM     90  F   UNL A   1      50.049  25.915  28.740  1.00  0.00    -0.206 F 
ATOM     91  C   UNL A   1      51.789  25.655  27.187  1.00  0.00     0.059 A 
ATOM     92  C   UNL A   1      51.469  26.353  24.883  1.00  0.00     0.059 A 
ATOM     93  F   UNL A   1      49.444  27.334  24.234  1.00  0.00    -0.206 F 
ATOM     94  C   UNL A   1      52.266  25.799  25.883  1.00  0.00     0.060 A 
BRANCH  94  95
ATOM     95  S   UNL A   1      53.938  25.229  25.508  1.00  0.00     0.124 S 
ATOM     96  O   UNL A   1      53.784  23.780  25.604  1.00  0.00    -0.237 OA
ATOM     97  O   UNL A   1      54.151  25.756  24.164  1.00  0.00    -0.237 OA
ATOM     98  O   UNL A   1      54.751  25.842  26.554  1.00  0.00    -0.744 OA
ENDBRANCH  94  95
ENDBRANCH  62  87
ENDBRANCH  36  37
ENDBRANCH  28  31
ENDBRANCH  26  27
ENDBRANCH  25  26
ENDBRANCH  24  25
ENDBRANCH   1  24
TORSDOF 20
ENDMDL
MODEL 2
REMARK VINA RESULT:     -11.7      2.683      3.593
REMARK SMILES O=C(NCCCCCCNC(=O)c1ccc(-c2c3nc(c(-c4c(F)cc(S(=O)(=O)[O-])cc4F)c4ccc([nH]4)c(-c4c(F)cc(S(=O)(=O)[O-])cc4F)c4nc(c(-c5c(F)cc(S(=O)(=O)[O-])cc5F)c5ccc2[nH]5)C=C4)C=C3)cc1)c1ccc(C#CC#C[C@H]2C[C@@H](O)C2)cc1
REMARK SMILES IDX 6 1 5 2 4 3 3 4 1 5 2 6 79 8 80 9 93 10 81 11 92 12 82 13
REMARK SMILES IDX 83 14 84 15 85 16 86 17 87 18 91 19 88 20 89 21 90 22 7 24
REMARK SMILES IDX 8 25 9 26 10 27 11 28 12 30 13 31 14 32 78 33 15 34 77 35
REMARK SMILES IDX 16 36 17 37 18 38 71 39 19 40 76 41 70 42 72 43 20 44 75 45
REMARK SMILES IDX 69 46 68 47 21 49 55 50 34 51 54 52 35 53 38 54 53 55 73 56
REMARK SMILES IDX 36 57 37 58 52 60 74 61 39 62 22 63 23 64 32 65 24 66 25 67
REMARK SMILES IDX 31 68 33 69 26 70 27 71 28 72 29 73 30 74 56 75 57 76 66 77
REMARK SMILES IDX 58 78 59 79 65 80 67 81 60 82 61 83 62 84 63 85 64 86 40 87
REMARK SMILES IDX 41 88 50 89 42 90 43 91 49 92 51 93 44 94 45 95 46 96 47 97
REMARK SMILES IDX 48 98
REMARK H PARENT 3 7 90 23 10 29 72 48 38 59
REMARK Flexibility Score: inf
ROOT
ATOM      1  C   UNL A   1      33.962  28.202  23.894  1.00  0.00     0.002 C 
ENDROOT
BRANCH   1   2
ATOM      2  C   UNL A   1      33.023  29.297  23.377  1.00  0.00     0.021 C 
BRANCH   2   3
ATOM      3  C   UNL A   1      31.798  29.551  24.253  1.00  0.00     0.116 C 
BRANCH   3   4
ATOM      4  N   UNL A   1      30.576  29.611  23.467  1.00  0.00    -0.352 N 
ATOM      5  O   UNL A   1      29.050  28.902  21.965  1.00  0.00    -0.269 OA
ATOM      6  C   UNL A   1      29.965  28.626  22.736  1.00  0.00     0.251 C 
ATOM      7  H   UNL A   1      30.123  30.485  23.458  1.00  0.00     0.163 HD
BRANCH   6   8
ATOM      8  C   UNL A   1      30.414  27.224  22.864  1.00  0.00     0.039 A 
ATOM      9  C   UNL A   1      31.329  26.673  21.960  1.00  0.00     0.015 A 
ATOM     10  C   UNL A   1      29.939  26.463  23.936  1.00  0.00     0.015 A 
ATOM     11  C   UNL A   1      31.714  25.338  22.088  1.00  0.00     0.018 A 
ATOM     12  C   UNL A   1      30.337  25.131  24.070  1.00  0.00     0.018 A 
ATOM     13  C   UNL A   1      31.215  24.567  23.140  1.00  0.00     0.026 A 
BRANCH  13  14
ATOM     14  C   UNL A   1      31.627  23.206  23.278  1.00  0.00    -0.053 C 
ATOM     15  C   UNL A   1      31.944  22.054  23.408  1.00  0.00    -0.010 C 
BRANCH  15  16
ATOM     16  C   UNL A   1      32.297  20.578  23.585  1.00  0.00    -0.015 C 
ATOM     17  C   UNL A   1      32.529  19.410  23.739  1.00  0.00    -0.085 C 
BRANCH  17  18
ATOM     18  C   UNL A   1      32.759  17.998  23.934  1.00  0.00     0.070 C 
ATOM     19  C   UNL A   1      34.214  17.517  23.711  1.00  0.00     0.048 C 
ATOM     20  C   UNL A   1      32.914  17.522  25.399  1.00  0.00     0.048 C 
ATOM     21  C   UNL A   1      33.994  16.538  24.889  1.00  0.00     0.116 C 
BRANCH  21  22
ATOM     22  O   UNL A   1      35.121  16.307  25.750  1.00  0.00    -0.393 OA
ATOM     23  H   UNL A   1      35.590  15.508  25.462  1.00  0.00     0.210 HD
ENDBRANCH  21  22
ENDBRANCH  17  18
ENDBRANCH  15  16
ENDBRANCH  13  14
ENDBRANCH   6   8
ENDBRANCH   3   4
ENDBRANCH   2   3
ENDBRANCH   1   2
BRANCH   1  24
ATOM     24  C   UNL A   1      33.457  27.436  25.120  1.00  0.00     0.002 C 
BRANCH  24  25
ATOM     25  C   UNL A   1      34.235  27.693  26.412  1.00  0.00     0.021 C 
BRANCH  25  26
ATOM     26  C   UNL A   1      33.400  28.271  27.550  1.00  0.00     0.116 C 
BRANCH  26  27
ATOM     27  N   UNL A   1      33.395  29.726  27.542  1.00  0.00    -0.352 N 
ATOM     28  C   UNL A   1      34.387  30.602  27.910  1.00  0.00     0.251 C 
ATOM     29  H   UNL A   1      32.560  30.142  27.227  1.00  0.00     0.163 HD
ATOM     30  O   UNL A   1      34.135  31.796  28.029  1.00  0.00    -0.269 OA
BRANCH  28  31
ATOM     31  C   UNL A   1      35.751  30.097  28.181  1.00  0.00     0.039 A 
ATOM     32  C   UNL A   1      36.694  30.107  27.152  1.00  0.00     0.014 A 
ATOM     33  C   UNL A   1      36.100  29.619  29.448  1.00  0.00     0.014 A 
ATOM     34  C   UNL A   1      38.003  29.698  27.411  1.00  0.00     0.010 A 
ATOM     35  C   UNL A   1      37.426  29.297  29.726  1.00  0.00     0.010 A 
ATOM     36  C   UNL A   1      38.391  29.327  28.710  1.00  0.00    -0.014 A 
BRANCH  36  37
ATOM     37  C   UNL A   1      39.802  28.974  29.019  1.00  0.00     0.031 A 
ATOM     38  C   UNL A   1      40.730  30.000  29.613  1.00  0.00     0.074 A 
ATOM     39  C   UNL A   1      40.263  27.744  28.716  1.00  0.00     0.049 A 
ATOM     40  N   UNL A   1      42.002  29.894  29.900  1.00  0.00    -0.248 NA
ATOM     41  C   UNL A   1      40.160  31.326  29.895  1.00  0.00     0.031 C 
ATOM     42  C   UNL A   1      39.475  26.677  28.093  1.00  0.00     0.029 A 
ATOM     43  N   UNL A   1      41.506  27.184  28.879  1.00  0.00    -0.354 N 
ATOM     44  C   UNL A   1      42.383  31.135  30.397  1.00  0.00     0.074 A 
ATOM     45  C   UNL A   1      41.226  31.999  30.301  1.00  0.00     0.031 C 
ATOM     46  C   UNL A   1      40.244  25.587  27.950  1.00  0.00     0.029 A 
ATOM     47  C   UNL A   1      41.592  25.890  28.421  1.00  0.00     0.049 A 
ATOM     48  H   UNL A   1      42.263  27.664  29.286  1.00  0.00     0.167 HD
ATOM     49  C   UNL A   1      43.580  31.514  30.909  1.00  0.00     0.037 A 
ATOM     50  C   UNL A   1      42.642  25.046  28.368  1.00  0.00     0.037 A 
ATOM     51  C   UNL A   1      44.726  30.647  30.996  1.00  0.00     0.049 A 
ATOM     52  C   UNL A   1      43.972  25.497  28.909  1.00  0.00     0.074 A 
ATOM     53  C   UNL A   1      45.973  30.921  31.530  1.00  0.00     0.029 A 
ATOM     54  N   UNL A   1      44.775  29.342  30.525  1.00  0.00    -0.354 N 
ATOM     55  N   UNL A   1      44.299  26.655  29.433  1.00  0.00    -0.248 NA
ATOM     56  C   UNL A   1      45.074  24.527  28.859  1.00  0.00     0.031 C 
ATOM     57  C   UNL A   1      46.794  29.808  31.322  1.00  0.00     0.029 A 
ATOM     58  C   UNL A   1      46.038  28.809  30.728  1.00  0.00     0.049 A 
ATOM     59  H   UNL A   1      44.022  28.865  30.107  1.00  0.00     0.167 HD
ATOM     60  C   UNL A   1      45.636  26.544  29.801  1.00  0.00     0.074 A 
ATOM     61  C   UNL A   1      46.051  25.200  29.452  1.00  0.00     0.031 C 
ATOM     62  C   UNL A   1      46.443  27.468  30.377  1.00  0.00     0.037 A 
BRANCH  49  63
ATOM     63  C   UNL A   1      43.705  32.930  31.410  1.00  0.00     0.058 A 
ATOM     64  C   UNL A   1      44.202  33.963  30.597  1.00  0.00     0.135 A 
ATOM     65  C   UNL A   1      43.309  33.266  32.716  1.00  0.00     0.135 A 
ATOM     66  F   UNL A   1      44.608  33.702  29.344  1.00  0.00    -0.206 F 
ATOM     67  C   UNL A   1      44.341  35.263  31.071  1.00  0.00     0.059 A 
ATOM     68  C   UNL A   1      43.403  34.567  33.199  1.00  0.00     0.059 A 
ATOM     69  F   UNL A   1      42.825  32.323  33.539  1.00  0.00    -0.206 F 
ATOM     70  C   UNL A   1      43.940  35.556  32.375  1.00  0.00     0.060 A 
BRANCH  70  71
ATOM     71  S   UNL A   1      44.141  37.245  32.977  1.00  0.00     0.124 S 
ATOM     72  O   UNL A   1      43.121  37.305  34.020  1.00  0.00    -0.237 OA
ATOM     73  O   UNL A   1      45.523  37.246  33.443  1.00  0.00    -0.237 OA
ATOM     74  O   UNL A   1      43.879  38.062  31.796  1.00  0.00    -0.744 OA
ENDBRANCH  70  71
ENDBRANCH  49  63
BRANCH  50  75
ATOM     75  C   UNL A   1      42.468  23.689  27.781  1.00  0.00     0.058 A 
ATOM     76  C   UNL A   1      42.548  23.476  26.397  1.00  0.00     0.135 A 
ATOM     77  C   UNL A   1      42.248  22.570  28.601  1.00  0.00     0.135 A 
ATOM     78  F   UNL A   1      42.747  24.514  25.569  1.00  0.00    -0.206 F 
ATOM     79  C   UNL A   1      42.406  22.207  25.845  1.00  0.00     0.059 A 
ATOM     80  C   UNL A   1      42.136  21.287  28.075  1.00  0.00     0.059 A 
ATOM     81  F   UNL A   1      42.180  22.715  29.933  1.00  0.00    -0.206 F 
ATOM     82  C   UNL A   1      42.210  21.117  26.695  1.00  0.00     0.060 A 
BRANCH  82  83
ATOM     83  S   UNL A   1      42.096  19.465  25.972  1.00  0.00     0.124 S 
ATOM     84  O   UNL A   1      42.595  18.632  27.060  1.00  0.00    -0.237 OA
ATOM     85  O   UNL A   1      40.670  19.357  25.685  1.00  0.00    -0.237 OA
ATOM     86  O   UNL A   1      42.959  19.553  24.797  1.00  0.00    -0.744 OA
ENDBRANCH  82  83
ENDBRANCH  50  75
BRANCH  62  87
ATOM     87  C   UNL A   1      47.853  27.054  30.708  1.00  0.00     0.058 A 
ATOM     88  C   UNL A   1      48.903  27.175  29.784  1.00  0.00     0.135 A 
ATOM     89  C   UNL A   1      48.168  26.576  31.992  1.00  0.00     0.135 A 
ATOM     90  F   UNL A   1      48.661  27.620  28.540  1.00  0.00    -0.206 F 
ATOM     91  C   UNL A   1      50.207  26.815  30.110  1.00  0.00     0.059 A 
ATOM     92  C   UNL A   1      49.470  26.244  32.352  1.00  0.00     0.059 A 
ATOM     93  F   UNL A   1      47.206  26.447  32.920  1.00  0.00    -0.206 F 
ATOM     94  C   UNL A   1      50.481  26.355  31.400  1.00  0.00     0.060 A 
BRANCH  94  95
ATOM     95  S   UNL A   1      52.183  25.926  31.820  1.00  0.00     0.124 S 
ATOM     96  O   UNL A   1      52.061  24.504  32.128  1.00  0.00    -0.237 OA
ATOM     97  O   UNL A   1      52.897  26.249  30.589  1.00  0.00    -0.237 OA
ATOM     98  O   UNL A   1      52.482  26.790  32.958  1.00  0.00    -0.744 OA
ENDBRANCH  94  95
ENDBRANCH  62  87
ENDBRANCH  36  37
ENDBRANCH  28  31
ENDBRANCH  26  27
ENDBRANCH  25  26
ENDBRANCH  24  25
ENDBRANCH   1  24
TORSDOF 20
ENDMDL
MODEL 3
REMARK VINA RESULT:     -11.7      0.432      1.579
REMARK SMILES O=C(NCCCCCCNC(=O)c1ccc(-c2c3nc(c(-c4c(F)cc(S(=O)(=O)[O-])cc4F)c4ccc([nH]4)c(-c4c(F)cc(S(=O)(=O)[O-])cc4F)c4nc(c(-c5c(F)cc(S(=O)(=O)[O-])cc5F)c5ccc2[nH]5)C=C4)C=C3)cc1)c1ccc(C#CC#C[C@H]2C[C@@H](O)C2)cc1
REMARK SMILES IDX 6 1 5 2 4 3 3 4 1 5 2 6 79 8 80 9 93 10 81 11 92 12 82 13
REMARK SMILES IDX 83 14 84 15 85 16 86 17 87 18 91 19 88 20 89 21 90 22 7 24
REMARK SMILES IDX 8 25 9 26 10 27 11 28 12 30 13 31 14 32 78 33 15 34 77 35
REMARK SMILES IDX 16 36 17 37 18 38 71 39 19 40 76 41 70 42 72 43 20 44 75 45
REMARK SMILES IDX 69 46 68 47 21 49 55 50 34 51 54 52 35 53 38 54 53 55 73 56
REMARK SMILES IDX 36 57 37 58 52 60 74 61 39 62 22 63 23 64 32 65 24 66 25 67
REMARK SMILES IDX 31 68 33 69 26 70 27 71 28 72 29 73 30 74 56 75 57 76 66 77
REMARK SMILES IDX 58 78 59 79 65 80 67 81 60 82 61 83 62 84 63 85 64 86 40 87
REMARK SMILES IDX 41 88 50 89 42 90 43 91 49 92 51 93 44 94 45 95 46 96 47 97
REMARK SMILES IDX 48 98
REMARK H PARENT 3 7 90 23 10 29 72 48 38 59
REMARK Flexibility Score: inf
ROOT
ATOM      1  C   UNL A   1      33.885  28.086  24.754  1.00  0.00     0.002 C 
ENDROOT
BRANCH   1   2
ATOM      2  C   UNL A   1      33.099  29.325  24.312  1.00  0.00     0.021 C 
BRANCH   2   3
ATOM      3  C   UNL A   1      31.633  29.335  24.737  1.00  0.00     0.116 C 
BRANCH   3   4
ATOM      4  N   UNL A   1      30.745  29.554  23.606  1.00  0.00    -0.352 N 
ATOM      5  O   UNL A   1      29.771  29.089  21.626  1.00  0.00    -0.269 OA
ATOM      6  C   UNL A   1      30.364  28.681  22.620  1.00  0.00     0.251 C 
ATOM      7  H   UNL A   1      30.363  30.458  23.539  1.00  0.00     0.163 HD
BRANCH   6   8
ATOM      8  C   UNL A   1      30.678  27.242  22.744  1.00  0.00     0.039 A 
ATOM      9  C   UNL A   1      29.942  26.413  23.597  1.00  0.00     0.015 A 
ATOM     10  C   UNL A   1      31.705  26.711  21.957  1.00  0.00     0.015 A 
ATOM     11  C   UNL A   1      30.280  25.064  23.715  1.00  0.00     0.018 A 
ATOM     12  C   UNL A   1      32.031  25.358  22.067  1.00  0.00     0.018 A 
ATOM     13  C   UNL A   1      31.326  24.538  22.953  1.00  0.00     0.026 A 
BRANCH  13  14
ATOM     14  C   UNL A   1      31.656  23.153  23.064  1.00  0.00    -0.053 C 
ATOM     15  C   UNL A   1      31.920  21.987  23.186  1.00  0.00    -0.010 C 
BRANCH  15  16
ATOM     16  C   UNL A   1      32.224  20.503  23.385  1.00  0.00    -0.015 C 
ATOM     17  C   UNL A   1      32.509  19.344  23.523  1.00  0.00    -0.085 C 
BRANCH  17  18
ATOM     18  C   UNL A   1      32.897  17.962  23.674  1.00  0.00     0.070 C 
ATOM     19  C   UNL A   1      34.412  17.705  23.865  1.00  0.00     0.048 C 
ATOM     20  C   UNL A   1      32.699  17.342  25.079  1.00  0.00     0.048 C 
ATOM     21  C   UNL A   1      34.023  16.575  24.847  1.00  0.00     0.116 C 
BRANCH  21  22
ATOM     22  O   UNL A   1      34.878  16.394  25.989  1.00  0.00    -0.393 OA
ATOM     23  H   UNL A   1      34.690  15.536  26.401  1.00  0.00     0.210 HD
ENDBRANCH  21  22
ENDBRANCH  17  18
ENDBRANCH  15  16
ENDBRANCH  13  14
ENDBRANCH   6   8
ENDBRANCH   3   4
ENDBRANCH   2   3
ENDBRANCH   1   2
BRANCH   1  24
ATOM     24  C   UNL A   1      33.415  27.450  26.065  1.00  0.00     0.002 C 
BRANCH  24  25
ATOM     25  C   UNL A   1      33.669  28.286  27.321  1.00  0.00     0.021 C 
BRANCH  25  26
ATOM     26  C   UNL A   1      34.992  29.043  27.323  1.00  0.00     0.116 C 
BRANCH  26  27
ATOM     27  N   UNL A   1      35.043  30.058  28.363  1.00  0.00    -0.352 N 
ATOM     28  C   UNL A   1      36.081  30.404  29.192  1.00  0.00     0.251 C 
ATOM     29  H   UNL A   1      34.212  30.570  28.493  1.00  0.00     0.163 HD
ATOM     30  O   UNL A   1      35.881  31.145  30.149  1.00  0.00    -0.269 OA
BRANCH  28  31
ATOM     31  C   UNL A   1      37.435  29.863  28.939  1.00  0.00     0.039 A 
ATOM     32  C   UNL A   1      37.941  29.886  27.638  1.00  0.00     0.014 A 
ATOM     33  C   UNL A   1      38.206  29.340  29.982  1.00  0.00     0.014 A 
ATOM     34  C   UNL A   1      39.243  29.443  27.396  1.00  0.00     0.010 A 
ATOM     35  C   UNL A   1      39.531  28.982  29.753  1.00  0.00     0.010 A 
ATOM     36  C   UNL A   1      40.063  29.024  28.457  1.00  0.00    -0.014 A 
BRANCH  36  37
ATOM     37  C   UNL A   1      41.479  28.633  28.225  1.00  0.00     0.031 A 
ATOM     38  C   UNL A   1      42.567  29.672  28.241  1.00  0.00     0.074 A 
ATOM     39  C   UNL A   1      41.779  27.348  27.948  1.00  0.00     0.049 A 
ATOM     40  N   UNL A   1      43.847  29.531  28.008  1.00  0.00    -0.248 NA
ATOM     41  C   UNL A   1      42.160  31.056  28.528  1.00  0.00     0.031 C 
ATOM     42  C   UNL A   1      40.806  26.256  27.857  1.00  0.00     0.029 A 
ATOM     43  N   UNL A   1      42.981  26.742  27.682  1.00  0.00    -0.354 N 
ATOM     44  C   UNL A   1      44.396  30.803  28.122  1.00  0.00     0.074 A 
ATOM     45  C   UNL A   1      43.299  31.713  28.370  1.00  0.00     0.031 C 
ATOM     46  C   UNL A   1      41.453  25.113  27.580  1.00  0.00     0.029 A 
ATOM     47  C   UNL A   1      42.876  25.396  27.424  1.00  0.00     0.049 A 
ATOM     48  H   UNL A   1      43.838  27.227  27.677  1.00  0.00     0.167 HD
ATOM     49  C   UNL A   1      45.697  31.176  28.052  1.00  0.00     0.037 A 
ATOM     50  C   UNL A   1      43.816  24.491  27.081  1.00  0.00     0.037 A 
ATOM     51  C   UNL A   1      46.782  30.262  27.800  1.00  0.00     0.049 A 
ATOM     52  C   UNL A   1      45.250  24.931  26.973  1.00  0.00     0.074 A 
ATOM     53  C   UNL A   1      48.138  30.531  27.745  1.00  0.00     0.029 A 
ATOM     54  N   UNL A   1      46.636  28.905  27.547  1.00  0.00    -0.354 N 
ATOM     55  N   UNL A   1      45.761  26.128  27.145  1.00  0.00    -0.248 NA
ATOM     56  C   UNL A   1      46.239  23.900  26.631  1.00  0.00     0.031 C 
ATOM     57  C   UNL A   1      48.805  29.354  27.393  1.00  0.00     0.029 A 
ATOM     58  C   UNL A   1      47.874  28.331  27.305  1.00  0.00     0.049 A 
ATOM     59  H   UNL A   1      45.779  28.421  27.540  1.00  0.00     0.167 HD
ATOM     60  C   UNL A   1      47.132  25.988  26.961  1.00  0.00     0.074 A 
ATOM     61  C   UNL A   1      47.372  24.588  26.678  1.00  0.00     0.031 C 
ATOM     62  C   UNL A   1      48.103  26.933  27.024  1.00  0.00     0.037 A 
BRANCH  49  63
ATOM     63  C   UNL A   1      46.015  32.637  28.246  1.00  0.00     0.058 A 
ATOM     64  C   UNL A   1      45.991  33.549  27.177  1.00  0.00     0.135 A 
ATOM     65  C   UNL A   1      46.330  33.138  29.520  1.00  0.00     0.135 A 
ATOM     66  F   UNL A   1      45.709  33.127  25.934  1.00  0.00    -0.206 F 
ATOM     67  C   UNL A   1      46.311  34.891  27.356  1.00  0.00     0.059 A 
ATOM     68  C   UNL A   1      46.614  34.484  29.729  1.00  0.00     0.059 A 
ATOM     69  F   UNL A   1      46.365  32.317  30.580  1.00  0.00    -0.206 F 
ATOM     70  C   UNL A   1      46.622  35.350  28.636  1.00  0.00     0.060 A 
BRANCH  70  71
ATOM     71  S   UNL A   1      47.046  37.091  28.845  1.00  0.00     0.124 S 
ATOM     72  O   UNL A   1      46.466  37.678  27.641  1.00  0.00    -0.237 OA
ATOM     73  O   UNL A   1      46.376  37.425  30.097  1.00  0.00    -0.237 OA
ATOM     74  O   UNL A   1      48.505  37.084  28.899  1.00  0.00    -0.744 OA
ENDBRANCH  70  71
ENDBRANCH  49  63
BRANCH  50  75
ATOM     75  C   UNL A   1      43.420  23.080  26.819  1.00  0.00     0.058 A 
ATOM     76  C   UNL A   1      43.498  22.526  25.533  1.00  0.00     0.135 A 
ATOM     77  C   UNL A   1      42.982  22.248  27.862  1.00  0.00     0.135 A 
ATOM     78  F   UNL A   1      43.901  23.282  24.501  1.00  0.00    -0.206 F 
ATOM     79  C   UNL A   1      43.148  21.201  25.288  1.00  0.00     0.059 A 
ATOM     80  C   UNL A   1      42.659  20.912  27.648  1.00  0.00     0.059 A 
ATOM     81  F   UNL A   1      42.904  22.722  29.116  1.00  0.00    -0.206 F 
ATOM     82  C   UNL A   1      42.739  20.400  26.355  1.00  0.00     0.060 A 
BRANCH  82  83
ATOM     83  S   UNL A   1      42.354  18.664  26.035  1.00  0.00     0.124 S 
ATOM     84  O   UNL A   1      40.925  18.726  25.750  1.00  0.00    -0.237 OA
ATOM     85  O   UNL A   1      43.220  18.365  24.901  1.00  0.00    -0.237 OA
ATOM     86  O   UNL A   1      42.720  18.004  27.285  1.00  0.00    -0.744 OA
ENDBRANCH  82  83
ENDBRANCH  50  75
BRANCH  62  87
ATOM     87  C   UNL A   1      49.527  26.484  26.821  1.00  0.00     0.058 A 
ATOM     88  C   UNL A   1      50.089  26.338  25.543  1.00  0.00     0.135 A 
ATOM     89  C   UNL A   1      50.359  26.246  27.929  1.00  0.00     0.135 A 
ATOM     90  F   UNL A   1      49.340  26.545  24.447  1.00  0.00    -0.206 F 
ATOM     91  C   UNL A   1      51.414  25.949  25.369  1.00  0.00     0.059 A 
ATOM     92  C   UNL A   1      51.696  25.893  27.780  1.00  0.00     0.059 A 
ATOM     93  F   UNL A   1      49.879  26.379  29.176  1.00  0.00    -0.206 F 
ATOM     94  C   UNL A   1      52.211  25.734  26.495  1.00  0.00     0.060 A 
BRANCH  94  95
ATOM     95  S   UNL A   1      53.937  25.266  26.253  1.00  0.00     0.124 S 
ATOM     96  O   UNL A   1      54.467  25.383  27.609  1.00  0.00    -0.237 OA
ATOM     97  O   UNL A   1      53.820  23.907  25.734  1.00  0.00    -0.237 OA
ATOM     98  O   UNL A   1      54.430  26.256  25.301  1.00  0.00    -0.744 OA
ENDBRANCH  94  95
ENDBRANCH  62  87
ENDBRANCH  36  37
ENDBRANCH  28  31
ENDBRANCH  26  27
ENDBRANCH  25  26
ENDBRANCH  24  25
ENDBRANCH   1  24
TORSDOF 20
ENDMDL
