MODEL 1
REMARK VINA RESULT:     -11.5      0.000      0.000
REMARK SMILES CC[C@@H]1CCCN(S(=O)(=O)c2cc(C(=O)NCCCCCCNC(=O)c3ccc(-c4c5nc(c(-c6c(F)cc(S(=O)(=O)[O-])cc6F)c6ccc([nH]6)c(-c6c(F)cc(S(=O)(=O)[O-])cc6F)c6nc(c(-c7c(F)cc(S(=O)(=O)[O-])cc7F)c7ccc4[nH]7)C=C6)C=C5)cc3)ccc2F)C1
REMARK SMILES IDX 19 1 18 2 17 3 16 4 14 5 15 6 13 8 11 9 12 10 94 11 93 12
REMARK SMILES IDX 95 13 92 14 8 15 9 16 10 17 7 18 3 19 4 20 96 21 5 22 6 23
REMARK SMILES IDX 2 24 1 25 20 26 21 27 22 28 23 29 24 30 25 32 26 33 27 34
REMARK SMILES IDX 91 35 28 36 90 37 29 38 30 39 31 40 84 41 32 42 89 43 83 44
REMARK SMILES IDX 85 45 33 46 88 47 82 48 81 49 34 51 68 52 47 53 67 54 48 55
REMARK SMILES IDX 51 56 66 57 86 58 49 59 50 60 65 62 87 63 52 64 35 65 36 66
REMARK SMILES IDX 45 67 37 68 38 69 44 70 46 71 39 72 40 73 41 74 42 75 43 76
REMARK SMILES IDX 69 77 70 78 79 79 71 80 72 81 78 82 80 83 73 84 74 85 75 86
REMARK SMILES IDX 76 87 77 88 53 89 54 90 63 91 55 92 56 93 62 94 64 95 57 96
REMARK SMILES IDX 58 97 59 98 60 99 61 100
REMARK H PARENT 16 7 23 31 85 50 51 61
REMARK Flexibility Score: inf
ROOT
ATOM      1  C   UNL A   1      39.979  22.333  26.736  1.00  0.00     0.002 C 
ENDROOT
BRANCH   1   2
ATOM      2  C   UNL A   1      39.084  21.413  25.891  1.00  0.00     0.021 C 
BRANCH   2   3
ATOM      3  C   UNL A   1      37.671  21.957  25.663  1.00  0.00     0.116 C 
BRANCH   3   4
ATOM      4  N   UNL A   1      37.457  22.289  24.267  1.00  0.00    -0.352 N 
ATOM      5  C   UNL A   1      36.407  22.814  23.562  1.00  0.00     0.251 C 
ATOM      6  O   UNL A   1      36.605  23.025  22.363  1.00  0.00    -0.269 OA
ATOM      7  H   UNL A   1      38.238  22.091  23.701  1.00  0.00     0.163 HD
BRANCH   5   8
ATOM      8  C   UNL A   1      35.062  23.152  24.130  1.00  0.00     0.041 A 
ATOM      9  C   UNL A   1      33.327  24.868  24.353  1.00  0.00     0.119 A 
ATOM     10  C   UNL A   1      34.605  24.472  23.925  1.00  0.00     0.038 A 
ATOM     11  C   UNL A   1      32.501  23.954  24.985  1.00  0.00     0.143 A 
ATOM     12  C   UNL A   1      32.942  22.658  25.219  1.00  0.00     0.041 A 
ATOM     13  F   UNL A   1      31.271  24.285  25.398  1.00  0.00    -0.206 F 
ATOM     14  C   UNL A   1      34.204  22.251  24.768  1.00  0.00     0.017 A 
BRANCH   9  15
ATOM     15  S   UNL A   1      32.695  26.456  23.908  1.00  0.00     0.246 S 
ATOM     16  O   UNL A   1      31.314  26.305  23.488  1.00  0.00    -0.207 OA
ATOM     17  O   UNL A   1      33.652  27.066  23.013  1.00  0.00    -0.207 OA
BRANCH  15  18
ATOM     18  N   UNL A   1      32.702  27.392  25.360  1.00  0.00    -0.197 NA
ATOM     19  C   UNL A   1      33.346  29.604  26.363  1.00  0.00     0.004 C 
ATOM     20  C   UNL A   1      32.064  29.569  27.204  1.00  0.00     0.006 C 
ATOM     21  C   UNL A   1      33.166  28.791  25.076  1.00  0.00     0.106 C 
ATOM     22  C   UNL A   1      31.556  28.155  27.429  1.00  0.00     0.017 C 
ATOM     23  C   UNL A   1      31.418  27.391  26.117  1.00  0.00     0.102 C 
BRANCH  19  24
ATOM     24  C   UNL A   1      34.623  29.274  27.172  1.00  0.00     0.001 C 
ATOM     25  C   UNL A   1      35.252  30.389  27.994  1.00  0.00     0.004 C 
ENDBRANCH  19  24
ENDBRANCH  15  18
ENDBRANCH   9  15
ENDBRANCH   5   8
ENDBRANCH   3   4
ENDBRANCH   2   3
ENDBRANCH   1   2
BRANCH   1  26
ATOM     26  C   UNL A   1      41.367  21.773  27.077  1.00  0.00     0.002 C 
BRANCH  26  27
ATOM     27  C   UNL A   1      42.110  22.496  28.204  1.00  0.00     0.021 C 
BRANCH  27  28
ATOM     28  C   UNL A   1      43.292  23.346  27.747  1.00  0.00     0.116 C 
BRANCH  28  29
ATOM     29  N   UNL A   1      43.038  23.980  26.464  1.00  0.00    -0.352 N 
ATOM     30  C   UNL A   1      42.404  25.166  26.187  1.00  0.00     0.251 C 
ATOM     31  H   UNL A   1      43.370  23.488  25.678  1.00  0.00     0.163 HD
ATOM     32  O   UNL A   1      42.088  25.434  25.032  1.00  0.00    -0.269 OA
BRANCH  30  33
ATOM     33  C   UNL A   1      42.090  26.114  27.280  1.00  0.00     0.039 A 
ATOM     34  C   UNL A   1      40.971  25.875  28.083  1.00  0.00     0.014 A 
ATOM     35  C   UNL A   1      42.877  27.251  27.492  1.00  0.00     0.014 A 
ATOM     36  C   UNL A   1      40.672  26.748  29.131  1.00  0.00     0.010 A 
ATOM     37  C   UNL A   1      42.610  28.088  28.573  1.00  0.00     0.010 A 
ATOM     38  C   UNL A   1      41.504  27.847  29.402  1.00  0.00    -0.014 A 
BRANCH  38  39
ATOM     39  C   UNL A   1      41.232  28.756  30.544  1.00  0.00     0.031 A 
ATOM     40  C   UNL A   1      42.050  28.655  31.802  1.00  0.00     0.074 A 
ATOM     41  C   UNL A   1      40.214  29.635  30.467  1.00  0.00     0.049 A 
ATOM     42  N   UNL A   1      41.911  29.302  32.930  1.00  0.00    -0.248 NA
ATOM     43  C   UNL A   1      43.155  27.681  31.801  1.00  0.00     0.031 C 
ATOM     44  C   UNL A   1      39.328  29.802  29.313  1.00  0.00     0.029 A 
ATOM     45  N   UNL A   1      39.744  30.546  31.380  1.00  0.00    -0.354 N 
ATOM     46  C   UNL A   1      42.898  28.809  33.775  1.00  0.00     0.074 A 
ATOM     47  C   UNL A   1      43.600  27.775  33.046  1.00  0.00     0.031 C 
ATOM     48  C   UNL A   1      38.439  30.774  29.579  1.00  0.00     0.029 A 
ATOM     49  C   UNL A   1      38.667  31.272  30.932  1.00  0.00     0.049 A 
ATOM     50  H   UNL A   1      40.142  30.669  32.272  1.00  0.00     0.167 HD
ATOM     51  C   UNL A   1      43.204  29.198  35.034  1.00  0.00     0.037 A 
ATOM     52  C   UNL A   1      37.939  32.228  31.542  1.00  0.00     0.037 A 
ATOM     53  C   UNL A   1      42.523  30.250  35.743  1.00  0.00     0.049 A 
ATOM     54  C   UNL A   1      38.297  32.643  32.943  1.00  0.00     0.074 A 
ATOM     55  C   UNL A   1      42.792  30.750  37.005  1.00  0.00     0.029 A 
ATOM     56  N   UNL A   1      41.442  30.966  35.251  1.00  0.00    -0.354 N 
ATOM     57  N   UNL A   1      39.256  32.189  33.714  1.00  0.00    -0.248 NA
ATOM     58  C   UNL A   1      37.479  33.698  33.556  1.00  0.00     0.031 C 
ATOM     59  C   UNL A   1      41.854  31.747  37.289  1.00  0.00     0.029 A 
ATOM     60  C   UNL A   1      41.024  31.895  36.189  1.00  0.00     0.049 A 
ATOM     61  H   UNL A   1      41.033  30.835  34.365  1.00  0.00     0.167 HD
ATOM     62  C   UNL A   1      39.168  32.915  34.896  1.00  0.00     0.074 A 
ATOM     63  C   UNL A   1      38.070  33.845  34.735  1.00  0.00     0.031 C 
ATOM     64  C   UNL A   1      39.929  32.817  36.013  1.00  0.00     0.037 A 
BRANCH  51  65
ATOM     65  C   UNL A   1      44.338  28.497  35.729  1.00  0.00     0.058 A 
ATOM     66  C   UNL A   1      44.104  27.351  36.505  1.00  0.00     0.135 A 
ATOM     67  C   UNL A   1      45.650  28.993  35.673  1.00  0.00     0.135 A 
ATOM     68  F   UNL A   1      42.869  26.829  36.587  1.00  0.00    -0.206 F 
ATOM     69  C   UNL A   1      45.129  26.728  37.210  1.00  0.00     0.059 A 
ATOM     70  C   UNL A   1      46.695  28.372  36.351  1.00  0.00     0.059 A 
ATOM     71  F   UNL A   1      45.932  30.074  34.928  1.00  0.00    -0.206 F 
ATOM     72  C   UNL A   1      46.421  27.248  37.129  1.00  0.00     0.060 A 
BRANCH  72  73
ATOM     73  S   UNL A   1      47.748  26.409  38.021  1.00  0.00     0.124 S 
ATOM     74  O   UNL A   1      47.915  27.267  39.188  1.00  0.00    -0.237 OA
ATOM     75  O   UNL A   1      47.164  25.095  38.274  1.00  0.00    -0.237 OA
ATOM     76  O   UNL A   1      48.854  26.419  37.067  1.00  0.00    -0.744 OA
ENDBRANCH  72  73
ENDBRANCH  51  65
BRANCH  52  77
ATOM     77  C   UNL A   1      36.817  32.875  30.814  1.00  0.00     0.058 A 
ATOM     78  C   UNL A   1      37.045  33.894  29.877  1.00  0.00     0.135 A 
ATOM     79  C   UNL A   1      35.487  32.515  31.080  1.00  0.00     0.135 A 
ATOM     80  F   UNL A   1      38.299  34.281  29.595  1.00  0.00    -0.206 F 
ATOM     81  C   UNL A   1      35.995  34.551  29.248  1.00  0.00     0.059 A 
ATOM     82  C   UNL A   1      34.420  33.144  30.447  1.00  0.00     0.059 A 
ATOM     83  F   UNL A   1      35.221  31.537  31.959  1.00  0.00    -0.206 F 
ATOM     84  C   UNL A   1      34.684  34.176  29.547  1.00  0.00     0.060 A 
BRANCH  84  85
ATOM     85  S   UNL A   1      33.332  35.061  28.740  1.00  0.00     0.124 S 
ATOM     86  O   UNL A   1      34.062  36.059  27.963  1.00  0.00    -0.237 OA
ATOM     87  O   UNL A   1      32.690  34.002  27.969  1.00  0.00    -0.237 OA
ATOM     88  O   UNL A   1      32.554  35.581  29.859  1.00  0.00    -0.744 OA
ENDBRANCH  84  85
ENDBRANCH  52  77
BRANCH  64  89
ATOM     89  C   UNL A   1      39.619  33.744  37.152  1.00  0.00     0.058 A 
ATOM     90  C   UNL A   1      40.271  34.983  37.260  1.00  0.00     0.135 A 
ATOM     91  C   UNL A   1      38.740  33.372  38.181  1.00  0.00     0.135 A 
ATOM     92  F   UNL A   1      41.124  35.384  36.303  1.00  0.00    -0.206 F 
ATOM     93  C   UNL A   1      40.080  35.811  38.360  1.00  0.00     0.059 A 
ATOM     94  C   UNL A   1      38.516  34.194  39.281  1.00  0.00     0.059 A 
ATOM     95  F   UNL A   1      38.083  32.203  38.116  1.00  0.00    -0.206 F 
ATOM     96  C   UNL A   1      39.206  35.404  39.370  1.00  0.00     0.060 A 
BRANCH  96  97
ATOM     97  S   UNL A   1      38.968  36.490  40.792  1.00  0.00     0.124 S 
ATOM     98  O   UNL A   1      37.998  35.739  41.582  1.00  0.00    -0.237 OA
ATOM     99  O   UNL A   1      40.315  36.569  41.350  1.00  0.00    -0.237 OA
ATOM    100  O   UNL A   1      38.471  37.726  40.195  1.00  0.00    -0.744 OA
ENDBRANCH  96  97
ENDBRANCH  64  89
ENDBRANCH  38  39
ENDBRANCH  30  33
ENDBRANCH  28  29
ENDBRANCH  27  28
ENDBRANCH  26  27
ENDBRANCH   1  26
TORSDOF 19
ENDMDL
MODEL 2
REMARK VINA RESULT:     -11.3      4.875     12.175
REMARK SMILES CC[C@@H]1CCCN(S(=O)(=O)c2cc(C(=O)NCCCCCCNC(=O)c3ccc(-c4c5nc(c(-c6c(F)cc(S(=O)(=O)[O-])cc6F)c6ccc([nH]6)c(-c6c(F)cc(S(=O)(=O)[O-])cc6F)c6nc(c(-c7c(F)cc(S(=O)(=O)[O-])cc7F)c7ccc4[nH]7)C=C6)C=C5)cc3)ccc2F)C1
REMARK SMILES IDX 19 1 18 2 17 3 16 4 14 5 15 6 13 8 11 9 12 10 94 11 93 12
REMARK SMILES IDX 95 13 92 14 8 15 9 16 10 17 7 18 3 19 4 20 96 21 5 22 6 23
REMARK SMILES IDX 2 24 1 25 20 26 21 27 22 28 23 29 24 30 25 32 26 33 27 34
REMARK SMILES IDX 91 35 28 36 90 37 29 38 30 39 31 40 84 41 32 42 89 43 83 44
REMARK SMILES IDX 85 45 33 46 88 47 82 48 81 49 34 51 68 52 47 53 67 54 48 55
REMARK SMILES IDX 51 56 66 57 86 58 49 59 50 60 65 62 87 63 52 64 35 65 36 66
REMARK SMILES IDX 45 67 37 68 38 69 44 70 46 71 39 72 40 73 41 74 42 75 43 76
REMARK SMILES IDX 69 77 70 78 79 79 71 80 72 81 78 82 80 83 73 84 74 85 75 86
REMARK SMILES IDX 76 87 77 88 53 89 54 90 63 91 55 92 56 93 62 94 64 95 57 96
REMARK SMILES IDX 58 97 59 98 60 99 61 100
REMARK H PARENT 16 7 23 31 85 50 51 61
REMARK Flexibility Score: inf
ROOT
ATOM      1  C   UNL A   1      37.431  32.716  31.333  1.00  0.00     0.002 C 
ENDROOT
BRANCH   1   2
ATOM      2  C   UNL A   1      37.868  32.886  32.796  1.00  0.00     0.021 C 
BRANCH   2   3
ATOM      3  C   UNL A   1      36.872  32.323  33.813  1.00  0.00     0.116 C 
BRANCH   3   4
ATOM      4  N   UNL A   1      37.542  31.923  35.036  1.00  0.00    -0.352 N 
ATOM      5  C   UNL A   1      38.536  31.028  35.330  1.00  0.00     0.251 C 
ATOM      6  O   UNL A   1      38.911  30.993  36.504  1.00  0.00    -0.269 OA
ATOM      7  H   UNL A   1      37.207  32.399  35.830  1.00  0.00     0.163 HD
BRANCH   5   8
ATOM      8  C   UNL A   1      39.195  30.109  34.347  1.00  0.00     0.041 A 
ATOM      9  C   UNL A   1      41.251  28.917  33.748  1.00  0.00     0.119 A 
ATOM     10  C   UNL A   1      40.560  29.823  34.568  1.00  0.00     0.038 A 
ATOM     11  C   UNL A   1      40.587  28.291  32.705  1.00  0.00     0.143 A 
ATOM     12  C   UNL A   1      39.251  28.578  32.455  1.00  0.00     0.041 A 
ATOM     13  F   UNL A   1      41.202  27.410  31.906  1.00  0.00    -0.206 F 
ATOM     14  C   UNL A   1      38.551  29.459  33.288  1.00  0.00     0.017 A 
BRANCH   9  15
ATOM     15  S   UNL A   1      42.894  28.418  34.162  1.00  0.00     0.246 S 
ATOM     16  O   UNL A   1      43.271  29.053  35.411  1.00  0.00    -0.207 OA
ATOM     17  O   UNL A   1      43.712  28.612  32.986  1.00  0.00    -0.207 OA
BRANCH  15  18
ATOM     18  N   UNL A   1      42.815  26.716  34.441  1.00  0.00    -0.197 NA
ATOM     19  C   UNL A   1      44.178  24.654  34.895  1.00  0.00     0.004 C 
ATOM     20  C   UNL A   1      43.082  24.169  35.852  1.00  0.00     0.006 C 
ATOM     21  C   UNL A   1      44.172  26.184  34.803  1.00  0.00     0.106 C 
ATOM     22  C   UNL A   1      41.724  24.766  35.528  1.00  0.00     0.017 C 
ATOM     23  C   UNL A   1      41.785  26.286  35.429  1.00  0.00     0.102 C 
BRANCH  19  24
ATOM     24  C   UNL A   1      44.179  23.917  33.535  1.00  0.00     0.001 C 
ATOM     25  C   UNL A   1      44.528  24.721  32.290  1.00  0.00     0.004 C 
ENDBRANCH  19  24
ENDBRANCH  15  18
ENDBRANCH   9  15
ENDBRANCH   5   8
ENDBRANCH   3   4
ENDBRANCH   2   3
ENDBRANCH   1   2
BRANCH   1  26
ATOM     26  C   UNL A   1      36.211  33.545  30.908  1.00  0.00     0.002 C 
BRANCH  26  27
ATOM     27  C   UNL A   1      35.001  32.737  30.428  1.00  0.00     0.021 C 
BRANCH  27  28
ATOM     28  C   UNL A   1      34.783  32.751  28.917  1.00  0.00     0.116 C 
BRANCH  28  29
ATOM     29  N   UNL A   1      34.006  31.605  28.473  1.00  0.00    -0.352 N 
ATOM     30  C   UNL A   1      34.434  30.362  28.076  1.00  0.00     0.251 C 
ATOM     31  H   UNL A   1      33.031  31.739  28.455  1.00  0.00     0.163 HD
ATOM     32  O   UNL A   1      33.650  29.595  27.525  1.00  0.00    -0.269 OA
BRANCH  30  33
ATOM     33  C   UNL A   1      35.838  29.952  28.300  1.00  0.00     0.039 A 
ATOM     34  C   UNL A   1      36.755  30.078  27.252  1.00  0.00     0.014 A 
ATOM     35  C   UNL A   1      36.243  29.417  29.527  1.00  0.00     0.014 A 
ATOM     36  C   UNL A   1      38.089  29.715  27.452  1.00  0.00     0.010 A 
ATOM     37  C   UNL A   1      37.585  29.110  29.742  1.00  0.00     0.010 A 
ATOM     38  C   UNL A   1      38.521  29.253  28.706  1.00  0.00    -0.014 A 
BRANCH  38  39
ATOM     39  C   UNL A   1      39.945  28.913  28.953  1.00  0.00     0.031 A 
ATOM     40  C   UNL A   1      40.881  29.944  29.520  1.00  0.00     0.074 A 
ATOM     41  C   UNL A   1      40.405  27.692  28.616  1.00  0.00     0.049 A 
ATOM     42  N   UNL A   1      42.170  29.862  29.728  1.00  0.00    -0.248 NA
ATOM     43  C   UNL A   1      40.298  31.248  29.877  1.00  0.00     0.031 C 
ATOM     44  C   UNL A   1      39.602  26.619  28.027  1.00  0.00     0.029 A 
ATOM     45  N   UNL A   1      41.663  27.150  28.711  1.00  0.00    -0.354 N 
ATOM     46  C   UNL A   1      42.554  31.101  30.228  1.00  0.00     0.074 A 
ATOM     47  C   UNL A   1      41.371  31.933  30.249  1.00  0.00     0.031 C 
ATOM     48  C   UNL A   1      40.380  25.541  27.836  1.00  0.00     0.029 A 
ATOM     49  C   UNL A   1      41.743  25.857  28.253  1.00  0.00     0.049 A 
ATOM     50  H   UNL A   1      42.435  27.642  29.073  1.00  0.00     0.167 HD
ATOM     51  C   UNL A   1      43.776  31.499  30.651  1.00  0.00     0.037 A 
ATOM     52  C   UNL A   1      42.796  25.019  28.171  1.00  0.00     0.037 A 
ATOM     53  C   UNL A   1      44.944  30.656  30.659  1.00  0.00     0.049 A 
ATOM     54  C   UNL A   1      44.144  25.485  28.647  1.00  0.00     0.074 A 
ATOM     55  C   UNL A   1      46.215  30.954  31.115  1.00  0.00     0.029 A 
ATOM     56  N   UNL A   1      44.981  29.349  30.195  1.00  0.00    -0.354 N 
ATOM     57  N   UNL A   1      44.481  26.649  29.149  1.00  0.00    -0.248 NA
ATOM     58  C   UNL A   1      45.254  24.528  28.547  1.00  0.00     0.031 C 
ATOM     59  C   UNL A   1      47.030  29.839  30.897  1.00  0.00     0.029 A 
ATOM     60  C   UNL A   1      46.256  28.832  30.341  1.00  0.00     0.049 A 
ATOM     61  H   UNL A   1      44.213  28.861  29.819  1.00  0.00     0.167 HD
ATOM     62  C   UNL A   1      45.837  26.558  29.442  1.00  0.00     0.074 A 
ATOM     63  C   UNL A   1      46.256  25.223  29.071  1.00  0.00     0.031 C 
ATOM     64  C   UNL A   1      46.658  27.498  29.969  1.00  0.00     0.037 A 
BRANCH  51  65
ATOM     65  C   UNL A   1      43.917  32.907  31.160  1.00  0.00     0.058 A 
ATOM     66  C   UNL A   1      44.313  33.943  30.300  1.00  0.00     0.135 A 
ATOM     67  C   UNL A   1      43.716  33.220  32.514  1.00  0.00     0.135 A 
ATOM     68  F   UNL A   1      44.511  33.701  28.995  1.00  0.00    -0.206 F 
ATOM     69  C   UNL A   1      44.515  35.238  30.766  1.00  0.00     0.059 A 
ATOM     70  C   UNL A   1      43.890  34.513  32.998  1.00  0.00     0.059 A 
ATOM     71  F   UNL A   1      43.317  32.269  33.375  1.00  0.00    -0.206 F 
ATOM     72  C   UNL A   1      44.303  35.513  32.118  1.00  0.00     0.060 A 
BRANCH  72  73
ATOM     73  S   UNL A   1      44.535  37.205  32.702  1.00  0.00     0.124 S 
ATOM     74  O   UNL A   1      44.261  37.979  31.498  1.00  0.00    -0.237 OA
ATOM     75  O   UNL A   1      43.537  37.303  33.764  1.00  0.00    -0.237 OA
ATOM     76  O   UNL A   1      45.922  37.217  33.158  1.00  0.00    -0.744 OA
ENDBRANCH  72  73
ENDBRANCH  51  65
BRANCH  52  77
ATOM     77  C   UNL A   1      42.601  23.644  27.643  1.00  0.00     0.058 A 
ATOM     78  C   UNL A   1      42.409  22.551  28.503  1.00  0.00     0.135 A 
ATOM     79  C   UNL A   1      42.652  23.392  26.264  1.00  0.00     0.135 A 
ATOM     80  F   UNL A   1      42.364  22.739  29.831  1.00  0.00    -0.206 F 
ATOM     81  C   UNL A   1      42.301  21.255  28.015  1.00  0.00     0.059 A 
ATOM     82  C   UNL A   1      42.524  22.105  25.751  1.00  0.00     0.059 A 
ATOM     83  F   UNL A   1      42.822  24.407  25.404  1.00  0.00    -0.206 F 
ATOM     84  C   UNL A   1      42.369  21.040  26.638  1.00  0.00     0.060 A 
BRANCH  84  85
ATOM     85  S   UNL A   1      42.254  19.344  26.027  1.00  0.00     0.124 S 
ATOM     86  O   UNL A   1      43.176  19.380  24.896  1.00  0.00    -0.237 OA
ATOM     87  O   UNL A   1      42.697  18.571  27.183  1.00  0.00    -0.237 OA
ATOM     88  O   UNL A   1      40.842  19.203  25.685  1.00  0.00    -0.744 OA
ENDBRANCH  84  85
ENDBRANCH  52  77
BRANCH  64  89
ATOM     89  C   UNL A   1      48.094  27.122  30.195  1.00  0.00     0.058 A 
ATOM     90  C   UNL A   1      48.491  26.515  31.397  1.00  0.00     0.135 A 
ATOM     91  C   UNL A   1      49.090  27.439  29.258  1.00  0.00     0.135 A 
ATOM     92  F   UNL A   1      47.577  26.195  32.327  1.00  0.00    -0.206 F 
ATOM     93  C   UNL A   1      49.828  26.256  31.672  1.00  0.00     0.059 A 
ATOM     94  C   UNL A   1      50.432  27.168  29.503  1.00  0.00     0.059 A 
ATOM     95  F   UNL A   1      48.758  28.008  28.088  1.00  0.00    -0.206 F 
ATOM     96  C   UNL A   1      50.793  26.593  30.722  1.00  0.00     0.060 A 
BRANCH  96  97
ATOM     97  S   UNL A   1      52.526  26.250  31.094  1.00  0.00     0.124 S 
ATOM     98  O   UNL A   1      53.122  26.250  29.763  1.00  0.00    -0.237 OA
ATOM     99  O   UNL A   1      52.888  27.375  31.951  1.00  0.00    -0.237 OA
ATOM    100  O   UNL A   1      52.478  24.953  31.762  1.00  0.00    -0.744 OA
ENDBRANCH  96  97
ENDBRANCH  64  89
ENDBRANCH  38  39
ENDBRANCH  30  33
ENDBRANCH  28  29
ENDBRANCH  27  28
ENDBRANCH  26  27
ENDBRANCH   1  26
TORSDOF 19
ENDMDL
MODEL 3
REMARK VINA RESULT:     -11.0      6.320     11.768
REMARK SMILES CC[C@@H]1CCCN(S(=O)(=O)c2cc(C(=O)NCCCCCCNC(=O)c3ccc(-c4c5nc(c(-c6c(F)cc(S(=O)(=O)[O-])cc6F)c6ccc([nH]6)c(-c6c(F)cc(S(=O)(=O)[O-])cc6F)c6nc(c(-c7c(F)cc(S(=O)(=O)[O-])cc7F)c7ccc4[nH]7)C=C6)C=C5)cc3)ccc2F)C1
REMARK SMILES IDX 19 1 18 2 17 3 16 4 14 5 15 6 13 8 11 9 12 10 94 11 93 12
REMARK SMILES IDX 95 13 92 14 8 15 9 16 10 17 7 18 3 19 4 20 96 21 5 22 6 23
REMARK SMILES IDX 2 24 1 25 20 26 21 27 22 28 23 29 24 30 25 32 26 33 27 34
REMARK SMILES IDX 91 35 28 36 90 37 29 38 30 39 31 40 84 41 32 42 89 43 83 44
REMARK SMILES IDX 85 45 33 46 88 47 82 48 81 49 34 51 68 52 47 53 67 54 48 55
REMARK SMILES IDX 51 56 66 57 86 58 49 59 50 60 65 62 87 63 52 64 35 65 36 66
REMARK SMILES IDX 45 67 37 68 38 69 44 70 46 71 39 72 40 73 41 74 42 75 43 76
REMARK SMILES IDX 69 77 70 78 79 79 71 80 72 81 78 82 80 83 73 84 74 85 75 86
REMARK SMILES IDX 76 87 77 88 53 89 54 90 63 91 55 92 56 93 62 94 64 95 57 96
REMARK SMILES IDX 58 97 59 98 60 99 61 100
REMARK H PARENT 16 7 23 31 85 50 51 61
REMARK Flexibility Score: inf
ROOT
ATOM      1  C   UNL A   1      32.891  28.503  27.289  1.00  0.00     0.002 C 
ENDROOT
BRANCH   1   2
ATOM      2  C   UNL A   1      31.916  29.687  27.203  1.00  0.00     0.021 C 
BRANCH   2   3
ATOM      3  C   UNL A   1      32.138  30.589  25.986  1.00  0.00     0.116 C 
BRANCH   3   4
ATOM      4  N   UNL A   1      31.078  30.424  25.010  1.00  0.00    -0.352 N 
ATOM      5  C   UNL A   1      30.791  29.474  24.067  1.00  0.00     0.251 C 
ATOM      6  O   UNL A   1      29.741  29.628  23.438  1.00  0.00    -0.269 OA
ATOM      7  H   UNL A   1      30.421  31.156  25.030  1.00  0.00     0.163 HD
BRANCH   5   8
ATOM      8  C   UNL A   1      31.638  28.279  23.752  1.00  0.00     0.041 A 
ATOM      9  C   UNL A   1      31.893  25.853  23.991  1.00  0.00     0.119 A 
ATOM     10  C   UNL A   1      31.211  27.044  24.287  1.00  0.00     0.038 A 
ATOM     11  C   UNL A   1      33.001  25.885  23.160  1.00  0.00     0.143 A 
ATOM     12  C   UNL A   1      33.452  27.094  22.643  1.00  0.00     0.041 A 
ATOM     13  F   UNL A   1      33.673  24.773  22.840  1.00  0.00    -0.206 F 
ATOM     14  C   UNL A   1      32.758  28.279  22.914  1.00  0.00     0.017 A 
BRANCH   9  15
ATOM     15  S   UNL A   1      31.228  24.298  24.500  1.00  0.00     0.246 S 
ATOM     16  O   UNL A   1      30.714  23.607  23.332  1.00  0.00    -0.207 OA
ATOM     17  O   UNL A   1      30.353  24.551  25.623  1.00  0.00    -0.207 OA
BRANCH  15  18
ATOM     18  N   UNL A   1      32.565  23.387  25.103  1.00  0.00    -0.197 NA
ATOM     19  C   UNL A   1      34.619  23.482  26.549  1.00  0.00     0.004 C 
ATOM     20  C   UNL A   1      34.311  22.061  27.038  1.00  0.00     0.006 C 
ATOM     21  C   UNL A   1      33.330  24.191  26.114  1.00  0.00     0.106 C 
ATOM     22  C   UNL A   1      33.474  21.274  26.044  1.00  0.00     0.017 C 
ATOM     23  C   UNL A   1      32.220  22.037  25.634  1.00  0.00     0.102 C 
BRANCH  19  24
ATOM     24  C   UNL A   1      35.776  23.544  25.525  1.00  0.00     0.001 C 
ATOM     25  C   UNL A   1      37.177  23.825  26.051  1.00  0.00     0.004 C 
ENDBRANCH  19  24
ENDBRANCH  15  18
ENDBRANCH   9  15
ENDBRANCH   5   8
ENDBRANCH   3   4
ENDBRANCH   2   3
ENDBRANCH   1   2
BRANCH   1  26
ATOM     26  C   UNL A   1      34.291  28.757  26.712  1.00  0.00     0.002 C 
BRANCH  26  27
ATOM     27  C   UNL A   1      35.352  29.192  27.728  1.00  0.00     0.021 C 
BRANCH  27  28
ATOM     28  C   UNL A   1      35.351  30.684  28.053  1.00  0.00     0.116 C 
BRANCH  28  29
ATOM     29  N   UNL A   1      35.333  30.924  29.487  1.00  0.00    -0.352 N 
ATOM     30  C   UNL A   1      36.272  30.608  30.436  1.00  0.00     0.251 C 
ATOM     31  H   UNL A   1      34.529  31.382  29.826  1.00  0.00     0.163 HD
ATOM     32  O   UNL A   1      35.988  30.692  31.627  1.00  0.00    -0.269 OA
BRANCH  30  33
ATOM     33  C   UNL A   1      37.621  30.156  30.026  1.00  0.00     0.039 A 
ATOM     34  C   UNL A   1      38.314  30.887  29.057  1.00  0.00     0.014 A 
ATOM     35  C   UNL A   1      38.187  28.999  30.571  1.00  0.00     0.014 A 
ATOM     36  C   UNL A   1      39.596  30.486  28.673  1.00  0.00     0.010 A 
ATOM     37  C   UNL A   1      39.487  28.634  30.229  1.00  0.00     0.010 A 
ATOM     38  C   UNL A   1      40.204  29.372  29.274  1.00  0.00    -0.014 A 
BRANCH  38  39
ATOM     39  C   UNL A   1      41.585  28.962  28.917  1.00  0.00     0.031 A 
ATOM     40  C   UNL A   1      42.705  29.965  28.955  1.00  0.00     0.074 A 
ATOM     41  C   UNL A   1      41.819  27.700  28.507  1.00  0.00     0.049 A 
ATOM     42  N   UNL A   1      43.956  29.818  28.602  1.00  0.00    -0.248 NA
ATOM     43  C   UNL A   1      42.371  31.318  29.430  1.00  0.00     0.031 C 
ATOM     44  C   UNL A   1      40.808  26.647  28.395  1.00  0.00     0.029 A 
ATOM     45  N   UNL A   1      42.980  27.091  28.097  1.00  0.00    -0.354 N 
ATOM     46  C   UNL A   1      44.554  31.057  28.799  1.00  0.00     0.074 A 
ATOM     47  C   UNL A   1      43.520  31.957  29.260  1.00  0.00     0.031 C 
ATOM     48  C   UNL A   1      41.396  25.516  27.971  1.00  0.00     0.029 A 
ATOM     49  C   UNL A   1      42.816  25.772  27.744  1.00  0.00     0.049 A 
ATOM     50  H   UNL A   1      43.847  27.554  28.060  1.00  0.00     0.167 HD
ATOM     51  C   UNL A   1      45.852  31.404  28.632  1.00  0.00     0.037 A 
ATOM     52  C   UNL A   1      43.706  24.871  27.285  1.00  0.00     0.037 A 
ATOM     53  C   UNL A   1      46.884  30.495  28.205  1.00  0.00     0.049 A 
ATOM     54  C   UNL A   1      45.142  25.281  27.107  1.00  0.00     0.074 A 
ATOM     55  C   UNL A   1      48.237  30.741  28.055  1.00  0.00     0.029 A 
ATOM     56  N   UNL A   1      46.679  29.166  27.866  1.00  0.00    -0.354 N 
ATOM     57  N   UNL A   1      45.697  26.448  27.332  1.00  0.00    -0.248 NA
ATOM     58  C   UNL A   1      46.072  24.256  26.616  1.00  0.00     0.031 C 
ATOM     59  C   UNL A   1      48.846  29.570  27.593  1.00  0.00     0.029 A 
ATOM     60  C   UNL A   1      47.878  28.583  27.493  1.00  0.00     0.049 A 
ATOM     61  H   UNL A   1      45.809  28.705  27.889  1.00  0.00     0.167 HD
ATOM     62  C   UNL A   1      47.044  26.293  27.027  1.00  0.00     0.074 A 
ATOM     63  C   UNL A   1      47.223  24.917  26.612  1.00  0.00     0.031 C 
ATOM     64  C   UNL A   1      48.040  27.210  27.085  1.00  0.00     0.037 A 
BRANCH  51  65
ATOM     65  C   UNL A   1      46.240  32.826  28.929  1.00  0.00     0.058 A 
ATOM     66  C   UNL A   1      46.241  33.795  27.913  1.00  0.00     0.135 A 
ATOM     67  C   UNL A   1      46.668  33.217  30.207  1.00  0.00     0.135 A 
ATOM     68  F   UNL A   1      45.834  33.477  26.674  1.00  0.00    -0.206 F 
ATOM     69  C   UNL A   1      46.662  35.099  28.152  1.00  0.00     0.059 A 
ATOM     70  C   UNL A   1      47.071  34.522  30.475  1.00  0.00     0.059 A 
ATOM     71  F   UNL A   1      46.666  32.334  31.220  1.00  0.00    -0.206 F 
ATOM     72  C   UNL A   1      47.078  35.452  29.437  1.00  0.00     0.060 A 
BRANCH  72  73
ATOM     73  S   UNL A   1      47.589  37.157  29.741  1.00  0.00     0.124 S 
ATOM     74  O   UNL A   1      48.100  37.555  28.435  1.00  0.00    -0.237 OA
ATOM     75  O   UNL A   1      46.336  37.784  30.154  1.00  0.00    -0.237 OA
ATOM     76  O   UNL A   1      48.589  37.026  30.797  1.00  0.00    -0.744 OA
ENDBRANCH  72  73
ENDBRANCH  51  65
BRANCH  52  77
ATOM     77  C   UNL A   1      43.262  23.484  26.992  1.00  0.00     0.058 A 
ATOM     78  C   UNL A   1      43.087  22.541  28.016  1.00  0.00     0.135 A 
ATOM     79  C   UNL A   1      43.052  23.063  25.670  1.00  0.00     0.135 A 
ATOM     80  F   UNL A   1      43.286  22.891  29.296  1.00  0.00    -0.206 F 
ATOM     81  C   UNL A   1      42.743  21.223  27.739  1.00  0.00     0.059 A 
ATOM     82  C   UNL A   1      42.686  21.754  25.370  1.00  0.00     0.059 A 
ATOM     83  F   UNL A   1      43.195  23.933  24.660  1.00  0.00    -0.206 F 
ATOM     84  C   UNL A   1      42.554  20.837  26.411  1.00  0.00     0.060 A 
BRANCH  84  85
ATOM     85  S   UNL A   1      42.135  19.113  26.070  1.00  0.00     0.124 S 
ATOM     86  O   UNL A   1      40.691  19.199  25.876  1.00  0.00    -0.237 OA
ATOM     87  O   UNL A   1      42.922  18.838  24.872  1.00  0.00    -0.237 OA
ATOM     88  O   UNL A   1      42.568  18.415  27.276  1.00  0.00    -0.744 OA
ENDBRANCH  84  85
ENDBRANCH  52  77
BRANCH  64  89
ATOM     89  C   UNL A   1      49.423  26.762  26.706  1.00  0.00     0.058 A 
ATOM     90  C   UNL A   1      50.305  26.270  27.681  1.00  0.00     0.135 A 
ATOM     91  C   UNL A   1      49.902  26.899  25.394  1.00  0.00     0.135 A 
ATOM     92  F   UNL A   1      49.895  26.123  28.952  1.00  0.00    -0.206 F 
ATOM     93  C   UNL A   1      51.622  25.951  27.374  1.00  0.00     0.059 A 
ATOM     94  C   UNL A   1      51.211  26.565  25.059  1.00  0.00     0.059 A 
ATOM     95  F   UNL A   1      49.093  27.352  24.424  1.00  0.00    -0.206 F 
ATOM     96  C   UNL A   1      52.069  26.109  26.061  1.00  0.00     0.060 A 
BRANCH  96  97
ATOM     97  S   UNL A   1      53.782  25.690  25.678  1.00  0.00     0.124 S 
ATOM     98  O   UNL A   1      54.214  25.043  26.912  1.00  0.00    -0.237 OA
ATOM     99  O   UNL A   1      53.635  24.814  24.520  1.00  0.00    -0.237 OA
ATOM    100  O   UNL A   1      54.393  26.987  25.400  1.00  0.00    -0.744 OA
ENDBRANCH  96  97
ENDBRANCH  64  89
ENDBRANCH  38  39
ENDBRANCH  30  33
ENDBRANCH  28  29
ENDBRANCH  27  28
ENDBRANCH  26  27
ENDBRANCH   1  26
TORSDOF 19
ENDMDL
