MODEL 1
REMARK VINA RESULT:     -11.7      0.000      0.000
REMARK SMILES O=C(NCCCCCCNC(=O)c1ccc(Cl)nc1NC[C@@H]1C[N@@H+]2CCC[C@@H]2CO1)c1ccc(-c2c3nc(c(-c4c(F)cc(S(=O)(=O)[O-])cc4F)c4ccc([nH]4)c(-c4c(F)cc(S(=O)(=O)[O-])cc4F)c4nc(c(-c5c(F)cc(S(=O)(=O)[O-])cc5F)c5ccc2[nH]5)C=C4)C=C3)cc1
REMARK SMILES IDX 6 1 5 2 4 3 3 4 1 5 2 6 31 8 32 9 96 10 33 11 95 12 34 13
REMARK SMILES IDX 35 14 36 15 89 16 37 17 94 18 88 19 90 20 38 21 93 22 87 23
REMARK SMILES IDX 86 24 39 26 73 27 52 28 72 29 53 30 56 31 71 32 91 33 54 34
REMARK SMILES IDX 55 35 70 37 92 38 57 39 40 40 41 41 50 42 42 43 43 44 49 45
REMARK SMILES IDX 51 46 44 47 45 48 46 49 47 50 48 51 74 52 75 53 84 54 76 55
REMARK SMILES IDX 77 56 83 57 85 58 78 59 79 60 80 61 81 62 82 63 58 64 59 65
REMARK SMILES IDX 68 66 60 67 61 68 67 69 69 70 62 71 63 72 64 73 65 74 66 75
REMARK SMILES IDX 7 76 8 77 9 78 10 79 11 80 12 82 13 83 14 84 19 85 15 86
REMARK SMILES IDX 18 87 16 88 17 89 20 90 21 92 22 93 23 94 30 95 24 96 29 97
REMARK SMILES IDX 25 98 28 99 26 101 27 102
REMARK H PARENT 3 7 90 25 56 36 10 81 20 91 24 100
REMARK Flexibility Score: inf
ROOT
ATOM      1  C   UNL A   1      39.388  22.347  26.123  1.00  0.00     0.002 C 
ENDROOT
BRANCH   1   2
ATOM      2  C   UNL A   1      40.359  22.113  27.278  1.00  0.00     0.021 C 
BRANCH   2   3
ATOM      3  C   UNL A   1      41.414  23.193  27.475  1.00  0.00     0.116 C 
BRANCH   3   4
ATOM      4  N   UNL A   1      41.683  23.956  26.269  1.00  0.00    -0.352 N 
ATOM      5  O   UNL A   1      41.752  25.784  24.948  1.00  0.00    -0.269 OA
ATOM      6  C   UNL A   1      41.615  25.317  26.075  1.00  0.00     0.251 C 
ATOM      7  H   UNL A   1      41.952  23.427  25.483  1.00  0.00     0.163 HD
BRANCH   6   8
ATOM      8  C   UNL A   1      41.344  26.212  27.224  1.00  0.00     0.039 A 
ATOM      9  C   UNL A   1      42.193  27.284  27.508  1.00  0.00     0.014 A 
ATOM     10  C   UNL A   1      40.230  25.970  28.034  1.00  0.00     0.014 A 
ATOM     11  C   UNL A   1      42.014  28.016  28.677  1.00  0.00     0.010 A 
ATOM     12  C   UNL A   1      40.001  26.766  29.164  1.00  0.00     0.010 A 
ATOM     13  C   UNL A   1      40.909  27.776  29.512  1.00  0.00    -0.014 A 
BRANCH  13  14
ATOM     14  C   UNL A   1      40.709  28.648  30.700  1.00  0.00     0.031 A 
ATOM     15  C   UNL A   1      41.607  28.556  31.905  1.00  0.00     0.074 A 
ATOM     16  C   UNL A   1      39.735  29.577  30.653  1.00  0.00     0.049 A 
ATOM     17  N   UNL A   1      41.607  29.296  32.985  1.00  0.00    -0.248 NA
ATOM     18  C   UNL A   1      42.628  27.498  31.906  1.00  0.00     0.031 C 
ATOM     19  C   UNL A   1      38.782  29.738  29.550  1.00  0.00     0.029 A 
ATOM     20  N   UNL A   1      39.398  30.577  31.528  1.00  0.00    -0.354 N 
ATOM     21  C   UNL A   1      42.618  28.794  33.796  1.00  0.00     0.074 A 
ATOM     22  C   UNL A   1      43.192  27.664  33.095  1.00  0.00     0.031 C 
ATOM     23  C   UNL A   1      38.007  30.805  29.789  1.00  0.00     0.029 A 
ATOM     24  C   UNL A   1      38.371  31.374  31.081  1.00  0.00     0.049 A 
ATOM     25  H   UNL A   1      39.849  30.710  32.392  1.00  0.00     0.167 HD
ATOM     26  C   UNL A   1      43.037  29.243  35.005  1.00  0.00     0.037 A 
ATOM     27  C   UNL A   1      37.780  32.442  31.648  1.00  0.00     0.037 A 
ATOM     28  C   UNL A   1      42.464  30.372  35.694  1.00  0.00     0.049 A 
ATOM     29  C   UNL A   1      38.276  32.928  32.978  1.00  0.00     0.074 A 
ATOM     30  C   UNL A   1      42.818  30.903  36.924  1.00  0.00     0.029 A 
ATOM     31  N   UNL A   1      41.421  31.151  35.213  1.00  0.00    -0.354 N 
ATOM     32  N   UNL A   1      39.244  32.446  33.721  1.00  0.00    -0.248 NA
ATOM     33  C   UNL A   1      37.604  34.102  33.548  1.00  0.00     0.031 C 
ATOM     34  C   UNL A   1      41.973  31.985  37.197  1.00  0.00     0.029 A 
ATOM     35  C   UNL A   1      41.116  32.152  36.121  1.00  0.00     0.049 A 
ATOM     36  H   UNL A   1      40.964  31.011  34.352  1.00  0.00     0.167 HD
ATOM     37  C   UNL A   1      39.295  33.255  34.847  1.00  0.00     0.074 A 
ATOM     38  C   UNL A   1      38.284  34.279  34.671  1.00  0.00     0.031 C 
ATOM     39  C   UNL A   1      40.099  33.155  35.935  1.00  0.00     0.037 A 
BRANCH  26  40
ATOM     40  C   UNL A   1      44.172  28.511  35.668  1.00  0.00     0.058 A 
ATOM     41  C   UNL A   1      45.509  28.871  35.436  1.00  0.00     0.135 A 
ATOM     42  C   UNL A   1      43.923  27.480  36.589  1.00  0.00     0.135 A 
ATOM     43  F   UNL A   1      45.804  29.841  34.556  1.00  0.00    -0.206 F 
ATOM     44  C   UNL A   1      46.559  28.224  36.079  1.00  0.00     0.059 A 
ATOM     45  C   UNL A   1      44.957  26.832  37.259  1.00  0.00     0.059 A 
ATOM     46  F   UNL A   1      42.663  27.097  36.848  1.00  0.00    -0.206 F 
ATOM     47  C   UNL A   1      46.273  27.204  36.989  1.00  0.00     0.060 A 
BRANCH  47  48
ATOM     48  S   UNL A   1      47.648  26.383  37.824  1.00  0.00     0.124 S 
ATOM     49  O   UNL A   1      47.933  25.286  36.904  1.00  0.00    -0.237 OA
ATOM     50  O   UNL A   1      48.654  27.436  37.883  1.00  0.00    -0.237 OA
ATOM     51  O   UNL A   1      47.079  25.991  39.111  1.00  0.00    -0.744 OA
ENDBRANCH  47  48
ENDBRANCH  26  40
BRANCH  27  52
ATOM     52  C   UNL A   1      36.651  33.112  30.955  1.00  0.00     0.058 A 
ATOM     53  C   UNL A   1      35.328  32.937  31.382  1.00  0.00     0.135 A 
ATOM     54  C   UNL A   1      36.881  33.966  29.865  1.00  0.00     0.135 A 
ATOM     55  F   UNL A   1      35.058  32.128  32.419  1.00  0.00    -0.206 F 
ATOM     56  C   UNL A   1      34.268  33.573  30.743  1.00  0.00     0.059 A 
ATOM     57  C   UNL A   1      35.843  34.633  29.228  1.00  0.00     0.059 A 
ATOM     58  F   UNL A   1      38.134  34.182  29.433  1.00  0.00    -0.206 F 
ATOM     59  C   UNL A   1      34.537  34.421  29.667  1.00  0.00     0.060 A 
BRANCH  59  60
ATOM     60  S   UNL A   1      33.166  35.288  28.874  1.00  0.00     0.124 S 
ATOM     61  O   UNL A   1      32.336  35.631  30.023  1.00  0.00    -0.237 OA
ATOM     62  O   UNL A   1      33.841  36.403  28.217  1.00  0.00    -0.237 OA
ATOM     63  O   UNL A   1      32.615  34.281  27.972  1.00  0.00    -0.744 OA
ENDBRANCH  59  60
ENDBRANCH  27  52
BRANCH  39  64
ATOM     64  C   UNL A   1      39.910  34.186  37.011  1.00  0.00     0.058 A 
ATOM     65  C   UNL A   1      40.462  35.471  36.897  1.00  0.00     0.135 A 
ATOM     66  C   UNL A   1      39.167  33.888  38.163  1.00  0.00     0.135 A 
ATOM     67  F   UNL A   1      41.186  35.801  35.816  1.00  0.00    -0.206 F 
ATOM     68  C   UNL A   1      40.315  36.416  37.906  1.00  0.00     0.059 A 
ATOM     69  C   UNL A   1      38.988  34.825  39.175  1.00  0.00     0.059 A 
ATOM     70  F   UNL A   1      38.612  32.675  38.316  1.00  0.00    -0.206 F 
ATOM     71  C   UNL A   1      39.581  36.081  39.045  1.00  0.00     0.060 A 
BRANCH  71  72
ATOM     72  S   UNL A   1      39.394  37.313  40.352  1.00  0.00     0.124 S 
ATOM     73  O   UNL A   1      38.442  36.653  41.240  1.00  0.00    -0.237 OA
ATOM     74  O   UNL A   1      40.755  37.440  40.864  1.00  0.00    -0.237 OA
ATOM     75  O   UNL A   1      38.886  38.482  39.642  1.00  0.00    -0.744 OA
ENDBRANCH  71  72
ENDBRANCH  39  64
ENDBRANCH  13  14
ENDBRANCH   6   8
ENDBRANCH   3   4
ENDBRANCH   2   3
ENDBRANCH   1   2
BRANCH   1  76
ATOM     76  C   UNL A   1      38.289  23.384  26.370  1.00  0.00     0.002 C 
BRANCH  76  77
ATOM     77  C   UNL A   1      37.032  23.262  25.499  1.00  0.00     0.021 C 
BRANCH  77  78
ATOM     78  C   UNL A   1      36.101  22.097  25.836  1.00  0.00     0.116 C 
BRANCH  78  79
ATOM     79  N   UNL A   1      34.917  22.531  26.555  1.00  0.00    -0.352 N 
ATOM     80  C   UNL A   1      33.601  22.213  26.334  1.00  0.00     0.255 C 
ATOM     81  H   UNL A   1      35.082  23.140  27.310  1.00  0.00     0.163 HD
ATOM     82  O   UNL A   1      32.716  22.799  26.951  1.00  0.00    -0.269 OA
BRANCH  80  83
ATOM     83  C   UNL A   1      33.243  21.157  25.367  1.00  0.00     0.082 A 
ATOM     84  C   UNL A   1      33.327  19.813  25.751  1.00  0.00     0.021 A 
ATOM     85  C   UNL A   1      32.756  21.494  24.093  1.00  0.00     0.140 A 
ATOM     86  C   UNL A   1      32.984  18.829  24.836  1.00  0.00     0.042 A 
ATOM     87  N   UNL A   1      32.428  20.529  23.203  1.00  0.00    -0.219 NA
ATOM     88  C   UNL A   1      32.552  19.242  23.590  1.00  0.00     0.131 A 
ATOM     89  Cl  UNL A   1      32.118  18.095  22.390  1.00  0.00    -0.062 Cl
BRANCH  85  90
ATOM     90  N   UNL A   1      32.695  22.819  23.689  1.00  0.00    -0.367 N 
ATOM     91  H   UNL A   1      32.004  23.405  24.074  1.00  0.00     0.162 HD
BRANCH  90  92
ATOM     92  C   UNL A   1      33.621  23.370  22.707  1.00  0.00     0.152 C 
BRANCH  92  93
ATOM     93  C   UNL A   1      34.032  24.806  23.112  1.00  0.00     0.192 C 
ATOM     94  C   UNL A   1      33.202  25.322  24.322  1.00  0.00     0.296 C 
ATOM     95  O   UNL A   1      33.999  25.687  21.967  1.00  0.00    -0.364 OA
ATOM     96  N   UNL A   1      32.238  26.401  24.114  1.00  0.00    -0.328 N 
ATOM     97  C   UNL A   1      32.669  26.076  21.635  1.00  0.00     0.225 C 
ATOM     98  C   UNL A   1      30.925  26.216  24.716  1.00  0.00     0.262 C 
ATOM     99  C   UNL A   1      32.092  26.936  22.756  1.00  0.00     0.210 C 
ATOM    100  H   UNL A   1      32.728  27.120  24.646  1.00  0.00     0.348 HD
ATOM    101  C   UNL A   1      30.080  27.265  24.012  1.00  0.00     0.068 C 
ATOM    102  C   UNL A   1      30.596  27.199  22.586  1.00  0.00     0.073 C 
ENDBRANCH  92  93
ENDBRANCH  90  92
ENDBRANCH  85  90
ENDBRANCH  80  83
ENDBRANCH  78  79
ENDBRANCH  77  78
ENDBRANCH  76  77
ENDBRANCH   1  76
TORSDOF 19
ENDMDL
MODEL 2
REMARK VINA RESULT:     -11.7      1.392      2.273
REMARK SMILES O=C(NCCCCCCNC(=O)c1ccc(Cl)nc1NC[C@@H]1C[N@@H+]2CCC[C@@H]2CO1)c1ccc(-c2c3nc(c(-c4c(F)cc(S(=O)(=O)[O-])cc4F)c4ccc([nH]4)c(-c4c(F)cc(S(=O)(=O)[O-])cc4F)c4nc(c(-c5c(F)cc(S(=O)(=O)[O-])cc5F)c5ccc2[nH]5)C=C4)C=C3)cc1
REMARK SMILES IDX 6 1 5 2 4 3 3 4 1 5 2 6 31 8 32 9 96 10 33 11 95 12 34 13
REMARK SMILES IDX 35 14 36 15 89 16 37 17 94 18 88 19 90 20 38 21 93 22 87 23
REMARK SMILES IDX 86 24 39 26 73 27 52 28 72 29 53 30 56 31 71 32 91 33 54 34
REMARK SMILES IDX 55 35 70 37 92 38 57 39 40 40 41 41 50 42 42 43 43 44 49 45
REMARK SMILES IDX 51 46 44 47 45 48 46 49 47 50 48 51 74 52 75 53 84 54 76 55
REMARK SMILES IDX 77 56 83 57 85 58 78 59 79 60 80 61 81 62 82 63 58 64 59 65
REMARK SMILES IDX 68 66 60 67 61 68 67 69 69 70 62 71 63 72 64 73 65 74 66 75
REMARK SMILES IDX 7 76 8 77 9 78 10 79 11 80 12 82 13 83 14 84 19 85 15 86
REMARK SMILES IDX 18 87 16 88 17 89 20 90 21 92 22 93 23 94 30 95 24 96 29 97
REMARK SMILES IDX 25 98 28 99 26 101 27 102
REMARK H PARENT 3 7 90 25 56 36 10 81 20 91 24 100
REMARK Flexibility Score: inf
ROOT
ATOM      1  C   UNL A   1      40.254  21.488  26.283  1.00  0.00     0.002 C 
ENDROOT
BRANCH   1   2
ATOM      2  C   UNL A   1      40.737  22.151  27.572  1.00  0.00     0.021 C 
BRANCH   2   3
ATOM      3  C   UNL A   1      41.912  23.107  27.415  1.00  0.00     0.116 C 
BRANCH   3   4
ATOM      4  N   UNL A   1      41.830  23.921  26.214  1.00  0.00    -0.352 N 
ATOM      5  O   UNL A   1      41.392  25.764  24.989  1.00  0.00    -0.269 OA
ATOM      6  C   UNL A   1      41.547  25.263  26.099  1.00  0.00     0.251 C 
ATOM      7  H   UNL A   1      42.002  23.448  25.369  1.00  0.00     0.163 HD
BRANCH   6   8
ATOM      8  C   UNL A   1      41.399  26.092  27.318  1.00  0.00     0.039 A 
ATOM      9  C   UNL A   1      40.317  25.905  28.180  1.00  0.00     0.014 A 
ATOM     10  C   UNL A   1      42.352  27.077  27.597  1.00  0.00     0.014 A 
ATOM     11  C   UNL A   1      40.108  26.792  29.229  1.00  0.00     0.010 A 
ATOM     12  C   UNL A   1      42.187  27.914  28.708  1.00  0.00     0.010 A 
ATOM     13  C   UNL A   1      41.046  27.799  29.516  1.00  0.00    -0.014 A 
BRANCH  13  14
ATOM     14  C   UNL A   1      40.827  28.663  30.706  1.00  0.00     0.031 A 
ATOM     15  C   UNL A   1      41.717  28.578  31.917  1.00  0.00     0.074 A 
ATOM     16  C   UNL A   1      39.840  29.579  30.656  1.00  0.00     0.049 A 
ATOM     17  N   UNL A   1      41.699  29.314  33.000  1.00  0.00    -0.248 NA
ATOM     18  C   UNL A   1      42.752  27.533  31.921  1.00  0.00     0.031 C 
ATOM     19  C   UNL A   1      38.893  29.732  29.547  1.00  0.00     0.029 A 
ATOM     20  N   UNL A   1      39.484  30.571  31.532  1.00  0.00    -0.354 N 
ATOM     21  C   UNL A   1      42.712  28.822  33.816  1.00  0.00     0.074 A 
ATOM     22  C   UNL A   1      43.306  27.702  33.115  1.00  0.00     0.031 C 
ATOM     23  C   UNL A   1      38.102  30.788  29.785  1.00  0.00     0.029 A 
ATOM     24  C   UNL A   1      38.450  31.356  31.082  1.00  0.00     0.049 A 
ATOM     25  H   UNL A   1      39.927  30.707  32.401  1.00  0.00     0.167 HD
ATOM     26  C   UNL A   1      43.116  29.271  35.030  1.00  0.00     0.037 A 
ATOM     27  C   UNL A   1      37.841  32.414  31.649  1.00  0.00     0.037 A 
ATOM     28  C   UNL A   1      42.523  30.390  35.720  1.00  0.00     0.049 A 
ATOM     29  C   UNL A   1      38.321  32.901  32.984  1.00  0.00     0.074 A 
ATOM     30  C   UNL A   1      42.862  30.920  36.954  1.00  0.00     0.029 A 
ATOM     31  N   UNL A   1      41.473  31.156  35.234  1.00  0.00    -0.354 N 
ATOM     32  N   UNL A   1      39.290  32.429  33.731  1.00  0.00    -0.248 NA
ATOM     33  C   UNL A   1      37.629  34.064  33.554  1.00  0.00     0.031 C 
ATOM     34  C   UNL A   1      42.000  31.989  37.225  1.00  0.00     0.029 A 
ATOM     35  C   UNL A   1      41.148  32.150  36.144  1.00  0.00     0.049 A 
ATOM     36  H   UNL A   1      41.024  31.014  34.369  1.00  0.00     0.167 HD
ATOM     37  C   UNL A   1      39.322  33.234  34.862  1.00  0.00     0.074 A 
ATOM     38  C   UNL A   1      38.299  34.245  34.683  1.00  0.00     0.031 C 
ATOM     39  C   UNL A   1      40.120  33.140  35.954  1.00  0.00     0.037 A 
BRANCH  26  40
ATOM     40  C   UNL A   1      44.256  28.552  35.698  1.00  0.00     0.058 A 
ATOM     41  C   UNL A   1      44.031  27.478  36.573  1.00  0.00     0.135 A 
ATOM     42  C   UNL A   1      45.588  28.900  35.419  1.00  0.00     0.135 A 
ATOM     43  F   UNL A   1      42.777  27.112  36.886  1.00  0.00    -0.206 F 
ATOM     44  C   UNL A   1      45.085  26.785  37.161  1.00  0.00     0.059 A 
ATOM     45  C   UNL A   1      46.658  28.208  35.980  1.00  0.00     0.059 A 
ATOM     46  F   UNL A   1      45.859  29.919  34.590  1.00  0.00    -0.206 F 
ATOM     47  C   UNL A   1      46.395  27.158  36.859  1.00  0.00     0.060 A 
BRANCH  47  48
ATOM     48  S   UNL A   1      47.752  26.240  37.621  1.00  0.00     0.124 S 
ATOM     49  O   UNL A   1      48.037  25.240  36.596  1.00  0.00    -0.237 OA
ATOM     50  O   UNL A   1      48.768  27.271  37.798  1.00  0.00    -0.237 OA
ATOM     51  O   UNL A   1      47.164  25.725  38.854  1.00  0.00    -0.744 OA
ENDBRANCH  47  48
ENDBRANCH  26  40
BRANCH  27  52
ATOM     52  C   UNL A   1      36.708  33.071  30.950  1.00  0.00     0.058 A 
ATOM     53  C   UNL A   1      35.395  32.961  31.428  1.00  0.00     0.135 A 
ATOM     54  C   UNL A   1      36.925  33.850  29.803  1.00  0.00     0.135 A 
ATOM     55  F   UNL A   1      35.138  32.226  32.521  1.00  0.00    -0.206 F 
ATOM     56  C   UNL A   1      34.332  33.587  30.784  1.00  0.00     0.059 A 
ATOM     57  C   UNL A   1      35.885  34.506  29.157  1.00  0.00     0.059 A 
ATOM     58  F   UNL A   1      38.168  34.003  29.319  1.00  0.00    -0.206 F 
ATOM     59  C   UNL A   1      34.588  34.358  29.649  1.00  0.00     0.060 A 
BRANCH  59  60
ATOM     60  S   UNL A   1      33.215  35.214  28.846  1.00  0.00     0.124 S 
ATOM     61  O   UNL A   1      33.918  36.240  28.084  1.00  0.00    -0.237 OA
ATOM     62  O   UNL A   1      32.598  34.147  28.065  1.00  0.00    -0.237 OA
ATOM     63  O   UNL A   1      32.421  35.694  29.972  1.00  0.00    -0.744 OA
ENDBRANCH  59  60
ENDBRANCH  27  52
BRANCH  39  64
ATOM     64  C   UNL A   1      39.910  34.164  37.033  1.00  0.00     0.058 A 
ATOM     65  C   UNL A   1      39.130  33.883  38.166  1.00  0.00     0.135 A 
ATOM     66  C   UNL A   1      40.497  35.434  36.936  1.00  0.00     0.135 A 
ATOM     67  F   UNL A   1      38.542  32.683  38.300  1.00  0.00    -0.206 F 
ATOM     68  C   UNL A   1      38.909  34.839  39.150  1.00  0.00     0.059 A 
ATOM     69  C   UNL A   1      40.309  36.399  37.921  1.00  0.00     0.059 A 
ATOM     70  F   UNL A   1      41.259  35.749  35.877  1.00  0.00    -0.206 F 
ATOM     71  C   UNL A   1      39.498  36.098  39.015  1.00  0.00     0.060 A 
BRANCH  71  72
ATOM     72  S   UNL A   1      39.207  37.335  40.297  1.00  0.00     0.124 S 
ATOM     73  O   UNL A   1      38.312  38.261  39.611  1.00  0.00    -0.237 OA
ATOM     74  O   UNL A   1      38.604  36.547  41.367  1.00  0.00    -0.237 OA
ATOM     75  O   UNL A   1      40.544  37.847  40.581  1.00  0.00    -0.744 OA
ENDBRANCH  71  72
ENDBRANCH  39  64
ENDBRANCH  13  14
ENDBRANCH   6   8
ENDBRANCH   3   4
ENDBRANCH   2   3
ENDBRANCH   1   2
BRANCH   1  76
ATOM     76  C   UNL A   1      38.814  21.800  25.866  1.00  0.00     0.002 C 
BRANCH  76  77
ATOM     77  C   UNL A   1      38.311  23.217  26.168  1.00  0.00     0.021 C 
BRANCH  77  78
ATOM     78  C   UNL A   1      36.964  23.590  25.549  1.00  0.00     0.116 C 
BRANCH  78  79
ATOM     79  N   UNL A   1      35.850  22.977  26.250  1.00  0.00    -0.352 N 
ATOM     80  C   UNL A   1      34.513  23.000  25.945  1.00  0.00     0.255 C 
ATOM     81  H   UNL A   1      36.089  22.472  27.060  1.00  0.00     0.163 HD
ATOM     82  O   UNL A   1      33.694  22.552  26.741  1.00  0.00    -0.269 OA
BRANCH  80  83
ATOM     83  C   UNL A   1      34.054  23.549  24.653  1.00  0.00     0.082 A 
ATOM     84  C   UNL A   1      34.246  22.807  23.482  1.00  0.00     0.021 A 
ATOM     85  C   UNL A   1      33.369  24.774  24.604  1.00  0.00     0.140 A 
ATOM     86  C   UNL A   1      33.808  23.330  22.274  1.00  0.00     0.042 A 
ATOM     87  N   UNL A   1      32.948  25.281  23.423  1.00  0.00    -0.219 NA
ATOM     88  C   UNL A   1      33.177  24.560  22.305  1.00  0.00     0.131 A 
ATOM     89  Cl  UNL A   1      32.612  25.291  20.860  1.00  0.00    -0.062 Cl
BRANCH  85  90
ATOM     90  N   UNL A   1      33.197  25.533  25.752  1.00  0.00    -0.367 N 
ATOM     91  H   UNL A   1      32.471  25.300  26.375  1.00  0.00     0.162 HD
BRANCH  90  92
ATOM     92  C   UNL A   1      34.058  26.668  26.064  1.00  0.00     0.152 C 
BRANCH  92  93
ATOM     93  C   UNL A   1      33.209  27.950  26.228  1.00  0.00     0.192 C 
ATOM     94  C   UNL A   1      31.688  27.654  26.089  1.00  0.00     0.296 C 
ATOM     95  O   UNL A   1      33.681  28.991  25.344  1.00  0.00    -0.364 OA
ATOM     96  N   UNL A   1      30.969  28.162  24.922  1.00  0.00    -0.328 N 
ATOM     97  C   UNL A   1      33.250  28.783  24.002  1.00  0.00     0.225 C 
ATOM     98  C   UNL A   1      30.080  27.221  24.255  1.00  0.00     0.262 C 
ATOM     99  C   UNL A   1      31.732  28.919  23.924  1.00  0.00     0.210 C 
ATOM    100  H   UNL A   1      30.392  28.846  25.410  1.00  0.00     0.348 HD
ATOM    101  C   UNL A   1      29.813  27.898  22.920  1.00  0.00     0.068 C 
ATOM    102  C   UNL A   1      31.171  28.482  22.571  1.00  0.00     0.073 C 
ENDBRANCH  92  93
ENDBRANCH  90  92
ENDBRANCH  85  90
ENDBRANCH  80  83
ENDBRANCH  78  79
ENDBRANCH  77  78
ENDBRANCH  76  77
ENDBRANCH   1  76
TORSDOF 19
ENDMDL
MODEL 3
REMARK VINA RESULT:     -11.7      6.410     11.879
REMARK SMILES O=C(NCCCCCCNC(=O)c1ccc(Cl)nc1NC[C@@H]1C[N@@H+]2CCC[C@@H]2CO1)c1ccc(-c2c3nc(c(-c4c(F)cc(S(=O)(=O)[O-])cc4F)c4ccc([nH]4)c(-c4c(F)cc(S(=O)(=O)[O-])cc4F)c4nc(c(-c5c(F)cc(S(=O)(=O)[O-])cc5F)c5ccc2[nH]5)C=C4)C=C3)cc1
REMARK SMILES IDX 6 1 5 2 4 3 3 4 1 5 2 6 31 8 32 9 96 10 33 11 95 12 34 13
REMARK SMILES IDX 35 14 36 15 89 16 37 17 94 18 88 19 90 20 38 21 93 22 87 23
REMARK SMILES IDX 86 24 39 26 73 27 52 28 72 29 53 30 56 31 71 32 91 33 54 34
REMARK SMILES IDX 55 35 70 37 92 38 57 39 40 40 41 41 50 42 42 43 43 44 49 45
REMARK SMILES IDX 51 46 44 47 45 48 46 49 47 50 48 51 74 52 75 53 84 54 76 55
REMARK SMILES IDX 77 56 83 57 85 58 78 59 79 60 80 61 81 62 82 63 58 64 59 65
REMARK SMILES IDX 68 66 60 67 61 68 67 69 69 70 62 71 63 72 64 73 65 74 66 75
REMARK SMILES IDX 7 76 8 77 9 78 10 79 11 80 12 82 13 83 14 84 19 85 15 86
REMARK SMILES IDX 18 87 16 88 17 89 20 90 21 92 22 93 23 94 30 95 24 96 29 97
REMARK SMILES IDX 25 98 28 99 26 101 27 102
REMARK H PARENT 3 7 90 25 56 36 10 81 20 91 24 100
REMARK Flexibility Score: inf
ROOT
ATOM      1  C   UNL A   1      35.548  32.721  27.958  1.00  0.00     0.002 C 
ENDROOT
BRANCH   1   2
ATOM      2  C   UNL A   1      35.649  33.594  29.207  1.00  0.00     0.021 C 
BRANCH   2   3
ATOM      3  C   UNL A   1      36.661  33.132  30.248  1.00  0.00     0.116 C 
BRANCH   3   4
ATOM      4  N   UNL A   1      36.179  32.029  31.062  1.00  0.00    -0.352 N 
ATOM      5  O   UNL A   1      36.135  29.929  31.885  1.00  0.00    -0.269 OA
ATOM      6  C   UNL A   1      36.748  30.792  31.263  1.00  0.00     0.251 C 
ATOM      7  H   UNL A   1      35.331  32.190  31.535  1.00  0.00     0.163 HD
BRANCH   6   8
ATOM      8  C   UNL A   1      38.086  30.496  30.699  1.00  0.00     0.039 A 
ATOM      9  C   UNL A   1      38.293  30.495  29.318  1.00  0.00     0.014 A 
ATOM     10  C   UNL A   1      39.146  30.208  31.565  1.00  0.00     0.014 A 
ATOM     11  C   UNL A   1      39.510  30.063  28.804  1.00  0.00     0.010 A 
ATOM     12  C   UNL A   1      40.398  29.858  31.044  1.00  0.00     0.010 A 
ATOM     13  C   UNL A   1      40.582  29.752  29.658  1.00  0.00    -0.014 A 
BRANCH  13  14
ATOM     14  C   UNL A   1      41.892  29.386  29.057  1.00  0.00     0.031 A 
ATOM     15  C   UNL A   1      43.034  30.364  29.000  1.00  0.00     0.074 A 
ATOM     16  C   UNL A   1      42.060  28.124  28.614  1.00  0.00     0.049 A 
ATOM     17  N   UNL A   1      44.258  30.172  28.576  1.00  0.00    -0.248 NA
ATOM     18  C   UNL A   1      42.773  31.734  29.468  1.00  0.00     0.031 C 
ATOM     19  C   UNL A   1      41.014  27.097  28.589  1.00  0.00     0.029 A 
ATOM     20  N   UNL A   1      43.168  27.478  28.131  1.00  0.00    -0.354 N 
ATOM     21  C   UNL A   1      44.911  31.390  28.719  1.00  0.00     0.074 A 
ATOM     22  C   UNL A   1      43.938  32.327  29.242  1.00  0.00     0.031 C 
ATOM     23  C   UNL A   1      41.542  25.940  28.168  1.00  0.00     0.029 A 
ATOM     24  C   UNL A   1      42.948  26.152  27.846  1.00  0.00     0.049 A 
ATOM     25  H   UNL A   1      44.037  27.922  28.001  1.00  0.00     0.167 HD
ATOM     26  C   UNL A   1      46.205  31.695  28.452  1.00  0.00     0.037 A 
ATOM     27  C   UNL A   1      43.781  25.207  27.371  1.00  0.00     0.037 A 
ATOM     28  C   UNL A   1      47.170  30.756  27.937  1.00  0.00     0.049 A 
ATOM     29  C   UNL A   1      45.213  25.568  27.103  1.00  0.00     0.074 A 
ATOM     30  C   UNL A   1      48.505  30.970  27.633  1.00  0.00     0.029 A 
ATOM     31  N   UNL A   1      46.909  29.423  27.655  1.00  0.00    -0.354 N 
ATOM     32  N   UNL A   1      45.813  26.723  27.259  1.00  0.00    -0.248 NA
ATOM     33  C   UNL A   1      46.082  24.499  26.595  1.00  0.00     0.031 C 
ATOM     34  C   UNL A   1      49.042  29.773  27.143  1.00  0.00     0.029 A 
ATOM     35  C   UNL A   1      48.053  28.804  27.176  1.00  0.00     0.049 A 
ATOM     36  H   UNL A   1      46.037  28.981  27.776  1.00  0.00     0.167 HD
ATOM     37  C   UNL A   1      47.129  26.522  26.866  1.00  0.00     0.074 A 
ATOM     38  C   UNL A   1      47.246  25.125  26.499  1.00  0.00     0.031 C 
ATOM     39  C   UNL A   1      48.147  27.415  26.805  1.00  0.00     0.037 A 
BRANCH  26  40
ATOM     40  C   UNL A   1      46.660  33.106  28.710  1.00  0.00     0.058 A 
ATOM     41  C   UNL A   1      47.228  33.478  29.939  1.00  0.00     0.135 A 
ATOM     42  C   UNL A   1      46.582  34.082  27.703  1.00  0.00     0.135 A 
ATOM     43  F   UNL A   1      47.314  32.588  30.941  1.00  0.00    -0.206 F 
ATOM     44  C   UNL A   1      47.686  34.772  30.167  1.00  0.00     0.059 A 
ATOM     45  C   UNL A   1      47.053  35.377  27.902  1.00  0.00     0.059 A 
ATOM     46  F   UNL A   1      46.048  33.779  26.510  1.00  0.00    -0.206 F 
ATOM     47  C   UNL A   1      47.594  35.715  29.142  1.00  0.00     0.060 A 
BRANCH  47  48
ATOM     48  S   UNL A   1      48.206  37.386  29.450  1.00  0.00     0.124 S 
ATOM     49  O   UNL A   1      47.281  38.185  28.652  1.00  0.00    -0.237 OA
ATOM     50  O   UNL A   1      48.064  37.511  30.896  1.00  0.00    -0.237 OA
ATOM     51  O   UNL A   1      49.580  37.341  28.959  1.00  0.00    -0.744 OA
ENDBRANCH  47  48
ENDBRANCH  26  40
BRANCH  27  52
ATOM     52  C   UNL A   1      43.271  23.836  27.118  1.00  0.00     0.058 A 
ATOM     53  C   UNL A   1      42.958  23.404  25.822  1.00  0.00     0.135 A 
ATOM     54  C   UNL A   1      43.114  22.921  28.170  1.00  0.00     0.135 A 
ATOM     55  F   UNL A   1      43.091  24.244  24.783  1.00  0.00    -0.206 F 
ATOM     56  C   UNL A   1      42.492  22.116  25.578  1.00  0.00     0.059 A 
ATOM     57  C   UNL A   1      42.676  21.622  27.950  1.00  0.00     0.059 A 
ATOM     58  F   UNL A   1      43.421  23.283  29.427  1.00  0.00    -0.206 F 
ATOM     59  C   UNL A   1      42.356  21.231  26.650  1.00  0.00     0.060 A 
BRANCH  59  60
ATOM     60  S   UNL A   1      41.803  19.543  26.325  1.00  0.00     0.124 S 
ATOM     61  O   UNL A   1      42.205  18.864  27.551  1.00  0.00    -0.237 OA
ATOM     62  O   UNL A   1      40.367  19.717  26.132  1.00  0.00    -0.237 OA
ATOM     63  O   UNL A   1      42.547  19.177  25.124  1.00  0.00    -0.744 OA
ENDBRANCH  59  60
ENDBRANCH  27  52
BRANCH  39  64
ATOM     64  C   UNL A   1      49.472  26.896  26.324  1.00  0.00     0.058 A 
ATOM     65  C   UNL A   1      50.377  26.279  27.201  1.00  0.00     0.135 A 
ATOM     66  C   UNL A   1      49.838  27.012  24.974  1.00  0.00     0.135 A 
ATOM     67  F   UNL A   1      50.076  26.151  28.503  1.00  0.00    -0.206 F 
ATOM     68  C   UNL A   1      51.617  25.826  26.764  1.00  0.00     0.059 A 
ATOM     69  C   UNL A   1      51.063  26.545  24.510  1.00  0.00     0.059 A 
ATOM     70  F   UNL A   1      49.003  27.587  24.093  1.00  0.00    -0.206 F 
ATOM     71  C   UNL A   1      51.954  25.970  25.417  1.00  0.00     0.060 A 
BRANCH  71  72
ATOM     72  S   UNL A   1      53.565  25.380  24.855  1.00  0.00     0.124 S 
ATOM     73  O   UNL A   1      54.464  26.060  25.782  1.00  0.00    -0.237 OA
ATOM     74  O   UNL A   1      53.451  23.935  25.029  1.00  0.00    -0.237 OA
ATOM     75  O   UNL A   1      53.627  25.835  23.470  1.00  0.00    -0.744 OA
ENDBRANCH  71  72
ENDBRANCH  39  64
ENDBRANCH  13  14
ENDBRANCH   6   8
ENDBRANCH   3   4
ENDBRANCH   2   3
ENDBRANCH   1   2
BRANCH   1  76
ATOM     76  C   UNL A   1      34.582  31.536  28.043  1.00  0.00     0.002 C 
BRANCH  76  77
ATOM     77  C   UNL A   1      35.191  30.145  27.822  1.00  0.00     0.021 C 
BRANCH  77  78
ATOM     78  C   UNL A   1      34.328  29.158  27.036  1.00  0.00     0.116 C 
BRANCH  78  79
ATOM     79  N   UNL A   1      33.182  28.702  27.801  1.00  0.00    -0.352 N 
ATOM     80  C   UNL A   1      32.004  28.157  27.359  1.00  0.00     0.255 C 
ATOM     81  H   UNL A   1      33.261  28.798  28.778  1.00  0.00     0.163 HD
ATOM     82  O   UNL A   1      31.079  27.972  28.145  1.00  0.00    -0.269 OA
BRANCH  80  83
ATOM     83  C   UNL A   1      31.846  27.777  25.941  1.00  0.00     0.082 A 
ATOM     84  C   UNL A   1      31.998  28.749  24.946  1.00  0.00     0.021 A 
ATOM     85  C   UNL A   1      31.613  26.438  25.585  1.00  0.00     0.140 A 
ATOM     86  C   UNL A   1      31.852  28.381  23.616  1.00  0.00     0.042 A 
ATOM     87  N   UNL A   1      31.466  26.086  24.288  1.00  0.00    -0.219 NA
ATOM     88  C   UNL A   1      31.584  27.051  23.351  1.00  0.00     0.131 A 
ATOM     89  Cl  UNL A   1      31.375  26.504  21.739  1.00  0.00    -0.062 Cl
BRANCH  85  90
ATOM     90  N   UNL A   1      31.432  25.470  26.561  1.00  0.00    -0.367 N 
ATOM     91  H   UNL A   1      31.722  25.659  27.483  1.00  0.00     0.162 HD
BRANCH  90  92
ATOM     92  C   UNL A   1      30.825  24.178  26.263  1.00  0.00     0.152 C 
BRANCH  92  93
ATOM     93  C   UNL A   1      31.812  23.036  26.604  1.00  0.00     0.192 C 
ATOM     94  C   UNL A   1      33.273  23.556  26.725  1.00  0.00     0.296 C 
ATOM     95  O   UNL A   1      31.661  21.938  25.677  1.00  0.00    -0.364 OA
ATOM     96  N   UNL A   1      34.253  23.164  25.714  1.00  0.00    -0.328 N 
ATOM     97  C   UNL A   1      32.287  22.212  24.425  1.00  0.00     0.225 C 
ATOM     98  C   UNL A   1      35.097  24.229  25.190  1.00  0.00     0.262 C 
ATOM     99  C   UNL A   1      33.798  22.304  24.617  1.00  0.00     0.210 C 
ATOM    100  H   UNL A   1      34.830  22.573  26.312  1.00  0.00     0.348 HD
ATOM    101  C   UNL A   1      35.691  23.603  23.939  1.00  0.00     0.068 C 
ATOM    102  C   UNL A   1      34.518  22.823  23.373  1.00  0.00     0.073 C 
ENDBRANCH  92  93
ENDBRANCH  90  92
ENDBRANCH  85  90
ENDBRANCH  80  83
ENDBRANCH  78  79
ENDBRANCH  77  78
ENDBRANCH  76  77
ENDBRANCH   1  76
TORSDOF 19
ENDMDL
