MODEL 1
REMARK VINA RESULT:     -13.3      0.000      0.000
REMARK SMILES Cc1ccc(CCC(=O)N2CCC3(CC2)[C@H](C(=O)NCCCCCCNC(=O)c2ccc(-c4c5nc(c(-c6c(F)cc(S(=O)(=O)[O-])cc6F)c6ccc([nH]6)c(-c6c(F)cc(S(=O)(=O)[O-])cc6F)c6nc(c(-c7c(F)cc(S(=O)(=O)[O-])cc7F)c7ccc4[nH]7)C=C6)C=C5)cc2)CC(=O)N3C)cc1
REMARK SMILES IDX 22 1 21 2 20 3 19 4 17 5 18 6 16 8 8 9 9 10 10 11 11 12
REMARK SMILES IDX 15 13 12 14 14 15 13 16 98 17 95 18 96 19 99 20 97 21 7 22
REMARK SMILES IDX 6 23 5 24 1 25 2 26 3 27 101 28 4 29 100 30 23 31 24 32
REMARK SMILES IDX 25 33 26 34 27 35 28 37 29 38 30 39 94 40 31 41 93 42 32 43
REMARK SMILES IDX 33 44 34 45 87 46 35 47 92 48 86 49 88 50 36 51 91 52 85 53
REMARK SMILES IDX 84 54 37 56 71 57 50 58 70 59 51 60 54 61 69 62 89 63 52 64
REMARK SMILES IDX 53 65 68 67 90 68 55 69 38 70 39 71 48 72 40 73 41 74 47 75
REMARK SMILES IDX 49 76 42 77 43 78 44 79 45 80 46 81 72 82 73 83 82 84 74 85
REMARK SMILES IDX 75 86 81 87 83 88 76 89 77 90 78 91 79 92 80 93 56 94 57 95
REMARK SMILES IDX 66 96 58 97 59 98 65 99 67 100 60 101 61 102 62 103 63 104
REMARK SMILES IDX 64 105
REMARK H PARENT 19 7 26 36 88 55 54 66
REMARK Flexibility Score: inf
ROOT
ATOM      1  C   UNL A   1      35.657  22.125  25.363  1.00  0.00     0.002 C 
ENDROOT
BRANCH   1   2
ATOM      2  C   UNL A   1      34.883  21.495  26.526  1.00  0.00     0.021 C 
BRANCH   2   3
ATOM      3  C   UNL A   1      33.359  21.626  26.444  1.00  0.00     0.116 C 
BRANCH   3   4
ATOM      4  N   UNL A   1      32.833  22.889  26.940  1.00  0.00    -0.356 N 
ATOM      5  C   UNL A   1      31.973  23.818  26.452  1.00  0.00     0.226 C 
ATOM      6  O   UNL A   1      31.636  24.712  27.241  1.00  0.00    -0.275 OA
ATOM      7  H   UNL A   1      33.180  23.122  27.832  1.00  0.00     0.163 HD
BRANCH   5   8
ATOM      8  C   UNL A   1      31.388  23.846  25.036  1.00  0.00     0.113 C 
ATOM      9  C   UNL A   1      32.668  28.340  22.646  1.00  0.00     0.222 C 
ATOM     10  O   UNL A   1      33.558  29.136  22.960  1.00  0.00    -0.275 OA
ATOM     11  N   UNL A   1      32.912  26.981  22.601  1.00  0.00    -0.343 N 
ATOM     12  C   UNL A   1      33.938  26.398  23.444  1.00  0.00     0.122 C 
ATOM     13  C   UNL A   1      32.162  25.990  21.872  1.00  0.00     0.122 C 
ATOM     14  C   UNL A   1      33.247  25.486  24.459  1.00  0.00     0.051 C 
ATOM     15  C   UNL A   1      31.353  25.126  22.833  1.00  0.00     0.051 C 
ATOM     16  C   UNL A   1      32.260  24.427  23.889  1.00  0.00     0.058 C 
ATOM     17  N   UNL A   1      32.783  23.180  23.300  1.00  0.00    -0.339 N 
ATOM     18  C   UNL A   1      30.924  22.473  24.572  1.00  0.00     0.116 C 
ATOM     19  C   UNL A   1      31.937  22.090  23.535  1.00  0.00     0.223 C 
ATOM     20  C   UNL A   1      33.806  23.078  22.282  1.00  0.00     0.147 C 
ATOM     21  O   UNL A   1      31.989  20.994  22.999  1.00  0.00    -0.275 OA
BRANCH   9  22
ATOM     22  C   UNL A   1      31.226  28.853  22.570  1.00  0.00     0.105 C 
BRANCH  22  23
ATOM     23  C   UNL A   1      30.320  28.863  23.812  1.00  0.00     0.045 C 
BRANCH  23  24
ATOM     24  C   UNL A   1      31.068  29.053  25.122  1.00  0.00    -0.047 A 
ATOM     25  C   UNL A   1      34.248  29.362  27.986  1.00  0.00     0.044 C 
ATOM     26  C   UNL A   1      33.020  29.274  27.131  1.00  0.00    -0.051 A 
ATOM     27  C   UNL A   1      32.407  28.043  26.876  1.00  0.00     0.004 A 
ATOM     28  C   UNL A   1      32.531  30.420  26.493  1.00  0.00     0.004 A 
ATOM     29  C   UNL A   1      31.412  27.939  25.902  1.00  0.00     0.004 A 
ATOM     30  C   UNL A   1      31.552  30.312  25.505  1.00  0.00     0.004 A 
ENDBRANCH  23  24
ENDBRANCH  22  23
ENDBRANCH   9  22
ENDBRANCH   5   8
ENDBRANCH   3   4
ENDBRANCH   2   3
ENDBRANCH   1   2
BRANCH   1  31
ATOM     31  C   UNL A   1      35.878  23.643  25.447  1.00  0.00     0.002 C 
BRANCH  31  32
ATOM     32  C   UNL A   1      37.298  24.111  25.788  1.00  0.00     0.021 C 
BRANCH  32  33
ATOM     33  C   UNL A   1      38.292  22.999  26.068  1.00  0.00     0.116 C 
BRANCH  33  34
ATOM     34  N   UNL A   1      39.021  23.083  27.320  1.00  0.00    -0.352 N 
ATOM     35  C   UNL A   1      40.203  23.817  27.294  1.00  0.00     0.251 C 
ATOM     36  H   UNL A   1      38.697  22.645  28.140  1.00  0.00     0.163 HD
ATOM     37  O   UNL A   1      41.275  23.413  26.854  1.00  0.00    -0.269 OA
BRANCH  35  38
ATOM     38  C   UNL A   1      39.960  25.263  27.476  1.00  0.00     0.039 A 
ATOM     39  C   UNL A   1      40.408  26.222  26.572  1.00  0.00     0.014 A 
ATOM     40  C   UNL A   1      39.476  25.624  28.737  1.00  0.00     0.014 A 
ATOM     41  C   UNL A   1      40.475  27.558  26.984  1.00  0.00     0.010 A 
ATOM     42  C   UNL A   1      39.637  26.917  29.170  1.00  0.00     0.010 A 
ATOM     43  C   UNL A   1      40.153  27.888  28.303  1.00  0.00    -0.014 A 
BRANCH  43  44
ATOM     44  C   UNL A   1      40.347  29.194  28.924  1.00  0.00     0.031 A 
ATOM     45  C   UNL A   1      39.250  30.194  28.909  1.00  0.00     0.074 A 
ATOM     46  C   UNL A   1      41.424  29.393  29.712  1.00  0.00     0.049 A 
ATOM     47  N   UNL A   1      39.377  31.427  29.266  1.00  0.00    -0.248 NA
ATOM     48  C   UNL A   1      37.902  29.875  28.451  1.00  0.00     0.031 C 
ATOM     49  C   UNL A   1      41.561  30.381  30.779  1.00  0.00     0.029 A 
ATOM     50  N   UNL A   1      42.699  28.849  29.581  1.00  0.00    -0.354 N 
ATOM     51  C   UNL A   1      38.119  31.982  29.357  1.00  0.00     0.074 A 
ATOM     52  C   UNL A   1      37.240  30.987  28.788  1.00  0.00     0.031 C 
ATOM     53  C   UNL A   1      42.864  30.552  31.053  1.00  0.00     0.029 A 
ATOM     54  C   UNL A   1      43.613  29.809  30.057  1.00  0.00     0.049 A 
ATOM     55  H   UNL A   1      42.920  27.960  29.222  1.00  0.00     0.167 HD
ATOM     56  C   UNL A   1      37.958  33.168  30.016  1.00  0.00     0.037 A 
ATOM     57  C   UNL A   1      44.548  30.365  29.229  1.00  0.00     0.037 A 
ATOM     58  C   UNL A   1      39.252  33.708  30.435  1.00  0.00     0.049 A 
ATOM     59  C   UNL A   1      44.411  31.861  29.058  1.00  0.00     0.074 A 
ATOM     60  C   UNL A   1      39.942  33.668  31.636  1.00  0.00     0.029 A 
ATOM     61  N   UNL A   1      40.155  34.150  29.476  1.00  0.00    -0.354 N 
ATOM     62  N   UNL A   1      43.334  32.535  29.353  1.00  0.00    -0.248 NA
ATOM     63  C   UNL A   1      45.474  32.716  28.540  1.00  0.00     0.031 C 
ATOM     64  C   UNL A   1      41.284  34.043  31.384  1.00  0.00     0.029 A 
ATOM     65  C   UNL A   1      41.406  34.325  30.035  1.00  0.00     0.049 A 
ATOM     66  H   UNL A   1      39.934  34.315  28.531  1.00  0.00     0.167 HD
ATOM     67  C   UNL A   1      43.521  33.863  29.056  1.00  0.00     0.074 A 
ATOM     68  C   UNL A   1      44.889  33.927  28.577  1.00  0.00     0.031 C 
ATOM     69  C   UNL A   1      42.527  34.787  29.227  1.00  0.00     0.037 A 
BRANCH  56  70
ATOM     70  C   UNL A   1      36.631  33.710  30.521  1.00  0.00     0.058 A 
ATOM     71  C   UNL A   1      35.636  34.145  29.612  1.00  0.00     0.135 A 
ATOM     72  C   UNL A   1      36.288  33.878  31.876  1.00  0.00     0.135 A 
ATOM     73  F   UNL A   1      35.761  33.963  28.291  1.00  0.00    -0.206 F 
ATOM     74  C   UNL A   1      34.466  34.797  30.011  1.00  0.00     0.059 A 
ATOM     75  C   UNL A   1      35.149  34.575  32.300  1.00  0.00     0.059 A 
ATOM     76  F   UNL A   1      37.013  33.321  32.854  1.00  0.00    -0.206 F 
ATOM     77  C   UNL A   1      34.248  35.045  31.357  1.00  0.00     0.060 A 
BRANCH  77  78
ATOM     78  S   UNL A   1      32.779  35.968  31.847  1.00  0.00     0.124 S 
ATOM     79  O   UNL A   1      33.332  36.960  32.766  1.00  0.00    -0.237 OA
ATOM     80  O   UNL A   1      32.301  36.483  30.570  1.00  0.00    -0.237 OA
ATOM     81  O   UNL A   1      31.933  34.954  32.470  1.00  0.00    -0.744 OA
ENDBRANCH  77  78
ENDBRANCH  56  70
BRANCH  57  82
ATOM     82  C   UNL A   1      45.044  29.407  28.200  1.00  0.00     0.058 A 
ATOM     83  C   UNL A   1      45.979  28.446  28.630  1.00  0.00     0.135 A 
ATOM     84  C   UNL A   1      44.267  29.101  27.073  1.00  0.00     0.135 A 
ATOM     85  F   UNL A   1      46.772  28.707  29.682  1.00  0.00    -0.206 F 
ATOM     86  C   UNL A   1      45.985  27.156  28.112  1.00  0.00     0.059 A 
ATOM     87  C   UNL A   1      44.271  27.816  26.527  1.00  0.00     0.059 A 
ATOM     88  F   UNL A   1      43.373  29.985  26.607  1.00  0.00    -0.206 F 
ATOM     89  C   UNL A   1      45.059  26.830  27.124  1.00  0.00     0.060 A 
BRANCH  89  90
ATOM     90  S   UNL A   1      44.763  25.076  26.785  1.00  0.00     0.124 S 
ATOM     91  O   UNL A   1      46.117  24.541  26.714  1.00  0.00    -0.237 OA
ATOM     92  O   UNL A   1      43.982  24.672  27.956  1.00  0.00    -0.237 OA
ATOM     93  O   UNL A   1      44.028  25.097  25.525  1.00  0.00    -0.744 OA
ENDBRANCH  89  90
ENDBRANCH  57  82
BRANCH  69  94
ATOM     94  C   UNL A   1      42.529  36.225  28.746  1.00  0.00     0.058 A 
ATOM     95  C   UNL A   1      43.147  37.288  29.424  1.00  0.00     0.135 A 
ATOM     96  C   UNL A   1      42.003  36.551  27.468  1.00  0.00     0.135 A 
ATOM     97  F   UNL A   1      43.791  37.100  30.584  1.00  0.00    -0.206 F 
ATOM     98  C   UNL A   1      43.182  38.589  28.911  1.00  0.00     0.059 A 
ATOM     99  C   UNL A   1      42.078  37.827  26.914  1.00  0.00     0.059 A 
ATOM    100  F   UNL A   1      41.406  35.630  26.697  1.00  0.00    -0.206 F 
ATOM    101  C   UNL A   1      42.646  38.850  27.656  1.00  0.00     0.060 A 
BRANCH 101 102
ATOM    102  S   UNL A   1      42.749  40.508  26.956  1.00  0.00     0.124 S 
ATOM    103  O   UNL A   1      43.557  40.272  25.764  1.00  0.00    -0.237 OA
ATOM    104  O   UNL A   1      41.350  40.845  26.711  1.00  0.00    -0.237 OA
ATOM    105  O   UNL A   1      43.393  41.277  28.017  1.00  0.00    -0.744 OA
ENDBRANCH 101 102
ENDBRANCH  69  94
ENDBRANCH  43  44
ENDBRANCH  35  38
ENDBRANCH  33  34
ENDBRANCH  32  33
ENDBRANCH  31  32
ENDBRANCH   1  31
TORSDOF 19
ENDMDL
MODEL 2
REMARK VINA RESULT:     -12.7      1.262      2.029
REMARK SMILES Cc1ccc(CCC(=O)N2CCC3(CC2)[C@H](C(=O)NCCCCCCNC(=O)c2ccc(-c4c5nc(c(-c6c(F)cc(S(=O)(=O)[O-])cc6F)c6ccc([nH]6)c(-c6c(F)cc(S(=O)(=O)[O-])cc6F)c6nc(c(-c7c(F)cc(S(=O)(=O)[O-])cc7F)c7ccc4[nH]7)C=C6)C=C5)cc2)CC(=O)N3C)cc1
REMARK SMILES IDX 22 1 21 2 20 3 19 4 17 5 18 6 16 8 8 9 9 10 10 11 11 12
REMARK SMILES IDX 15 13 12 14 14 15 13 16 98 17 95 18 96 19 99 20 97 21 7 22
REMARK SMILES IDX 6 23 5 24 1 25 2 26 3 27 101 28 4 29 100 30 23 31 24 32
REMARK SMILES IDX 25 33 26 34 27 35 28 37 29 38 30 39 94 40 31 41 93 42 32 43
REMARK SMILES IDX 33 44 34 45 87 46 35 47 92 48 86 49 88 50 36 51 91 52 85 53
REMARK SMILES IDX 84 54 37 56 71 57 50 58 70 59 51 60 54 61 69 62 89 63 52 64
REMARK SMILES IDX 53 65 68 67 90 68 55 69 38 70 39 71 48 72 40 73 41 74 47 75
REMARK SMILES IDX 49 76 42 77 43 78 44 79 45 80 46 81 72 82 73 83 82 84 74 85
REMARK SMILES IDX 75 86 81 87 83 88 76 89 77 90 78 91 79 92 80 93 56 94 57 95
REMARK SMILES IDX 66 96 58 97 59 98 65 99 67 100 60 101 61 102 62 103 63 104
REMARK SMILES IDX 64 105
REMARK H PARENT 19 7 26 36 88 55 54 66
REMARK Flexibility Score: inf
ROOT
ATOM      1  C   UNL A   1      38.027  19.699  25.159  1.00  0.00     0.002 C 
ENDROOT
BRANCH   1   2
ATOM      2  C   UNL A   1      36.522  19.761  24.875  1.00  0.00     0.021 C 
BRANCH   2   3
ATOM      3  C   UNL A   1      35.840  21.080  25.245  1.00  0.00     0.116 C 
BRANCH   3   4
ATOM      4  N   UNL A   1      35.691  22.015  24.139  1.00  0.00    -0.356 N 
ATOM      5  C   UNL A   1      35.177  23.264  24.012  1.00  0.00     0.226 C 
ATOM      6  O   UNL A   1      35.366  23.820  22.921  1.00  0.00    -0.275 OA
ATOM      7  H   UNL A   1      36.043  21.660  23.290  1.00  0.00     0.163 HD
BRANCH   5   8
ATOM      8  C   UNL A   1      34.405  24.033  25.090  1.00  0.00     0.113 C 
ATOM      9  C   UNL A   1      30.875  27.212  22.858  1.00  0.00     0.222 C 
ATOM     10  O   UNL A   1      30.439  27.164  21.704  1.00  0.00    -0.275 OA
ATOM     11  N   UNL A   1      30.971  26.071  23.630  1.00  0.00    -0.343 N 
ATOM     12  C   UNL A   1      31.146  24.777  22.998  1.00  0.00     0.122 C 
ATOM     13  C   UNL A   1      31.039  26.001  25.068  1.00  0.00     0.122 C 
ATOM     14  C   UNL A   1      32.531  24.253  23.382  1.00  0.00     0.051 C 
ATOM     15  C   UNL A   1      32.441  25.600  25.512  1.00  0.00     0.051 C 
ATOM     16  C   UNL A   1      32.877  24.237  24.899  1.00  0.00     0.058 C 
ATOM     17  N   UNL A   1      32.359  23.154  25.757  1.00  0.00    -0.339 N 
ATOM     18  C   UNL A   1      34.590  23.432  26.476  1.00  0.00     0.116 C 
ATOM     19  C   UNL A   1      33.259  22.807  26.770  1.00  0.00     0.223 C 
ATOM     20  C   UNL A   1      30.980  22.725  25.854  1.00  0.00     0.147 C 
ATOM     21  O   UNL A   1      33.028  22.113  27.748  1.00  0.00    -0.275 OA
BRANCH   9  22
ATOM     22  C   UNL A   1      31.560  28.501  23.324  1.00  0.00     0.105 C 
BRANCH  22  23
ATOM     23  C   UNL A   1      30.793  29.561  24.130  1.00  0.00     0.045 C 
BRANCH  23  24
ATOM     24  C   UNL A   1      31.474  29.963  25.430  1.00  0.00    -0.047 A 
ATOM     25  C   UNL A   1      34.261  31.679  28.204  1.00  0.00     0.044 C 
ATOM     26  C   UNL A   1      33.203  31.004  27.384  1.00  0.00    -0.051 A 
ATOM     27  C   UNL A   1      33.389  29.706  26.898  1.00  0.00     0.004 A 
ATOM     28  C   UNL A   1      32.053  31.709  27.013  1.00  0.00     0.004 A 
ATOM     29  C   UNL A   1      32.510  29.174  25.952  1.00  0.00     0.004 A 
ATOM     30  C   UNL A   1      31.186  31.186  26.051  1.00  0.00     0.004 A 
ENDBRANCH  23  24
ENDBRANCH  22  23
ENDBRANCH   9  22
ENDBRANCH   5   8
ENDBRANCH   3   4
ENDBRANCH   2   3
ENDBRANCH   1   2
BRANCH   1  31
ATOM     31  C   UNL A   1      38.723  21.049  25.388  1.00  0.00     0.002 C 
BRANCH  31  32
ATOM     32  C   UNL A   1      39.870  21.064  26.406  1.00  0.00     0.021 C 
BRANCH  32  33
ATOM     33  C   UNL A   1      40.214  22.432  26.967  1.00  0.00     0.116 C 
BRANCH  33  34
ATOM     34  N   UNL A   1      40.002  23.565  26.086  1.00  0.00    -0.352 N 
ATOM     35  C   UNL A   1      39.052  24.495  26.501  1.00  0.00     0.251 C 
ATOM     36  H   UNL A   1      40.502  23.671  25.245  1.00  0.00     0.163 HD
ATOM     37  O   UNL A   1      37.837  24.357  26.394  1.00  0.00    -0.269 OA
BRANCH  35  38
ATOM     38  C   UNL A   1      39.618  25.483  27.441  1.00  0.00     0.039 A 
ATOM     39  C   UNL A   1      39.216  25.575  28.771  1.00  0.00     0.014 A 
ATOM     40  C   UNL A   1      40.397  26.481  26.848  1.00  0.00     0.014 A 
ATOM     41  C   UNL A   1      39.506  26.744  29.484  1.00  0.00     0.010 A 
ATOM     42  C   UNL A   1      40.591  27.665  27.518  1.00  0.00     0.010 A 
ATOM     43  C   UNL A   1      40.132  27.810  28.832  1.00  0.00    -0.014 A 
BRANCH  43  44
ATOM     44  C   UNL A   1      40.334  29.144  29.386  1.00  0.00     0.031 A 
ATOM     45  C   UNL A   1      39.242  30.147  29.324  1.00  0.00     0.074 A 
ATOM     46  C   UNL A   1      41.415  29.378  30.159  1.00  0.00     0.049 A 
ATOM     47  N   UNL A   1      39.376  31.396  29.618  1.00  0.00    -0.248 NA
ATOM     48  C   UNL A   1      37.890  29.812  28.888  1.00  0.00     0.031 C 
ATOM     49  C   UNL A   1      41.561  30.418  31.175  1.00  0.00     0.029 A 
ATOM     50  N   UNL A   1      42.687  28.823  30.051  1.00  0.00    -0.354 N 
ATOM     51  C   UNL A   1      38.121  31.961  29.686  1.00  0.00     0.074 A 
ATOM     52  C   UNL A   1      37.234  30.942  29.171  1.00  0.00     0.031 C 
ATOM     53  C   UNL A   1      42.865  30.597  31.435  1.00  0.00     0.029 A 
ATOM     54  C   UNL A   1      43.607  29.801  30.475  1.00  0.00     0.049 A 
ATOM     55  H   UNL A   1      42.903  27.916  29.736  1.00  0.00     0.167 HD
ATOM     56  C   UNL A   1      37.967  33.179  30.284  1.00  0.00     0.037 A 
ATOM     57  C   UNL A   1      44.541  30.311  29.616  1.00  0.00     0.037 A 
ATOM     58  C   UNL A   1      39.264  33.734  30.671  1.00  0.00     0.049 A 
ATOM     59  C   UNL A   1      44.410  31.796  29.370  1.00  0.00     0.074 A 
ATOM     60  C   UNL A   1      39.959  33.751  31.870  1.00  0.00     0.029 A 
ATOM     61  N   UNL A   1      40.166  34.123  29.687  1.00  0.00    -0.354 N 
ATOM     62  N   UNL A   1      43.338  32.489  29.634  1.00  0.00    -0.248 NA
ATOM     63  C   UNL A   1      45.475  32.619  28.806  1.00  0.00     0.031 C 
ATOM     64  C   UNL A   1      41.302  34.107  31.595  1.00  0.00     0.029 A 
ATOM     65  C   UNL A   1      41.419  34.320  30.232  1.00  0.00     0.049 A 
ATOM     66  H   UNL A   1      39.942  34.241  28.736  1.00  0.00     0.167 HD
ATOM     67  C   UNL A   1      43.529  33.799  29.270  1.00  0.00     0.074 A 
ATOM     68  C   UNL A   1      44.895  33.833  28.783  1.00  0.00     0.031 C 
ATOM     69  C   UNL A   1      42.540  34.735  29.399  1.00  0.00     0.037 A 
BRANCH  56  70
ATOM     70  C   UNL A   1      36.644  33.752  30.766  1.00  0.00     0.058 A 
ATOM     71  C   UNL A   1      35.715  34.296  29.847  1.00  0.00     0.135 A 
ATOM     72  C   UNL A   1      36.245  33.846  32.113  1.00  0.00     0.135 A 
ATOM     73  F   UNL A   1      35.895  34.197  28.523  1.00  0.00    -0.206 F 
ATOM     74  C   UNL A   1      34.560  34.977  30.237  1.00  0.00     0.059 A 
ATOM     75  C   UNL A   1      35.121  34.569  32.533  1.00  0.00     0.059 A 
ATOM     76  F   UNL A   1      36.896  33.189  33.081  1.00  0.00    -0.206 F 
ATOM     77  C   UNL A   1      34.289  35.146  31.586  1.00  0.00     0.060 A 
BRANCH  77  78
ATOM     78  S   UNL A   1      32.844  36.106  32.073  1.00  0.00     0.124 S 
ATOM     79  O   UNL A   1      31.884  35.062  32.422  1.00  0.00    -0.237 OA
ATOM     80  O   UNL A   1      33.360  36.893  33.187  1.00  0.00    -0.237 OA
ATOM     81  O   UNL A   1      32.519  36.866  30.868  1.00  0.00    -0.744 OA
ENDBRANCH  77  78
ENDBRANCH  56  70
BRANCH  57  82
ATOM     82  C   UNL A   1      45.030  29.300  28.635  1.00  0.00     0.058 A 
ATOM     83  C   UNL A   1      45.999  28.389  29.096  1.00  0.00     0.135 A 
ATOM     84  C   UNL A   1      44.227  28.905  27.554  1.00  0.00     0.135 A 
ATOM     85  F   UNL A   1      46.816  28.733  30.104  1.00  0.00    -0.206 F 
ATOM     86  C   UNL A   1      46.020  27.068  28.661  1.00  0.00     0.059 A 
ATOM     87  C   UNL A   1      44.245  27.588  27.091  1.00  0.00     0.059 A 
ATOM     88  F   UNL A   1      43.299  29.738  27.061  1.00  0.00    -0.206 F 
ATOM     89  C   UNL A   1      45.073  26.660  27.725  1.00  0.00     0.060 A 
BRANCH  89  90
ATOM     90  S   UNL A   1      44.809  24.882  27.507  1.00  0.00     0.124 S 
ATOM     91  O   UNL A   1      43.355  24.783  27.490  1.00  0.00    -0.237 OA
ATOM     92  O   UNL A   1      45.477  24.634  26.228  1.00  0.00    -0.237 OA
ATOM     93  O   UNL A   1      45.465  24.299  28.673  1.00  0.00    -0.744 OA
ENDBRANCH  89  90
ENDBRANCH  57  82
BRANCH  69  94
ATOM     94  C   UNL A   1      42.546  36.147  28.845  1.00  0.00     0.058 A 
ATOM     95  C   UNL A   1      43.266  37.216  29.404  1.00  0.00     0.135 A 
ATOM     96  C   UNL A   1      41.908  36.433  27.609  1.00  0.00     0.135 A 
ATOM     97  F   UNL A   1      44.014  37.058  30.505  1.00  0.00    -0.206 F 
ATOM     98  C   UNL A   1      43.297  38.488  28.823  1.00  0.00     0.059 A 
ATOM     99  C   UNL A   1      41.975  37.676  26.985  1.00  0.00     0.059 A 
ATOM    100  F   UNL A   1      41.206  35.501  26.948  1.00  0.00    -0.206 F 
ATOM    101  C   UNL A   1      42.649  38.710  27.614  1.00  0.00     0.060 A 
BRANCH 101 102
ATOM    102  S   UNL A   1      42.743  40.326  26.822  1.00  0.00     0.124 S 
ATOM    103  O   UNL A   1      41.386  40.478  26.306  1.00  0.00    -0.237 OA
ATOM    104  O   UNL A   1      43.098  41.211  27.929  1.00  0.00    -0.237 OA
ATOM    105  O   UNL A   1      43.787  40.145  25.818  1.00  0.00    -0.744 OA
ENDBRANCH 101 102
ENDBRANCH  69  94
ENDBRANCH  43  44
ENDBRANCH  35  38
ENDBRANCH  33  34
ENDBRANCH  32  33
ENDBRANCH  31  32
ENDBRANCH   1  31
TORSDOF 19
ENDMDL
MODEL 3
REMARK VINA RESULT:     -12.2      1.751      2.316
REMARK SMILES Cc1ccc(CCC(=O)N2CCC3(CC2)[C@H](C(=O)NCCCCCCNC(=O)c2ccc(-c4c5nc(c(-c6c(F)cc(S(=O)(=O)[O-])cc6F)c6ccc([nH]6)c(-c6c(F)cc(S(=O)(=O)[O-])cc6F)c6nc(c(-c7c(F)cc(S(=O)(=O)[O-])cc7F)c7ccc4[nH]7)C=C6)C=C5)cc2)CC(=O)N3C)cc1
REMARK SMILES IDX 22 1 21 2 20 3 19 4 17 5 18 6 16 8 8 9 9 10 10 11 11 12
REMARK SMILES IDX 15 13 12 14 14 15 13 16 98 17 95 18 96 19 99 20 97 21 7 22
REMARK SMILES IDX 6 23 5 24 1 25 2 26 3 27 101 28 4 29 100 30 23 31 24 32
REMARK SMILES IDX 25 33 26 34 27 35 28 37 29 38 30 39 94 40 31 41 93 42 32 43
REMARK SMILES IDX 33 44 34 45 87 46 35 47 92 48 86 49 88 50 36 51 91 52 85 53
REMARK SMILES IDX 84 54 37 56 71 57 50 58 70 59 51 60 54 61 69 62 89 63 52 64
REMARK SMILES IDX 53 65 68 67 90 68 55 69 38 70 39 71 48 72 40 73 41 74 47 75
REMARK SMILES IDX 49 76 42 77 43 78 44 79 45 80 46 81 72 82 73 83 82 84 74 85
REMARK SMILES IDX 75 86 81 87 83 88 76 89 77 90 78 91 79 92 80 93 56 94 57 95
REMARK SMILES IDX 66 96 58 97 59 98 65 99 67 100 60 101 61 102 62 103 63 104
REMARK SMILES IDX 64 105
REMARK H PARENT 19 7 26 36 88 55 54 66
REMARK Flexibility Score: inf
ROOT
ATOM      1  C   UNL A   1      37.292  21.015  25.030  1.00  0.00     0.002 C 
ENDROOT
BRANCH   1   2
ATOM      2  C   UNL A   1      35.772  20.864  24.915  1.00  0.00     0.021 C 
BRANCH   2   3
ATOM      3  C   UNL A   1      35.021  22.122  24.472  1.00  0.00     0.116 C 
BRANCH   3   4
ATOM      4  N   UNL A   1      34.410  22.876  25.558  1.00  0.00    -0.356 N 
ATOM      5  C   UNL A   1      33.210  23.480  25.738  1.00  0.00     0.226 C 
ATOM      6  O   UNL A   1      32.982  23.905  26.880  1.00  0.00    -0.275 OA
ATOM      7  H   UNL A   1      35.003  22.967  26.339  1.00  0.00     0.163 HD
BRANCH   5   8
ATOM      8  C   UNL A   1      32.128  23.671  24.668  1.00  0.00     0.113 C 
ATOM      9  C   UNL A   1      32.441  28.495  22.624  1.00  0.00     0.222 C 
ATOM     10  O   UNL A   1      33.391  29.281  22.685  1.00  0.00    -0.275 OA
ATOM     11  N   UNL A   1      32.636  27.165  22.301  1.00  0.00    -0.343 N 
ATOM     12  C   UNL A   1      33.901  26.523  22.601  1.00  0.00     0.122 C 
ATOM     13  C   UNL A   1      31.656  26.247  21.780  1.00  0.00     0.122 C 
ATOM     14  C   UNL A   1      33.642  25.454  23.665  1.00  0.00     0.051 C 
ATOM     15  C   UNL A   1      31.267  25.228  22.846  1.00  0.00     0.051 C 
ATOM     16  C   UNL A   1      32.501  24.437  23.370  1.00  0.00     0.058 C 
ATOM     17  N   UNL A   1      32.748  23.304  22.459  1.00  0.00    -0.339 N 
ATOM     18  C   UNL A   1      31.510  22.352  24.228  1.00  0.00     0.116 C 
ATOM     19  C   UNL A   1      32.047  22.155  22.842  1.00  0.00     0.223 C 
ATOM     20  C   UNL A   1      33.304  23.383  21.125  1.00  0.00     0.147 C 
ATOM     21  O   UNL A   1      31.879  21.144  22.179  1.00  0.00    -0.275 OA
BRANCH   9  22
ATOM     22  C   UNL A   1      31.084  28.948  23.174  1.00  0.00     0.105 C 
BRANCH  22  23
ATOM     23  C   UNL A   1      30.620  28.540  24.581  1.00  0.00     0.045 C 
BRANCH  23  24
ATOM     24  C   UNL A   1      31.655  28.782  25.669  1.00  0.00    -0.047 A 
ATOM     25  C   UNL A   1      35.414  29.372  27.651  1.00  0.00     0.044 C 
ATOM     26  C   UNL A   1      34.023  29.170  27.129  1.00  0.00    -0.051 A 
ATOM     27  C   UNL A   1      33.491  27.885  26.978  1.00  0.00     0.004 A 
ATOM     28  C   UNL A   1      33.277  30.270  26.692  1.00  0.00     0.004 A 
ATOM     29  C   UNL A   1      32.296  27.695  26.282  1.00  0.00     0.004 A 
ATOM     30  C   UNL A   1      32.093  30.077  25.977  1.00  0.00     0.004 A 
ENDBRANCH  23  24
ENDBRANCH  22  23
ENDBRANCH   9  22
ENDBRANCH   5   8
ENDBRANCH   3   4
ENDBRANCH   2   3
ENDBRANCH   1   2
BRANCH   1  31
ATOM     31  C   UNL A   1      37.803  22.423  25.371  1.00  0.00     0.002 C 
BRANCH  31  32
ATOM     32  C   UNL A   1      38.900  22.514  26.440  1.00  0.00     0.021 C 
BRANCH  32  33
ATOM     33  C   UNL A   1      39.917  21.387  26.415  1.00  0.00     0.116 C 
BRANCH  33  34
ATOM     34  N   UNL A   1      41.193  21.653  27.052  1.00  0.00    -0.352 N 
ATOM     35  C   UNL A   1      42.006  22.595  26.428  1.00  0.00     0.251 C 
ATOM     36  H   UNL A   1      41.467  21.195  27.879  1.00  0.00     0.163 HD
ATOM     37  O   UNL A   1      42.698  22.382  25.437  1.00  0.00    -0.269 OA
BRANCH  35  38
ATOM     38  C   UNL A   1      41.656  23.975  26.820  1.00  0.00     0.039 A 
ATOM     39  C   UNL A   1      41.591  25.025  25.908  1.00  0.00     0.014 A 
ATOM     40  C   UNL A   1      41.643  24.210  28.198  1.00  0.00     0.014 A 
ATOM     41  C   UNL A   1      41.628  26.339  26.388  1.00  0.00     0.010 A 
ATOM     42  C   UNL A   1      41.779  25.496  28.659  1.00  0.00     0.010 A 
ATOM     43  C   UNL A   1      41.790  26.567  27.757  1.00  0.00    -0.014 A 
BRANCH  43  44
ATOM     44  C   UNL A   1      42.025  27.864  28.381  1.00  0.00     0.031 A 
ATOM     45  C   UNL A   1      40.880  28.748  28.712  1.00  0.00     0.074 A 
ATOM     46  C   UNL A   1      43.251  28.146  28.869  1.00  0.00     0.049 A 
ATOM     47  N   UNL A   1      40.988  29.975  29.095  1.00  0.00    -0.248 NA
ATOM     48  C   UNL A   1      39.492  28.310  28.607  1.00  0.00     0.031 C 
ATOM     49  C   UNL A   1      43.581  29.107  29.918  1.00  0.00     0.029 A 
ATOM     50  N   UNL A   1      44.488  27.739  28.375  1.00  0.00    -0.354 N 
ATOM     51  C   UNL A   1      39.755  30.397  29.546  1.00  0.00     0.074 A 
ATOM     52  C   UNL A   1      38.848  29.337  29.170  1.00  0.00     0.031 C 
ATOM     53  C   UNL A   1      44.888  29.400  29.850  1.00  0.00     0.029 A 
ATOM     54  C   UNL A   1      45.407  28.770  28.650  1.00  0.00     0.049 A 
ATOM     55  H   UNL A   1      44.684  26.889  27.919  1.00  0.00     0.167 HD
ATOM     56  C   UNL A   1      39.671  31.538  30.292  1.00  0.00     0.037 A 
ATOM     57  C   UNL A   1      46.033  29.445  27.640  1.00  0.00     0.037 A 
ATOM     58  C   UNL A   1      40.976  32.192  30.387  1.00  0.00     0.049 A 
ATOM     59  C   UNL A   1      45.723  30.923  27.598  1.00  0.00     0.074 A 
ATOM     60  C   UNL A   1      41.963  32.183  31.361  1.00  0.00     0.029 A 
ATOM     61  N   UNL A   1      41.547  32.755  29.253  1.00  0.00    -0.354 N 
ATOM     62  N   UNL A   1      44.709  31.475  28.205  1.00  0.00    -0.248 NA
ATOM     63  C   UNL A   1      46.529  31.899  26.870  1.00  0.00     0.031 C 
ATOM     64  C   UNL A   1      43.150  32.700  30.788  1.00  0.00     0.029 A 
ATOM     65  C   UNL A   1      42.881  33.037  29.473  1.00  0.00     0.049 A 
ATOM     66  H   UNL A   1      41.069  32.928  28.410  1.00  0.00     0.167 HD
ATOM     67  C   UNL A   1      44.691  32.824  27.947  1.00  0.00     0.074 A 
ATOM     68  C   UNL A   1      45.869  33.042  27.131  1.00  0.00     0.031 C 
ATOM     69  C   UNL A   1      43.701  33.637  28.428  1.00  0.00     0.037 A 
BRANCH  56  70
ATOM     70  C   UNL A   1      38.484  31.926  31.159  1.00  0.00     0.058 A 
ATOM     71  C   UNL A   1      37.512  32.840  30.685  1.00  0.00     0.135 A 
ATOM     72  C   UNL A   1      38.265  31.482  32.477  1.00  0.00     0.135 A 
ATOM     73  F   UNL A   1      37.518  33.280  29.420  1.00  0.00    -0.206 F 
ATOM     74  C   UNL A   1      36.491  33.356  31.486  1.00  0.00     0.059 A 
ATOM     75  C   UNL A   1      37.282  32.023  33.316  1.00  0.00     0.059 A 
ATOM     76  F   UNL A   1      38.956  30.459  32.993  1.00  0.00    -0.206 F 
ATOM     77  C   UNL A   1      36.406  32.973  32.815  1.00  0.00     0.060 A 
BRANCH  77  78
ATOM     78  S   UNL A   1      35.139  33.718  33.859  1.00  0.00     0.124 S 
ATOM     79  O   UNL A   1      35.229  35.129  33.492  1.00  0.00    -0.237 OA
ATOM     80  O   UNL A   1      33.934  33.023  33.421  1.00  0.00    -0.237 OA
ATOM     81  O   UNL A   1      35.586  33.403  35.214  1.00  0.00    -0.744 OA
ENDBRANCH  77  78
ENDBRANCH  56  70
BRANCH  57  82
ATOM     82  C   UNL A   1      46.321  28.576  26.463  1.00  0.00     0.058 A 
ATOM     83  C   UNL A   1      47.501  27.810  26.514  1.00  0.00     0.135 A 
ATOM     84  C   UNL A   1      45.280  28.114  25.643  1.00  0.00     0.135 A 
ATOM     85  F   UNL A   1      48.539  28.230  27.255  1.00  0.00    -0.206 F 
ATOM     86  C   UNL A   1      47.563  26.534  25.966  1.00  0.00     0.059 A 
ATOM     87  C   UNL A   1      45.329  26.842  25.070  1.00  0.00     0.059 A 
ATOM     88  F   UNL A   1      44.139  28.811  25.540  1.00  0.00    -0.206 F 
ATOM     89  C   UNL A   1      46.434  26.027  25.327  1.00  0.00     0.060 A 
BRANCH  89  90
ATOM     90  S   UNL A   1      46.360  24.243  25.026  1.00  0.00     0.124 S 
ATOM     91  O   UNL A   1      46.804  23.694  26.302  1.00  0.00    -0.237 OA
ATOM     92  O   UNL A   1      44.943  24.051  24.712  1.00  0.00    -0.237 OA
ATOM     93  O   UNL A   1      47.275  24.053  23.906  1.00  0.00    -0.744 OA
ENDBRANCH  89  90
ENDBRANCH  57  82
BRANCH  69  94
ATOM     94  C   UNL A   1      43.447  35.082  28.048  1.00  0.00     0.058 A 
ATOM     95  C   UNL A   1      43.072  35.512  26.764  1.00  0.00     0.135 A 
ATOM     96  C   UNL A   1      43.441  36.093  29.045  1.00  0.00     0.135 A 
ATOM     97  F   UNL A   1      42.918  34.647  25.753  1.00  0.00    -0.206 F 
ATOM     98  C   UNL A   1      42.783  36.849  26.473  1.00  0.00     0.059 A 
ATOM     99  C   UNL A   1      43.100  37.419  28.788  1.00  0.00     0.059 A 
ATOM    100  F   UNL A   1      43.753  35.822  30.322  1.00  0.00    -0.206 F 
ATOM    101  C   UNL A   1      42.798  37.796  27.490  1.00  0.00     0.060 A 
BRANCH 101 102
ATOM    102  S   UNL A   1      42.357  39.508  27.138  1.00  0.00     0.124 S 
ATOM    103  O   UNL A   1      41.224  39.338  26.235  1.00  0.00    -0.237 OA
ATOM    104  O   UNL A   1      42.035  40.039  28.460  1.00  0.00    -0.237 OA
ATOM    105  O   UNL A   1      43.573  40.047  26.536  1.00  0.00    -0.744 OA
ENDBRANCH 101 102
ENDBRANCH  69  94
ENDBRANCH  43  44
ENDBRANCH  35  38
ENDBRANCH  33  34
ENDBRANCH  32  33
ENDBRANCH  31  32
ENDBRANCH   1  31
TORSDOF 19
ENDMDL
