MODEL 1
REMARK VINA RESULT:     -12.6      0.000      0.000
REMARK SMILES O=C(NCCCCCCNC(=O)c1ccccc1NC(=O)c1ccc(N2C(=O)[C@H]3CC=CC[C@H]3C2=O)cc1)c1ccc(-c2c3nc(c(-c4c(F)cc(S(=O)(=O)[O-])cc4F)c4ccc([nH]4)c(-c4c(F)cc(S(=O)(=O)[O-])cc4F)c4nc(c(-c5c(F)cc(S(=O)(=O)[O-])cc5F)c5ccc2[nH]5)C=C4)C=C3)cc1
REMARK SMILES IDX 6 1 5 2 4 3 3 4 1 5 2 6 39 8 40 9 104 10 41 11 103 12 42 13
REMARK SMILES IDX 43 14 44 15 97 16 45 17 102 18 96 19 98 20 46 21 101 22
REMARK SMILES IDX 95 23 94 24 47 26 81 27 60 28 80 29 61 30 64 31 79 32 99 33
REMARK SMILES IDX 62 34 63 35 78 37 100 38 65 39 48 40 49 41 58 42 50 43 51 44
REMARK SMILES IDX 57 45 59 46 52 47 53 48 54 49 55 50 56 51 82 52 83 53 92 54
REMARK SMILES IDX 84 55 85 56 91 57 93 58 86 59 87 60 88 61 89 62 90 63 66 64
REMARK SMILES IDX 67 65 76 66 68 67 69 68 75 69 77 70 70 71 71 72 72 73 73 74
REMARK SMILES IDX 74 75 7 76 8 77 9 78 10 79 11 80 12 82 13 83 14 84 18 85
REMARK SMILES IDX 15 86 17 87 16 88 19 89 20 90 21 92 22 93 23 94 38 95 24 96
REMARK SMILES IDX 37 97 25 98 26 99 27 100 35 101 28 102 29 103 34 104 36 105
REMARK SMILES IDX 30 106 33 107 31 108 32 109
REMARK H PARENT 3 7 98 25 64 36 10 81 19 91
REMARK Flexibility Score: inf
ROOT
ATOM      1  C   UNL A   1      33.736  31.949  28.111  1.00  0.00     0.002 C 
ENDROOT
BRANCH   1   2
ATOM      2  C   UNL A   1      35.200  32.051  27.688  1.00  0.00     0.021 C 
BRANCH   2   3
ATOM      3  C   UNL A   1      36.191  32.205  28.834  1.00  0.00     0.116 C 
BRANCH   3   4
ATOM      4  N   UNL A   1      35.781  31.490  30.031  1.00  0.00    -0.352 N 
ATOM      5  O   UNL A   1      35.856  29.866  31.594  1.00  0.00    -0.269 OA
ATOM      6  C   UNL A   1      36.419  30.462  30.681  1.00  0.00     0.251 C 
ATOM      7  H   UNL A   1      34.929  31.781  30.429  1.00  0.00     0.163 HD
BRANCH   6   8
ATOM      8  C   UNL A   1      37.781  30.068  30.259  1.00  0.00     0.039 A 
ATOM      9  C   UNL A   1      38.800  29.909  31.202  1.00  0.00     0.014 A 
ATOM     10  C   UNL A   1      38.040  29.857  28.901  1.00  0.00     0.014 A 
ATOM     11  C   UNL A   1      40.102  29.669  30.779  1.00  0.00     0.010 A 
ATOM     12  C   UNL A   1      39.333  29.530  28.487  1.00  0.00     0.010 A 
ATOM     13  C   UNL A   1      40.380  29.456  29.419  1.00  0.00    -0.014 A 
BRANCH  13  14
ATOM     14  C   UNL A   1      41.754  29.074  29.007  1.00  0.00     0.031 A 
ATOM     15  C   UNL A   1      42.874  30.076  28.998  1.00  0.00     0.074 A 
ATOM     16  C   UNL A   1      41.979  27.800  28.632  1.00  0.00     0.049 A 
ATOM     17  N   UNL A   1      44.124  29.908  28.648  1.00  0.00    -0.248 NA
ATOM     18  C   UNL A   1      42.551  31.445  29.427  1.00  0.00     0.031 C 
ATOM     19  C   UNL A   1      40.959  26.749  28.579  1.00  0.00     0.029 A 
ATOM     20  N   UNL A   1      43.127  27.170  28.226  1.00  0.00    -0.354 N 
ATOM     21  C   UNL A   1      44.732  31.150  28.793  1.00  0.00     0.074 A 
ATOM     22  C   UNL A   1      43.707  32.068  29.240  1.00  0.00     0.031 C 
ATOM     23  C   UNL A   1      41.530  25.601  28.188  1.00  0.00     0.029 A 
ATOM     24  C   UNL A   1      42.938  25.848  27.901  1.00  0.00     0.049 A 
ATOM     25  H   UNL A   1      44.000  27.620  28.173  1.00  0.00     0.167 HD
ATOM     26  C   UNL A   1      46.028  31.485  28.575  1.00  0.00     0.037 A 
ATOM     27  C   UNL A   1      43.792  24.938  27.397  1.00  0.00     0.037 A 
ATOM     28  C   UNL A   1      47.038  30.556  28.134  1.00  0.00     0.049 A 
ATOM     29  C   UNL A   1      45.217  25.337  27.150  1.00  0.00     0.074 A 
ATOM     30  C   UNL A   1      48.389  30.785  27.933  1.00  0.00     0.029 A 
ATOM     31  N   UNL A   1      46.810  29.225  27.812  1.00  0.00    -0.354 N 
ATOM     32  N   UNL A   1      45.788  26.501  27.344  1.00  0.00    -0.248 NA
ATOM     33  C   UNL A   1      46.113  24.304  26.619  1.00  0.00     0.031 C 
ATOM     34  C   UNL A   1      48.965  29.608  27.439  1.00  0.00     0.029 A 
ATOM     35  C   UNL A   1      47.986  28.628  27.385  1.00  0.00     0.049 A 
ATOM     36  H   UNL A   1      45.939  28.770  27.877  1.00  0.00     0.167 HD
ATOM     37  C   UNL A   1      47.117  26.339  26.970  1.00  0.00     0.074 A 
ATOM     38  C   UNL A   1      47.267  24.958  26.556  1.00  0.00     0.031 C 
ATOM     39  C   UNL A   1      48.119  27.252  26.970  1.00  0.00     0.037 A 
BRANCH  26  40
ATOM     40  C   UNL A   1      46.422  32.924  28.783  1.00  0.00     0.058 A 
ATOM     41  C   UNL A   1      46.877  33.400  30.023  1.00  0.00     0.135 A 
ATOM     42  C   UNL A   1      46.370  33.836  27.716  1.00  0.00     0.135 A 
ATOM     43  F   UNL A   1      46.940  32.576  31.081  1.00  0.00    -0.206 F 
ATOM     44  C   UNL A   1      47.229  34.734  30.209  1.00  0.00     0.059 A 
ATOM     45  C   UNL A   1      46.744  35.169  27.870  1.00  0.00     0.059 A 
ATOM     46  F   UNL A   1      45.948  33.438  26.506  1.00  0.00    -0.206 F 
ATOM     47  C   UNL A   1      47.153  35.613  29.126  1.00  0.00     0.060 A 
BRANCH  47  48
ATOM     48  S   UNL A   1      47.597  37.344  29.386  1.00  0.00     0.124 S 
ATOM     49  O   UNL A   1      48.928  37.395  28.786  1.00  0.00    -0.237 OA
ATOM     50  O   UNL A   1      46.548  38.050  28.658  1.00  0.00    -0.237 OA
ATOM     51  O   UNL A   1      47.558  37.492  30.837  1.00  0.00    -0.744 OA
ENDBRANCH  47  48
ENDBRANCH  26  40
BRANCH  27  52
ATOM     52  C   UNL A   1      43.297  23.573  27.083  1.00  0.00     0.058 A 
ATOM     53  C   UNL A   1      43.103  23.157  25.759  1.00  0.00     0.135 A 
ATOM     54  C   UNL A   1      43.068  22.637  28.105  1.00  0.00     0.135 A 
ATOM     55  F   UNL A   1      43.306  24.016  24.748  1.00  0.00    -0.206 F 
ATOM     56  C   UNL A   1      42.700  21.859  25.457  1.00  0.00     0.059 A 
ATOM     57  C   UNL A   1      42.693  21.328  27.827  1.00  0.00     0.059 A 
ATOM     58  F   UNL A   1      43.259  22.982  29.388  1.00  0.00    -0.206 F 
ATOM     59  C   UNL A   1      42.505  20.950  26.498  1.00  0.00     0.060 A 
BRANCH  59  60
ATOM     60  S   UNL A   1      42.058  19.248  26.092  1.00  0.00     0.124 S 
ATOM     61  O   UNL A   1      42.518  18.534  27.276  1.00  0.00    -0.237 OA
ATOM     62  O   UNL A   1      40.610  19.344  25.926  1.00  0.00    -0.237 OA
ATOM     63  O   UNL A   1      42.806  18.989  24.866  1.00  0.00    -0.744 OA
ENDBRANCH  59  60
ENDBRANCH  27  52
BRANCH  39  64
ATOM     64  C   UNL A   1      49.477  26.783  26.528  1.00  0.00     0.058 A 
ATOM     65  C   UNL A   1      50.349  26.118  27.403  1.00  0.00     0.135 A 
ATOM     66  C   UNL A   1      49.890  26.956  25.196  1.00  0.00     0.135 A 
ATOM     67  F   UNL A   1      50.009  25.938  28.689  1.00  0.00    -0.206 F 
ATOM     68  C   UNL A   1      51.592  25.658  26.979  1.00  0.00     0.059 A 
ATOM     69  C   UNL A   1      51.116  26.478  24.743  1.00  0.00     0.059 A 
ATOM     70  F   UNL A   1      49.090  27.580  24.316  1.00  0.00    -0.206 F 
ATOM     71  C   UNL A   1      51.964  25.839  25.646  1.00  0.00     0.060 A 
BRANCH  71  72
ATOM     72  S   UNL A   1      53.560  25.198  25.098  1.00  0.00     0.124 S 
ATOM     73  O   UNL A   1      54.480  25.899  25.987  1.00  0.00    -0.237 OA
ATOM     74  O   UNL A   1      53.420  23.765  25.333  1.00  0.00    -0.237 OA
ATOM     75  O   UNL A   1      53.622  25.594  23.694  1.00  0.00    -0.744 OA
ENDBRANCH  71  72
ENDBRANCH  39  64
ENDBRANCH  13  14
ENDBRANCH   6   8
ENDBRANCH   3   4
ENDBRANCH   2   3
ENDBRANCH   1   2
BRANCH   1  76
ATOM     76  C   UNL A   1      32.823  31.184  27.147  1.00  0.00     0.002 C 
BRANCH  76  77
ATOM     77  C   UNL A   1      31.670  31.989  26.534  1.00  0.00     0.021 C 
BRANCH  77  78
ATOM     78  C   UNL A   1      30.675  31.176  25.713  1.00  0.00     0.116 C 
BRANCH  78  79
ATOM     79  N   UNL A   1      30.074  31.968  24.652  1.00  0.00    -0.352 N 
ATOM     80  C   UNL A   1      29.424  31.561  23.519  1.00  0.00     0.253 C 
ATOM     81  H   UNL A   1      30.146  32.943  24.766  1.00  0.00     0.163 HD
ATOM     82  O   UNL A   1      29.156  32.378  22.642  1.00  0.00    -0.269 OA
BRANCH  80  83
ATOM     83  C   UNL A   1      29.024  30.149  23.334  1.00  0.00     0.063 A 
ATOM     84  C   UNL A   1      27.661  29.871  23.535  1.00  0.00     0.016 A 
ATOM     85  C   UNL A   1      29.945  29.114  23.065  1.00  0.00     0.054 A 
ATOM     86  C   UNL A   1      27.197  28.561  23.477  1.00  0.00     0.001 A 
ATOM     87  C   UNL A   1      29.464  27.801  23.096  1.00  0.00     0.027 A 
ATOM     88  C   UNL A   1      28.103  27.526  23.278  1.00  0.00     0.002 A 
BRANCH  85  89
ATOM     89  N   UNL A   1      31.297  29.442  22.804  1.00  0.00    -0.321 N 
ATOM     90  C   UNL A   1      32.501  28.872  23.152  1.00  0.00     0.255 C 
ATOM     91  H   UNL A   1      31.399  30.253  22.257  1.00  0.00     0.170 HD
ATOM     92  O   UNL A   1      33.549  29.402  22.786  1.00  0.00    -0.269 OA
BRANCH  90  93
ATOM     93  C   UNL A   1      32.580  27.635  23.940  1.00  0.00     0.040 A 
ATOM     94  C   UNL A   1      32.720  26.438  23.242  1.00  0.00     0.016 A 
ATOM     95  C   UNL A   1      32.588  27.643  25.335  1.00  0.00     0.016 A 
ATOM     96  C   UNL A   1      33.025  25.268  23.938  1.00  0.00     0.027 A 
ATOM     97  C   UNL A   1      32.886  26.461  26.027  1.00  0.00     0.027 A 
ATOM     98  C   UNL A   1      33.175  25.271  25.335  1.00  0.00     0.052 A 
BRANCH  98  99
ATOM     99  N   UNL A   1      33.697  24.132  26.014  1.00  0.00    -0.250 N 
ATOM    100  C   UNL A   1      32.920  23.260  26.742  1.00  0.00     0.238 C 
ATOM    101  C   UNL A   1      35.002  23.713  25.939  1.00  0.00     0.238 C 
ATOM    102  O   UNL A   1      31.717  23.319  26.971  1.00  0.00    -0.274 OA
ATOM    103  C   UNL A   1      33.764  22.099  27.211  1.00  0.00     0.096 C 
ATOM    104  C   UNL A   1      35.147  22.376  26.624  1.00  0.00     0.096 C 
ATOM    105  O   UNL A   1      35.956  24.287  25.429  1.00  0.00    -0.274 OA
ATOM    106  C   UNL A   1      33.113  20.778  26.782  1.00  0.00     0.041 C 
ATOM    107  C   UNL A   1      35.675  21.349  25.617  1.00  0.00     0.041 C 
ATOM    108  C   UNL A   1      33.398  20.433  25.351  1.00  0.00    -0.030 C 
ATOM    109  C   UNL A   1      34.591  20.705  24.807  1.00  0.00    -0.030 C 
ENDBRANCH  98  99
ENDBRANCH  90  93
ENDBRANCH  85  89
ENDBRANCH  80  83
ENDBRANCH  78  79
ENDBRANCH  77  78
ENDBRANCH  76  77
ENDBRANCH   1  76
TORSDOF 19
ENDMDL
MODEL 2
REMARK VINA RESULT:     -12.2      1.279      4.863
REMARK SMILES O=C(NCCCCCCNC(=O)c1ccccc1NC(=O)c1ccc(N2C(=O)[C@H]3CC=CC[C@H]3C2=O)cc1)c1ccc(-c2c3nc(c(-c4c(F)cc(S(=O)(=O)[O-])cc4F)c4ccc([nH]4)c(-c4c(F)cc(S(=O)(=O)[O-])cc4F)c4nc(c(-c5c(F)cc(S(=O)(=O)[O-])cc5F)c5ccc2[nH]5)C=C4)C=C3)cc1
REMARK SMILES IDX 6 1 5 2 4 3 3 4 1 5 2 6 39 8 40 9 104 10 41 11 103 12 42 13
REMARK SMILES IDX 43 14 44 15 97 16 45 17 102 18 96 19 98 20 46 21 101 22
REMARK SMILES IDX 95 23 94 24 47 26 81 27 60 28 80 29 61 30 64 31 79 32 99 33
REMARK SMILES IDX 62 34 63 35 78 37 100 38 65 39 48 40 49 41 58 42 50 43 51 44
REMARK SMILES IDX 57 45 59 46 52 47 53 48 54 49 55 50 56 51 82 52 83 53 92 54
REMARK SMILES IDX 84 55 85 56 91 57 93 58 86 59 87 60 88 61 89 62 90 63 66 64
REMARK SMILES IDX 67 65 76 66 68 67 69 68 75 69 77 70 70 71 71 72 72 73 73 74
REMARK SMILES IDX 74 75 7 76 8 77 9 78 10 79 11 80 12 82 13 83 14 84 18 85
REMARK SMILES IDX 15 86 17 87 16 88 19 89 20 90 21 92 22 93 23 94 38 95 24 96
REMARK SMILES IDX 37 97 25 98 26 99 27 100 35 101 28 102 29 103 34 104 36 105
REMARK SMILES IDX 30 106 33 107 31 108 32 109
REMARK H PARENT 3 7 98 25 64 36 10 81 19 91
REMARK Flexibility Score: inf
ROOT
ATOM      1  C   UNL A   1      34.128  29.035  26.571  1.00  0.00     0.002 C 
ENDROOT
BRANCH   1   2
ATOM      2  C   UNL A   1      35.207  29.195  27.641  1.00  0.00     0.021 C 
BRANCH   2   3
ATOM      3  C   UNL A   1      35.558  30.634  27.989  1.00  0.00     0.116 C 
BRANCH   3   4
ATOM      4  N   UNL A   1      35.494  30.898  29.418  1.00  0.00    -0.352 N 
ATOM      5  O   UNL A   1      36.199  30.849  31.560  1.00  0.00    -0.269 OA
ATOM      6  C   UNL A   1      36.469  30.723  30.369  1.00  0.00     0.251 C 
ATOM      7  H   UNL A   1      34.636  31.248  29.748  1.00  0.00     0.163 HD
BRANCH   6   8
ATOM      8  C   UNL A   1      37.840  30.361  29.949  1.00  0.00     0.039 A 
ATOM      9  C   UNL A   1      38.222  30.459  28.609  1.00  0.00     0.014 A 
ATOM     10  C   UNL A   1      38.753  29.915  30.910  1.00  0.00     0.014 A 
ATOM     11  C   UNL A   1      39.468  29.990  28.209  1.00  0.00     0.010 A 
ATOM     12  C   UNL A   1      40.036  29.526  30.517  1.00  0.00     0.010 A 
ATOM     13  C   UNL A   1      40.397  29.537  29.161  1.00  0.00    -0.014 A 
BRANCH  13  14
ATOM     14  C   UNL A   1      41.766  29.164  28.725  1.00  0.00     0.031 A 
ATOM     15  C   UNL A   1      42.862  30.187  28.629  1.00  0.00     0.074 A 
ATOM     16  C   UNL A   1      42.008  27.877  28.408  1.00  0.00     0.049 A 
ATOM     17  N   UNL A   1      44.104  30.027  28.248  1.00  0.00    -0.248 NA
ATOM     18  C   UNL A   1      42.522  31.569  28.998  1.00  0.00     0.031 C 
ATOM     19  C   UNL A   1      41.011  26.803  28.442  1.00  0.00     0.029 A 
ATOM     20  N   UNL A   1      43.156  27.250  27.998  1.00  0.00    -0.354 N 
ATOM     21  C   UNL A   1      44.689  31.287  28.310  1.00  0.00     0.074 A 
ATOM     22  C   UNL A   1      43.657  32.205  28.743  1.00  0.00     0.031 C 
ATOM     23  C   UNL A   1      41.594  25.649  28.091  1.00  0.00     0.029 A 
ATOM     24  C   UNL A   1      42.987  25.910  27.747  1.00  0.00     0.049 A 
ATOM     25  H   UNL A   1      44.017  27.715  27.894  1.00  0.00     0.167 HD
ATOM     26  C   UNL A   1      45.969  31.638  28.034  1.00  0.00     0.037 A 
ATOM     27  C   UNL A   1      43.846  24.993  27.262  1.00  0.00     0.037 A 
ATOM     28  C   UNL A   1      46.986  30.708  27.608  1.00  0.00     0.049 A 
ATOM     29  C   UNL A   1      45.253  25.408  26.950  1.00  0.00     0.074 A 
ATOM     30  C   UNL A   1      48.324  30.955  27.352  1.00  0.00     0.029 A 
ATOM     31  N   UNL A   1      46.777  29.358  27.361  1.00  0.00    -0.354 N 
ATOM     32  N   UNL A   1      45.804  26.593  27.066  1.00  0.00    -0.248 NA
ATOM     33  C   UNL A   1      46.155  24.369  26.443  1.00  0.00     0.031 C 
ATOM     34  C   UNL A   1      48.910  29.767  26.900  1.00  0.00     0.029 A 
ATOM     35  C   UNL A   1      47.953  28.765  26.928  1.00  0.00     0.049 A 
ATOM     36  H   UNL A   1      45.919  28.889  27.478  1.00  0.00     0.167 HD
ATOM     37  C   UNL A   1      47.123  26.440  26.658  1.00  0.00     0.074 A 
ATOM     38  C   UNL A   1      47.291  25.043  26.310  1.00  0.00     0.031 C 
ATOM     39  C   UNL A   1      48.104  27.373  26.579  1.00  0.00     0.037 A 
BRANCH  26  40
ATOM     40  C   UNL A   1      46.336  33.094  28.155  1.00  0.00     0.058 A 
ATOM     41  C   UNL A   1      46.215  33.984  27.076  1.00  0.00     0.135 A 
ATOM     42  C   UNL A   1      46.790  33.613  29.378  1.00  0.00     0.135 A 
ATOM     43  F   UNL A   1      45.794  33.543  25.880  1.00  0.00    -0.206 F 
ATOM     44  C   UNL A   1      46.566  35.326  27.194  1.00  0.00     0.059 A 
ATOM     45  C   UNL A   1      47.120  34.957  29.529  1.00  0.00     0.059 A 
ATOM     46  F   UNL A   1      46.920  32.810  30.447  1.00  0.00    -0.206 F 
ATOM     47  C   UNL A   1      47.023  35.802  28.425  1.00  0.00     0.060 A 
BRANCH  47  48
ATOM     48  S   UNL A   1      47.491  37.542  28.559  1.00  0.00     0.124 S 
ATOM     49  O   UNL A   1      47.689  37.678  29.999  1.00  0.00    -0.237 OA
ATOM     50  O   UNL A   1      48.701  37.605  27.745  1.00  0.00    -0.237 OA
ATOM     51  O   UNL A   1      46.336  38.248  28.015  1.00  0.00    -0.744 OA
ENDBRANCH  47  48
ENDBRANCH  26  40
BRANCH  27  52
ATOM     52  C   UNL A   1      43.371  23.604  27.034  1.00  0.00     0.058 A 
ATOM     53  C   UNL A   1      43.161  22.723  28.103  1.00  0.00     0.135 A 
ATOM     54  C   UNL A   1      43.057  23.154  25.741  1.00  0.00     0.135 A 
ATOM     55  F   UNL A   1      43.449  23.107  29.356  1.00  0.00    -0.206 F 
ATOM     56  C   UNL A   1      42.656  21.442  27.900  1.00  0.00     0.059 A 
ATOM     57  C   UNL A   1      42.525  21.889  25.516  1.00  0.00     0.059 A 
ATOM     58  F   UNL A   1      43.223  23.967  24.687  1.00  0.00    -0.206 F 
ATOM     59  C   UNL A   1      42.334  21.037  26.603  1.00  0.00     0.060 A 
BRANCH  59  60
ATOM     60  S   UNL A   1      41.608  19.402  26.360  1.00  0.00     0.124 S 
ATOM     61  O   UNL A   1      42.354  18.919  25.205  1.00  0.00    -0.237 OA
ATOM     62  O   UNL A   1      41.901  18.745  27.630  1.00  0.00    -0.237 OA
ATOM     63  O   UNL A   1      40.197  19.693  26.125  1.00  0.00    -0.744 OA
ENDBRANCH  59  60
ENDBRANCH  27  52
BRANCH  39  64
ATOM     64  C   UNL A   1      49.457  26.909  26.118  1.00  0.00     0.058 A 
ATOM     65  C   UNL A   1      49.840  26.977  24.769  1.00  0.00     0.135 A 
ATOM     66  C   UNL A   1      50.402  26.439  27.045  1.00  0.00     0.135 A 
ATOM     67  F   UNL A   1      48.972  27.407  23.841  1.00  0.00    -0.206 F 
ATOM     68  C   UNL A   1      51.106  26.577  24.353  1.00  0.00     0.059 A 
ATOM     69  C   UNL A   1      51.683  26.060  26.655  1.00  0.00     0.059 A 
ATOM     70  F   UNL A   1      50.088  26.360  28.348  1.00  0.00    -0.206 F 
ATOM     71  C   UNL A   1      52.022  26.124  25.305  1.00  0.00     0.060 A 
BRANCH  71  72
ATOM     72  S   UNL A   1      53.675  25.649  24.758  1.00  0.00     0.124 S 
ATOM     73  O   UNL A   1      53.794  26.386  23.504  1.00  0.00    -0.237 OA
ATOM     74  O   UNL A   1      54.516  26.122  25.853  1.00  0.00    -0.237 OA
ATOM     75  O   UNL A   1      53.586  24.198  24.626  1.00  0.00    -0.744 OA
ENDBRANCH  71  72
ENDBRANCH  39  64
ENDBRANCH  13  14
ENDBRANCH   6   8
ENDBRANCH   3   4
ENDBRANCH   2   3
ENDBRANCH   1   2
BRANCH   1  76
ATOM     76  C   UNL A   1      33.629  27.603  26.347  1.00  0.00     0.002 C 
BRANCH  76  77
ATOM     77  C   UNL A   1      33.813  27.043  24.931  1.00  0.00     0.021 C 
BRANCH  77  78
ATOM     78  C   UNL A   1      33.832  25.521  24.831  1.00  0.00     0.116 C 
BRANCH  78  79
ATOM     79  N   UNL A   1      34.048  24.897  26.127  1.00  0.00    -0.352 N 
ATOM     80  C   UNL A   1      33.811  23.611  26.528  1.00  0.00     0.253 C 
ATOM     81  H   UNL A   1      34.423  25.489  26.819  1.00  0.00     0.163 HD
ATOM     82  O   UNL A   1      33.876  23.321  27.719  1.00  0.00    -0.269 OA
BRANCH  80  83
ATOM     83  C   UNL A   1      33.486  22.553  25.547  1.00  0.00     0.063 A 
ATOM     84  C   UNL A   1      34.507  22.234  24.635  1.00  0.00     0.016 A 
ATOM     85  C   UNL A   1      32.212  21.953  25.450  1.00  0.00     0.054 A 
ATOM     86  C   UNL A   1      34.273  21.320  23.613  1.00  0.00     0.001 A 
ATOM     87  C   UNL A   1      31.982  21.103  24.364  1.00  0.00     0.027 A 
ATOM     88  C   UNL A   1      33.006  20.771  23.467  1.00  0.00     0.002 A 
BRANCH  85  89
ATOM     89  N   UNL A   1      31.231  22.252  26.426  1.00  0.00    -0.321 N 
ATOM     90  C   UNL A   1      30.424  23.341  26.665  1.00  0.00     0.255 C 
ATOM     91  H   UNL A   1      31.097  21.524  27.074  1.00  0.00     0.170 HD
ATOM     92  O   UNL A   1      29.656  23.327  27.626  1.00  0.00    -0.269 OA
BRANCH  90  93
ATOM     93  C   UNL A   1      30.437  24.527  25.798  1.00  0.00     0.040 A 
ATOM     94  C   UNL A   1      30.338  24.319  24.425  1.00  0.00     0.016 A 
ATOM     95  C   UNL A   1      30.475  25.823  26.313  1.00  0.00     0.016 A 
ATOM     96  C   UNL A   1      30.118  25.406  23.578  1.00  0.00     0.027 A 
ATOM     97  C   UNL A   1      30.264  26.910  25.455  1.00  0.00     0.027 A 
ATOM     98  C   UNL A   1      30.015  26.711  24.085  1.00  0.00     0.052 A 
BRANCH  98  99
ATOM     99  N   UNL A   1      29.577  27.783  23.252  1.00  0.00    -0.250 N 
ATOM    100  C   UNL A   1      28.252  28.102  23.061  1.00  0.00     0.238 C 
ATOM    101  C   UNL A   1      30.414  28.678  22.634  1.00  0.00     0.238 C 
ATOM    102  O   UNL A   1      27.258  27.535  23.502  1.00  0.00    -0.274 OA
ATOM    103  C   UNL A   1      28.148  29.364  22.237  1.00  0.00     0.096 C 
ATOM    104  C   UNL A   1      29.599  29.779  21.999  1.00  0.00     0.096 C 
ATOM    105  O   UNL A   1      31.635  28.645  22.552  1.00  0.00    -0.274 OA
ATOM    106  C   UNL A   1      27.275  30.391  22.969  1.00  0.00     0.041 C 
ATOM    107  C   UNL A   1      30.026  31.126  22.593  1.00  0.00     0.041 C 
ATOM    108  C   UNL A   1      28.025  31.127  24.039  1.00  0.00    -0.030 C 
ATOM    109  C   UNL A   1      29.308  31.464  23.865  1.00  0.00    -0.030 C 
ENDBRANCH  98  99
ENDBRANCH  90  93
ENDBRANCH  85  89
ENDBRANCH  80  83
ENDBRANCH  78  79
ENDBRANCH  77  78
ENDBRANCH  76  77
ENDBRANCH   1  76
TORSDOF 19
ENDMDL
MODEL 3
REMARK VINA RESULT:     -12.1      4.839     10.349
REMARK SMILES O=C(NCCCCCCNC(=O)c1ccccc1NC(=O)c1ccc(N2C(=O)[C@H]3CC=CC[C@H]3C2=O)cc1)c1ccc(-c2c3nc(c(-c4c(F)cc(S(=O)(=O)[O-])cc4F)c4ccc([nH]4)c(-c4c(F)cc(S(=O)(=O)[O-])cc4F)c4nc(c(-c5c(F)cc(S(=O)(=O)[O-])cc5F)c5ccc2[nH]5)C=C4)C=C3)cc1
REMARK SMILES IDX 6 1 5 2 4 3 3 4 1 5 2 6 39 8 40 9 104 10 41 11 103 12 42 13
REMARK SMILES IDX 43 14 44 15 97 16 45 17 102 18 96 19 98 20 46 21 101 22
REMARK SMILES IDX 95 23 94 24 47 26 81 27 60 28 80 29 61 30 64 31 79 32 99 33
REMARK SMILES IDX 62 34 63 35 78 37 100 38 65 39 48 40 49 41 58 42 50 43 51 44
REMARK SMILES IDX 57 45 59 46 52 47 53 48 54 49 55 50 56 51 82 52 83 53 92 54
REMARK SMILES IDX 84 55 85 56 91 57 93 58 86 59 87 60 88 61 89 62 90 63 66 64
REMARK SMILES IDX 67 65 76 66 68 67 69 68 75 69 77 70 70 71 71 72 72 73 73 74
REMARK SMILES IDX 74 75 7 76 8 77 9 78 10 79 11 80 12 82 13 83 14 84 18 85
REMARK SMILES IDX 15 86 17 87 16 88 19 89 20 90 21 92 22 93 23 94 38 95 24 96
REMARK SMILES IDX 37 97 25 98 26 99 27 100 35 101 28 102 29 103 34 104 36 105
REMARK SMILES IDX 30 106 33 107 31 108 32 109
REMARK H PARENT 3 7 98 25 64 36 10 81 19 91
REMARK Flexibility Score: inf
ROOT
ATOM      1  C   UNL A   1      40.442  27.143  29.252  1.00  0.00     0.002 C 
ENDROOT
BRANCH   1   2
ATOM      2  C   UNL A   1      40.378  25.848  28.444  1.00  0.00     0.021 C 
BRANCH   2   3
ATOM      3  C   UNL A   1      40.231  26.035  26.940  1.00  0.00     0.116 C 
BRANCH   3   4
ATOM      4  N   UNL A   1      41.358  25.500  26.195  1.00  0.00    -0.352 N 
ATOM      5  O   UNL A   1      43.354  25.557  25.145  1.00  0.00    -0.269 OA
ATOM      6  C   UNL A   1      42.568  26.090  25.923  1.00  0.00     0.251 C 
ATOM      7  H   UNL A   1      41.238  24.592  25.835  1.00  0.00     0.163 HD
BRANCH   6   8
ATOM      8  C   UNL A   1      42.908  27.382  26.559  1.00  0.00     0.039 A 
ATOM      9  C   UNL A   1      43.791  27.432  27.640  1.00  0.00     0.014 A 
ATOM     10  C   UNL A   1      42.330  28.557  26.067  1.00  0.00     0.014 A 
ATOM     11  C   UNL A   1      43.996  28.633  28.310  1.00  0.00     0.010 A 
ATOM     12  C   UNL A   1      42.607  29.777  26.689  1.00  0.00     0.010 A 
ATOM     13  C   UNL A   1      43.423  29.822  27.830  1.00  0.00    -0.014 A 
BRANCH  13  14
ATOM     14  C   UNL A   1      43.761  31.110  28.486  1.00  0.00     0.031 A 
ATOM     15  C   UNL A   1      44.944  31.925  28.045  1.00  0.00     0.074 A 
ATOM     16  C   UNL A   1      42.980  31.538  29.497  1.00  0.00     0.049 A 
ATOM     17  N   UNL A   1      45.384  33.061  28.525  1.00  0.00    -0.248 NA
ATOM     18  C   UNL A   1      45.743  31.396  26.929  1.00  0.00     0.031 C 
ATOM     19  C   UNL A   1      41.819  30.815  30.024  1.00  0.00     0.029 A 
ATOM     20  N   UNL A   1      43.039  32.674  30.262  1.00  0.00    -0.354 N 
ATOM     21  C   UNL A   1      46.521  33.372  27.787  1.00  0.00     0.074 A 
ATOM     22  C   UNL A   1      46.716  32.292  26.843  1.00  0.00     0.031 C 
ATOM     23  C   UNL A   1      41.262  31.534  31.008  1.00  0.00     0.029 A 
ATOM     24  C   UNL A   1      42.061  32.735  31.226  1.00  0.00     0.049 A 
ATOM     25  H   UNL A   1      43.715  33.377  30.134  1.00  0.00     0.167 HD
ATOM     26  C   UNL A   1      47.322  34.462  27.891  1.00  0.00     0.037 A 
ATOM     27  C   UNL A   1      41.844  33.637  32.200  1.00  0.00     0.037 A 
ATOM     28  C   UNL A   1      47.110  35.531  28.835  1.00  0.00     0.049 A 
ATOM     29  C   UNL A   1      42.752  34.827  32.304  1.00  0.00     0.074 A 
ATOM     30  C   UNL A   1      47.834  36.702  28.985  1.00  0.00     0.029 A 
ATOM     31  N   UNL A   1      46.110  35.557  29.798  1.00  0.00    -0.354 N 
ATOM     32  N   UNL A   1      43.791  35.133  31.565  1.00  0.00    -0.248 NA
ATOM     33  C   UNL A   1      42.463  35.792  33.371  1.00  0.00     0.031 C 
ATOM     34  C   UNL A   1      47.305  37.408  30.072  1.00  0.00     0.029 A 
ATOM     35  C   UNL A   1      46.216  36.707  30.564  1.00  0.00     0.049 A 
ATOM     36  H   UNL A   1      45.425  34.860  29.918  1.00  0.00     0.167 HD
ATOM     37  C   UNL A   1      44.273  36.335  32.067  1.00  0.00     0.074 A 
ATOM     38  C   UNL A   1      43.401  36.708  33.163  1.00  0.00     0.031 C 
ATOM     39  C   UNL A   1      45.342  37.062  31.657  1.00  0.00     0.037 A 
BRANCH  26  40
ATOM     40  C   UNL A   1      48.519  34.538  26.980  1.00  0.00     0.058 A 
ATOM     41  C   UNL A   1      49.737  33.916  27.298  1.00  0.00     0.135 A 
ATOM     42  C   UNL A   1      48.438  35.221  25.755  1.00  0.00     0.135 A 
ATOM     43  F   UNL A   1      49.876  33.256  28.459  1.00  0.00    -0.206 F 
ATOM     44  C   UNL A   1      50.841  34.001  26.454  1.00  0.00     0.059 A 
ATOM     45  C   UNL A   1      49.520  35.295  24.882  1.00  0.00     0.059 A 
ATOM     46  F   UNL A   1      47.297  35.831  25.395  1.00  0.00    -0.206 F 
ATOM     47  C   UNL A   1      50.724  34.698  25.250  1.00  0.00     0.060 A 
BRANCH  47  48
ATOM     48  S   UNL A   1      52.170  34.813  24.174  1.00  0.00     0.124 S 
ATOM     49  O   UNL A   1      53.259  34.771  25.146  1.00  0.00    -0.237 OA
ATOM     50  O   UNL A   1      52.029  33.631  23.330  1.00  0.00    -0.237 OA
ATOM     51  O   UNL A   1      51.987  36.091  23.493  1.00  0.00    -0.744 OA
ENDBRANCH  47  48
ENDBRANCH  26  40
BRANCH  27  52
ATOM     52  C   UNL A   1      40.726  33.422  33.154  1.00  0.00     0.058 A 
ATOM     53  C   UNL A   1      40.867  32.573  34.260  1.00  0.00     0.135 A 
ATOM     54  C   UNL A   1      39.512  34.114  33.009  1.00  0.00     0.135 A 
ATOM     55  F   UNL A   1      42.007  31.889  34.440  1.00  0.00    -0.206 F 
ATOM     56  C   UNL A   1      39.845  32.417  35.192  1.00  0.00     0.059 A 
ATOM     57  C   UNL A   1      38.487  33.996  33.941  1.00  0.00     0.059 A 
ATOM     58  F   UNL A   1      39.336  34.953  31.976  1.00  0.00    -0.206 F 
ATOM     59  C   UNL A   1      38.661  33.139  35.027  1.00  0.00     0.060 A 
BRANCH  59  60
ATOM     60  S   UNL A   1      37.371  32.989  36.281  1.00  0.00     0.124 S 
ATOM     61  O   UNL A   1      36.198  33.455  35.552  1.00  0.00    -0.237 OA
ATOM     62  O   UNL A   1      37.407  31.562  36.588  1.00  0.00    -0.237 OA
ATOM     63  O   UNL A   1      37.840  33.863  37.352  1.00  0.00    -0.744 OA
ENDBRANCH  59  60
ENDBRANCH  27  52
BRANCH  39  64
ATOM     64  C   UNL A   1      45.618  38.349  32.383  1.00  0.00     0.058 A 
ATOM     65  C   UNL A   1      45.005  39.554  32.007  1.00  0.00     0.135 A 
ATOM     66  C   UNL A   1      46.468  38.366  33.502  1.00  0.00     0.135 A 
ATOM     67  F   UNL A   1      44.194  39.596  30.939  1.00  0.00    -0.206 F 
ATOM     68  C   UNL A   1      45.239  40.736  32.704  1.00  0.00     0.059 A 
ATOM     69  C   UNL A   1      46.694  39.530  34.230  1.00  0.00     0.059 A 
ATOM     70  F   UNL A   1      47.074  37.239  33.907  1.00  0.00    -0.206 F 
ATOM     71  C   UNL A   1      46.082  40.712  33.816  1.00  0.00     0.060 A 
BRANCH  71  72
ATOM     72  S   UNL A   1      46.344  42.243  34.737  1.00  0.00     0.124 S 
ATOM     73  O   UNL A   1      45.304  42.154  35.757  1.00  0.00    -0.237 OA
ATOM     74  O   UNL A   1      47.714  42.091  35.215  1.00  0.00    -0.237 OA
ATOM     75  O   UNL A   1      46.149  43.283  33.731  1.00  0.00    -0.744 OA
ENDBRANCH  71  72
ENDBRANCH  39  64
ENDBRANCH  13  14
ENDBRANCH   6   8
ENDBRANCH   3   4
ENDBRANCH   2   3
ENDBRANCH   1   2
BRANCH   1  76
ATOM     76  C   UNL A   1      39.134  27.938  29.328  1.00  0.00     0.002 C 
BRANCH  76  77
ATOM     77  C   UNL A   1      39.025  29.141  28.382  1.00  0.00     0.021 C 
BRANCH  77  78
ATOM     78  C   UNL A   1      37.948  30.158  28.747  1.00  0.00     0.116 C 
BRANCH  78  79
ATOM     79  N   UNL A   1      38.466  31.516  28.750  1.00  0.00    -0.352 N 
ATOM     80  C   UNL A   1      38.018  32.621  29.422  1.00  0.00     0.253 C 
ATOM     81  H   UNL A   1      39.259  31.663  28.185  1.00  0.00     0.163 HD
ATOM     82  O   UNL A   1      38.471  33.728  29.146  1.00  0.00    -0.269 OA
BRANCH  80  83
ATOM     83  C   UNL A   1      37.001  32.505  30.489  1.00  0.00     0.063 A 
ATOM     84  C   UNL A   1      37.378  31.747  31.610  1.00  0.00     0.016 A 
ATOM     85  C   UNL A   1      35.696  33.031  30.373  1.00  0.00     0.054 A 
ATOM     86  C   UNL A   1      36.463  31.498  32.628  1.00  0.00     0.001 A 
ATOM     87  C   UNL A   1      34.775  32.694  31.370  1.00  0.00     0.027 A 
ATOM     88  C   UNL A   1      35.158  31.955  32.497  1.00  0.00     0.002 A 
BRANCH  85  89
ATOM     89  N   UNL A   1      35.374  33.843  29.259  1.00  0.00    -0.321 N 
ATOM     90  C   UNL A   1      34.681  33.628  28.089  1.00  0.00     0.255 C 
ATOM     91  H   UNL A   1      35.722  34.760  29.337  1.00  0.00     0.170 HD
ATOM     92  O   UNL A   1      34.572  34.541  27.273  1.00  0.00    -0.269 OA
BRANCH  90  93
ATOM     93  C   UNL A   1      34.049  32.337  27.784  1.00  0.00     0.040 A 
ATOM     94  C   UNL A   1      32.712  32.354  27.393  1.00  0.00     0.016 A 
ATOM     95  C   UNL A   1      34.761  31.137  27.809  1.00  0.00     0.016 A 
ATOM     96  C   UNL A   1      32.132  31.195  26.877  1.00  0.00     0.027 A 
ATOM     97  C   UNL A   1      34.167  29.976  27.298  1.00  0.00     0.027 A 
ATOM     98  C   UNL A   1      32.867  30.004  26.762  1.00  0.00     0.052 A 
BRANCH  98  99
ATOM     99  N   UNL A   1      32.344  28.892  26.040  1.00  0.00    -0.250 N 
ATOM    100  C   UNL A   1      32.617  28.654  24.712  1.00  0.00     0.238 C 
ATOM    101  C   UNL A   1      31.601  27.882  26.599  1.00  0.00     0.238 C 
ATOM    102  O   UNL A   1      33.279  29.333  23.934  1.00  0.00    -0.274 OA
ATOM    103  C   UNL A   1      32.019  27.329  24.301  1.00  0.00     0.096 C 
ATOM    104  C   UNL A   1      31.386  26.787  25.582  1.00  0.00     0.096 C 
ATOM    105  O   UNL A   1      31.137  27.817  27.730  1.00  0.00    -0.274 OA
ATOM    106  C   UNL A   1      33.100  26.445  23.669  1.00  0.00     0.041 C 
ATOM    107  C   UNL A   1      31.967  25.476  26.124  1.00  0.00     0.041 C 
ATOM    108  C   UNL A   1      33.958  25.763  24.692  1.00  0.00    -0.030 C 
ATOM    109  C   UNL A   1      33.431  25.317  25.839  1.00  0.00    -0.030 C 
ENDBRANCH  98  99
ENDBRANCH  90  93
ENDBRANCH  85  89
ENDBRANCH  80  83
ENDBRANCH  78  79
ENDBRANCH  77  78
ENDBRANCH  76  77
ENDBRANCH   1  76
TORSDOF 19
ENDMDL
