MODEL 1
REMARK VINA RESULT:     -11.7      0.000      0.000
REMARK SMILES CC(C)Cc1cc2c(cc1Cl)C=C(C(=O)NCCCCCCNC(=O)c1ccc(-c3c4nc(c(-c5c(F)cc(S(=O)(=O)[O-])cc5F)c5ccc([nH]5)c(-c5c(F)cc(S(=O)(=O)[O-])cc5F)c5nc(c(-c6c(F)cc(S(=O)(=O)[O-])cc6F)c6ccc3[nH]6)C=C5)C=C4)cc1)[C@@H](C(F)(F)F)O2
REMARK SMILES IDX 20 1 19 2 18 3 17 4 16 5 14 6 15 7 13 9 5 10 6 11 10 12 7 13
REMARK SMILES IDX 9 14 11 15 8 16 97 17 12 18 92 19 4 20 2 21 1 22 3 23 93 24
REMARK SMILES IDX 94 25 95 26 96 27 21 28 22 29 23 30 24 31 25 33 26 34 27 35
REMARK SMILES IDX 91 36 28 37 90 38 29 39 30 40 31 41 84 42 32 43 89 44 83 45
REMARK SMILES IDX 85 46 33 47 88 48 82 49 81 50 34 52 68 53 47 54 67 55 48 56
REMARK SMILES IDX 51 57 66 58 86 59 49 60 50 61 65 63 87 64 52 65 35 66 36 67
REMARK SMILES IDX 45 68 37 69 38 70 44 71 46 72 39 73 40 74 41 75 42 76 43 77
REMARK SMILES IDX 69 78 70 79 79 80 71 81 72 82 78 83 80 84 73 85 74 86 75 87
REMARK SMILES IDX 76 88 77 89 53 90 54 91 63 92 55 93 56 94 62 95 64 96 57 97
REMARK SMILES IDX 58 98 59 99 60 100 61 101
REMARK H PARENT 16 8 23 32 85 51 51 62
REMARK Flexibility Score: inf
ROOT
ATOM      1  C   UNL A   1      32.566  29.351  25.005  1.00  0.00     0.002 C 
ENDROOT
BRANCH   1   2
ATOM      2  C   UNL A   1      32.995  29.052  23.562  1.00  0.00     0.002 C 
BRANCH   2   3
ATOM      3  C   UNL A   1      33.877  27.813  23.375  1.00  0.00     0.021 C 
BRANCH   3   4
ATOM      4  C   UNL A   1      33.267  26.734  22.485  1.00  0.00     0.116 C 
BRANCH   4   5
ATOM      5  N   UNL A   1      31.905  26.412  22.882  1.00  0.00    -0.352 N 
ATOM      6  C   UNL A   1      31.264  25.396  23.502  1.00  0.00     0.251 C 
ATOM      7  O   UNL A   1      30.051  25.569  23.667  1.00  0.00    -0.270 OA
ATOM      8  H   UNL A   1      31.280  27.129  22.629  1.00  0.00     0.163 HD
BRANCH   6   9
ATOM      9  C   UNL A   1      31.894  24.125  23.973  1.00  0.00     0.067 C 
ATOM     10  C   UNL A   1      33.679  19.393  24.147  1.00  0.00    -0.025 A 
ATOM     11  C   UNL A   1      33.903  20.564  24.889  1.00  0.00     0.052 A 
ATOM     12  C   UNL A   1      32.720  19.428  23.123  1.00  0.00     0.045 A 
ATOM     13  C   UNL A   1      33.223  21.739  24.585  1.00  0.00     0.128 A 
ATOM     14  C   UNL A   1      32.040  20.615  22.820  1.00  0.00     0.032 A 
ATOM     15  Cl  UNL A   1      32.349  18.031  22.175  1.00  0.00    -0.084 Cl
ATOM     16  C   UNL A   1      32.306  21.781  23.540  1.00  0.00     0.019 A 
ATOM     17  O   UNL A   1      33.566  22.835  25.318  1.00  0.00    -0.475 OA
ATOM     18  C   UNL A   1      31.705  23.057  23.174  1.00  0.00     0.025 C 
ATOM     19  C   UNL A   1      32.673  23.979  25.252  1.00  0.00     0.314 C 
BRANCH  10  20
ATOM     20  C   UNL A   1      34.543  18.188  24.443  1.00  0.00     0.040 C 
BRANCH  20  21
ATOM     21  C   UNL A   1      33.730  16.916  24.768  1.00  0.00    -0.013 C 
ATOM     22  C   UNL A   1      34.608  15.755  25.247  1.00  0.00     0.008 C 
ATOM     23  C   UNL A   1      32.680  17.233  25.836  1.00  0.00     0.008 C 
ENDBRANCH  20  21
ENDBRANCH  10  20
BRANCH  19  24
ATOM     24  C   UNL A   1      31.765  23.978  26.494  1.00  0.00     0.429 C 
ATOM     25  F   UNL A   1      30.620  23.298  26.246  1.00  0.00    -0.167 F 
ATOM     26  F   UNL A   1      32.347  23.379  27.558  1.00  0.00    -0.167 F 
ATOM     27  F   UNL A   1      31.423  25.228  26.882  1.00  0.00    -0.167 F 
ENDBRANCH  19  24
ENDBRANCH   6   9
ENDBRANCH   4   5
ENDBRANCH   3   4
ENDBRANCH   2   3
ENDBRANCH   1   2
BRANCH   1  28
ATOM     28  C   UNL A   1      32.650  28.177  25.984  1.00  0.00     0.021 C 
BRANCH  28  29
ATOM     29  C   UNL A   1      33.453  28.444  27.251  1.00  0.00     0.116 C 
BRANCH  29  30
ATOM     30  N   UNL A   1      33.392  29.834  27.671  1.00  0.00    -0.352 N 
ATOM     31  C   UNL A   1      34.372  30.607  28.248  1.00  0.00     0.251 C 
ATOM     32  H   UNL A   1      32.529  30.285  27.521  1.00  0.00     0.163 HD
ATOM     33  O   UNL A   1      34.108  31.729  28.668  1.00  0.00    -0.269 OA
BRANCH  31  34
ATOM     34  C   UNL A   1      35.737  30.059  28.392  1.00  0.00     0.039 A 
ATOM     35  C   UNL A   1      36.176  29.554  29.619  1.00  0.00     0.014 A 
ATOM     36  C   UNL A   1      36.600  30.093  27.294  1.00  0.00     0.014 A 
ATOM     37  C   UNL A   1      37.518  29.225  29.789  1.00  0.00     0.010 A 
ATOM     38  C   UNL A   1      37.931  29.699  27.449  1.00  0.00     0.010 A 
ATOM     39  C   UNL A   1      38.412  29.308  28.710  1.00  0.00    -0.014 A 
BRANCH  39  40
ATOM     40  C   UNL A   1      39.855  29.019  28.916  1.00  0.00     0.031 A 
ATOM     41  C   UNL A   1      40.754  30.052  29.541  1.00  0.00     0.074 A 
ATOM     42  C   UNL A   1      40.349  27.815  28.570  1.00  0.00     0.049 A 
ATOM     43  N   UNL A   1      42.046  30.009  29.745  1.00  0.00    -0.248 NA
ATOM     44  C   UNL A   1      40.119  31.299  29.997  1.00  0.00     0.031 C 
ATOM     45  C   UNL A   1      39.574  26.723  27.980  1.00  0.00     0.029 A 
ATOM     46  N   UNL A   1      41.618  27.306  28.673  1.00  0.00    -0.354 N 
ATOM     47  C   UNL A   1      42.383  31.225  30.325  1.00  0.00     0.074 A 
ATOM     48  C   UNL A   1      41.163  31.996  30.426  1.00  0.00     0.031 C 
ATOM     49  C   UNL A   1      40.375  25.662  27.803  1.00  0.00     0.029 A 
ATOM     50  C   UNL A   1      41.731  26.017  28.211  1.00  0.00     0.049 A 
ATOM     51  H   UNL A   1      42.374  27.814  29.044  1.00  0.00     0.167 HD
ATOM     52  C   UNL A   1      43.598  31.657  30.743  1.00  0.00     0.037 A 
ATOM     53  C   UNL A   1      42.809  25.218  28.101  1.00  0.00     0.037 A 
ATOM     54  C   UNL A   1      44.806  30.878  30.662  1.00  0.00     0.049 A 
ATOM     55  C   UNL A   1      44.152  25.736  28.530  1.00  0.00     0.074 A 
ATOM     56  C   UNL A   1      46.082  31.219  31.077  1.00  0.00     0.029 A 
ATOM     57  N   UNL A   1      44.889  29.597  30.136  1.00  0.00    -0.354 N 
ATOM     58  N   UNL A   1      44.457  26.899  29.053  1.00  0.00    -0.248 NA
ATOM     59  C   UNL A   1      45.299  24.839  28.338  1.00  0.00     0.031 C 
ATOM     60  C   UNL A   1      46.942  30.158  30.770  1.00  0.00     0.029 A 
ATOM     61  C   UNL A   1      46.195  29.141  30.198  1.00  0.00     0.049 A 
ATOM     62  H   UNL A   1      44.129  29.086  29.771  1.00  0.00     0.167 HD
ATOM     63  C   UNL A   1      45.833  26.876  29.248  1.00  0.00     0.074 A 
ATOM     64  C   UNL A   1      46.295  25.573  28.813  1.00  0.00     0.031 C 
ATOM     65  C   UNL A   1      46.641  27.850  29.736  1.00  0.00     0.037 A 
BRANCH  52  66
ATOM     66  C   UNL A   1      43.684  33.047  31.309  1.00  0.00     0.058 A 
ATOM     67  C   UNL A   1      43.823  34.173  30.483  1.00  0.00     0.135 A 
ATOM     68  C   UNL A   1      43.594  33.259  32.695  1.00  0.00     0.135 A 
ATOM     69  F   UNL A   1      43.933  34.026  29.153  1.00  0.00    -0.206 F 
ATOM     70  C   UNL A   1      43.895  35.458  31.012  1.00  0.00     0.059 A 
ATOM     71  C   UNL A   1      43.641  34.536  33.244  1.00  0.00     0.059 A 
ATOM     72  F   UNL A   1      43.461  32.216  33.531  1.00  0.00    -0.206 F 
ATOM     73  C   UNL A   1      43.806  35.630  32.395  1.00  0.00     0.060 A 
BRANCH  73  74
ATOM     74  S   UNL A   1      43.905  37.304  33.065  1.00  0.00     0.124 S 
ATOM     75  O   UNL A   1      45.214  37.281  33.709  1.00  0.00    -0.237 OA
ATOM     76  O   UNL A   1      43.803  38.127  31.865  1.00  0.00    -0.237 OA
ATOM     77  O   UNL A   1      42.762  37.376  33.970  1.00  0.00    -0.744 OA
ENDBRANCH  73  74
ENDBRANCH  52  66
BRANCH  53  78
ATOM     78  C   UNL A   1      42.653  23.851  27.544  1.00  0.00     0.058 A 
ATOM     79  C   UNL A   1      42.775  23.617  26.168  1.00  0.00     0.135 A 
ATOM     80  C   UNL A   1      42.432  22.747  28.382  1.00  0.00     0.135 A 
ATOM     81  F   UNL A   1      42.976  24.644  25.328  1.00  0.00    -0.206 F 
ATOM     82  C   UNL A   1      42.690  22.334  25.639  1.00  0.00     0.059 A 
ATOM     83  C   UNL A   1      42.366  21.452  27.880  1.00  0.00     0.059 A 
ATOM     84  F   UNL A   1      42.321  22.922  29.708  1.00  0.00    -0.206 F 
ATOM     85  C   UNL A   1      42.494  21.256  26.506  1.00  0.00     0.060 A 
BRANCH  85  86
ATOM     86  S   UNL A   1      42.475  19.586  25.819  1.00  0.00     0.124 S 
ATOM     87  O   UNL A   1      42.857  18.786  26.977  1.00  0.00    -0.237 OA
ATOM     88  O   UNL A   1      41.089  19.452  25.379  1.00  0.00    -0.237 OA
ATOM     89  O   UNL A   1      43.461  19.655  24.744  1.00  0.00    -0.744 OA
ENDBRANCH  85  86
ENDBRANCH  53  78
BRANCH  65  90
ATOM     90  C   UNL A   1      48.110  27.542  29.811  1.00  0.00     0.058 A 
ATOM     91  C   UNL A   1      48.635  26.753  30.846  1.00  0.00     0.135 A 
ATOM     92  C   UNL A   1      48.995  28.018  28.831  1.00  0.00     0.135 A 
ATOM     93  F   UNL A   1      47.831  26.281  31.811  1.00  0.00    -0.206 F 
ATOM     94  C   UNL A   1      49.994  26.469  30.923  1.00  0.00     0.059 A 
ATOM     95  C   UNL A   1      50.354  27.728  28.876  1.00  0.00     0.059 A 
ATOM     96  F   UNL A   1      48.538  28.769  27.816  1.00  0.00    -0.206 F 
ATOM     97  C   UNL A   1      50.846  26.965  29.934  1.00  0.00     0.060 A 
BRANCH  97  98
ATOM     98  S   UNL A   1      52.608  26.582  30.039  1.00  0.00     0.124 S 
ATOM     99  O   UNL A   1      52.849  25.957  28.743  1.00  0.00    -0.237 OA
ATOM    100  O   UNL A   1      53.205  27.900  30.229  1.00  0.00    -0.237 OA
ATOM    101  O   UNL A   1      52.693  25.691  31.192  1.00  0.00    -0.744 OA
ENDBRANCH  97  98
ENDBRANCH  65  90
ENDBRANCH  39  40
ENDBRANCH  31  34
ENDBRANCH  29  30
ENDBRANCH  28  29
ENDBRANCH   1  28
TORSDOF 19
ENDMDL
MODEL 2
REMARK VINA RESULT:     -11.7      2.817      3.531
REMARK SMILES CC(C)Cc1cc2c(cc1Cl)C=C(C(=O)NCCCCCCNC(=O)c1ccc(-c3c4nc(c(-c5c(F)cc(S(=O)(=O)[O-])cc5F)c5ccc([nH]5)c(-c5c(F)cc(S(=O)(=O)[O-])cc5F)c5nc(c(-c6c(F)cc(S(=O)(=O)[O-])cc6F)c6ccc3[nH]6)C=C5)C=C4)cc1)[C@@H](C(F)(F)F)O2
REMARK SMILES IDX 20 1 19 2 18 3 17 4 16 5 14 6 15 7 13 9 5 10 6 11 10 12 7 13
REMARK SMILES IDX 9 14 11 15 8 16 97 17 12 18 92 19 4 20 2 21 1 22 3 23 93 24
REMARK SMILES IDX 94 25 95 26 96 27 21 28 22 29 23 30 24 31 25 33 26 34 27 35
REMARK SMILES IDX 91 36 28 37 90 38 29 39 30 40 31 41 84 42 32 43 89 44 83 45
REMARK SMILES IDX 85 46 33 47 88 48 82 49 81 50 34 52 68 53 47 54 67 55 48 56
REMARK SMILES IDX 51 57 66 58 86 59 49 60 50 61 65 63 87 64 52 65 35 66 36 67
REMARK SMILES IDX 45 68 37 69 38 70 44 71 46 72 39 73 40 74 41 75 42 76 43 77
REMARK SMILES IDX 69 78 70 79 79 80 71 81 72 82 78 83 80 84 73 85 74 86 75 87
REMARK SMILES IDX 76 88 77 89 53 90 54 91 63 92 55 93 56 94 62 95 64 96 57 97
REMARK SMILES IDX 58 98 59 99 60 100 61 101
REMARK H PARENT 16 8 23 32 85 51 51 62
REMARK Flexibility Score: inf
ROOT
ATOM      1  C   UNL A   1      32.589  30.204  27.104  1.00  0.00     0.002 C 
ENDROOT
BRANCH   1   2
ATOM      2  C   UNL A   1      31.991  30.034  25.701  1.00  0.00     0.002 C 
BRANCH   2   3
ATOM      3  C   UNL A   1      32.712  29.037  24.788  1.00  0.00     0.021 C 
BRANCH   3   4
ATOM      4  C   UNL A   1      31.989  28.748  23.476  1.00  0.00     0.116 C 
BRANCH   4   5
ATOM      5  N   UNL A   1      30.828  27.896  23.674  1.00  0.00    -0.352 N 
ATOM      6  C   UNL A   1      30.568  26.671  24.187  1.00  0.00     0.251 C 
ATOM      7  O   UNL A   1      29.375  26.347  24.182  1.00  0.00    -0.270 OA
ATOM      8  H   UNL A   1      30.007  28.328  23.345  1.00  0.00     0.163 HD
BRANCH   6   9
ATOM      9  C   UNL A   1      31.585  25.717  24.725  1.00  0.00     0.067 C 
ATOM     10  C   UNL A   1      35.752  22.901  25.275  1.00  0.00    -0.025 A 
ATOM     11  C   UNL A   1      34.756  23.375  26.144  1.00  0.00     0.052 A 
ATOM     12  C   UNL A   1      35.631  23.182  23.906  1.00  0.00     0.045 A 
ATOM     13  C   UNL A   1      33.700  24.143  25.662  1.00  0.00     0.128 A 
ATOM     14  C   UNL A   1      34.567  23.958  23.428  1.00  0.00     0.032 A 
ATOM     15  Cl  UNL A   1      36.788  22.616  22.753  1.00  0.00    -0.084 Cl
ATOM     16  C   UNL A   1      33.607  24.458  24.311  1.00  0.00     0.019 A 
ATOM     17  O   UNL A   1      32.828  24.613  26.596  1.00  0.00    -0.475 OA
ATOM     18  C   UNL A   1      32.558  25.363  23.863  1.00  0.00     0.025 C 
ATOM     19  C   UNL A   1      31.562  25.138  26.114  1.00  0.00     0.314 C 
BRANCH  10  20
ATOM     20  C   UNL A   1      36.939  22.184  25.880  1.00  0.00     0.040 C 
BRANCH  20  21
ATOM     21  C   UNL A   1      38.244  23.008  25.828  1.00  0.00    -0.013 C 
ATOM     22  C   UNL A   1      38.120  24.363  26.533  1.00  0.00     0.008 C 
ATOM     23  C   UNL A   1      39.384  22.208  26.461  1.00  0.00     0.008 C 
ENDBRANCH  20  21
ENDBRANCH  10  20
BRANCH  19  24
ATOM     24  C   UNL A   1      30.476  24.061  26.281  1.00  0.00     0.429 C 
ATOM     25  F   UNL A   1      30.839  23.160  27.225  1.00  0.00    -0.167 F 
ATOM     26  F   UNL A   1      29.292  24.581  26.678  1.00  0.00    -0.167 F 
ATOM     27  F   UNL A   1      30.245  23.382  25.135  1.00  0.00    -0.167 F 
ENDBRANCH  19  24
ENDBRANCH   6   9
ENDBRANCH   4   5
ENDBRANCH   3   4
ENDBRANCH   2   3
ENDBRANCH   1   2
BRANCH   1  28
ATOM     28  C   UNL A   1      33.736  29.255  27.461  1.00  0.00     0.021 C 
BRANCH  28  29
ATOM     29  C   UNL A   1      35.091  29.922  27.661  1.00  0.00     0.116 C 
BRANCH  29  30
ATOM     30  N   UNL A   1      35.176  30.657  28.913  1.00  0.00    -0.352 N 
ATOM     31  C   UNL A   1      36.214  30.716  29.812  1.00  0.00     0.251 C 
ATOM     32  H   UNL A   1      34.379  31.186  29.149  1.00  0.00     0.163 HD
ATOM     33  O   UNL A   1      36.065  31.278  30.892  1.00  0.00    -0.269 OA
BRANCH  31  34
ATOM     34  C   UNL A   1      37.498  30.063  29.482  1.00  0.00     0.039 A 
ATOM     35  C   UNL A   1      38.298  29.516  30.489  1.00  0.00     0.014 A 
ATOM     36  C   UNL A   1      37.922  30.037  28.152  1.00  0.00     0.014 A 
ATOM     37  C   UNL A   1      39.587  29.083  30.186  1.00  0.00     0.010 A 
ATOM     38  C   UNL A   1      39.190  29.541  27.841  1.00  0.00     0.010 A 
ATOM     39  C   UNL A   1      40.050  29.105  28.861  1.00  0.00    -0.014 A 
BRANCH  39  40
ATOM     40  C   UNL A   1      41.448  28.703  28.557  1.00  0.00     0.031 A 
ATOM     41  C   UNL A   1      42.564  29.708  28.655  1.00  0.00     0.074 A 
ATOM     42  C   UNL A   1      41.717  27.427  28.223  1.00  0.00     0.049 A 
ATOM     43  N   UNL A   1      43.834  29.564  28.370  1.00  0.00    -0.248 NA
ATOM     44  C   UNL A   1      42.210  31.054  29.135  1.00  0.00     0.031 C 
ATOM     45  C   UNL A   1      40.725  26.355  28.120  1.00  0.00     0.029 A 
ATOM     46  N   UNL A   1      42.905  26.813  27.919  1.00  0.00    -0.354 N 
ATOM     47  C   UNL A   1      44.423  30.800  28.609  1.00  0.00     0.074 A 
ATOM     48  C   UNL A   1      43.370  31.691  29.046  1.00  0.00     0.031 C 
ATOM     49  C   UNL A   1      41.349  25.209  27.809  1.00  0.00     0.029 A 
ATOM     50  C   UNL A   1      42.773  25.476  27.632  1.00  0.00     0.049 A 
ATOM     51  H   UNL A   1      43.769  27.285  27.909  1.00  0.00     0.167 HD
ATOM     52  C   UNL A   1      45.724  31.157  28.482  1.00  0.00     0.037 A 
ATOM     53  C   UNL A   1      43.691  24.570  27.243  1.00  0.00     0.037 A 
ATOM     54  C   UNL A   1      46.773  30.261  28.069  1.00  0.00     0.049 A 
ATOM     55  C   UNL A   1      45.118  25.001  27.067  1.00  0.00     0.074 A 
ATOM     56  C   UNL A   1      48.126  30.523  27.930  1.00  0.00     0.029 A 
ATOM     57  N   UNL A   1      46.590  28.928  27.733  1.00  0.00    -0.354 N 
ATOM     58  N   UNL A   1      45.653  26.180  27.274  1.00  0.00    -0.248 NA
ATOM     59  C   UNL A   1      46.063  23.982  26.592  1.00  0.00     0.031 C 
ATOM     60  C   UNL A   1      48.754  29.357  27.478  1.00  0.00     0.029 A 
ATOM     61  C   UNL A   1      47.799  28.359  27.370  1.00  0.00     0.049 A 
ATOM     62  H   UNL A   1      45.725  28.455  27.751  1.00  0.00     0.167 HD
ATOM     63  C   UNL A   1      46.997  26.048  26.946  1.00  0.00     0.074 A 
ATOM     64  C   UNL A   1      47.198  24.666  26.557  1.00  0.00     0.031 C 
ATOM     65  C   UNL A   1      47.975  26.988  26.960  1.00  0.00     0.037 A 
BRANCH  52  66
ATOM     66  C   UNL A   1      46.084  32.587  28.777  1.00  0.00     0.058 A 
ATOM     67  C   UNL A   1      46.002  33.586  27.795  1.00  0.00     0.135 A 
ATOM     68  C   UNL A   1      46.484  32.969  30.068  1.00  0.00     0.135 A 
ATOM     69  F   UNL A   1      45.643  33.272  26.540  1.00  0.00    -0.206 F 
ATOM     70  C   UNL A   1      46.330  34.909  28.076  1.00  0.00     0.059 A 
ATOM     71  C   UNL A   1      46.795  34.289  30.377  1.00  0.00     0.059 A 
ATOM     72  F   UNL A   1      46.581  32.052  31.045  1.00  0.00    -0.206 F 
ATOM     73  C   UNL A   1      46.728  35.251  29.369  1.00  0.00     0.060 A 
BRANCH  73  74
ATOM     74  S   UNL A   1      47.153  36.972  29.715  1.00  0.00     0.124 S 
ATOM     75  O   UNL A   1      45.837  37.550  29.968  1.00  0.00    -0.237 OA
ATOM     76  O   UNL A   1      48.025  36.849  30.878  1.00  0.00    -0.237 OA
ATOM     77  O   UNL A   1      47.807  37.414  28.488  1.00  0.00    -0.744 OA
ENDBRANCH  73  74
ENDBRANCH  52  66
BRANCH  53  78
ATOM     78  C   UNL A   1      43.270  23.171  26.979  1.00  0.00     0.058 A 
ATOM     79  C   UNL A   1      43.161  22.688  25.668  1.00  0.00     0.135 A 
ATOM     80  C   UNL A   1      43.022  22.277  28.033  1.00  0.00     0.135 A 
ATOM     81  F   UNL A   1      43.380  23.510  24.630  1.00  0.00    -0.206 F 
ATOM     82  C   UNL A   1      42.826  21.363  25.408  1.00  0.00     0.059 A 
ATOM     83  C   UNL A   1      42.708  20.943  27.798  1.00  0.00     0.059 A 
ATOM     84  F   UNL A   1      43.126  22.692  29.305  1.00  0.00    -0.206 F 
ATOM     85  C   UNL A   1      42.611  20.496  26.482  1.00  0.00     0.060 A 
BRANCH  85  86
ATOM     86  S   UNL A   1      42.265  18.758  26.134  1.00  0.00     0.124 S 
ATOM     87  O   UNL A   1      40.865  18.812  25.730  1.00  0.00    -0.237 OA
ATOM     88  O   UNL A   1      43.224  18.461  25.074  1.00  0.00    -0.237 OA
ATOM     89  O   UNL A   1      42.531  18.101  27.411  1.00  0.00    -0.744 OA
ENDBRANCH  85  86
ENDBRANCH  53  78
BRANCH  65  90
ATOM     90  C   UNL A   1      49.346  26.550  26.528  1.00  0.00     0.058 A 
ATOM     91  C   UNL A   1      49.778  26.717  25.203  1.00  0.00     0.135 A 
ATOM     92  C   UNL A   1      50.241  25.980  27.446  1.00  0.00     0.135 A 
ATOM     93  F   UNL A   1      48.956  27.250  24.285  1.00  0.00    -0.206 F 
ATOM     94  C   UNL A   1      51.044  26.308  24.797  1.00  0.00     0.059 A 
ATOM     95  C   UNL A   1      51.519  25.585  27.067  1.00  0.00     0.059 A 
ATOM     96  F   UNL A   1      49.876  25.808  28.727  1.00  0.00    -0.206 F 
ATOM     97  C   UNL A   1      51.906  25.740  25.736  1.00  0.00     0.060 A 
BRANCH  97  98
ATOM     98  S   UNL A   1      53.551  25.222  25.199  1.00  0.00     0.124 S 
ATOM     99  O   UNL A   1      53.459  23.772  25.332  1.00  0.00    -0.237 OA
ATOM    100  O   UNL A   1      53.610  25.731  23.833  1.00  0.00    -0.237 OA
ATOM    101  O   UNL A   1      54.441  25.886  26.148  1.00  0.00    -0.744 OA
ENDBRANCH  97  98
ENDBRANCH  65  90
ENDBRANCH  39  40
ENDBRANCH  31  34
ENDBRANCH  29  30
ENDBRANCH  28  29
ENDBRANCH   1  28
TORSDOF 19
ENDMDL
MODEL 3
REMARK VINA RESULT:     -11.5      2.471      3.270
REMARK SMILES CC(C)Cc1cc2c(cc1Cl)C=C(C(=O)NCCCCCCNC(=O)c1ccc(-c3c4nc(c(-c5c(F)cc(S(=O)(=O)[O-])cc5F)c5ccc([nH]5)c(-c5c(F)cc(S(=O)(=O)[O-])cc5F)c5nc(c(-c6c(F)cc(S(=O)(=O)[O-])cc6F)c6ccc3[nH]6)C=C5)C=C4)cc1)[C@@H](C(F)(F)F)O2
REMARK SMILES IDX 20 1 19 2 18 3 17 4 16 5 14 6 15 7 13 9 5 10 6 11 10 12 7 13
REMARK SMILES IDX 9 14 11 15 8 16 97 17 12 18 92 19 4 20 2 21 1 22 3 23 93 24
REMARK SMILES IDX 94 25 95 26 96 27 21 28 22 29 23 30 24 31 25 33 26 34 27 35
REMARK SMILES IDX 91 36 28 37 90 38 29 39 30 40 31 41 84 42 32 43 89 44 83 45
REMARK SMILES IDX 85 46 33 47 88 48 82 49 81 50 34 52 68 53 47 54 67 55 48 56
REMARK SMILES IDX 51 57 66 58 86 59 49 60 50 61 65 63 87 64 52 65 35 66 36 67
REMARK SMILES IDX 45 68 37 69 38 70 44 71 46 72 39 73 40 74 41 75 42 76 43 77
REMARK SMILES IDX 69 78 70 79 79 80 71 81 72 82 78 83 80 84 73 85 74 86 75 87
REMARK SMILES IDX 76 88 77 89 53 90 54 91 63 92 55 93 56 94 62 95 64 96 57 97
REMARK SMILES IDX 58 98 59 99 60 100 61 101
REMARK H PARENT 16 8 23 32 85 51 51 62
REMARK Flexibility Score: inf
ROOT
ATOM      1  C   UNL A   1      34.455  29.046  26.329  1.00  0.00     0.002 C 
ENDROOT
BRANCH   1   2
ATOM      2  C   UNL A   1      33.366  29.238  25.265  1.00  0.00     0.002 C 
BRANCH   2   3
ATOM      3  C   UNL A   1      33.576  28.471  23.954  1.00  0.00     0.021 C 
BRANCH   3   4
ATOM      4  C   UNL A   1      33.383  26.962  24.070  1.00  0.00     0.116 C 
BRANCH   4   5
ATOM      5  N   UNL A   1      32.573  26.607  25.225  1.00  0.00    -0.352 N 
ATOM      6  C   UNL A   1      32.186  25.477  25.860  1.00  0.00     0.251 C 
ATOM      7  O   UNL A   1      31.493  25.657  26.868  1.00  0.00    -0.270 OA
ATOM      8  H   UNL A   1      32.205  27.408  25.663  1.00  0.00     0.163 HD
BRANCH   6   9
ATOM      9  C   UNL A   1      32.517  24.082  25.436  1.00  0.00     0.067 C 
ATOM     10  C   UNL A   1      34.921  19.682  24.756  1.00  0.00    -0.025 A 
ATOM     11  C   UNL A   1      33.582  20.099  24.692  1.00  0.00     0.052 A 
ATOM     12  C   UNL A   1      35.906  20.646  25.018  1.00  0.00     0.045 A 
ATOM     13  C   UNL A   1      33.238  21.427  24.930  1.00  0.00     0.128 A 
ATOM     14  C   UNL A   1      35.554  21.980  25.258  1.00  0.00     0.032 A 
ATOM     15  Cl  UNL A   1      37.585  20.239  25.084  1.00  0.00    -0.084 Cl
ATOM     16  C   UNL A   1      34.213  22.371  25.234  1.00  0.00     0.019 A 
ATOM     17  O   UNL A   1      31.907  21.711  24.915  1.00  0.00    -0.475 OA
ATOM     18  C   UNL A   1      33.806  23.721  25.596  1.00  0.00     0.025 C 
ATOM     19  C   UNL A   1      31.532  23.113  24.842  1.00  0.00     0.314 C 
BRANCH  10  20
ATOM     20  C   UNL A   1      35.212  18.205  24.616  1.00  0.00     0.040 C 
BRANCH  20  21
ATOM     21  C   UNL A   1      33.964  17.364  24.273  1.00  0.00    -0.013 C 
ATOM     22  C   UNL A   1      34.105  16.602  22.950  1.00  0.00     0.008 C 
ATOM     23  C   UNL A   1      33.682  16.372  25.403  1.00  0.00     0.008 C 
ENDBRANCH  20  21
ENDBRANCH  10  20
BRANCH  19  24
ATOM     24  C   UNL A   1      31.173  23.461  23.386  1.00  0.00     0.429 C 
ATOM     25  F   UNL A   1      29.945  24.027  23.320  1.00  0.00    -0.167 F 
ATOM     26  F   UNL A   1      32.038  24.347  22.841  1.00  0.00    -0.167 F 
ATOM     27  F   UNL A   1      31.166  22.372  22.585  1.00  0.00    -0.167 F 
ENDBRANCH  19  24
ENDBRANCH   6   9
ENDBRANCH   4   5
ENDBRANCH   3   4
ENDBRANCH   2   3
ENDBRANCH   1   2
BRANCH   1  28
ATOM     28  C   UNL A   1      34.248  29.805  27.642  1.00  0.00     0.021 C 
BRANCH  28  29
ATOM     29  C   UNL A   1      35.304  30.858  27.957  1.00  0.00     0.116 C 
BRANCH  29  30
ATOM     30  N   UNL A   1      35.322  31.232  29.362  1.00  0.00    -0.352 N 
ATOM     31  C   UNL A   1      36.275  30.964  30.316  1.00  0.00     0.251 C 
ATOM     32  H   UNL A   1      34.543  31.749  29.673  1.00  0.00     0.163 HD
ATOM     33  O   UNL A   1      36.064  31.238  31.493  1.00  0.00    -0.269 OA
BRANCH  31  34
ATOM     34  C   UNL A   1      37.537  30.309  29.916  1.00  0.00     0.039 A 
ATOM     35  C   UNL A   1      38.336  29.663  30.864  1.00  0.00     0.014 A 
ATOM     36  C   UNL A   1      37.945  30.381  28.582  1.00  0.00     0.014 A 
ATOM     37  C   UNL A   1      39.609  29.225  30.508  1.00  0.00     0.010 A 
ATOM     38  C   UNL A   1      39.196  29.881  28.214  1.00  0.00     0.010 A 
ATOM     39  C   UNL A   1      40.057  29.343  29.184  1.00  0.00    -0.014 A 
BRANCH  39  40
ATOM     40  C   UNL A   1      41.441  28.934  28.828  1.00  0.00     0.031 A 
ATOM     41  C   UNL A   1      42.572  29.923  28.921  1.00  0.00     0.074 A 
ATOM     42  C   UNL A   1      41.684  27.664  28.452  1.00  0.00     0.049 A 
ATOM     43  N   UNL A   1      43.831  29.772  28.595  1.00  0.00    -0.248 NA
ATOM     44  C   UNL A   1      42.248  31.258  29.447  1.00  0.00     0.031 C 
ATOM     45  C   UNL A   1      40.677  26.607  28.349  1.00  0.00     0.029 A 
ATOM     46  N   UNL A   1      42.855  27.045  28.098  1.00  0.00    -0.354 N 
ATOM     47  C   UNL A   1      44.441  30.994  28.850  1.00  0.00     0.074 A 
ATOM     48  C   UNL A   1      43.412  31.884  29.342  1.00  0.00     0.031 C 
ATOM     49  C   UNL A   1      41.277  25.463  27.989  1.00  0.00     0.029 A 
ATOM     50  C   UNL A   1      42.699  25.718  27.778  1.00  0.00     0.049 A 
ATOM     51  H   UNL A   1      43.724  27.507  28.075  1.00  0.00     0.167 HD
ATOM     52  C   UNL A   1      45.743  31.339  28.696  1.00  0.00     0.037 A 
ATOM     53  C   UNL A   1      43.593  24.813  27.338  1.00  0.00     0.037 A 
ATOM     54  C   UNL A   1      46.769  30.443  28.229  1.00  0.00     0.049 A 
ATOM     55  C   UNL A   1      45.020  25.232  27.133  1.00  0.00     0.074 A 
ATOM     56  C   UNL A   1      48.120  30.692  28.057  1.00  0.00     0.029 A 
ATOM     57  N   UNL A   1      46.559  29.121  27.862  1.00  0.00    -0.354 N 
ATOM     58  N   UNL A   1      45.576  26.398  27.356  1.00  0.00    -0.248 NA
ATOM     59  C   UNL A   1      45.939  24.215  26.603  1.00  0.00     0.031 C 
ATOM     60  C   UNL A   1      48.720  29.532  27.555  1.00  0.00     0.029 A 
ATOM     61  C   UNL A   1      47.750  28.548  27.448  1.00  0.00     0.049 A 
ATOM     62  H   UNL A   1      45.690  28.658  27.891  1.00  0.00     0.167 HD
ATOM     63  C   UNL A   1      46.908  26.259  26.985  1.00  0.00     0.074 A 
ATOM     64  C   UNL A   1      47.081  24.887  26.553  1.00  0.00     0.031 C 
ATOM     65  C   UNL A   1      47.898  27.187  26.996  1.00  0.00     0.037 A 
BRANCH  52  66
ATOM     66  C   UNL A   1      46.128  32.756  29.019  1.00  0.00     0.058 A 
ATOM     67  C   UNL A   1      46.591  33.122  30.292  1.00  0.00     0.135 A 
ATOM     68  C   UNL A   1      46.065  33.754  28.033  1.00  0.00     0.135 A 
ATOM     69  F   UNL A   1      46.654  32.212  31.276  1.00  0.00    -0.206 F 
ATOM     70  C   UNL A   1      46.954  34.434  30.583  1.00  0.00     0.059 A 
ATOM     71  C   UNL A   1      46.443  35.067  28.295  1.00  0.00     0.059 A 
ATOM     72  F   UNL A   1      45.627  33.457  26.798  1.00  0.00    -0.206 F 
ATOM     73  C   UNL A   1      46.874  35.400  29.579  1.00  0.00     0.060 A 
BRANCH  73  74
ATOM     74  S   UNL A   1      47.345  37.098  29.975  1.00  0.00     0.124 S 
ATOM     75  O   UNL A   1      46.040  37.748  30.062  1.00  0.00    -0.237 OA
ATOM     76  O   UNL A   1      48.058  36.938  31.238  1.00  0.00    -0.237 OA
ATOM     77  O   UNL A   1      48.170  37.496  28.839  1.00  0.00    -0.744 OA
ENDBRANCH  73  74
ENDBRANCH  52  66
BRANCH  53  78
ATOM     78  C   UNL A   1      43.149  23.426  27.048  1.00  0.00     0.058 A 
ATOM     79  C   UNL A   1      42.943  22.997  25.730  1.00  0.00     0.135 A 
ATOM     80  C   UNL A   1      42.972  22.490  28.080  1.00  0.00     0.135 A 
ATOM     81  F   UNL A   1      43.090  23.860  24.713  1.00  0.00    -0.206 F 
ATOM     82  C   UNL A   1      42.584  21.685  25.442  1.00  0.00     0.059 A 
ATOM     83  C   UNL A   1      42.635  21.168  27.815  1.00  0.00     0.059 A 
ATOM     84  F   UNL A   1      43.170  22.853  29.357  1.00  0.00    -0.206 F 
ATOM     85  C   UNL A   1      42.442  20.775  26.492  1.00  0.00     0.060 A 
BRANCH  85  86
ATOM     86  S   UNL A   1      42.063  19.053  26.100  1.00  0.00     0.124 S 
ATOM     87  O   UNL A   1      42.457  18.377  27.330  1.00  0.00    -0.237 OA
ATOM     88  O   UNL A   1      40.629  19.109  25.832  1.00  0.00    -0.237 OA
ATOM     89  O   UNL A   1      42.900  18.784  24.933  1.00  0.00    -0.744 OA
ENDBRANCH  85  86
ENDBRANCH  53  78
BRANCH  65  90
ATOM     90  C   UNL A   1      49.250  26.746  26.513  1.00  0.00     0.058 A 
ATOM     91  C   UNL A   1      49.664  26.986  25.194  1.00  0.00     0.135 A 
ATOM     92  C   UNL A   1      50.146  26.098  27.378  1.00  0.00     0.135 A 
ATOM     93  F   UNL A   1      48.841  27.595  24.327  1.00  0.00    -0.206 F 
ATOM     94  C   UNL A   1      50.912  26.574  24.740  1.00  0.00     0.059 A 
ATOM     95  C   UNL A   1      51.407  25.697  26.951  1.00  0.00     0.059 A 
ATOM     96  F   UNL A   1      49.798  25.853  28.652  1.00  0.00    -0.206 F 
ATOM     97  C   UNL A   1      51.776  25.927  25.626  1.00  0.00     0.060 A 
BRANCH  97  98
ATOM     98  S   UNL A   1      53.398  25.406  25.028  1.00  0.00     0.124 S 
ATOM     99  O   UNL A   1      53.434  24.012  25.458  1.00  0.00    -0.237 OA
ATOM    100  O   UNL A   1      53.288  25.623  23.590  1.00  0.00    -0.237 OA
ATOM    101  O   UNL A   1      54.319  26.302  25.722  1.00  0.00    -0.744 OA
ENDBRANCH  97  98
ENDBRANCH  65  90
ENDBRANCH  39  40
ENDBRANCH  31  34
ENDBRANCH  29  30
ENDBRANCH  28  29
ENDBRANCH   1  28
TORSDOF 19
ENDMDL
