MODEL 1
REMARK VINA RESULT:     -10.4      0.000      0.000
REMARK SMILES CCc1cc(OCC(=O)NCCCCCCNC(=O)c2ccc(-c3c4nc(c(-c5c(F)cc(S(=O)(=O)[O-])cc5F)c5ccc([nH]5)c(-c5c(F)cc(S(=O)(=O)[O-])cc5F)c5nc(c(-c6c(F)cc(S(=O)(=O)[O-])cc6F)c6ccc3[nH]6)C=C5)C=C4)cc2)nc(Nc2ccc(C)c(F)c2)n1
REMARK SMILES IDX 13 1 12 2 11 3 10 4 8 5 9 6 7 8 6 9 5 10 3 11 4 12 97 13
REMARK SMILES IDX 87 14 86 15 2 16 1 17 88 18 89 20 90 21 96 22 91 23 94 24
REMARK SMILES IDX 92 25 95 26 93 27 14 28 15 29 16 30 17 31 18 32 19 34 20 35
REMARK SMILES IDX 21 36 85 37 22 38 84 39 23 40 24 41 25 42 78 43 26 44 83 45
REMARK SMILES IDX 77 46 79 47 27 48 82 49 76 50 75 51 28 53 62 54 41 55 61 56
REMARK SMILES IDX 42 57 45 58 60 59 80 60 43 61 44 62 59 64 81 65 46 66 29 67
REMARK SMILES IDX 30 68 39 69 31 70 32 71 38 72 40 73 33 74 34 75 35 76 36 77
REMARK SMILES IDX 37 78 63 79 64 80 73 81 65 82 66 83 72 84 74 85 67 86 68 87
REMARK SMILES IDX 69 88 70 89 71 90 47 91 48 92 57 93 49 94 50 95 56 96 58 97
REMARK SMILES IDX 51 98 52 99 53 100 54 101 55 102
REMARK H PARENT 10 7 88 19 17 33 79 52 45 63
REMARK Flexibility Score: inf
ROOT
ATOM      1  C   UNL A   1      34.323  25.146  25.169  1.00  0.00     0.002 C 
ENDROOT
BRANCH   1   2
ATOM      2  C   UNL A   1      34.022  26.634  24.944  1.00  0.00     0.021 C 
BRANCH   2   3
ATOM      3  C   UNL A   1      34.328  27.538  26.138  1.00  0.00     0.116 C 
BRANCH   3   4
ATOM      4  N   UNL A   1      33.577  28.776  26.080  1.00  0.00    -0.353 N 
ATOM      5  C   UNL A   1      32.414  29.092  26.714  1.00  0.00     0.258 C 
ATOM      6  O   UNL A   1      31.914  30.203  26.525  1.00  0.00    -0.271 OA
ATOM      7  H   UNL A   1      33.957  29.481  25.507  1.00  0.00     0.163 HD
BRANCH   5   8
ATOM      8  C   UNL A   1      31.760  28.077  27.661  1.00  0.00     0.331 C 
BRANCH   8   9
ATOM      9  O   UNL A   1      30.575  27.435  27.229  1.00  0.00    -0.467 OA
BRANCH   9  10
ATOM     10  C   UNL A   1      30.620  26.679  26.094  1.00  0.00     0.218 A 
ATOM     11  C   UNL A   1      30.727  26.258  23.796  1.00  0.00     0.050 A 
ATOM     12  C   UNL A   1      30.576  27.174  24.810  1.00  0.00     0.092 A 
ATOM     13  N   UNL A   1      30.840  24.946  24.047  1.00  0.00    -0.218 NA
ATOM     14  C   UNL A   1      30.814  24.530  25.322  1.00  0.00     0.230 A 
ATOM     15  N   UNL A   1      30.713  25.364  26.362  1.00  0.00    -0.177 NA
BRANCH  11  16
ATOM     16  C   UNL A   1      30.708  26.711  22.358  1.00  0.00     0.053 C 
ATOM     17  C   UNL A   1      31.802  26.091  21.498  1.00  0.00     0.011 C 
ENDBRANCH  11  16
BRANCH  14  18
ATOM     18  N   UNL A   1      30.791  23.164  25.592  1.00  0.00    -0.324 N 
ATOM     19  H   UNL A   1      29.927  22.796  25.887  1.00  0.00     0.170 HD
BRANCH  18  20
ATOM     20  C   UNL A   1      31.846  22.252  25.495  1.00  0.00     0.044 A 
ATOM     21  C   UNL A   1      32.052  21.546  24.303  1.00  0.00     0.026 A 
ATOM     22  C   UNL A   1      32.798  22.123  26.513  1.00  0.00     0.065 A 
ATOM     23  C   UNL A   1      33.192  20.752  24.125  1.00  0.00     0.008 A 
ATOM     24  C   UNL A   1      33.920  21.318  26.339  1.00  0.00     0.128 A 
ATOM     25  C   UNL A   1      34.142  20.634  25.146  1.00  0.00    -0.015 A 
ATOM     26  F   UNL A   1      34.807  21.226  27.342  1.00  0.00    -0.207 F 
ATOM     27  C   UNL A   1      35.384  19.825  24.938  1.00  0.00     0.047 C 
ENDBRANCH  18  20
ENDBRANCH  14  18
ENDBRANCH   9  10
ENDBRANCH   8   9
ENDBRANCH   5   8
ENDBRANCH   3   4
ENDBRANCH   2   3
ENDBRANCH   1   2
BRANCH   1  28
ATOM     28  C   UNL A   1      34.699  24.350  23.915  1.00  0.00     0.002 C 
BRANCH  28  29
ATOM     29  C   UNL A   1      35.951  23.481  24.045  1.00  0.00     0.021 C 
BRANCH  29  30
ATOM     30  C   UNL A   1      36.788  23.749  25.291  1.00  0.00     0.116 C 
BRANCH  30  31
ATOM     31  N   UNL A   1      37.866  22.785  25.450  1.00  0.00    -0.352 N 
ATOM     32  C   UNL A   1      39.101  22.959  26.028  1.00  0.00     0.251 C 
ATOM     33  H   UNL A   1      37.688  21.885  25.093  1.00  0.00     0.163 HD
ATOM     34  O   UNL A   1      39.962  22.090  25.914  1.00  0.00    -0.269 OA
BRANCH  32  35
ATOM     35  C   UNL A   1      39.394  24.206  26.767  1.00  0.00     0.039 A 
ATOM     36  C   UNL A   1      38.914  24.353  28.072  1.00  0.00     0.014 A 
ATOM     37  C   UNL A   1      40.150  25.223  26.179  1.00  0.00     0.014 A 
ATOM     38  C   UNL A   1      39.245  25.494  28.806  1.00  0.00     0.010 A 
ATOM     39  C   UNL A   1      40.542  26.322  26.938  1.00  0.00     0.010 A 
ATOM     40  C   UNL A   1      40.091  26.473  28.258  1.00  0.00    -0.014 A 
BRANCH  40  41
ATOM     41  C   UNL A   1      40.502  27.672  29.035  1.00  0.00     0.031 A 
ATOM     42  C   UNL A   1      41.827  27.678  29.751  1.00  0.00     0.074 A 
ATOM     43  C   UNL A   1      39.664  28.721  29.152  1.00  0.00     0.049 A 
ATOM     44  N   UNL A   1      42.320  28.571  30.569  1.00  0.00    -0.248 NA
ATOM     45  C   UNL A   1      42.703  26.513  29.537  1.00  0.00     0.031 C 
ATOM     46  C   UNL A   1      38.341  28.824  28.531  1.00  0.00     0.029 A 
ATOM     47  N   UNL A   1      39.794  29.900  29.845  1.00  0.00    -0.354 N 
ATOM     48  C   UNL A   1      43.555  28.074  30.973  1.00  0.00     0.074 A 
ATOM     49  C   UNL A   1      43.709  26.774  30.359  1.00  0.00     0.031 C 
ATOM     50  C   UNL A   1      37.791  30.006  28.856  1.00  0.00     0.029 A 
ATOM     51  C   UNL A   1      38.698  30.726  29.744  1.00  0.00     0.049 A 
ATOM     52  H   UNL A   1      40.596  30.132  30.366  1.00  0.00     0.167 HD
ATOM     53  C   UNL A   1      44.487  28.659  31.763  1.00  0.00     0.037 A 
ATOM     54  C   UNL A   1      38.447  31.922  30.314  1.00  0.00     0.037 A 
ATOM     55  C   UNL A   1      44.337  29.964  32.354  1.00  0.00     0.049 A 
ATOM     56  C   UNL A   1      39.488  32.536  31.215  1.00  0.00     0.074 A 
ATOM     57  C   UNL A   1      45.236  30.656  33.146  1.00  0.00     0.029 A 
ATOM     58  N   UNL A   1      43.222  30.775  32.211  1.00  0.00    -0.354 N 
ATOM     59  N   UNL A   1      40.666  32.068  31.555  1.00  0.00    -0.248 NA
ATOM     60  C   UNL A   1      39.170  33.843  31.805  1.00  0.00     0.031 C 
ATOM     61  C   UNL A   1      44.647  31.869  33.517  1.00  0.00     0.029 A 
ATOM     62  C   UNL A   1      43.405  31.956  32.911  1.00  0.00     0.049 A 
ATOM     63  H   UNL A   1      42.418  30.545  31.691  1.00  0.00     0.167 HD
ATOM     64  C   UNL A   1      41.245  33.042  32.361  1.00  0.00     0.074 A 
ATOM     65  C   UNL A   1      40.291  34.128  32.455  1.00  0.00     0.031 C 
ATOM     66  C   UNL A   1      42.457  33.041  32.967  1.00  0.00     0.037 A 
BRANCH  53  67
ATOM     67  C   UNL A   1      45.762  27.905  32.021  1.00  0.00     0.058 A 
ATOM     68  C   UNL A   1      45.885  27.021  33.105  1.00  0.00     0.135 A 
ATOM     69  C   UNL A   1      46.854  28.020  31.145  1.00  0.00     0.135 A 
ATOM     70  F   UNL A   1      44.879  26.886  33.984  1.00  0.00    -0.206 F 
ATOM     71  C   UNL A   1      47.049  26.292  33.323  1.00  0.00     0.059 A 
ATOM     72  C   UNL A   1      48.018  27.277  31.325  1.00  0.00     0.059 A 
ATOM     73  F   UNL A   1      46.793  28.852  30.093  1.00  0.00    -0.206 F 
ATOM     74  C   UNL A   1      48.109  26.423  32.423  1.00  0.00     0.060 A 
BRANCH  74  75
ATOM     75  S   UNL A   1      49.600  25.444  32.705  1.00  0.00     0.124 S 
ATOM     76  O   UNL A   1      50.453  26.407  33.394  1.00  0.00    -0.237 OA
ATOM     77  O   UNL A   1      49.098  24.344  33.521  1.00  0.00    -0.237 OA
ATOM     78  O   UNL A   1      50.027  25.078  31.358  1.00  0.00    -0.744 OA
ENDBRANCH  74  75
ENDBRANCH  53  67
BRANCH  54  79
ATOM     79  C   UNL A   1      37.165  32.631  30.050  1.00  0.00     0.058 A 
ATOM     80  C   UNL A   1      37.079  33.624  29.062  1.00  0.00     0.135 A 
ATOM     81  C   UNL A   1      36.010  32.357  30.798  1.00  0.00     0.135 A 
ATOM     82  F   UNL A   1      38.157  33.927  28.322  1.00  0.00    -0.206 F 
ATOM     83  C   UNL A   1      35.910  34.346  28.850  1.00  0.00     0.059 A 
ATOM     84  C   UNL A   1      34.819  33.044  30.585  1.00  0.00     0.059 A 
ATOM     85  F   UNL A   1      36.030  31.403  31.744  1.00  0.00    -0.206 F 
ATOM     86  C   UNL A   1      34.784  34.051  29.621  1.00  0.00     0.060 A 
BRANCH  86  87
ATOM     87  S   UNL A   1      33.268  34.990  29.336  1.00  0.00     0.124 S 
ATOM     88  O   UNL A   1      32.679  35.004  30.670  1.00  0.00    -0.237 OA
ATOM     89  O   UNL A   1      33.784  36.266  28.851  1.00  0.00    -0.237 OA
ATOM     90  O   UNL A   1      32.561  34.189  28.341  1.00  0.00    -0.744 OA
ENDBRANCH  86  87
ENDBRANCH  54  79
BRANCH  66  91
ATOM     91  C   UNL A   1      42.860  34.274  33.730  1.00  0.00     0.058 A 
ATOM     92  C   UNL A   1      42.661  34.389  35.114  1.00  0.00     0.135 A 
ATOM     93  C   UNL A   1      43.515  35.328  33.072  1.00  0.00     0.135 A 
ATOM     94  F   UNL A   1      42.034  33.413  35.791  1.00  0.00    -0.206 F 
ATOM     95  C   UNL A   1      43.080  35.514  35.816  1.00  0.00     0.059 A 
ATOM     96  C   UNL A   1      43.970  36.448  33.758  1.00  0.00     0.059 A 
ATOM     97  F   UNL A   1      43.739  35.263  31.750  1.00  0.00    -0.206 F 
ATOM     98  C   UNL A   1      43.740  36.537  35.129  1.00  0.00     0.060 A 
BRANCH  98  99
ATOM     99  S   UNL A   1      44.320  37.969  36.061  1.00  0.00     0.124 S 
ATOM    100  O   UNL A   1      43.506  37.886  37.269  1.00  0.00    -0.237 OA
ATOM    101  O   UNL A   1      45.740  37.675  36.232  1.00  0.00    -0.237 OA
ATOM    102  O   UNL A   1      44.022  39.093  35.179  1.00  0.00    -0.744 OA
ENDBRANCH  98  99
ENDBRANCH  66  91
ENDBRANCH  40  41
ENDBRANCH  32  35
ENDBRANCH  30  31
ENDBRANCH  29  30
ENDBRANCH  28  29
ENDBRANCH   1  28
TORSDOF 21
ENDMDL
MODEL 2
REMARK VINA RESULT:     -10.4      3.141      9.180
REMARK SMILES CCc1cc(OCC(=O)NCCCCCCNC(=O)c2ccc(-c3c4nc(c(-c5c(F)cc(S(=O)(=O)[O-])cc5F)c5ccc([nH]5)c(-c5c(F)cc(S(=O)(=O)[O-])cc5F)c5nc(c(-c6c(F)cc(S(=O)(=O)[O-])cc6F)c6ccc3[nH]6)C=C5)C=C4)cc2)nc(Nc2ccc(C)c(F)c2)n1
REMARK SMILES IDX 13 1 12 2 11 3 10 4 8 5 9 6 7 8 6 9 5 10 3 11 4 12 97 13
REMARK SMILES IDX 87 14 86 15 2 16 1 17 88 18 89 20 90 21 96 22 91 23 94 24
REMARK SMILES IDX 92 25 95 26 93 27 14 28 15 29 16 30 17 31 18 32 19 34 20 35
REMARK SMILES IDX 21 36 85 37 22 38 84 39 23 40 24 41 25 42 78 43 26 44 83 45
REMARK SMILES IDX 77 46 79 47 27 48 82 49 76 50 75 51 28 53 62 54 41 55 61 56
REMARK SMILES IDX 42 57 45 58 60 59 80 60 43 61 44 62 59 64 81 65 46 66 29 67
REMARK SMILES IDX 30 68 39 69 31 70 32 71 38 72 40 73 33 74 34 75 35 76 36 77
REMARK SMILES IDX 37 78 63 79 64 80 73 81 65 82 66 83 72 84 74 85 67 86 68 87
REMARK SMILES IDX 69 88 70 89 71 90 47 91 48 92 57 93 49 94 50 95 56 96 58 97
REMARK SMILES IDX 51 98 52 99 53 100 54 101 55 102
REMARK H PARENT 10 7 88 19 17 33 79 52 45 63
REMARK Flexibility Score: inf
ROOT
ATOM      1  C   UNL A   1      36.466  23.465  26.108  1.00  0.00     0.002 C 
ENDROOT
BRANCH   1   2
ATOM      2  C   UNL A   1      36.162  22.013  25.714  1.00  0.00     0.021 C 
BRANCH   2   3
ATOM      3  C   UNL A   1      34.826  21.477  26.227  1.00  0.00     0.116 C 
BRANCH   3   4
ATOM      4  N   UNL A   1      33.996  20.983  25.146  1.00  0.00    -0.353 N 
ATOM      5  C   UNL A   1      32.670  21.203  24.926  1.00  0.00     0.258 C 
ATOM      6  O   UNL A   1      32.131  20.679  23.950  1.00  0.00    -0.271 OA
ATOM      7  H   UNL A   1      34.450  20.413  24.484  1.00  0.00     0.163 HD
BRANCH   5   8
ATOM      8  C   UNL A   1      31.879  22.110  25.879  1.00  0.00     0.331 C 
BRANCH   8   9
ATOM      9  O   UNL A   1      30.800  22.852  25.344  1.00  0.00    -0.467 OA
BRANCH   9  10
ATOM     10  C   UNL A   1      31.027  24.136  24.944  1.00  0.00     0.218 A 
ATOM     11  C   UNL A   1      31.318  25.895  23.430  1.00  0.00     0.050 A 
ATOM     12  C   UNL A   1      31.190  24.542  23.639  1.00  0.00     0.092 A 
ATOM     13  N   UNL A   1      31.351  26.762  24.453  1.00  0.00    -0.218 NA
ATOM     14  C   UNL A   1      31.248  26.287  25.703  1.00  0.00     0.230 A 
ATOM     15  N   UNL A   1      31.078  24.991  25.981  1.00  0.00    -0.177 NA
BRANCH  11  16
ATOM     16  C   UNL A   1      31.485  26.432  22.031  1.00  0.00     0.053 C 
ATOM     17  C   UNL A   1      32.671  25.843  21.278  1.00  0.00     0.011 C 
ENDBRANCH  11  16
BRANCH  14  18
ATOM     18  N   UNL A   1      31.419  27.157  26.777  1.00  0.00    -0.324 N 
ATOM     19  H   UNL A   1      30.864  26.977  27.571  1.00  0.00     0.170 HD
BRANCH  18  20
ATOM     20  C   UNL A   1      32.282  28.253  26.866  1.00  0.00     0.044 A 
ATOM     21  C   UNL A   1      31.759  29.550  26.936  1.00  0.00     0.026 A 
ATOM     22  C   UNL A   1      33.662  28.087  27.030  1.00  0.00     0.065 A 
ATOM     23  C   UNL A   1      32.590  30.649  27.188  1.00  0.00     0.008 A 
ATOM     24  C   UNL A   1      34.487  29.182  27.261  1.00  0.00     0.128 A 
ATOM     25  C   UNL A   1      33.968  30.472  27.357  1.00  0.00    -0.015 A 
ATOM     26  F   UNL A   1      35.804  28.975  27.414  1.00  0.00    -0.207 F 
ATOM     27  C   UNL A   1      34.850  31.639  27.675  1.00  0.00     0.047 C 
ENDBRANCH  18  20
ENDBRANCH  14  18
ENDBRANCH   9  10
ENDBRANCH   8   9
ENDBRANCH   5   8
ENDBRANCH   3   4
ENDBRANCH   2   3
ENDBRANCH   1   2
BRANCH   1  28
ATOM     28  C   UNL A   1      37.930  23.896  25.969  1.00  0.00     0.002 C 
BRANCH  28  29
ATOM     29  C   UNL A   1      38.958  22.900  26.508  1.00  0.00     0.021 C 
BRANCH  29  30
ATOM     30  C   UNL A   1      40.223  23.532  27.077  1.00  0.00     0.116 C 
BRANCH  30  31
ATOM     31  N   UNL A   1      41.006  24.212  26.058  1.00  0.00    -0.352 N 
ATOM     32  C   UNL A   1      41.367  25.537  25.988  1.00  0.00     0.251 C 
ATOM     33  H   UNL A   1      41.321  23.647  25.316  1.00  0.00     0.163 HD
ATOM     34  O   UNL A   1      41.876  25.983  24.962  1.00  0.00    -0.269 OA
BRANCH  32  35
ATOM     35  C   UNL A   1      41.118  26.426  27.143  1.00  0.00     0.039 A 
ATOM     36  C   UNL A   1      40.053  26.143  28.003  1.00  0.00     0.014 A 
ATOM     37  C   UNL A   1      41.941  27.530  27.384  1.00  0.00     0.014 A 
ATOM     38  C   UNL A   1      39.853  26.932  29.138  1.00  0.00     0.010 A 
ATOM     39  C   UNL A   1      41.786  28.267  28.555  1.00  0.00     0.010 A 
ATOM     40  C   UNL A   1      40.737  27.980  29.443  1.00  0.00    -0.014 A 
BRANCH  40  41
ATOM     41  C   UNL A   1      40.579  28.803  30.670  1.00  0.00     0.031 A 
ATOM     42  C   UNL A   1      39.546  29.899  30.706  1.00  0.00     0.074 A 
ATOM     43  C   UNL A   1      41.400  28.612  31.722  1.00  0.00     0.049 A 
ATOM     44  N   UNL A   1      39.327  30.798  31.629  1.00  0.00    -0.248 NA
ATOM     45  C   UNL A   1      38.660  30.014  29.535  1.00  0.00     0.031 C 
ATOM     46  C   UNL A   1      42.459  27.603  31.799  1.00  0.00     0.029 A 
ATOM     47  N   UNL A   1      41.484  29.268  32.926  1.00  0.00    -0.354 N 
ATOM     48  C   UNL A   1      38.287  31.588  31.150  1.00  0.00     0.074 A 
ATOM     49  C   UNL A   1      37.961  31.100  29.828  1.00  0.00     0.031 C 
ATOM     50  C   UNL A   1      43.072  27.696  32.992  1.00  0.00     0.029 A 
ATOM     51  C   UNL A   1      42.483  28.797  33.746  1.00  0.00     0.049 A 
ATOM     52  H   UNL A   1      40.884  30.006  33.179  1.00  0.00     0.167 HD
ATOM     53  C   UNL A   1      37.645  32.609  31.766  1.00  0.00     0.037 A 
ATOM     54  C   UNL A   1      42.888  29.216  34.962  1.00  0.00     0.037 A 
ATOM     55  C   UNL A   1      37.960  33.076  33.092  1.00  0.00     0.049 A 
ATOM     56  C   UNL A   1      42.177  30.376  35.611  1.00  0.00     0.074 A 
ATOM     57  C   UNL A   1      37.349  34.085  33.814  1.00  0.00     0.029 A 
ATOM     58  N   UNL A   1      38.965  32.560  33.895  1.00  0.00    -0.354 N 
ATOM     59  N   UNL A   1      41.171  31.086  35.158  1.00  0.00    -0.248 NA
ATOM     60  C   UNL A   1      42.652  30.789  36.939  1.00  0.00     0.031 C 
ATOM     61  C   UNL A   1      38.012  34.208  35.039  1.00  0.00     0.029 A 
ATOM     62  C   UNL A   1      39.000  33.238  35.102  1.00  0.00     0.049 A 
ATOM     63  H   UNL A   1      39.567  31.822  33.645  1.00  0.00     0.167 HD
ATOM     64  C   UNL A   1      40.866  31.997  36.163  1.00  0.00     0.074 A 
ATOM     65  C   UNL A   1      41.789  31.747  37.250  1.00  0.00     0.031 C 
ATOM     66  C   UNL A   1      39.906  32.954  36.187  1.00  0.00     0.037 A 
BRANCH  53  67
ATOM     67  C   UNL A   1      36.523  33.282  31.024  1.00  0.00     0.058 A 
ATOM     68  C   UNL A   1      35.183  33.108  31.405  1.00  0.00     0.135 A 
ATOM     69  C   UNL A   1      36.791  34.158  29.959  1.00  0.00     0.135 A 
ATOM     70  F   UNL A   1      34.868  32.268  32.405  1.00  0.00    -0.206 F 
ATOM     71  C   UNL A   1      34.147  33.761  30.746  1.00  0.00     0.059 A 
ATOM     72  C   UNL A   1      35.772  34.846  29.304  1.00  0.00     0.059 A 
ATOM     73  F   UNL A   1      38.054  34.361  29.551  1.00  0.00    -0.206 F 
ATOM     74  C   UNL A   1      34.453  34.633  29.700  1.00  0.00     0.060 A 
BRANCH  74  75
ATOM     75  S   UNL A   1      33.097  35.496  28.878  1.00  0.00     0.124 S 
ATOM     76  O   UNL A   1      32.452  34.403  28.156  1.00  0.00    -0.237 OA
ATOM     77  O   UNL A   1      32.347  36.039  30.006  1.00  0.00    -0.237 OA
ATOM     78  O   UNL A   1      33.776  36.484  28.046  1.00  0.00    -0.744 OA
ENDBRANCH  74  75
ENDBRANCH  53  67
BRANCH  54  79
ATOM     79  C   UNL A   1      44.016  28.537  35.659  1.00  0.00     0.058 A 
ATOM     80  C   UNL A   1      43.779  27.489  36.562  1.00  0.00     0.135 A 
ATOM     81  C   UNL A   1      45.346  28.939  35.464  1.00  0.00     0.135 A 
ATOM     82  F   UNL A   1      42.524  27.070  36.788  1.00  0.00    -0.206 F 
ATOM     83  C   UNL A   1      44.812  26.890  37.274  1.00  0.00     0.059 A 
ATOM     84  C   UNL A   1      46.400  28.336  36.142  1.00  0.00     0.059 A 
ATOM     85  F   UNL A   1      45.631  29.924  34.597  1.00  0.00    -0.206 F 
ATOM     86  C   UNL A   1      46.121  27.325  37.061  1.00  0.00     0.060 A 
BRANCH  86  87
ATOM     87  S   UNL A   1      47.458  26.539  37.987  1.00  0.00     0.124 S 
ATOM     88  O   UNL A   1      47.804  27.584  38.943  1.00  0.00    -0.237 OA
ATOM     89  O   UNL A   1      46.797  25.360  38.538  1.00  0.00    -0.237 OA
ATOM     90  O   UNL A   1      48.459  26.264  36.960  1.00  0.00    -0.744 OA
ENDBRANCH  86  87
ENDBRANCH  54  79
BRANCH  66  91
ATOM     91  C   UNL A   1      39.751  33.760  37.447  1.00  0.00     0.058 A 
ATOM     92  C   UNL A   1      40.482  34.936  37.672  1.00  0.00     0.135 A 
ATOM     93  C   UNL A   1      38.806  33.381  38.415  1.00  0.00     0.135 A 
ATOM     94  F   UNL A   1      41.404  35.340  36.783  1.00  0.00    -0.206 F 
ATOM     95  C   UNL A   1      40.297  35.698  38.821  1.00  0.00     0.059 A 
ATOM     96  C   UNL A   1      38.581  34.144  39.556  1.00  0.00     0.059 A 
ATOM     97  F   UNL A   1      38.073  32.270  38.244  1.00  0.00    -0.206 F 
ATOM     98  C   UNL A   1      39.338  35.296  39.755  1.00  0.00     0.060 A 
BRANCH  98  99
ATOM     99  S   UNL A   1      39.074  36.320  41.218  1.00  0.00     0.124 S 
ATOM    100  O   UNL A   1      40.378  36.250  41.867  1.00  0.00    -0.237 OA
ATOM    101  O   UNL A   1      38.725  37.612  40.635  1.00  0.00    -0.237 OA
ATOM    102  O   UNL A   1      37.987  35.641  41.917  1.00  0.00    -0.744 OA
ENDBRANCH  98  99
ENDBRANCH  66  91
ENDBRANCH  40  41
ENDBRANCH  32  35
ENDBRANCH  30  31
ENDBRANCH  29  30
ENDBRANCH  28  29
ENDBRANCH   1  28
TORSDOF 21
ENDMDL
MODEL 3
REMARK VINA RESULT:     -10.1      4.505     11.413
REMARK SMILES CCc1cc(OCC(=O)NCCCCCCNC(=O)c2ccc(-c3c4nc(c(-c5c(F)cc(S(=O)(=O)[O-])cc5F)c5ccc([nH]5)c(-c5c(F)cc(S(=O)(=O)[O-])cc5F)c5nc(c(-c6c(F)cc(S(=O)(=O)[O-])cc6F)c6ccc3[nH]6)C=C5)C=C4)cc2)nc(Nc2ccc(C)c(F)c2)n1
REMARK SMILES IDX 13 1 12 2 11 3 10 4 8 5 9 6 7 8 6 9 5 10 3 11 4 12 97 13
REMARK SMILES IDX 87 14 86 15 2 16 1 17 88 18 89 20 90 21 96 22 91 23 94 24
REMARK SMILES IDX 92 25 95 26 93 27 14 28 15 29 16 30 17 31 18 32 19 34 20 35
REMARK SMILES IDX 21 36 85 37 22 38 84 39 23 40 24 41 25 42 78 43 26 44 83 45
REMARK SMILES IDX 77 46 79 47 27 48 82 49 76 50 75 51 28 53 62 54 41 55 61 56
REMARK SMILES IDX 42 57 45 58 60 59 80 60 43 61 44 62 59 64 81 65 46 66 29 67
REMARK SMILES IDX 30 68 39 69 31 70 32 71 38 72 40 73 33 74 34 75 35 76 36 77
REMARK SMILES IDX 37 78 63 79 64 80 73 81 65 82 66 83 72 84 74 85 67 86 68 87
REMARK SMILES IDX 69 88 70 89 71 90 47 91 48 92 57 93 49 94 50 95 56 96 58 97
REMARK SMILES IDX 51 98 52 99 53 100 54 101 55 102
REMARK H PARENT 10 7 88 19 17 33 79 52 45 63
REMARK Flexibility Score: inf
ROOT
ATOM      1  C   UNL A   1      36.638  33.583  30.577  1.00  0.00     0.002 C 
ENDROOT
BRANCH   1   2
ATOM      2  C   UNL A   1      37.691  32.826  31.397  1.00  0.00     0.021 C 
BRANCH   2   3
ATOM      3  C   UNL A   1      37.142  31.669  32.232  1.00  0.00     0.116 C 
BRANCH   3   4
ATOM      4  N   UNL A   1      36.882  32.072  33.600  1.00  0.00    -0.353 N 
ATOM      5  C   UNL A   1      37.646  31.857  34.707  1.00  0.00     0.258 C 
ATOM      6  O   UNL A   1      37.245  32.267  35.798  1.00  0.00    -0.271 OA
ATOM      7  H   UNL A   1      36.043  32.565  33.749  1.00  0.00     0.163 HD
BRANCH   5   8
ATOM      8  C   UNL A   1      38.992  31.131  34.576  1.00  0.00     0.331 C 
BRANCH   8   9
ATOM      9  O   UNL A   1      39.274  30.088  35.490  1.00  0.00    -0.467 OA
BRANCH   9  10
ATOM     10  C   UNL A   1      40.566  29.901  35.886  1.00  0.00     0.218 A 
ATOM     11  C   UNL A   1      42.696  30.516  36.628  1.00  0.00     0.050 A 
ATOM     12  C   UNL A   1      41.467  30.906  36.152  1.00  0.00     0.092 A 
ATOM     13  N   UNL A   1      43.019  29.221  36.758  1.00  0.00    -0.218 NA
ATOM     14  C   UNL A   1      42.111  28.295  36.421  1.00  0.00     0.230 A 
ATOM     15  N   UNL A   1      40.882  28.597  35.992  1.00  0.00    -0.177 NA
BRANCH  11  16
ATOM     16  C   UNL A   1      43.741  31.551  36.963  1.00  0.00     0.053 C 
ATOM     17  C   UNL A   1      45.095  31.298  36.312  1.00  0.00     0.011 C 
ENDBRANCH  11  16
BRANCH  14  18
ATOM     18  N   UNL A   1      42.478  26.951  36.419  1.00  0.00    -0.324 N 
ATOM     19  H   UNL A   1      42.446  26.493  37.290  1.00  0.00     0.170 HD
BRANCH  18  20
ATOM     20  C   UNL A   1      42.885  26.173  35.331  1.00  0.00     0.044 A 
ATOM     21  C   UNL A   1      43.461  26.787  34.211  1.00  0.00     0.026 A 
ATOM     22  C   UNL A   1      42.866  24.775  35.382  1.00  0.00     0.065 A 
ATOM     23  C   UNL A   1      44.024  26.022  33.182  1.00  0.00     0.008 A 
ATOM     24  C   UNL A   1      43.408  24.018  34.349  1.00  0.00     0.128 A 
ATOM     25  C   UNL A   1      44.005  24.624  33.245  1.00  0.00    -0.015 A 
ATOM     26  F   UNL A   1      43.368  22.680  34.441  1.00  0.00    -0.207 F 
ATOM     27  C   UNL A   1      44.650  23.806  32.169  1.00  0.00     0.047 C 
ENDBRANCH  18  20
ENDBRANCH  14  18
ENDBRANCH   9  10
ENDBRANCH   8   9
ENDBRANCH   5   8
ENDBRANCH   3   4
ENDBRANCH   2   3
ENDBRANCH   1   2
BRANCH   1  28
ATOM     28  C   UNL A   1      36.841  33.563  29.058  1.00  0.00     0.002 C 
BRANCH  28  29
ATOM     29  C   UNL A   1      35.628  33.110  28.244  1.00  0.00     0.021 C 
BRANCH  29  30
ATOM     30  C   UNL A   1      34.576  32.343  29.037  1.00  0.00     0.116 C 
BRANCH  30  31
ATOM     31  N   UNL A   1      34.012  31.237  28.281  1.00  0.00    -0.352 N 
ATOM     32  C   UNL A   1      34.647  30.133  27.762  1.00  0.00     0.251 C 
ATOM     33  H   UNL A   1      33.042  31.284  28.116  1.00  0.00     0.163 HD
ATOM     34  O   UNL A   1      34.050  29.386  26.990  1.00  0.00    -0.269 OA
BRANCH  32  35
ATOM     35  C   UNL A   1      36.056  29.864  28.120  1.00  0.00     0.039 A 
ATOM     36  C   UNL A   1      36.351  29.355  29.388  1.00  0.00     0.014 A 
ATOM     37  C   UNL A   1      37.083  30.103  27.202  1.00  0.00     0.014 A 
ATOM     38  C   UNL A   1      37.670  29.028  29.712  1.00  0.00     0.010 A 
ATOM     39  C   UNL A   1      38.383  29.705  27.500  1.00  0.00     0.010 A 
ATOM     40  C   UNL A   1      38.693  29.168  28.759  1.00  0.00    -0.014 A 
BRANCH  40  41
ATOM     41  C   UNL A   1      40.096  28.780  29.058  1.00  0.00     0.031 A 
ATOM     42  C   UNL A   1      41.029  29.780  29.691  1.00  0.00     0.074 A 
ATOM     43  C   UNL A   1      40.550  27.561  28.704  1.00  0.00     0.049 A 
ATOM     44  N   UNL A   1      42.311  29.680  29.927  1.00  0.00    -0.248 NA
ATOM     45  C   UNL A   1      40.445  31.073  30.088  1.00  0.00     0.031 C 
ATOM     46  C   UNL A   1      39.754  26.514  28.059  1.00  0.00     0.029 A 
ATOM     47  N   UNL A   1      41.797  26.998  28.825  1.00  0.00    -0.354 N 
ATOM     48  C   UNL A   1      42.688  30.895  30.490  1.00  0.00     0.074 A 
ATOM     49  C   UNL A   1      41.513  31.737  30.504  1.00  0.00     0.031 C 
ATOM     50  C   UNL A   1      40.527  25.433  27.857  1.00  0.00     0.029 A 
ATOM     51  C   UNL A   1      41.881  25.722  28.316  1.00  0.00     0.049 A 
ATOM     52  H   UNL A   1      42.560  27.463  29.238  1.00  0.00     0.167 HD
ATOM     53  C   UNL A   1      43.897  31.265  30.976  1.00  0.00     0.037 A 
ATOM     54  C   UNL A   1      42.935  24.887  28.217  1.00  0.00     0.037 A 
ATOM     55  C   UNL A   1      45.058  30.413  30.980  1.00  0.00     0.049 A 
ATOM     56  C   UNL A   1      44.277  25.336  28.736  1.00  0.00     0.074 A 
ATOM     57  C   UNL A   1      46.321  30.685  31.475  1.00  0.00     0.029 A 
ATOM     58  N   UNL A   1      45.096  29.123  30.473  1.00  0.00    -0.354 N 
ATOM     59  N   UNL A   1      44.605  26.475  29.300  1.00  0.00    -0.248 NA
ATOM     60  C   UNL A   1      45.391  24.386  28.612  1.00  0.00     0.031 C 
ATOM     61  C   UNL A   1      47.135  29.575  31.230  1.00  0.00     0.029 A 
ATOM     62  C   UNL A   1      46.365  28.590  30.633  1.00  0.00     0.049 A 
ATOM     63  H   UNL A   1      44.335  28.655  30.059  1.00  0.00     0.167 HD
ATOM     64  C   UNL A   1      45.950  26.358  29.636  1.00  0.00     0.074 A 
ATOM     65  C   UNL A   1      46.373  25.039  29.217  1.00  0.00     0.031 C 
ATOM     66  C   UNL A   1      46.761  27.261  30.239  1.00  0.00     0.037 A 
BRANCH  53  67
ATOM     67  C   UNL A   1      44.026  32.644  31.563  1.00  0.00     0.058 A 
ATOM     68  C   UNL A   1      44.452  33.734  30.787  1.00  0.00     0.135 A 
ATOM     69  C   UNL A   1      43.664  32.893  32.897  1.00  0.00     0.135 A 
ATOM     70  F   UNL A   1      44.828  33.549  29.511  1.00  0.00    -0.206 F 
ATOM     71  C   UNL A   1      44.534  35.017  31.316  1.00  0.00     0.059 A 
ATOM     72  C   UNL A   1      43.709  34.175  33.439  1.00  0.00     0.059 A 
ATOM     73  F   UNL A   1      43.251  31.888  33.685  1.00  0.00    -0.206 F 
ATOM     74  C   UNL A   1      44.154  35.228  32.643  1.00  0.00     0.060 A 
BRANCH  74  75
ATOM     75  S   UNL A   1      44.237  36.907  33.302  1.00  0.00     0.124 S 
ATOM     76  O   UNL A   1      45.642  37.000  33.685  1.00  0.00    -0.237 OA
ATOM     77  O   UNL A   1      43.838  37.712  32.152  1.00  0.00    -0.237 OA
ATOM     78  O   UNL A   1      43.285  36.886  34.409  1.00  0.00    -0.744 OA
ENDBRANCH  74  75
ENDBRANCH  53  67
BRANCH  54  79
ATOM     79  C   UNL A   1      42.773  23.535  27.613  1.00  0.00     0.058 A 
ATOM     80  C   UNL A   1      42.295  22.457  28.374  1.00  0.00     0.135 A 
ATOM     81  C   UNL A   1      43.123  23.284  26.277  1.00  0.00     0.135 A 
ATOM     82  F   UNL A   1      41.951  22.644  29.658  1.00  0.00    -0.206 F 
ATOM     83  C   UNL A   1      42.205  21.173  27.846  1.00  0.00     0.059 A 
ATOM     84  C   UNL A   1      43.013  22.015  25.718  1.00  0.00     0.059 A 
ATOM     85  F   UNL A   1      43.569  24.283  25.498  1.00  0.00    -0.206 F 
ATOM     86  C   UNL A   1      42.571  20.961  26.517  1.00  0.00     0.060 A 
BRANCH  86  87
ATOM     87  S   UNL A   1      42.447  19.292  25.838  1.00  0.00     0.124 S 
ATOM     88  O   UNL A   1      43.199  19.425  24.596  1.00  0.00    -0.237 OA
ATOM     89  O   UNL A   1      43.074  18.489  26.884  1.00  0.00    -0.237 OA
ATOM     90  O   UNL A   1      41.008  19.098  25.689  1.00  0.00    -0.744 OA
ENDBRANCH  86  87
ENDBRANCH  54  79
BRANCH  66  91
ATOM     91  C   UNL A   1      48.171  26.838  30.550  1.00  0.00     0.058 A 
ATOM     92  C   UNL A   1      49.240  27.126  29.689  1.00  0.00     0.135 A 
ATOM     93  C   UNL A   1      48.461  26.192  31.764  1.00  0.00     0.135 A 
ATOM     94  F   UNL A   1      49.017  27.736  28.514  1.00  0.00    -0.206 F 
ATOM     95  C   UNL A   1      50.546  26.770  30.010  1.00  0.00     0.059 A 
ATOM     96  C   UNL A   1      49.763  25.855  32.120  1.00  0.00     0.059 A 
ATOM     97  F   UNL A   1      47.476  25.903  32.628  1.00  0.00    -0.206 F 
ATOM     98  C   UNL A   1      50.798  26.140  31.232  1.00  0.00     0.060 A 
BRANCH  98  99
ATOM     99  S   UNL A   1      52.503  25.728  31.657  1.00  0.00     0.124 S 
ATOM    100  O   UNL A   1      52.816  26.753  32.647  1.00  0.00    -0.237 OA
ATOM    101  O   UNL A   1      52.376  24.368  32.171  1.00  0.00    -0.237 OA
ATOM    102  O   UNL A   1      53.209  25.847  30.385  1.00  0.00    -0.744 OA
ENDBRANCH  98  99
ENDBRANCH  66  91
ENDBRANCH  40  41
ENDBRANCH  32  35
ENDBRANCH  30  31
ENDBRANCH  29  30
ENDBRANCH  28  29
ENDBRANCH   1  28
TORSDOF 21
ENDMDL
