MODEL 1
REMARK VINA RESULT:     -11.1      0.000      0.000
REMARK SMILES CC[C@H](C)[C@@H](NC(=O)c1csc(NC(C)=O)n1)C(=O)NCCCCCCNC(=O)c1ccc(-c2c3nc(c(-c4c(F)cc(S(=O)(=O)[O-])cc4F)c4ccc([nH]4)c(-c4c(F)cc(S(=O)(=O)[O-])cc4F)c4nc(c(-c5c(F)cc(S(=O)(=O)[O-])cc5F)c5ccc2[nH]5)C=C4)C=C3)cc1
REMARK SMILES IDX 23 1 22 2 21 3 20 4 18 5 19 6 5 8 3 9 4 10 2 11 1 12 6 13
REMARK SMILES IDX 7 14 8 16 9 17 10 18 17 19 11 20 12 21 13 22 14 23 15 25
REMARK SMILES IDX 16 26 24 27 25 28 26 29 27 30 28 31 29 33 30 34 31 35 95 36
REMARK SMILES IDX 32 37 94 38 33 39 34 40 35 41 88 42 36 43 93 44 87 45 89 46
REMARK SMILES IDX 37 47 92 48 86 49 85 50 38 52 72 53 51 54 71 55 52 56 55 57
REMARK SMILES IDX 70 58 90 59 53 60 54 61 69 63 91 64 56 65 39 66 40 67 49 68
REMARK SMILES IDX 41 69 42 70 48 71 50 72 43 73 44 74 45 75 46 76 47 77 73 78
REMARK SMILES IDX 74 79 83 80 75 81 76 82 82 83 84 84 77 85 78 86 79 87 80 88
REMARK SMILES IDX 81 89 57 90 58 91 67 92 59 93 60 94 66 95 68 96 61 97 62 98
REMARK SMILES IDX 63 99 64 100 65 101
REMARK H PARENT 20 7 6 15 13 24 27 32 89 51 55 62
REMARK Flexibility Score: inf
ROOT
ATOM      1  C   UNL A   1      38.225  22.332  25.439  1.00  0.00     0.002 C 
ENDROOT
BRANCH   1   2
ATOM      2  C   UNL A   1      37.614  23.708  25.729  1.00  0.00     0.021 C 
BRANCH   2   3
ATOM      3  C   UNL A   1      36.094  23.712  25.847  1.00  0.00     0.116 C 
BRANCH   3   4
ATOM      4  N   UNL A   1      35.642  22.707  26.785  1.00  0.00    -0.354 N 
ATOM      5  C   UNL A   1      34.474  22.009  26.822  1.00  0.00     0.242 C 
ATOM      6  O   UNL A   1      34.305  21.243  27.782  1.00  0.00    -0.273 OA
ATOM      7  H   UNL A   1      36.276  22.496  27.507  1.00  0.00     0.163 HD
BRANCH   5   8
ATOM      8  C   UNL A   1      33.328  22.285  25.814  1.00  0.00     0.174 C 
BRANCH   8   9
ATOM      9  C   UNL A   1      33.397  21.246  24.636  1.00  0.00     0.018 C 
ATOM     10  C   UNL A   1      32.470  20.048  24.907  1.00  0.00     0.010 C 
BRANCH   9  11
ATOM     11  C   UNL A   1      33.084  21.839  23.241  1.00  0.00     0.002 C 
ATOM     12  C   UNL A   1      32.107  20.985  22.437  1.00  0.00     0.004 C 
ENDBRANCH   9  11
ENDBRANCH   8   9
BRANCH   8  13
ATOM     13  N   UNL A   1      31.958  22.267  26.383  1.00  0.00    -0.339 N 
ATOM     14  C   UNL A   1      30.797  22.901  26.006  1.00  0.00     0.271 C 
ATOM     15  H   UNL A   1      31.862  21.696  27.178  1.00  0.00     0.164 HD
ATOM     16  O   UNL A   1      29.742  22.495  26.495  1.00  0.00    -0.267 OA
BRANCH  14  17
ATOM     17  C   UNL A   1      30.848  24.112  25.192  1.00  0.00     0.141 A 
ATOM     18  C   UNL A   1      31.061  25.369  25.732  1.00  0.00     0.102 A 
ATOM     19  N   UNL A   1      30.761  24.106  23.809  1.00  0.00    -0.215 NA
ATOM     20  S   UNL A   1      31.362  26.501  24.480  1.00  0.00    -0.104 S 
ATOM     21  C   UNL A   1      31.159  25.263  23.335  1.00  0.00     0.190 A 
BRANCH  21  22
ATOM     22  N   UNL A   1      31.418  25.407  21.999  1.00  0.00    -0.302 N 
ATOM     23  C   UNL A   1      32.648  25.395  21.389  1.00  0.00     0.223 C 
ATOM     24  H   UNL A   1      30.638  25.535  21.411  1.00  0.00     0.172 HD
ATOM     25  C   UNL A   1      32.550  25.561  19.893  1.00  0.00     0.114 C 
ATOM     26  O   UNL A   1      33.741  25.226  21.919  1.00  0.00    -0.275 OA
ENDBRANCH  21  22
ENDBRANCH  14  17
ENDBRANCH   8  13
ENDBRANCH   5   8
ENDBRANCH   3   4
ENDBRANCH   2   3
ENDBRANCH   1   2
BRANCH   1  27
ATOM     27  C   UNL A   1      39.184  21.803  26.510  1.00  0.00     0.002 C 
BRANCH  27  28
ATOM     28  C   UNL A   1      40.676  21.995  26.218  1.00  0.00     0.021 C 
BRANCH  28  29
ATOM     29  C   UNL A   1      41.290  23.296  26.734  1.00  0.00     0.116 C 
BRANCH  29  30
ATOM     30  N   UNL A   1      41.782  24.152  25.672  1.00  0.00    -0.352 N 
ATOM     31  C   UNL A   1      41.961  25.513  25.669  1.00  0.00     0.251 C 
ATOM     32  H   UNL A   1      42.021  23.693  24.835  1.00  0.00     0.163 HD
ATOM     33  O   UNL A   1      42.309  26.076  24.635  1.00  0.00    -0.269 OA
BRANCH  31  34
ATOM     34  C   UNL A   1      41.701  26.305  26.891  1.00  0.00     0.039 A 
ATOM     35  C   UNL A   1      42.541  27.390  27.162  1.00  0.00     0.014 A 
ATOM     36  C   UNL A   1      40.674  25.975  27.780  1.00  0.00     0.014 A 
ATOM     37  C   UNL A   1      42.322  28.172  28.297  1.00  0.00     0.010 A 
ATOM     38  C   UNL A   1      40.433  26.780  28.896  1.00  0.00     0.010 A 
ATOM     39  C   UNL A   1      41.256  27.883  29.163  1.00  0.00    -0.014 A 
BRANCH  39  40
ATOM     40  C   UNL A   1      41.004  28.737  30.348  1.00  0.00     0.031 A 
ATOM     41  C   UNL A   1      41.834  28.582  31.589  1.00  0.00     0.074 A 
ATOM     42  C   UNL A   1      40.006  29.642  30.309  1.00  0.00     0.049 A 
ATOM     43  N   UNL A   1      41.758  29.237  32.719  1.00  0.00    -0.248 NA
ATOM     44  C   UNL A   1      42.876  27.544  31.564  1.00  0.00     0.031 C 
ATOM     45  C   UNL A   1      39.097  29.850  29.180  1.00  0.00     0.029 A 
ATOM     46  N   UNL A   1      39.589  30.552  31.245  1.00  0.00    -0.354 N 
ATOM     47  C   UNL A   1      42.734  28.689  33.542  1.00  0.00     0.074 A 
ATOM     48  C   UNL A   1      43.368  27.626  32.792  1.00  0.00     0.031 C 
ATOM     49  C   UNL A   1      38.237  30.835  29.485  1.00  0.00     0.029 A 
ATOM     50  C   UNL A   1      38.529  31.322  30.830  1.00  0.00     0.049 A 
ATOM     51  H   UNL A   1      40.009  30.646  32.130  1.00  0.00     0.167 HD
ATOM     52  C   UNL A   1      43.080  29.051  34.801  1.00  0.00     0.037 A 
ATOM     53  C   UNL A   1      37.874  32.314  31.461  1.00  0.00     0.037 A 
ATOM     54  C   UNL A   1      42.463  30.122  35.539  1.00  0.00     0.049 A 
ATOM     55  C   UNL A   1      38.321  32.741  32.829  1.00  0.00     0.074 A 
ATOM     56  C   UNL A   1      42.755  30.572  36.816  1.00  0.00     0.029 A 
ATOM     57  N   UNL A   1      41.435  30.919  35.060  1.00  0.00    -0.354 N 
ATOM     58  N   UNL A   1      39.267  32.232  33.580  1.00  0.00    -0.248 NA
ATOM     59  C   UNL A   1      37.621  33.885  33.430  1.00  0.00     0.031 C 
ATOM     60  C   UNL A   1      41.896  31.639  37.112  1.00  0.00     0.029 A 
ATOM     61  C   UNL A   1      41.084  31.862  36.011  1.00  0.00     0.049 A 
ATOM     62  H   UNL A   1      41.015  30.827  34.174  1.00  0.00     0.167 HD
ATOM     63  C   UNL A   1      39.284  32.999  34.738  1.00  0.00     0.074 A 
ATOM     64  C   UNL A   1      38.264  34.017  34.582  1.00  0.00     0.031 C 
ATOM     65  C   UNL A   1      40.069  32.868  35.836  1.00  0.00     0.037 A 
BRANCH  52  66
ATOM     66  C   UNL A   1      44.191  28.280  35.453  1.00  0.00     0.058 A 
ATOM     67  C   UNL A   1      43.925  27.144  36.233  1.00  0.00     0.135 A 
ATOM     68  C   UNL A   1      45.529  28.669  35.288  1.00  0.00     0.135 A 
ATOM     69  F   UNL A   1      42.661  26.743  36.434  1.00  0.00    -0.206 F 
ATOM     70  C   UNL A   1      44.948  26.431  36.848  1.00  0.00     0.059 A 
ATOM     71  C   UNL A   1      46.570  27.961  35.881  1.00  0.00     0.059 A 
ATOM     72  F   UNL A   1      45.833  29.751  34.555  1.00  0.00    -0.206 F 
ATOM     73  C   UNL A   1      46.268  26.853  36.672  1.00  0.00     0.060 A 
BRANCH  73  74
ATOM     74  S   UNL A   1      47.593  25.929  37.480  1.00  0.00     0.124 S 
ATOM     75  O   UNL A   1      47.221  26.061  38.886  1.00  0.00    -0.237 OA
ATOM     76  O   UNL A   1      47.446  24.594  36.909  1.00  0.00    -0.237 OA
ATOM     77  O   UNL A   1      48.798  26.648  37.078  1.00  0.00    -0.744 OA
ENDBRANCH  73  74
ENDBRANCH  52  66
BRANCH  53  78
ATOM     78  C   UNL A   1      36.744  32.997  30.785  1.00  0.00     0.058 A 
ATOM     79  C   UNL A   1      35.420  32.760  31.178  1.00  0.00     0.135 A 
ATOM     80  C   UNL A   1      36.970  33.912  29.746  1.00  0.00     0.135 A 
ATOM     81  F   UNL A   1      35.160  31.890  32.166  1.00  0.00    -0.206 F 
ATOM     82  C   UNL A   1      34.352  33.397  30.556  1.00  0.00     0.059 A 
ATOM     83  C   UNL A   1      35.920  34.571  29.119  1.00  0.00     0.059 A 
ATOM     84  F   UNL A   1      38.223  34.182  29.349  1.00  0.00    -0.206 F 
ATOM     85  C   UNL A   1      34.613  34.299  29.524  1.00  0.00     0.060 A 
BRANCH  85  86
ATOM     86  S   UNL A   1      33.233  35.171  28.749  1.00  0.00     0.124 S 
ATOM     87  O   UNL A   1      32.504  35.658  29.914  1.00  0.00    -0.237 OA
ATOM     88  O   UNL A   1      33.910  36.187  27.949  1.00  0.00    -0.237 OA
ATOM     89  O   UNL A   1      32.572  34.120  27.981  1.00  0.00    -0.744 OA
ENDBRANCH  85  86
ENDBRANCH  53  78
BRANCH  65  90
ATOM     90  C   UNL A   1      39.858  33.858  36.941  1.00  0.00     0.058 A 
ATOM     91  C   UNL A   1      39.012  33.571  38.024  1.00  0.00     0.135 A 
ATOM     92  C   UNL A   1      40.518  35.095  36.929  1.00  0.00     0.135 A 
ATOM     93  F   UNL A   1      38.355  32.401  38.074  1.00  0.00    -0.206 F 
ATOM     94  C   UNL A   1      38.809  34.489  39.048  1.00  0.00     0.059 A 
ATOM     95  C   UNL A   1      40.340  36.024  37.950  1.00  0.00     0.059 A 
ATOM     96  F   UNL A   1      41.341  35.412  35.916  1.00  0.00    -0.206 F 
ATOM     97  C   UNL A   1      39.472  35.717  38.998  1.00  0.00     0.060 A 
BRANCH  97  98
ATOM     98  S   UNL A   1      39.220  36.903  40.335  1.00  0.00     0.124 S 
ATOM     99  O   UNL A   1      38.418  36.122  41.271  1.00  0.00    -0.237 OA
ATOM    100  O   UNL A   1      40.583  37.199  40.764  1.00  0.00    -0.237 OA
ATOM    101  O   UNL A   1      38.525  38.005  39.676  1.00  0.00    -0.744 OA
ENDBRANCH  97  98
ENDBRANCH  65  90
ENDBRANCH  39  40
ENDBRANCH  31  34
ENDBRANCH  29  30
ENDBRANCH  28  29
ENDBRANCH  27  28
ENDBRANCH   1  27
TORSDOF 21
ENDMDL
MODEL 2
REMARK VINA RESULT:     -11.1      1.357      2.064
REMARK SMILES CC[C@H](C)[C@@H](NC(=O)c1csc(NC(C)=O)n1)C(=O)NCCCCCCNC(=O)c1ccc(-c2c3nc(c(-c4c(F)cc(S(=O)(=O)[O-])cc4F)c4ccc([nH]4)c(-c4c(F)cc(S(=O)(=O)[O-])cc4F)c4nc(c(-c5c(F)cc(S(=O)(=O)[O-])cc5F)c5ccc2[nH]5)C=C4)C=C3)cc1
REMARK SMILES IDX 23 1 22 2 21 3 20 4 18 5 19 6 5 8 3 9 4 10 2 11 1 12 6 13
REMARK SMILES IDX 7 14 8 16 9 17 10 18 17 19 11 20 12 21 13 22 14 23 15 25
REMARK SMILES IDX 16 26 24 27 25 28 26 29 27 30 28 31 29 33 30 34 31 35 95 36
REMARK SMILES IDX 32 37 94 38 33 39 34 40 35 41 88 42 36 43 93 44 87 45 89 46
REMARK SMILES IDX 37 47 92 48 86 49 85 50 38 52 72 53 51 54 71 55 52 56 55 57
REMARK SMILES IDX 70 58 90 59 53 60 54 61 69 63 91 64 56 65 39 66 40 67 49 68
REMARK SMILES IDX 41 69 42 70 48 71 50 72 43 73 44 74 45 75 46 76 47 77 73 78
REMARK SMILES IDX 74 79 83 80 75 81 76 82 82 83 84 84 77 85 78 86 79 87 80 88
REMARK SMILES IDX 81 89 57 90 58 91 67 92 59 93 60 94 66 95 68 96 61 97 62 98
REMARK SMILES IDX 63 99 64 100 65 101
REMARK H PARENT 20 7 6 15 13 24 27 32 89 51 55 62
REMARK Flexibility Score: inf
ROOT
ATOM      1  C   UNL A   1      38.271  22.301  25.604  1.00  0.00     0.002 C 
ENDROOT
BRANCH   1   2
ATOM      2  C   UNL A   1      37.737  23.704  25.915  1.00  0.00     0.021 C 
BRANCH   2   3
ATOM      3  C   UNL A   1      36.243  23.881  25.667  1.00  0.00     0.116 C 
BRANCH   3   4
ATOM      4  N   UNL A   1      35.463  23.174  26.661  1.00  0.00    -0.354 N 
ATOM      5  C   UNL A   1      34.116  23.011  26.760  1.00  0.00     0.242 C 
ATOM      6  O   UNL A   1      33.692  22.408  27.757  1.00  0.00    -0.273 OA
ATOM      7  H   UNL A   1      35.988  22.746  27.375  1.00  0.00     0.163 HD
BRANCH   5   8
ATOM      8  C   UNL A   1      33.138  23.697  25.771  1.00  0.00     0.174 C 
BRANCH   8   9
ATOM      9  C   UNL A   1      32.632  22.648  24.714  1.00  0.00     0.018 C 
ATOM     10  C   UNL A   1      33.658  22.474  23.581  1.00  0.00     0.010 C 
BRANCH   9  11
ATOM     11  C   UNL A   1      32.274  21.263  25.307  1.00  0.00     0.002 C 
ATOM     12  C   UNL A   1      32.816  20.102  24.478  1.00  0.00     0.004 C 
ENDBRANCH   9  11
ENDBRANCH   8   9
BRANCH   8  13
ATOM     13  N   UNL A   1      31.959  24.354  26.389  1.00  0.00    -0.339 N 
ATOM     14  C   UNL A   1      31.396  25.595  26.204  1.00  0.00     0.271 C 
ATOM     15  H   UNL A   1      31.495  23.798  27.055  1.00  0.00     0.164 HD
ATOM     16  O   UNL A   1      30.263  25.778  26.650  1.00  0.00    -0.267 OA
BRANCH  14  17
ATOM     17  C   UNL A   1      32.188  26.690  25.651  1.00  0.00     0.141 A 
ATOM     18  C   UNL A   1      31.878  27.304  24.448  1.00  0.00     0.102 A 
ATOM     19  N   UNL A   1      33.268  27.258  26.306  1.00  0.00    -0.215 NA
ATOM     20  S   UNL A   1      32.818  28.725  24.259  1.00  0.00    -0.104 S 
ATOM     21  C   UNL A   1      33.574  28.404  25.746  1.00  0.00     0.190 A 
BRANCH  21  22
ATOM     22  N   UNL A   1      34.423  29.274  26.375  1.00  0.00    -0.302 N 
ATOM     23  C   UNL A   1      34.079  30.390  27.096  1.00  0.00     0.223 C 
ATOM     24  H   UNL A   1      35.386  29.078  26.301  1.00  0.00     0.172 HD
ATOM     25  C   UNL A   1      35.282  31.099  27.668  1.00  0.00     0.114 C 
ATOM     26  O   UNL A   1      32.950  30.804  27.336  1.00  0.00    -0.275 OA
ENDBRANCH  21  22
ENDBRANCH  14  17
ENDBRANCH   8  13
ENDBRANCH   5   8
ENDBRANCH   3   4
ENDBRANCH   2   3
ENDBRANCH   1   2
BRANCH   1  27
ATOM     27  C   UNL A   1      39.333  21.776  26.575  1.00  0.00     0.002 C 
BRANCH  27  28
ATOM     28  C   UNL A   1      40.788  22.039  26.172  1.00  0.00     0.021 C 
BRANCH  28  29
ATOM     29  C   UNL A   1      41.403  23.328  26.714  1.00  0.00     0.116 C 
BRANCH  29  30
ATOM     30  N   UNL A   1      41.939  24.183  25.673  1.00  0.00    -0.352 N 
ATOM     31  C   UNL A   1      42.150  25.539  25.688  1.00  0.00     0.251 C 
ATOM     32  H   UNL A   1      42.188  23.726  24.836  1.00  0.00     0.163 HD
ATOM     33  O   UNL A   1      42.536  26.104  24.668  1.00  0.00    -0.269 OA
BRANCH  31  34
ATOM     34  C   UNL A   1      41.881  26.326  26.911  1.00  0.00     0.039 A 
ATOM     35  C   UNL A   1      42.713  27.413  27.190  1.00  0.00     0.014 A 
ATOM     36  C   UNL A   1      40.852  25.986  27.795  1.00  0.00     0.014 A 
ATOM     37  C   UNL A   1      42.485  28.190  28.327  1.00  0.00     0.010 A 
ATOM     38  C   UNL A   1      40.601  26.785  28.912  1.00  0.00     0.010 A 
ATOM     39  C   UNL A   1      41.417  27.892  29.187  1.00  0.00    -0.014 A 
BRANCH  39  40
ATOM     40  C   UNL A   1      41.154  28.741  30.375  1.00  0.00     0.031 A 
ATOM     41  C   UNL A   1      41.998  28.604  31.609  1.00  0.00     0.074 A 
ATOM     42  C   UNL A   1      40.136  29.622  30.343  1.00  0.00     0.049 A 
ATOM     43  N   UNL A   1      41.916  29.257  32.739  1.00  0.00    -0.248 NA
ATOM     44  C   UNL A   1      43.062  27.590  31.576  1.00  0.00     0.031 C 
ATOM     45  C   UNL A   1      39.214  29.810  29.221  1.00  0.00     0.029 A 
ATOM     46  N   UNL A   1      39.706  30.523  31.282  1.00  0.00    -0.354 N 
ATOM     47  C   UNL A   1      42.910  28.732  33.555  1.00  0.00     0.074 A 
ATOM     48  C   UNL A   1      43.562  27.682  32.800  1.00  0.00     0.031 C 
ATOM     49  C   UNL A   1      38.334  30.775  29.533  1.00  0.00     0.029 A 
ATOM     50  C   UNL A   1      38.626  31.269  30.876  1.00  0.00     0.049 A 
ATOM     51  H   UNL A   1      40.131  30.626  32.164  1.00  0.00     0.167 HD
ATOM     52  C   UNL A   1      43.257  29.101  34.811  1.00  0.00     0.037 A 
ATOM     53  C   UNL A   1      37.953  32.245  31.512  1.00  0.00     0.037 A 
ATOM     54  C   UNL A   1      42.622  30.157  35.554  1.00  0.00     0.049 A 
ATOM     55  C   UNL A   1      38.401  32.682  32.877  1.00  0.00     0.074 A 
ATOM     56  C   UNL A   1      42.913  30.614  36.829  1.00  0.00     0.029 A 
ATOM     57  N   UNL A   1      41.572  30.931  35.084  1.00  0.00    -0.354 N 
ATOM     58  N   UNL A   1      39.365  32.195  33.620  1.00  0.00    -0.248 NA
ATOM     59  C   UNL A   1      37.680  33.810  33.483  1.00  0.00     0.031 C 
ATOM     60  C   UNL A   1      42.033  31.662  37.132  1.00  0.00     0.029 A 
ATOM     61  C   UNL A   1      41.208  31.866  36.038  1.00  0.00     0.049 A 
ATOM     62  H   UNL A   1      41.148  30.830  34.201  1.00  0.00     0.167 HD
ATOM     63  C   UNL A   1      39.373  32.962  34.779  1.00  0.00     0.074 A 
ATOM     64  C   UNL A   1      38.329  33.957  34.630  1.00  0.00     0.031 C 
ATOM     65  C   UNL A   1      40.169  32.849  35.870  1.00  0.00     0.037 A 
BRANCH  52  66
ATOM     66  C   UNL A   1      44.390  28.355  35.454  1.00  0.00     0.058 A 
ATOM     67  C   UNL A   1      44.164  27.170  36.172  1.00  0.00     0.135 A 
ATOM     68  C   UNL A   1      45.710  28.818  35.343  1.00  0.00     0.135 A 
ATOM     69  F   UNL A   1      42.918  26.698  36.320  1.00  0.00    -0.206 F 
ATOM     70  C   UNL A   1      45.208  26.480  36.779  1.00  0.00     0.059 A 
ATOM     71  C   UNL A   1      46.772  28.135  35.930  1.00  0.00     0.059 A 
ATOM     72  F   UNL A   1      45.976  29.949  34.671  1.00  0.00    -0.206 F 
ATOM     73  C   UNL A   1      46.508  26.975  36.658  1.00  0.00     0.060 A 
BRANCH  73  74
ATOM     74  S   UNL A   1      47.858  26.080  37.456  1.00  0.00     0.124 S 
ATOM     75  O   UNL A   1      48.400  27.105  38.343  1.00  0.00    -0.237 OA
ATOM     76  O   UNL A   1      47.166  24.975  38.112  1.00  0.00    -0.237 OA
ATOM     77  O   UNL A   1      48.716  25.700  36.337  1.00  0.00    -0.744 OA
ENDBRANCH  73  74
ENDBRANCH  52  66
BRANCH  53  78
ATOM     78  C   UNL A   1      36.804  32.903  30.845  1.00  0.00     0.058 A 
ATOM     79  C   UNL A   1      35.486  32.591  31.207  1.00  0.00     0.135 A 
ATOM     80  C   UNL A   1      37.002  33.868  29.847  1.00  0.00     0.135 A 
ATOM     81  F   UNL A   1      35.252  31.671  32.156  1.00  0.00    -0.206 F 
ATOM     82  C   UNL A   1      34.398  33.202  30.593  1.00  0.00     0.059 A 
ATOM     83  C   UNL A   1      35.932  34.503  29.228  1.00  0.00     0.059 A 
ATOM     84  F   UNL A   1      38.247  34.209  29.480  1.00  0.00    -0.206 F 
ATOM     85  C   UNL A   1      34.633  34.156  29.601  1.00  0.00     0.060 A 
BRANCH  85  86
ATOM     86  S   UNL A   1      33.225  34.995  28.838  1.00  0.00     0.124 S 
ATOM     87  O   UNL A   1      32.415  35.323  30.005  1.00  0.00    -0.237 OA
ATOM     88  O   UNL A   1      33.858  36.123  28.163  1.00  0.00    -0.237 OA
ATOM     89  O   UNL A   1      32.678  33.973  27.951  1.00  0.00    -0.744 OA
ENDBRANCH  85  86
ENDBRANCH  53  78
BRANCH  65  90
ATOM     90  C   UNL A   1      39.944  33.834  36.977  1.00  0.00     0.058 A 
ATOM     91  C   UNL A   1      39.061  33.554  38.032  1.00  0.00     0.135 A 
ATOM     92  C   UNL A   1      40.628  35.058  36.995  1.00  0.00     0.135 A 
ATOM     93  F   UNL A   1      38.380  32.397  38.053  1.00  0.00    -0.206 F 
ATOM     94  C   UNL A   1      38.845  34.468  39.057  1.00  0.00     0.059 A 
ATOM     95  C   UNL A   1      40.437  35.981  38.019  1.00  0.00     0.059 A 
ATOM     96  F   UNL A   1      41.486  35.367  36.010  1.00  0.00    -0.206 F 
ATOM     97  C   UNL A   1      39.533  35.683  39.038  1.00  0.00     0.060 A 
BRANCH  97  98
ATOM     98  S   UNL A   1      39.264  36.863  40.377  1.00  0.00     0.124 S 
ATOM     99  O   UNL A   1      40.631  37.127  40.813  1.00  0.00    -0.237 OA
ATOM    100  O   UNL A   1      38.591  37.968  39.702  1.00  0.00    -0.237 OA
ATOM    101  O   UNL A   1      38.435  36.116  41.319  1.00  0.00    -0.744 OA
ENDBRANCH  97  98
ENDBRANCH  65  90
ENDBRANCH  39  40
ENDBRANCH  31  34
ENDBRANCH  29  30
ENDBRANCH  28  29
ENDBRANCH  27  28
ENDBRANCH   1  27
TORSDOF 21
ENDMDL
MODEL 3
REMARK VINA RESULT:     -10.7      2.539      8.716
REMARK SMILES CC[C@H](C)[C@@H](NC(=O)c1csc(NC(C)=O)n1)C(=O)NCCCCCCNC(=O)c1ccc(-c2c3nc(c(-c4c(F)cc(S(=O)(=O)[O-])cc4F)c4ccc([nH]4)c(-c4c(F)cc(S(=O)(=O)[O-])cc4F)c4nc(c(-c5c(F)cc(S(=O)(=O)[O-])cc5F)c5ccc2[nH]5)C=C4)C=C3)cc1
REMARK SMILES IDX 23 1 22 2 21 3 20 4 18 5 19 6 5 8 3 9 4 10 2 11 1 12 6 13
REMARK SMILES IDX 7 14 8 16 9 17 10 18 17 19 11 20 12 21 13 22 14 23 15 25
REMARK SMILES IDX 16 26 24 27 25 28 26 29 27 30 28 31 29 33 30 34 31 35 95 36
REMARK SMILES IDX 32 37 94 38 33 39 34 40 35 41 88 42 36 43 93 44 87 45 89 46
REMARK SMILES IDX 37 47 92 48 86 49 85 50 38 52 72 53 51 54 71 55 52 56 55 57
REMARK SMILES IDX 70 58 90 59 53 60 54 61 69 63 91 64 56 65 39 66 40 67 49 68
REMARK SMILES IDX 41 69 42 70 48 71 50 72 43 73 44 74 45 75 46 76 47 77 73 78
REMARK SMILES IDX 74 79 83 80 75 81 76 82 82 83 84 84 77 85 78 86 79 87 80 88
REMARK SMILES IDX 81 89 57 90 58 91 67 92 59 93 60 94 66 95 68 96 61 97 62 98
REMARK SMILES IDX 63 99 64 100 65 101
REMARK H PARENT 20 7 6 15 13 24 27 32 89 51 55 62
REMARK Flexibility Score: inf
ROOT
ATOM      1  C   UNL A   1      32.641  30.360  26.995  1.00  0.00     0.002 C 
ENDROOT
BRANCH   1   2
ATOM      2  C   UNL A   1      32.434  28.867  27.275  1.00  0.00     0.021 C 
BRANCH   2   3
ATOM      3  C   UNL A   1      33.407  27.946  26.547  1.00  0.00     0.116 C 
BRANCH   3   4
ATOM      4  N   UNL A   1      33.817  28.518  25.282  1.00  0.00    -0.354 N 
ATOM      5  C   UNL A   1      33.503  28.145  24.011  1.00  0.00     0.242 C 
ATOM      6  O   UNL A   1      34.046  28.770  23.089  1.00  0.00    -0.273 OA
ATOM      7  H   UNL A   1      34.415  29.296  25.351  1.00  0.00     0.163 HD
BRANCH   5   8
ATOM      8  C   UNL A   1      32.648  26.884  23.721  1.00  0.00     0.174 C 
BRANCH   8   9
ATOM      9  C   UNL A   1      31.121  27.250  23.800  1.00  0.00     0.018 C 
ATOM     10  C   UNL A   1      30.473  26.632  25.051  1.00  0.00     0.010 C 
BRANCH   9  11
ATOM     11  C   UNL A   1      30.824  28.769  23.759  1.00  0.00     0.002 C 
ATOM     12  C   UNL A   1      30.617  29.298  22.343  1.00  0.00     0.004 C 
ENDBRANCH   9  11
ENDBRANCH   8   9
BRANCH   8  13
ATOM     13  N   UNL A   1      32.910  26.218  22.421  1.00  0.00    -0.339 N 
ATOM     14  C   UNL A   1      33.245  24.924  22.101  1.00  0.00     0.271 C 
ATOM     15  H   UNL A   1      32.830  26.815  21.643  1.00  0.00     0.164 HD
ATOM     16  O   UNL A   1      33.137  24.582  20.923  1.00  0.00    -0.267 OA
BRANCH  14  17
ATOM     17  C   UNL A   1      33.863  24.053  23.098  1.00  0.00     0.141 A 
ATOM     18  C   UNL A   1      34.567  24.543  24.186  1.00  0.00     0.102 A 
ATOM     19  N   UNL A   1      33.743  22.674  23.087  1.00  0.00    -0.215 NA
ATOM     20  S   UNL A   1      34.885  23.276  25.296  1.00  0.00    -0.104 S 
ATOM     21  C   UNL A   1      34.106  22.187  24.250  1.00  0.00     0.190 A 
BRANCH  21  22
ATOM     22  N   UNL A   1      33.822  20.887  24.572  1.00  0.00    -0.302 N 
ATOM     23  C   UNL A   1      32.636  20.397  25.059  1.00  0.00     0.223 C 
ATOM     24  H   UNL A   1      34.547  20.234  24.442  1.00  0.00     0.172 HD
ATOM     25  C   UNL A   1      32.678  18.905  25.280  1.00  0.00     0.114 C 
ATOM     26  O   UNL A   1      31.602  21.022  25.272  1.00  0.00    -0.275 OA
ENDBRANCH  21  22
ENDBRANCH  14  17
ENDBRANCH   8  13
ENDBRANCH   5   8
ENDBRANCH   3   4
ENDBRANCH   2   3
ENDBRANCH   1   2
BRANCH   1  27
ATOM     27  C   UNL A   1      31.391  31.120  26.542  1.00  0.00     0.002 C 
BRANCH  27  28
ATOM     28  C   UNL A   1      31.414  32.634  26.776  1.00  0.00     0.021 C 
BRANCH  28  29
ATOM     29  C   UNL A   1      32.704  33.193  27.372  1.00  0.00     0.116 C 
BRANCH  29  30
ATOM     30  N   UNL A   1      32.573  34.564  27.827  1.00  0.00    -0.352 N 
ATOM     31  C   UNL A   1      33.248  35.213  28.830  1.00  0.00     0.251 C 
ATOM     32  H   UNL A   1      31.905  35.107  27.347  1.00  0.00     0.163 HD
ATOM     33  O   UNL A   1      32.933  36.362  29.127  1.00  0.00    -0.269 OA
BRANCH  31  34
ATOM     34  C   UNL A   1      34.323  34.525  29.577  1.00  0.00     0.039 A 
ATOM     35  C   UNL A   1      35.625  34.598  29.073  1.00  0.00     0.014 A 
ATOM     36  C   UNL A   1      34.061  33.787  30.736  1.00  0.00     0.014 A 
ATOM     37  C   UNL A   1      36.671  33.973  29.754  1.00  0.00     0.010 A 
ATOM     38  C   UNL A   1      35.113  33.194  31.437  1.00  0.00     0.010 A 
ATOM     39  C   UNL A   1      36.425  33.282  30.951  1.00  0.00    -0.014 A 
BRANCH  39  40
ATOM     40  C   UNL A   1      37.543  32.651  31.692  1.00  0.00     0.031 A 
ATOM     41  C   UNL A   1      38.252  31.454  31.127  1.00  0.00     0.074 A 
ATOM     42  C   UNL A   1      37.904  33.150  32.891  1.00  0.00     0.049 A 
ATOM     43  N   UNL A   1      39.247  30.772  31.632  1.00  0.00    -0.248 NA
ATOM     44  C   UNL A   1      37.769  30.948  29.833  1.00  0.00     0.031 C 
ATOM     45  C   UNL A   1      37.258  34.276  33.567  1.00  0.00     0.029 A 
ATOM     46  N   UNL A   1      38.902  32.771  33.751  1.00  0.00    -0.354 N 
ATOM     47  C   UNL A   1      39.507  29.752  30.725  1.00  0.00     0.074 A 
ATOM     48  C   UNL A   1      38.543  29.886  29.653  1.00  0.00     0.031 C 
ATOM     49  C   UNL A   1      37.884  34.504  34.734  1.00  0.00     0.029 A 
ATOM     50  C   UNL A   1      38.969  33.539  34.889  1.00  0.00     0.049 A 
ATOM     51  H   UNL A   1      39.512  32.020  33.571  1.00  0.00     0.167 HD
ATOM     52  C   UNL A   1      40.471  28.801  30.773  1.00  0.00     0.037 A 
ATOM     53  C   UNL A   1      39.814  33.476  35.933  1.00  0.00     0.037 A 
ATOM     54  C   UNL A   1      41.442  28.679  31.829  1.00  0.00     0.049 A 
ATOM     55  C   UNL A   1      40.917  32.456  35.931  1.00  0.00     0.074 A 
ATOM     56  C   UNL A   1      42.467  27.757  31.959  1.00  0.00     0.029 A 
ATOM     57  N   UNL A   1      41.516  29.516  32.932  1.00  0.00    -0.354 N 
ATOM     58  N   UNL A   1      41.167  31.519  35.048  1.00  0.00    -0.248 NA
ATOM     59  C   UNL A   1      41.859  32.492  37.057  1.00  0.00     0.031 C 
ATOM     60  C   UNL A   1      43.157  28.032  33.147  1.00  0.00     0.029 A 
ATOM     61  C   UNL A   1      42.571  29.137  33.744  1.00  0.00     0.049 A 
ATOM     62  H   UNL A   1      40.907  30.268  33.112  1.00  0.00     0.167 HD
ATOM     63  C   UNL A   1      42.301  30.861  35.507  1.00  0.00     0.074 A 
ATOM     64  C   UNL A   1      42.697  31.517  36.737  1.00  0.00     0.031 C 
ATOM     65  C   UNL A   1      42.952  29.804  34.962  1.00  0.00     0.037 A 
BRANCH  52  66
ATOM     66  C   UNL A   1      40.523  27.822  29.637  1.00  0.00     0.058 A 
ATOM     67  C   UNL A   1      41.496  27.929  28.631  1.00  0.00     0.135 A 
ATOM     68  C   UNL A   1      39.606  26.763  29.558  1.00  0.00     0.135 A 
ATOM     69  F   UNL A   1      42.384  28.934  28.654  1.00  0.00    -0.206 F 
ATOM     70  C   UNL A   1      41.544  27.031  27.570  1.00  0.00     0.059 A 
ATOM     71  C   UNL A   1      39.645  25.844  28.513  1.00  0.00     0.059 A 
ATOM     72  F   UNL A   1      38.654  26.622  30.493  1.00  0.00    -0.206 F 
ATOM     73  C   UNL A   1      40.608  25.996  27.516  1.00  0.00     0.060 A 
BRANCH  73  74
ATOM     74  S   UNL A   1      40.669  24.838  26.132  1.00  0.00     0.124 S 
ATOM     75  O   UNL A   1      39.275  24.413  26.049  1.00  0.00    -0.237 OA
ATOM     76  O   UNL A   1      41.141  25.676  25.034  1.00  0.00    -0.237 OA
ATOM     77  O   UNL A   1      41.611  23.820  26.586  1.00  0.00    -0.744 OA
ENDBRANCH  73  74
ENDBRANCH  52  66
BRANCH  53  78
ATOM     78  C   UNL A   1      39.673  34.435  37.055  1.00  0.00     0.058 A 
ATOM     79  C   UNL A   1      40.213  35.725  36.973  1.00  0.00     0.135 A 
ATOM     80  C   UNL A   1      38.979  34.084  38.223  1.00  0.00     0.135 A 
ATOM     81  F   UNL A   1      40.887  36.100  35.874  1.00  0.00    -0.206 F 
ATOM     82  C   UNL A   1      40.084  36.636  38.015  1.00  0.00     0.059 A 
ATOM     83  C   UNL A   1      38.824  34.981  39.273  1.00  0.00     0.059 A 
ATOM     84  F   UNL A   1      38.431  32.864  38.338  1.00  0.00    -0.206 F 
ATOM     85  C   UNL A   1      39.389  36.253  39.164  1.00  0.00     0.060 A 
BRANCH  85  86
ATOM     86  S   UNL A   1      39.171  37.450  40.499  1.00  0.00     0.124 S 
ATOM     87  O   UNL A   1      38.649  36.604  41.566  1.00  0.00    -0.237 OA
ATOM     88  O   UNL A   1      40.525  37.958  40.692  1.00  0.00    -0.237 OA
ATOM     89  O   UNL A   1      38.227  38.407  39.929  1.00  0.00    -0.744 OA
ENDBRANCH  85  86
ENDBRANCH  53  78
BRANCH  65  90
ATOM     90  C   UNL A   1      44.163  29.305  35.691  1.00  0.00     0.058 A 
ATOM     91  C   UNL A   1      44.071  28.268  36.632  1.00  0.00     0.135 A 
ATOM     92  C   UNL A   1      45.427  29.855  35.436  1.00  0.00     0.135 A 
ATOM     93  F   UNL A   1      42.879  27.716  36.912  1.00  0.00    -0.206 F 
ATOM     94  C   UNL A   1      45.191  27.808  37.314  1.00  0.00     0.059 A 
ATOM     95  C   UNL A   1      46.564  29.401  36.097  1.00  0.00     0.059 A 
ATOM     96  F   UNL A   1      45.565  30.846  34.541  1.00  0.00    -0.206 F 
ATOM     97  C   UNL A   1      46.433  28.386  37.045  1.00  0.00     0.060 A 
BRANCH  97  98
ATOM     98  S   UNL A   1      47.890  27.778  37.921  1.00  0.00     0.124 S 
ATOM     99  O   UNL A   1      47.282  27.010  39.002  1.00  0.00    -0.237 OA
ATOM    100  O   UNL A   1      48.577  26.996  36.899  1.00  0.00    -0.237 OA
ATOM    101  O   UNL A   1      48.572  29.004  38.325  1.00  0.00    -0.744 OA
ENDBRANCH  97  98
ENDBRANCH  65  90
ENDBRANCH  39  40
ENDBRANCH  31  34
ENDBRANCH  29  30
ENDBRANCH  28  29
ENDBRANCH  27  28
ENDBRANCH   1  27
TORSDOF 21
ENDMDL
