MODEL 1
REMARK VINA RESULT:     -12.7      0.000      0.000
REMARK SMILES C[NH+]1CCN(c2nc3c(cc2F)c(=O)c(C(=O)NCCCCCCNC(=O)c2ccc(-c4c5nc(c(-c6c(F)cc(S(=O)(=O)[O-])cc6F)c6ccc([nH]6)c(-c6c(F)cc(S(=O)(=O)[O-])cc6F)c6nc(c(-c7c(F)cc(S(=O)(=O)[O-])cc7F)c7ccc4[nH]7)C=C6)C=C5)cc2)cn3-c2ccc(F)cc2F)CC1
REMARK SMILES IDX 22 1 21 2 20 3 19 4 18 5 16 6 17 7 15 9 6 10 7 11 11 12 8 13
REMARK SMILES IDX 10 14 12 15 9 16 95 17 13 18 94 19 14 20 5 21 1 22 2 23 3 24
REMARK SMILES IDX 105 25 4 27 104 28 96 29 97 30 102 31 98 32 101 33 103 34
REMARK SMILES IDX 99 35 100 36 23 37 24 38 25 39 26 40 27 42 28 43 29 44 93 45
REMARK SMILES IDX 30 46 92 47 31 48 32 49 33 50 86 51 34 52 91 53 85 54 87 55
REMARK SMILES IDX 35 56 90 57 84 58 83 59 36 61 70 62 49 63 69 64 50 65 53 66
REMARK SMILES IDX 68 67 88 68 51 69 52 70 67 72 89 73 54 74 37 75 38 76 47 77
REMARK SMILES IDX 39 78 40 79 46 80 48 81 41 82 42 83 43 84 44 85 45 86 71 87
REMARK SMILES IDX 72 88 81 89 73 90 74 91 80 92 82 93 75 94 76 95 77 96 78 97
REMARK SMILES IDX 79 98 55 99 56 100 65 101 57 102 58 103 64 104 66 105 59 106
REMARK SMILES IDX 60 107 61 108 62 109 63 110
REMARK H PARENT 18 8 2 26 25 41 87 60 53 71
REMARK Flexibility Score: inf
ROOT
ATOM      1  C   UNL A   1      36.186  23.293  25.886  1.00  0.00     0.002 C 
ENDROOT
BRANCH   1   2
ATOM      2  C   UNL A   1      35.910  21.784  25.913  1.00  0.00     0.002 C 
BRANCH   2   3
ATOM      3  C   UNL A   1      34.517  21.377  25.422  1.00  0.00     0.021 C 
BRANCH   3   4
ATOM      4  C   UNL A   1      33.560  22.558  25.243  1.00  0.00     0.116 C 
BRANCH   4   5
ATOM      5  N   UNL A   1      32.586  22.592  26.319  1.00  0.00    -0.352 N 
ATOM      6  C   UNL A   1      31.681  23.532  26.699  1.00  0.00     0.256 C 
ATOM      7  O   UNL A   1      30.991  23.261  27.688  1.00  0.00    -0.269 OA
ATOM      8  H   UNL A   1      32.580  21.783  26.879  1.00  0.00     0.163 HD
BRANCH   6   9
ATOM      9  C   UNL A   1      31.437  24.790  25.942  1.00  0.00     0.104 A 
ATOM     10  C   UNL A   1      29.750  28.949  23.564  1.00  0.00     0.167 A 
ATOM     11  N   UNL A   1      30.765  28.710  24.433  1.00  0.00    -0.209 NA
ATOM     12  C   UNL A   1      28.933  27.911  23.109  1.00  0.00     0.166 A 
ATOM     13  C   UNL A   1      30.984  27.445  24.878  1.00  0.00     0.151 A 
ATOM     14  C   UNL A   1      29.194  26.607  23.487  1.00  0.00     0.059 A 
ATOM     15  F   UNL A   1      27.935  28.145  22.243  1.00  0.00    -0.203 F 
ATOM     16  C   UNL A   1      30.244  26.375  24.373  1.00  0.00     0.069 A 
ATOM     17  N   UNL A   1      31.982  27.182  25.872  1.00  0.00    -0.297 N 
ATOM     18  C   UNL A   1      30.625  24.996  24.724  1.00  0.00     0.203 A 
ATOM     19  C   UNL A   1      32.081  25.888  26.379  1.00  0.00     0.111 A 
ATOM     20  O   UNL A   1      30.303  24.095  23.961  1.00  0.00    -0.288 OA
BRANCH  10  21
ATOM     21  N   UNL A   1      29.593  30.236  23.121  1.00  0.00    -0.343 N 
ATOM     22  C   UNL A   1      27.377  32.891  20.658  1.00  0.00     0.332 C 
ATOM     23  N   UNL A   1      28.380  32.354  21.576  1.00  0.00    -0.334 N 
ATOM     24  C   UNL A   1      29.162  31.273  20.930  1.00  0.00     0.283 C 
ATOM     25  C   UNL A   1      27.722  31.817  22.793  1.00  0.00     0.283 C 
ATOM     26  H   UNL A   1      29.012  33.113  21.832  1.00  0.00     0.347 HD
ATOM     27  C   UNL A   1      30.226  30.653  21.875  1.00  0.00     0.179 C 
ATOM     28  C   UNL A   1      28.728  31.201  23.790  1.00  0.00     0.179 C 
ENDBRANCH  10  21
BRANCH  17  29
ATOM     29  C   UNL A   1      32.810  28.209  26.414  1.00  0.00     0.083 A 
ATOM     30  C   UNL A   1      32.254  29.401  26.909  1.00  0.00     0.033 A 
ATOM     31  C   UNL A   1      34.207  28.055  26.481  1.00  0.00     0.150 A 
ATOM     32  C   UNL A   1      33.071  30.395  27.454  1.00  0.00     0.041 A 
ATOM     33  C   UNL A   1      35.029  29.046  27.007  1.00  0.00     0.080 A 
ATOM     34  F   UNL A   1      34.782  26.938  26.008  1.00  0.00    -0.205 F 
ATOM     35  C   UNL A   1      34.449  30.208  27.493  1.00  0.00     0.126 A 
ATOM     36  F   UNL A   1      35.230  31.167  28.008  1.00  0.00    -0.207 F 
ENDBRANCH  17  29
ENDBRANCH   6   9
ENDBRANCH   4   5
ENDBRANCH   3   4
ENDBRANCH   2   3
ENDBRANCH   1   2
BRANCH   1  37
ATOM     37  C   UNL A   1      37.582  23.689  25.396  1.00  0.00     0.021 C 
BRANCH  37  38
ATOM     38  C   UNL A   1      38.525  24.152  26.503  1.00  0.00     0.116 C 
BRANCH  38  39
ATOM     39  N   UNL A   1      39.916  24.027  26.095  1.00  0.00    -0.352 N 
ATOM     40  C   UNL A   1      40.971  24.852  26.395  1.00  0.00     0.251 C 
ATOM     41  H   UNL A   1      40.130  23.248  25.532  1.00  0.00     0.163 HD
ATOM     42  O   UNL A   1      42.025  24.772  25.773  1.00  0.00    -0.269 OA
BRANCH  40  43
ATOM     43  C   UNL A   1      40.817  25.844  27.477  1.00  0.00     0.039 A 
ATOM     44  C   UNL A   1      39.820  25.664  28.438  1.00  0.00     0.014 A 
ATOM     45  C   UNL A   1      41.668  26.954  27.532  1.00  0.00     0.014 A 
ATOM     46  C   UNL A   1      39.704  26.578  29.486  1.00  0.00     0.010 A 
ATOM     47  C   UNL A   1      41.583  27.836  28.603  1.00  0.00     0.010 A 
ATOM     48  C   UNL A   1      40.593  27.660  29.582  1.00  0.00    -0.014 A 
BRANCH  48  49
ATOM     49  C   UNL A   1      40.474  28.652  30.678  1.00  0.00     0.031 A 
ATOM     50  C   UNL A   1      41.365  28.534  31.881  1.00  0.00     0.074 A 
ATOM     51  C   UNL A   1      39.546  29.625  30.605  1.00  0.00     0.049 A 
ATOM     52  N   UNL A   1      41.398  29.273  32.959  1.00  0.00    -0.248 NA
ATOM     53  C   UNL A   1      42.338  27.428  31.880  1.00  0.00     0.031 C 
ATOM     54  C   UNL A   1      38.609  29.818  29.496  1.00  0.00     0.029 A 
ATOM     55  N   UNL A   1      39.233  30.630  31.484  1.00  0.00    -0.354 N 
ATOM     56  C   UNL A   1      42.395  28.728  33.758  1.00  0.00     0.074 A 
ATOM     57  C   UNL A   1      42.901  27.561  33.072  1.00  0.00     0.031 C 
ATOM     58  C   UNL A   1      37.840  30.889  29.754  1.00  0.00     0.029 A 
ATOM     59  C   UNL A   1      38.209  31.441  31.055  1.00  0.00     0.049 A 
ATOM     60  H   UNL A   1      39.699  30.759  32.342  1.00  0.00     0.167 HD
ATOM     61  C   UNL A   1      42.865  29.180  34.945  1.00  0.00     0.037 A 
ATOM     62  C   UNL A   1      37.635  32.507  31.647  1.00  0.00     0.037 A 
ATOM     63  C   UNL A   1      42.362  30.347  35.618  1.00  0.00     0.049 A 
ATOM     64  C   UNL A   1      38.148  32.966  32.985  1.00  0.00     0.074 A 
ATOM     65  C   UNL A   1      42.791  30.906  36.807  1.00  0.00     0.029 A 
ATOM     66  N   UNL A   1      41.316  31.135  35.158  1.00  0.00    -0.354 N 
ATOM     67  N   UNL A   1      39.125  32.468  33.708  1.00  0.00    -0.248 NA
ATOM     68  C   UNL A   1      37.487  34.130  33.589  1.00  0.00     0.031 C 
ATOM     69  C   UNL A   1      41.979  32.010  37.088  1.00  0.00     0.029 A 
ATOM     70  C   UNL A   1      41.073  32.165  36.050  1.00  0.00     0.049 A 
ATOM     71  H   UNL A   1      40.820  30.983  34.321  1.00  0.00     0.167 HD
ATOM     72  C   UNL A   1      39.211  33.273  34.837  1.00  0.00     0.074 A 
ATOM     73  C   UNL A   1      38.193  34.296  34.700  1.00  0.00     0.031 C 
ATOM     74  C   UNL A   1      40.057  33.177  35.893  1.00  0.00     0.037 A 
BRANCH  61  75
ATOM     75  C   UNL A   1      43.992  28.416  35.581  1.00  0.00     0.058 A 
ATOM     76  C   UNL A   1      45.332  28.699  35.269  1.00  0.00     0.135 A 
ATOM     77  C   UNL A   1      43.737  27.422  36.538  1.00  0.00     0.135 A 
ATOM     78  F   UNL A   1      45.629  29.626  34.346  1.00  0.00    -0.206 F 
ATOM     79  C   UNL A   1      46.379  28.007  35.867  1.00  0.00     0.059 A 
ATOM     80  C   UNL A   1      44.770  26.735  37.169  1.00  0.00     0.059 A 
ATOM     81  F   UNL A   1      42.474  27.109  36.870  1.00  0.00    -0.206 F 
ATOM     82  C   UNL A   1      46.088  27.027  36.819  1.00  0.00     0.060 A 
BRANCH  82  83
ATOM     83  S   UNL A   1      47.462  26.152  37.596  1.00  0.00     0.124 S 
ATOM     84  O   UNL A   1      48.600  26.665  36.838  1.00  0.00    -0.237 OA
ATOM     85  O   UNL A   1      47.371  26.599  38.981  1.00  0.00    -0.237 OA
ATOM     86  O   UNL A   1      47.142  24.746  37.370  1.00  0.00    -0.744 OA
ENDBRANCH  82  83
ENDBRANCH  61  75
BRANCH  62  87
ATOM     87  C   UNL A   1      36.535  33.232  30.960  1.00  0.00     0.058 A 
ATOM     88  C   UNL A   1      35.200  33.049  31.351  1.00  0.00     0.135 A 
ATOM     89  C   UNL A   1      36.792  34.138  29.920  1.00  0.00     0.135 A 
ATOM     90  F   UNL A   1      34.903  32.188  32.337  1.00  0.00    -0.206 F 
ATOM     91  C   UNL A   1      34.158  33.731  30.732  1.00  0.00     0.059 A 
ATOM     92  C   UNL A   1      35.768  34.847  29.298  1.00  0.00     0.059 A 
ATOM     93  F   UNL A   1      38.053  34.359  29.516  1.00  0.00    -0.206 F 
ATOM     94  C   UNL A   1      34.453  34.632  29.708  1.00  0.00     0.060 A 
BRANCH  94  95
ATOM     95  S   UNL A   1      33.097  35.554  28.951  1.00  0.00     0.124 S 
ATOM     96  O   UNL A   1      32.401  34.504  28.216  1.00  0.00    -0.237 OA
ATOM     97  O   UNL A   1      32.402  36.087  30.118  1.00  0.00    -0.237 OA
ATOM     98  O   UNL A   1      33.784  36.549  28.132  1.00  0.00    -0.744 OA
ENDBRANCH  94  95
ENDBRANCH  62  87
BRANCH  74  99
ATOM     99  C   UNL A   1      39.940  34.210  36.978  1.00  0.00     0.058 A 
ATOM    100  C   UNL A   1      40.530  35.476  36.850  1.00  0.00     0.135 A 
ATOM    101  C   UNL A   1      39.157  33.960  38.116  1.00  0.00     0.135 A 
ATOM    102  F   UNL A   1      41.294  35.762  35.784  1.00  0.00    -0.206 F 
ATOM    103  C   UNL A   1      40.353  36.458  37.819  1.00  0.00     0.059 A 
ATOM    104  C   UNL A   1      38.946  34.935  39.085  1.00  0.00     0.059 A 
ATOM    105  F   UNL A   1      38.564  32.766  38.280  1.00  0.00    -0.206 F 
ATOM    106  C   UNL A   1      39.553  36.181  38.930  1.00  0.00     0.060 A 
BRANCH 106 107
ATOM    107  S   UNL A   1      39.285  37.486  40.147  1.00  0.00     0.124 S 
ATOM    108  O   UNL A   1      40.637  38.009  40.320  1.00  0.00    -0.237 OA
ATOM    109  O   UNL A   1      38.347  38.367  39.457  1.00  0.00    -0.237 OA
ATOM    110  O   UNL A   1      38.736  36.773  41.296  1.00  0.00    -0.744 OA
ENDBRANCH 106 107
ENDBRANCH  74  99
ENDBRANCH  48  49
ENDBRANCH  40  43
ENDBRANCH  38  39
ENDBRANCH  37  38
ENDBRANCH   1  37
TORSDOF 18
ENDMDL
MODEL 2
REMARK VINA RESULT:     -12.3      5.355      9.318
REMARK SMILES C[NH+]1CCN(c2nc3c(cc2F)c(=O)c(C(=O)NCCCCCCNC(=O)c2ccc(-c4c5nc(c(-c6c(F)cc(S(=O)(=O)[O-])cc6F)c6ccc([nH]6)c(-c6c(F)cc(S(=O)(=O)[O-])cc6F)c6nc(c(-c7c(F)cc(S(=O)(=O)[O-])cc7F)c7ccc4[nH]7)C=C6)C=C5)cc2)cn3-c2ccc(F)cc2F)CC1
REMARK SMILES IDX 22 1 21 2 20 3 19 4 18 5 16 6 17 7 15 9 6 10 7 11 11 12 8 13
REMARK SMILES IDX 10 14 12 15 9 16 95 17 13 18 94 19 14 20 5 21 1 22 2 23 3 24
REMARK SMILES IDX 105 25 4 27 104 28 96 29 97 30 102 31 98 32 101 33 103 34
REMARK SMILES IDX 99 35 100 36 23 37 24 38 25 39 26 40 27 42 28 43 29 44 93 45
REMARK SMILES IDX 30 46 92 47 31 48 32 49 33 50 86 51 34 52 91 53 85 54 87 55
REMARK SMILES IDX 35 56 90 57 84 58 83 59 36 61 70 62 49 63 69 64 50 65 53 66
REMARK SMILES IDX 68 67 88 68 51 69 52 70 67 72 89 73 54 74 37 75 38 76 47 77
REMARK SMILES IDX 39 78 40 79 46 80 48 81 41 82 42 83 43 84 44 85 45 86 71 87
REMARK SMILES IDX 72 88 81 89 73 90 74 91 80 92 82 93 75 94 76 95 77 96 78 97
REMARK SMILES IDX 79 98 55 99 56 100 65 101 57 102 58 103 64 104 66 105 59 106
REMARK SMILES IDX 60 107 61 108 62 109 63 110
REMARK H PARENT 18 8 2 26 25 41 87 60 53 71
REMARK Flexibility Score: inf
ROOT
ATOM      1  C   UNL A   1      42.561  23.118  26.649  1.00  0.00     0.002 C 
ENDROOT
BRANCH   1   2
ATOM      2  C   UNL A   1      42.475  23.458  28.142  1.00  0.00     0.002 C 
BRANCH   2   3
ATOM      3  C   UNL A   1      43.562  22.818  29.011  1.00  0.00     0.021 C 
BRANCH   3   4
ATOM      4  C   UNL A   1      44.913  23.533  28.930  1.00  0.00     0.116 C 
BRANCH   4   5
ATOM      5  N   UNL A   1      45.627  23.139  27.728  1.00  0.00    -0.352 N 
ATOM      6  C   UNL A   1      46.109  23.855  26.680  1.00  0.00     0.256 C 
ATOM      7  O   UNL A   1      46.669  23.211  25.786  1.00  0.00    -0.269 OA
ATOM      8  H   UNL A   1      45.791  22.171  27.660  1.00  0.00     0.163 HD
BRANCH   6   9
ATOM      9  C   UNL A   1      46.070  25.342  26.613  1.00  0.00     0.104 A 
ATOM     10  C   UNL A   1      45.394  30.354  27.085  1.00  0.00     0.167 A 
ATOM     11  N   UNL A   1      46.486  29.564  26.925  1.00  0.00    -0.209 NA
ATOM     12  C   UNL A   1      44.107  29.808  27.104  1.00  0.00     0.166 A 
ATOM     13  C   UNL A   1      46.330  28.220  26.794  1.00  0.00     0.151 A 
ATOM     14  C   UNL A   1      43.926  28.454  26.889  1.00  0.00     0.059 A 
ATOM     15  F   UNL A   1      43.027  30.589  27.252  1.00  0.00    -0.203 F 
ATOM     16  C   UNL A   1      45.055  27.657  26.718  1.00  0.00     0.069 A 
ATOM     17  N   UNL A   1      47.470  27.354  26.727  1.00  0.00    -0.297 N 
ATOM     18  C   UNL A   1      44.910  26.229  26.385  1.00  0.00     0.203 A 
ATOM     19  C   UNL A   1      47.251  25.979  26.715  1.00  0.00     0.111 A 
ATOM     20  O   UNL A   1      43.858  25.857  25.881  1.00  0.00    -0.288 OA
BRANCH  10  21
ATOM     21  N   UNL A   1      45.604  31.704  27.179  1.00  0.00    -0.343 N 
ATOM     22  C   UNL A   1      44.064  35.451  28.450  1.00  0.00     0.332 C 
ATOM     23  N   UNL A   1      44.928  34.428  27.863  1.00  0.00    -0.334 N 
ATOM     24  C   UNL A   1      44.226  33.704  26.776  1.00  0.00     0.283 C 
ATOM     25  C   UNL A   1      45.346  33.456  28.904  1.00  0.00     0.283 C 
ATOM     26  H   UNL A   1      45.749  34.893  27.476  1.00  0.00     0.347 HD
ATOM     27  C   UNL A   1      45.096  32.589  26.137  1.00  0.00     0.179 C 
ATOM     28  C   UNL A   1      46.234  32.326  28.339  1.00  0.00     0.179 C 
ENDBRANCH  10  21
BRANCH  17  29
ATOM     29  C   UNL A   1      48.808  27.849  26.758  1.00  0.00     0.083 A 
ATOM     30  C   UNL A   1      49.399  28.261  27.964  1.00  0.00     0.033 A 
ATOM     31  C   UNL A   1      49.579  27.926  25.585  1.00  0.00     0.150 A 
ATOM     32  C   UNL A   1      50.715  28.728  27.989  1.00  0.00     0.041 A 
ATOM     33  C   UNL A   1      50.885  28.404  25.597  1.00  0.00     0.080 A 
ATOM     34  F   UNL A   1      49.051  27.555  24.408  1.00  0.00    -0.205 F 
ATOM     35  C   UNL A   1      51.443  28.798  26.805  1.00  0.00     0.126 A 
ATOM     36  F   UNL A   1      52.701  29.255  26.830  1.00  0.00    -0.207 F 
ENDBRANCH  17  29
ENDBRANCH   6   9
ENDBRANCH   4   5
ENDBRANCH   3   4
ENDBRANCH   2   3
ENDBRANCH   1   2
BRANCH   1  37
ATOM     37  C   UNL A   1      41.816  21.848  26.229  1.00  0.00     0.021 C 
BRANCH  37  38
ATOM     38  C   UNL A   1      40.432  21.700  26.854  1.00  0.00     0.116 C 
BRANCH  38  39
ATOM     39  N   UNL A   1      39.388  22.106  25.924  1.00  0.00    -0.352 N 
ATOM     40  C   UNL A   1      38.662  23.270  25.910  1.00  0.00     0.251 C 
ATOM     41  H   UNL A   1      39.176  21.462  25.210  1.00  0.00     0.163 HD
ATOM     42  O   UNL A   1      37.644  23.364  25.234  1.00  0.00    -0.269 OA
BRANCH  40  43
ATOM     43  C   UNL A   1      39.123  24.409  26.727  1.00  0.00     0.039 A 
ATOM     44  C   UNL A   1      39.934  25.388  26.147  1.00  0.00     0.014 A 
ATOM     45  C   UNL A   1      38.747  24.501  28.072  1.00  0.00     0.014 A 
ATOM     46  C   UNL A   1      40.333  26.488  26.907  1.00  0.00     0.010 A 
ATOM     47  C   UNL A   1      39.104  25.622  28.813  1.00  0.00     0.010 A 
ATOM     48  C   UNL A   1      39.909  26.618  28.239  1.00  0.00    -0.014 A 
BRANCH  48  49
ATOM     49  C   UNL A   1      40.337  27.770  29.068  1.00  0.00     0.031 A 
ATOM     50  C   UNL A   1      41.673  27.732  29.753  1.00  0.00     0.074 A 
ATOM     51  C   UNL A   1      39.512  28.822  29.233  1.00  0.00     0.049 A 
ATOM     52  N   UNL A   1      42.218  28.615  30.547  1.00  0.00    -0.248 NA
ATOM     53  C   UNL A   1      42.499  26.534  29.528  1.00  0.00     0.031 C 
ATOM     54  C   UNL A   1      38.180  28.953  28.638  1.00  0.00     0.029 A 
ATOM     55  N   UNL A   1      39.669  29.977  29.956  1.00  0.00    -0.354 N 
ATOM     56  C   UNL A   1      43.450  28.086  30.910  1.00  0.00     0.074 A 
ATOM     57  C   UNL A   1      43.548  26.778  30.301  1.00  0.00     0.031 C 
ATOM     58  C   UNL A   1      37.651  30.132  29.005  1.00  0.00     0.029 A 
ATOM     59  C   UNL A   1      38.592  30.827  29.881  1.00  0.00     0.049 A 
ATOM     60  H   UNL A   1      40.479  30.179  30.479  1.00  0.00     0.167 HD
ATOM     61  C   UNL A   1      44.425  28.652  31.659  1.00  0.00     0.037 A 
ATOM     62  C   UNL A   1      38.388  32.029  30.455  1.00  0.00     0.037 A 
ATOM     63  C   UNL A   1      44.324  29.958  32.255  1.00  0.00     0.049 A 
ATOM     64  C   UNL A   1      39.469  32.621  31.318  1.00  0.00     0.074 A 
ATOM     65  C   UNL A   1      45.267  30.636  33.006  1.00  0.00     0.029 A 
ATOM     66  N   UNL A   1      43.212  30.783  32.167  1.00  0.00    -0.354 N 
ATOM     67  N   UNL A   1      40.649  32.128  31.613  1.00  0.00    -0.248 NA
ATOM     68  C   UNL A   1      39.197  33.932  31.923  1.00  0.00     0.031 C 
ATOM     69  C   UNL A   1      44.711  31.856  33.405  1.00  0.00     0.029 A 
ATOM     70  C   UNL A   1      43.438  31.957  32.865  1.00  0.00     0.049 A 
ATOM     71  H   UNL A   1      42.385  30.566  31.680  1.00  0.00     0.167 HD
ATOM     72  C   UNL A   1      41.269  33.078  32.417  1.00  0.00     0.074 A 
ATOM     73  C   UNL A   1      40.337  34.179  32.556  1.00  0.00     0.031 C 
ATOM     74  C   UNL A   1      42.499  33.044  32.987  1.00  0.00     0.037 A 
BRANCH  61  75
ATOM     75  C   UNL A   1      45.690  27.868  31.862  1.00  0.00     0.058 A 
ATOM     76  C   UNL A   1      46.783  28.008  30.990  1.00  0.00     0.135 A 
ATOM     77  C   UNL A   1      45.830  26.999  32.955  1.00  0.00     0.135 A 
ATOM     78  F   UNL A   1      46.693  28.811  29.919  1.00  0.00    -0.206 F 
ATOM     79  C   UNL A   1      47.962  27.297  31.183  1.00  0.00     0.059 A 
ATOM     80  C   UNL A   1      47.011  26.297  33.182  1.00  0.00     0.059 A 
ATOM     81  F   UNL A   1      44.815  26.824  33.816  1.00  0.00    -0.206 F 
ATOM     82  C   UNL A   1      48.068  26.445  32.284  1.00  0.00     0.060 A 
BRANCH  82  83
ATOM     83  S   UNL A   1      49.612  25.545  32.526  1.00  0.00     0.124 S 
ATOM     84  O   UNL A   1      50.363  26.473  33.365  1.00  0.00    -0.237 OA
ATOM     85  O   UNL A   1      49.161  24.322  33.181  1.00  0.00    -0.237 OA
ATOM     86  O   UNL A   1      50.124  25.375  31.169  1.00  0.00    -0.744 OA
ENDBRANCH  82  83
ENDBRANCH  61  75
BRANCH  62  87
ATOM     87  C   UNL A   1      37.121  32.765  30.203  1.00  0.00     0.058 A 
ATOM     88  C   UNL A   1      36.037  32.652  31.087  1.00  0.00     0.135 A 
ATOM     89  C   UNL A   1      36.975  33.612  29.095  1.00  0.00     0.135 A 
ATOM     90  F   UNL A   1      36.127  31.849  32.158  1.00  0.00    -0.206 F 
ATOM     91  C   UNL A   1      34.850  33.346  30.877  1.00  0.00     0.059 A 
ATOM     92  C   UNL A   1      35.804  34.333  28.874  1.00  0.00     0.059 A 
ATOM     93  F   UNL A   1      37.987  33.765  28.226  1.00  0.00    -0.206 F 
ATOM     94  C   UNL A   1      34.745  34.188  29.769  1.00  0.00     0.060 A 
BRANCH  94  95
ATOM     95  S   UNL A   1      33.219  35.127  29.540  1.00  0.00     0.124 S 
ATOM     96  O   UNL A   1      32.603  34.420  28.423  1.00  0.00    -0.237 OA
ATOM     97  O   UNL A   1      32.567  34.970  30.835  1.00  0.00    -0.237 OA
ATOM     98  O   UNL A   1      33.697  36.476  29.247  1.00  0.00    -0.744 OA
ENDBRANCH  94  95
ENDBRANCH  62  87
BRANCH  74  99
ATOM     99  C   UNL A   1      42.925  34.234  33.799  1.00  0.00     0.058 A 
ATOM    100  C   UNL A   1      42.651  34.319  35.172  1.00  0.00     0.135 A 
ATOM    101  C   UNL A   1      43.691  35.256  33.216  1.00  0.00     0.135 A 
ATOM    102  F   UNL A   1      41.917  33.372  35.776  1.00  0.00    -0.206 F 
ATOM    103  C   UNL A   1      43.117  35.382  35.939  1.00  0.00     0.059 A 
ATOM    104  C   UNL A   1      44.188  36.316  33.969  1.00  0.00     0.059 A 
ATOM    105  F   UNL A   1      43.988  35.216  31.907  1.00  0.00    -0.206 F 
ATOM    106  C   UNL A   1      43.891  36.372  35.329  1.00  0.00     0.060 A 
BRANCH 106 107
ATOM    107  S   UNL A   1      44.537  37.713  36.350  1.00  0.00     0.124 S 
ATOM    108  O   UNL A   1      45.964  37.409  36.368  1.00  0.00    -0.237 OA
ATOM    109  O   UNL A   1      44.150  38.898  35.589  1.00  0.00    -0.237 OA
ATOM    110  O   UNL A   1      43.842  37.539  37.622  1.00  0.00    -0.744 OA
ENDBRANCH 106 107
ENDBRANCH  74  99
ENDBRANCH  48  49
ENDBRANCH  40  43
ENDBRANCH  38  39
ENDBRANCH  37  38
ENDBRANCH   1  37
TORSDOF 18
ENDMDL
MODEL 3
REMARK VINA RESULT:     -11.6      5.369     12.576
REMARK SMILES C[NH+]1CCN(c2nc3c(cc2F)c(=O)c(C(=O)NCCCCCCNC(=O)c2ccc(-c4c5nc(c(-c6c(F)cc(S(=O)(=O)[O-])cc6F)c6ccc([nH]6)c(-c6c(F)cc(S(=O)(=O)[O-])cc6F)c6nc(c(-c7c(F)cc(S(=O)(=O)[O-])cc7F)c7ccc4[nH]7)C=C6)C=C5)cc2)cn3-c2ccc(F)cc2F)CC1
REMARK SMILES IDX 22 1 21 2 20 3 19 4 18 5 16 6 17 7 15 9 6 10 7 11 11 12 8 13
REMARK SMILES IDX 10 14 12 15 9 16 95 17 13 18 94 19 14 20 5 21 1 22 2 23 3 24
REMARK SMILES IDX 105 25 4 27 104 28 96 29 97 30 102 31 98 32 101 33 103 34
REMARK SMILES IDX 99 35 100 36 23 37 24 38 25 39 26 40 27 42 28 43 29 44 93 45
REMARK SMILES IDX 30 46 92 47 31 48 32 49 33 50 86 51 34 52 91 53 85 54 87 55
REMARK SMILES IDX 35 56 90 57 84 58 83 59 36 61 70 62 49 63 69 64 50 65 53 66
REMARK SMILES IDX 68 67 88 68 51 69 52 70 67 72 89 73 54 74 37 75 38 76 47 77
REMARK SMILES IDX 39 78 40 79 46 80 48 81 41 82 42 83 43 84 44 85 45 86 71 87
REMARK SMILES IDX 72 88 81 89 73 90 74 91 80 92 82 93 75 94 76 95 77 96 78 97
REMARK SMILES IDX 79 98 55 99 56 100 65 101 57 102 58 103 64 104 66 105 59 106
REMARK SMILES IDX 60 107 61 108 62 109 63 110
REMARK H PARENT 18 8 2 26 25 41 87 60 53 71
REMARK Flexibility Score: inf
ROOT
ATOM      1  C   UNL A   1      35.829  32.406  30.925  1.00  0.00     0.002 C 
ENDROOT
BRANCH   1   2
ATOM      2  C   UNL A   1      37.241  32.790  30.468  1.00  0.00     0.002 C 
BRANCH   2   3
ATOM      3  C   UNL A   1      38.145  33.345  31.573  1.00  0.00     0.021 C 
BRANCH   3   4
ATOM      4  C   UNL A   1      37.623  34.640  32.202  1.00  0.00     0.116 C 
BRANCH   4   5
ATOM      5  N   UNL A   1      36.733  34.345  33.310  1.00  0.00    -0.352 N 
ATOM      6  C   UNL A   1      36.788  33.415  34.299  1.00  0.00     0.256 C 
ATOM      7  O   UNL A   1      35.847  33.411  35.101  1.00  0.00    -0.269 OA
ATOM      8  H   UNL A   1      35.941  34.927  33.353  1.00  0.00     0.163 HD
BRANCH   6   9
ATOM      9  C   UNL A   1      37.940  32.495  34.499  1.00  0.00     0.104 A 
ATOM     10  C   UNL A   1      41.984  29.427  34.302  1.00  0.00     0.167 A 
ATOM     11  N   UNL A   1      41.635  30.473  35.093  1.00  0.00    -0.209 NA
ATOM     12  C   UNL A   1      41.121  28.959  33.306  1.00  0.00     0.166 A 
ATOM     13  C   UNL A   1      40.436  31.085  34.909  1.00  0.00     0.151 A 
ATOM     14  C   UNL A   1      39.864  29.517  33.161  1.00  0.00     0.059 A 
ATOM     15  F   UNL A   1      41.460  27.919  32.530  1.00  0.00    -0.203 F 
ATOM     16  C   UNL A   1      39.517  30.584  33.985  1.00  0.00     0.069 A 
ATOM     17  N   UNL A   1      40.088  32.254  35.661  1.00  0.00    -0.297 N 
ATOM     18  C   UNL A   1      38.155  31.144  33.939  1.00  0.00     0.203 A 
ATOM     19  C   UNL A   1      38.900  32.909  35.347  1.00  0.00     0.111 A 
ATOM     20  O   UNL A   1      37.256  30.441  33.494  1.00  0.00    -0.288 OA
BRANCH  10  21
ATOM     21  N   UNL A   1      43.188  28.825  34.551  1.00  0.00    -0.343 N 
ATOM     22  C   UNL A   1      45.542  25.312  34.167  1.00  0.00     0.332 C 
ATOM     23  N   UNL A   1      45.100  26.660  34.524  1.00  0.00    -0.334 N 
ATOM     24  C   UNL A   1      43.882  26.609  35.368  1.00  0.00     0.283 C 
ATOM     25  C   UNL A   1      44.809  27.442  33.297  1.00  0.00     0.283 C 
ATOM     26  H   UNL A   1      45.850  27.108  35.050  1.00  0.00     0.347 HD
ATOM     27  C   UNL A   1      43.359  28.018  35.754  1.00  0.00     0.179 C 
ATOM     28  C   UNL A   1      44.301  28.867  33.608  1.00  0.00     0.179 C 
ENDBRANCH  10  21
BRANCH  17  29
ATOM     29  C   UNL A   1      40.951  32.810  36.652  1.00  0.00     0.083 A 
ATOM     30  C   UNL A   1      41.001  32.275  37.950  1.00  0.00     0.033 A 
ATOM     31  C   UNL A   1      41.786  33.902  36.356  1.00  0.00     0.150 A 
ATOM     32  C   UNL A   1      41.861  32.814  38.910  1.00  0.00     0.041 A 
ATOM     33  C   UNL A   1      42.634  34.455  37.309  1.00  0.00     0.080 A 
ATOM     34  F   UNL A   1      41.762  34.453  35.132  1.00  0.00    -0.205 F 
ATOM     35  C   UNL A   1      42.665  33.901  38.580  1.00  0.00     0.126 A 
ATOM     36  F   UNL A   1      43.481  34.421  39.505  1.00  0.00    -0.207 F 
ENDBRANCH  17  29
ENDBRANCH   6   9
ENDBRANCH   4   5
ENDBRANCH   3   4
ENDBRANCH   2   3
ENDBRANCH   1   2
BRANCH   1  37
ATOM     37  C   UNL A   1      34.699  32.866  30.000  1.00  0.00     0.021 C 
BRANCH  37  38
ATOM     38  C   UNL A   1      34.841  32.391  28.557  1.00  0.00     0.116 C 
BRANCH  38  39
ATOM     39  N   UNL A   1      34.156  31.123  28.351  1.00  0.00    -0.352 N 
ATOM     40  C   UNL A   1      34.702  29.886  28.118  1.00  0.00     0.251 C 
ATOM     41  H   UNL A   1      33.172  31.157  28.384  1.00  0.00     0.163 HD
ATOM     42  O   UNL A   1      34.006  28.963  27.706  1.00  0.00    -0.269 OA
BRANCH  40  43
ATOM     43  C   UNL A   1      36.141  29.681  28.368  1.00  0.00     0.039 A 
ATOM     44  C   UNL A   1      36.566  29.249  29.626  1.00  0.00     0.014 A 
ATOM     45  C   UNL A   1      37.068  29.921  27.346  1.00  0.00     0.014 A 
ATOM     46  C   UNL A   1      37.924  29.013  29.849  1.00  0.00     0.010 A 
ATOM     47  C   UNL A   1      38.413  29.637  27.554  1.00  0.00     0.010 A 
ATOM     48  C   UNL A   1      38.852  29.192  28.811  1.00  0.00    -0.014 A 
BRANCH  48  49
ATOM     49  C   UNL A   1      40.299  28.963  29.033  1.00  0.00     0.031 A 
ATOM     50  C   UNL A   1      40.895  27.623  28.708  1.00  0.00     0.074 A 
ATOM     51  C   UNL A   1      41.061  29.942  29.558  1.00  0.00     0.049 A 
ATOM     52  N   UNL A   1      42.125  27.209  28.860  1.00  0.00    -0.248 NA
ATOM     53  C   UNL A   1      39.982  26.609  28.154  1.00  0.00     0.031 C 
ATOM     54  C   UNL A   1      40.583  31.274  29.937  1.00  0.00     0.029 A 
ATOM     55  N   UNL A   1      42.396  29.966  29.871  1.00  0.00    -0.354 N 
ATOM     56  C   UNL A   1      42.136  25.892  28.415  1.00  0.00     0.074 A 
ATOM     57  C   UNL A   1      40.779  25.556  28.046  1.00  0.00     0.031 C 
ATOM     58  C   UNL A   1      41.615  31.990  30.412  1.00  0.00     0.029 A 
ATOM     59  C   UNL A   1      42.819  31.163  30.398  1.00  0.00     0.049 A 
ATOM     60  H   UNL A   1      42.996  29.199  29.729  1.00  0.00     0.167 HD
ATOM     61  C   UNL A   1      43.189  25.050  28.298  1.00  0.00     0.037 A 
ATOM     62  C   UNL A   1      44.039  31.547  30.822  1.00  0.00     0.037 A 
ATOM     63  C   UNL A   1      44.538  25.395  28.659  1.00  0.00     0.049 A 
ATOM     64  C   UNL A   1      45.187  30.579  30.719  1.00  0.00     0.074 A 
ATOM     65  C   UNL A   1      45.681  24.625  28.550  1.00  0.00     0.029 A 
ATOM     66  N   UNL A   1      44.925  26.613  29.202  1.00  0.00    -0.354 N 
ATOM     67  N   UNL A   1      45.191  29.352  30.252  1.00  0.00    -0.248 NA
ATOM     68  C   UNL A   1      46.496  31.044  31.197  1.00  0.00     0.031 C 
ATOM     69  C   UNL A   1      46.754  25.362  29.062  1.00  0.00     0.029 A 
ATOM     70  C   UNL A   1      46.286  26.608  29.450  1.00  0.00     0.049 A 
ATOM     71  H   UNL A   1      44.320  27.367  29.384  1.00  0.00     0.167 HD
ATOM     72  C   UNL A   1      46.504  28.910  30.356  1.00  0.00     0.074 A 
ATOM     73  C   UNL A   1      47.270  30.002  30.923  1.00  0.00     0.031 C 
ATOM     74  C   UNL A   1      47.031  27.709  30.011  1.00  0.00     0.037 A 
BRANCH  61  75
ATOM     75  C   UNL A   1      42.925  23.681  27.740  1.00  0.00     0.058 A 
ATOM     76  C   UNL A   1      42.711  22.578  28.583  1.00  0.00     0.135 A 
ATOM     77  C   UNL A   1      42.844  23.472  26.354  1.00  0.00     0.135 A 
ATOM     78  F   UNL A   1      42.797  22.720  29.915  1.00  0.00    -0.206 F 
ATOM     79  C   UNL A   1      42.449  21.312  28.073  1.00  0.00     0.059 A 
ATOM     80  C   UNL A   1      42.557  22.218  25.821  1.00  0.00     0.059 A 
ATOM     81  F   UNL A   1      43.045  24.490  25.503  1.00  0.00    -0.206 F 
ATOM     82  C   UNL A   1      42.372  21.142  26.689  1.00  0.00     0.060 A 
BRANCH  82  83
ATOM     83  S   UNL A   1      42.015  19.494  26.046  1.00  0.00     0.124 S 
ATOM     84  O   UNL A   1      42.382  18.652  27.181  1.00  0.00    -0.237 OA
ATOM     85  O   UNL A   1      40.588  19.576  25.755  1.00  0.00    -0.237 OA
ATOM     86  O   UNL A   1      42.886  19.386  24.880  1.00  0.00    -0.744 OA
ENDBRANCH  82  83
ENDBRANCH  61  75
BRANCH  62  87
ATOM     87  C   UNL A   1      44.243  32.922  31.348  1.00  0.00     0.058 A 
ATOM     88  C   UNL A   1      44.533  33.986  30.481  1.00  0.00     0.135 A 
ATOM     89  C   UNL A   1      44.129  33.207  32.716  1.00  0.00     0.135 A 
ATOM     90  F   UNL A   1      44.659  33.762  29.164  1.00  0.00    -0.206 F 
ATOM     91  C   UNL A   1      44.711  35.283  30.952  1.00  0.00     0.059 A 
ATOM     92  C   UNL A   1      44.282  34.500  33.210  1.00  0.00     0.059 A 
ATOM     93  F   UNL A   1      43.840  32.226  33.586  1.00  0.00    -0.206 F 
ATOM     94  C   UNL A   1      44.579  35.531  32.319  1.00  0.00     0.060 A 
BRANCH  94  95
ATOM     95  S   UNL A   1      44.756  37.228  32.910  1.00  0.00     0.124 S 
ATOM     96  O   UNL A   1      43.392  37.728  32.781  1.00  0.00    -0.237 OA
ATOM     97  O   UNL A   1      45.238  37.027  34.273  1.00  0.00    -0.237 OA
ATOM     98  O   UNL A   1      45.730  37.805  31.988  1.00  0.00    -0.744 OA
ENDBRANCH  94  95
ENDBRANCH  62  87
BRANCH  74  99
ATOM     99  C   UNL A   1      48.506  27.508  30.216  1.00  0.00     0.058 A 
ATOM    100  C   UNL A   1      49.438  27.873  29.233  1.00  0.00     0.135 A 
ATOM    101  C   UNL A   1      48.995  27.029  31.441  1.00  0.00     0.135 A 
ATOM    102  F   UNL A   1      49.021  28.330  28.042  1.00  0.00    -0.206 F 
ATOM    103  C   UNL A   1      50.806  27.762  29.456  1.00  0.00     0.059 A 
ATOM    104  C   UNL A   1      50.360  26.933  31.695  1.00  0.00     0.059 A 
ATOM    105  F   UNL A   1      48.144  26.675  32.418  1.00  0.00    -0.206 F 
ATOM    106  C   UNL A   1      51.258  27.298  30.694  1.00  0.00     0.060 A 
BRANCH 106 107
ATOM    107  S   UNL A   1      53.037  27.216  30.987  1.00  0.00     0.124 S 
ATOM    108  O   UNL A   1      53.531  26.788  29.683  1.00  0.00    -0.237 OA
ATOM    109  O   UNL A   1      53.353  28.591  31.365  1.00  0.00    -0.237 OA
ATOM    110  O   UNL A   1      53.161  26.234  32.059  1.00  0.00    -0.744 OA
ENDBRANCH 106 107
ENDBRANCH  74  99
ENDBRANCH  48  49
ENDBRANCH  40  43
ENDBRANCH  38  39
ENDBRANCH  37  38
ENDBRANCH   1  37
TORSDOF 18
ENDMDL
