MODEL 1
REMARK VINA RESULT:     -12.2      0.000      0.000
REMARK SMILES COc1cc(NC(=O)c2ccc([N+](=O)[O-])cc2)c(C(=O)NCCCCCCNC(=O)c2ccc(-c3c4nc(c(-c5c(F)cc(S(=O)(=O)[O-])cc5F)c5ccc([nH]5)c(-c5c(F)cc(S(=O)(=O)[O-])cc5F)c5nc(c(-c6c(F)cc(S(=O)(=O)[O-])cc6F)c6ccc3[nH]6)C=C5)C=C4)cc2)cc1OC
REMARK SMILES IDX 24 1 23 2 22 3 21 4 19 5 20 6 18 8 3 9 4 10 98 11 5 12 97 13
REMARK SMILES IDX 2 14 1 15 99 16 100 17 6 18 7 19 8 21 9 22 10 23 17 24 11 25
REMARK SMILES IDX 16 26 12 27 13 28 14 29 15 30 25 31 26 32 27 33 28 34 29 35
REMARK SMILES IDX 30 37 31 38 32 39 96 40 33 41 95 42 34 43 35 44 36 45 89 46
REMARK SMILES IDX 37 47 94 48 88 49 90 50 38 51 93 52 87 53 86 54 39 56 73 57
REMARK SMILES IDX 52 58 72 59 53 60 56 61 71 62 91 63 54 64 55 65 70 67 92 68
REMARK SMILES IDX 57 69 40 70 41 71 50 72 42 73 43 74 49 75 51 76 44 77 45 78
REMARK SMILES IDX 46 79 47 80 48 81 74 82 75 83 84 84 76 85 77 86 83 87 85 88
REMARK SMILES IDX 78 89 79 90 80 91 81 92 82 93 58 94 59 95 68 96 60 97 61 98
REMARK SMILES IDX 67 99 69 100 62 101 63 102 64 103 65 104 66 105
REMARK H PARENT 21 7 6 20 28 36 90 55 56 66
REMARK Flexibility Score: inf
ROOT
ATOM      1  C   UNL A   1      36.116  21.992  25.824  1.00  0.00     0.002 C 
ENDROOT
BRANCH   1   2
ATOM      2  C   UNL A   1      35.187  22.713  26.809  1.00  0.00     0.021 C 
BRANCH   2   3
ATOM      3  C   UNL A   1      34.096  21.800  27.376  1.00  0.00     0.116 C 
BRANCH   3   4
ATOM      4  N   UNL A   1      32.856  22.543  27.497  1.00  0.00    -0.352 N 
ATOM      5  C   UNL A   1      32.182  23.393  26.660  1.00  0.00     0.253 C 
ATOM      6  O   UNL A   1      31.186  23.942  27.140  1.00  0.00    -0.269 OA
ATOM      7  H   UNL A   1      32.405  22.409  28.361  1.00  0.00     0.163 HD
BRANCH   5   8
ATOM      8  C   UNL A   1      32.532  23.636  25.220  1.00  0.00     0.067 A 
ATOM      9  C   UNL A   1      32.989  24.134  22.484  1.00  0.00     0.162 A 
ATOM     10  C   UNL A   1      33.258  25.116  23.448  1.00  0.00     0.077 A 
ATOM     11  C   UNL A   1      32.600  22.865  22.886  1.00  0.00     0.161 A 
ATOM     12  C   UNL A   1      32.999  24.914  24.813  1.00  0.00     0.058 A 
ATOM     13  C   UNL A   1      32.432  22.623  24.253  1.00  0.00     0.066 A 
BRANCH   9  14
ATOM     14  O   UNL A   1      33.256  24.428  21.174  1.00  0.00    -0.493 OA
ATOM     15  C   UNL A   1      32.511  25.564  20.726  1.00  0.00     0.278 C 
ENDBRANCH   9  14
BRANCH  11  16
ATOM     16  O   UNL A   1      32.396  21.759  22.110  1.00  0.00    -0.493 OA
ATOM     17  C   UNL A   1      32.213  20.512  22.767  1.00  0.00     0.278 C 
ENDBRANCH  11  16
BRANCH  12  18
ATOM     18  N   UNL A   1      33.246  25.909  25.803  1.00  0.00    -0.321 N 
ATOM     19  C   UNL A   1      32.805  27.193  26.019  1.00  0.00     0.255 C 
ATOM     20  H   UNL A   1      33.881  25.606  26.491  1.00  0.00     0.170 HD
ATOM     21  O   UNL A   1      33.335  27.924  26.852  1.00  0.00    -0.269 OA
BRANCH  19  22
ATOM     22  C   UNL A   1      31.661  27.726  25.274  1.00  0.00     0.040 A 
ATOM     23  C   UNL A   1      31.651  29.086  24.945  1.00  0.00     0.021 A 
ATOM     24  C   UNL A   1      30.653  26.861  24.832  1.00  0.00     0.021 A 
ATOM     25  C   UNL A   1      30.682  29.568  24.066  1.00  0.00     0.086 A 
ATOM     26  C   UNL A   1      29.685  27.338  23.950  1.00  0.00     0.086 A 
ATOM     27  C   UNL A   1      29.725  28.682  23.545  1.00  0.00     0.269 A 
BRANCH  27  28
ATOM     28  N   UNL A   1      28.796  29.149  22.510  1.00  0.00     0.062 N 
ATOM     29  O   UNL A   1      27.586  29.129  22.772  1.00  0.00    -0.258 OA
ATOM     30  O   UNL A   1      29.283  29.555  21.446  1.00  0.00    -0.258 OA
ENDBRANCH  27  28
ENDBRANCH  19  22
ENDBRANCH  12  18
ENDBRANCH   5   8
ENDBRANCH   3   4
ENDBRANCH   2   3
ENDBRANCH   1   2
BRANCH   1  31
ATOM     31  C   UNL A   1      37.247  22.864  25.264  1.00  0.00     0.002 C 
BRANCH  31  32
ATOM     32  C   UNL A   1      37.670  24.024  26.170  1.00  0.00     0.021 C 
BRANCH  32  33
ATOM     33  C   UNL A   1      38.983  23.788  26.908  1.00  0.00     0.116 C 
BRANCH  33  34
ATOM     34  N   UNL A   1      40.127  24.136  26.078  1.00  0.00    -0.352 N 
ATOM     35  C   UNL A   1      40.910  25.260  26.117  1.00  0.00     0.251 C 
ATOM     36  H   UNL A   1      40.372  23.471  25.394  1.00  0.00     0.163 HD
ATOM     37  O   UNL A   1      41.665  25.516  25.176  1.00  0.00    -0.269 OA
BRANCH  35  38
ATOM     38  C   UNL A   1      40.840  26.166  27.280  1.00  0.00     0.039 A 
ATOM     39  C   UNL A   1      41.575  27.353  27.268  1.00  0.00     0.014 A 
ATOM     40  C   UNL A   1      40.056  25.832  28.390  1.00  0.00     0.014 A 
ATOM     41  C   UNL A   1      41.486  28.230  28.349  1.00  0.00     0.010 A 
ATOM     42  C   UNL A   1      39.912  26.741  29.433  1.00  0.00     0.010 A 
ATOM     43  C   UNL A   1      40.631  27.945  29.428  1.00  0.00    -0.014 A 
BRANCH  43  44
ATOM     44  C   UNL A   1      40.482  28.890  30.563  1.00  0.00     0.031 A 
ATOM     45  C   UNL A   1      41.340  28.739  31.789  1.00  0.00     0.074 A 
ATOM     46  C   UNL A   1      39.531  29.843  30.513  1.00  0.00     0.049 A 
ATOM     47  N   UNL A   1      41.318  29.426  32.903  1.00  0.00    -0.248 NA
ATOM     48  C   UNL A   1      42.336  27.656  31.772  1.00  0.00     0.031 C 
ATOM     49  C   UNL A   1      38.608  30.057  29.397  1.00  0.00     0.029 A 
ATOM     50  N   UNL A   1      39.177  30.804  31.426  1.00  0.00    -0.354 N 
ATOM     51  C   UNL A   1      42.284  28.852  33.721  1.00  0.00     0.074 A 
ATOM     52  C   UNL A   1      42.833  27.725  32.998  1.00  0.00     0.031 C 
ATOM     53  C   UNL A   1      37.811  31.101  29.680  1.00  0.00     0.029 A 
ATOM     54  C   UNL A   1      38.139  31.604  31.010  1.00  0.00     0.049 A 
ATOM     55  H   UNL A   1      39.624  30.911  32.297  1.00  0.00     0.167 HD
ATOM     56  C   UNL A   1      42.693  29.242  34.952  1.00  0.00     0.037 A 
ATOM     57  C   UNL A   1      37.519  32.625  31.633  1.00  0.00     0.037 A 
ATOM     58  C   UNL A   1      42.152  30.376  35.656  1.00  0.00     0.049 A 
ATOM     59  C   UNL A   1      37.983  33.038  33.002  1.00  0.00     0.074 A 
ATOM     60  C   UNL A   1      42.533  30.891  36.883  1.00  0.00     0.029 A 
ATOM     61  N   UNL A   1      41.108  31.169  35.198  1.00  0.00    -0.354 N 
ATOM     62  N   UNL A   1      38.942  32.524  33.737  1.00  0.00    -0.248 NA
ATOM     63  C   UNL A   1      37.287  34.171  33.626  1.00  0.00     0.031 C 
ATOM     64  C   UNL A   1      41.690  31.965  37.187  1.00  0.00     0.029 A 
ATOM     65  C   UNL A   1      40.816  32.153  36.128  1.00  0.00     0.049 A 
ATOM     66  H   UNL A   1      40.643  31.048  34.338  1.00  0.00     0.167 HD
ATOM     67  C   UNL A   1      38.981  33.286  34.899  1.00  0.00     0.074 A 
ATOM     68  C   UNL A   1      37.956  34.303  34.763  1.00  0.00     0.031 C 
ATOM     69  C   UNL A   1      39.792  33.158  35.978  1.00  0.00     0.037 A 
BRANCH  56  70
ATOM     70  C   UNL A   1      43.776  28.431  35.612  1.00  0.00     0.058 A 
ATOM     71  C   UNL A   1      43.476  27.353  36.462  1.00  0.00     0.135 A 
ATOM     72  C   UNL A   1      45.129  28.727  35.387  1.00  0.00     0.135 A 
ATOM     73  F   UNL A   1      42.199  27.032  36.724  1.00  0.00    -0.206 F 
ATOM     74  C   UNL A   1      44.477  26.628  37.100  1.00  0.00     0.059 A 
ATOM     75  C   UNL A   1      46.149  27.995  35.991  1.00  0.00     0.059 A 
ATOM     76  F   UNL A   1      45.475  29.744  34.583  1.00  0.00    -0.206 F 
ATOM     77  C   UNL A   1      45.811  26.960  36.863  1.00  0.00     0.060 A 
BRANCH  77  78
ATOM     78  S   UNL A   1      47.098  26.024  37.714  1.00  0.00     0.124 S 
ATOM     79  O   UNL A   1      48.077  27.070  37.999  1.00  0.00    -0.237 OA
ATOM     80  O   UNL A   1      46.385  25.492  38.870  1.00  0.00    -0.237 OA
ATOM     81  O   UNL A   1      47.510  25.034  36.723  1.00  0.00    -0.744 OA
ENDBRANCH  77  78
ENDBRANCH  56  70
BRANCH  57  82
ATOM     82  C   UNL A   1      36.415  33.346  30.945  1.00  0.00     0.058 A 
ATOM     83  C   UNL A   1      35.087  33.201  31.372  1.00  0.00     0.135 A 
ATOM     84  C   UNL A   1      36.667  34.220  29.876  1.00  0.00     0.135 A 
ATOM     85  F   UNL A   1      34.795  32.372  32.386  1.00  0.00    -0.206 F 
ATOM     86  C   UNL A   1      34.045  33.891  30.760  1.00  0.00     0.059 A 
ATOM     87  C   UNL A   1      35.646  34.940  29.264  1.00  0.00     0.059 A 
ATOM     88  F   UNL A   1      37.923  34.407  29.442  1.00  0.00    -0.206 F 
ATOM     89  C   UNL A   1      34.337  34.764  29.710  1.00  0.00     0.060 A 
BRANCH  89  90
ATOM     90  S   UNL A   1      32.986  35.707  28.969  1.00  0.00     0.124 S 
ATOM     91  O   UNL A   1      33.712  36.768  28.280  1.00  0.00    -0.237 OA
ATOM     92  O   UNL A   1      32.348  34.710  28.116  1.00  0.00    -0.237 OA
ATOM     93  O   UNL A   1      32.199  36.128  30.125  1.00  0.00    -0.744 OA
ENDBRANCH  89  90
ENDBRANCH  57  82
BRANCH  69  94
ATOM     94  C   UNL A   1      39.626  34.157  37.090  1.00  0.00     0.058 A 
ATOM     95  C   UNL A   1      38.905  33.853  38.255  1.00  0.00     0.135 A 
ATOM     96  C   UNL A   1      40.240  35.418  37.010  1.00  0.00     0.135 A 
ATOM     97  F   UNL A   1      38.291  32.664  38.379  1.00  0.00    -0.206 F 
ATOM     98  C   UNL A   1      38.778  34.771  39.292  1.00  0.00     0.059 A 
ATOM     99  C   UNL A   1      40.151  36.341  38.047  1.00  0.00     0.059 A 
ATOM    100  F   UNL A   1      40.950  35.756  35.922  1.00  0.00    -0.206 F 
ATOM    101  C   UNL A   1      39.407  36.013  39.179  1.00  0.00     0.060 A 
BRANCH 101 102
ATOM    102  S   UNL A   1      39.265  37.182  40.548  1.00  0.00     0.124 S 
ATOM    103  O   UNL A   1      38.674  36.346  41.587  1.00  0.00    -0.237 OA
ATOM    104  O   UNL A   1      40.651  37.580  40.765  1.00  0.00    -0.237 OA
ATOM    105  O   UNL A   1      38.395  38.226  40.013  1.00  0.00    -0.744 OA
ENDBRANCH 101 102
ENDBRANCH  69  94
ENDBRANCH  43  44
ENDBRANCH  35  38
ENDBRANCH  33  34
ENDBRANCH  32  33
ENDBRANCH  31  32
ENDBRANCH   1  31
TORSDOF 21
ENDMDL
MODEL 2
REMARK VINA RESULT:     -11.9      1.242      2.589
REMARK SMILES COc1cc(NC(=O)c2ccc([N+](=O)[O-])cc2)c(C(=O)NCCCCCCNC(=O)c2ccc(-c3c4nc(c(-c5c(F)cc(S(=O)(=O)[O-])cc5F)c5ccc([nH]5)c(-c5c(F)cc(S(=O)(=O)[O-])cc5F)c5nc(c(-c6c(F)cc(S(=O)(=O)[O-])cc6F)c6ccc3[nH]6)C=C5)C=C4)cc2)cc1OC
REMARK SMILES IDX 24 1 23 2 22 3 21 4 19 5 20 6 18 8 3 9 4 10 98 11 5 12 97 13
REMARK SMILES IDX 2 14 1 15 99 16 100 17 6 18 7 19 8 21 9 22 10 23 17 24 11 25
REMARK SMILES IDX 16 26 12 27 13 28 14 29 15 30 25 31 26 32 27 33 28 34 29 35
REMARK SMILES IDX 30 37 31 38 32 39 96 40 33 41 95 42 34 43 35 44 36 45 89 46
REMARK SMILES IDX 37 47 94 48 88 49 90 50 38 51 93 52 87 53 86 54 39 56 73 57
REMARK SMILES IDX 52 58 72 59 53 60 56 61 71 62 91 63 54 64 55 65 70 67 92 68
REMARK SMILES IDX 57 69 40 70 41 71 50 72 42 73 43 74 49 75 51 76 44 77 45 78
REMARK SMILES IDX 46 79 47 80 48 81 74 82 75 83 84 84 76 85 77 86 83 87 85 88
REMARK SMILES IDX 78 89 79 90 80 91 81 92 82 93 58 94 59 95 68 96 60 97 61 98
REMARK SMILES IDX 67 99 69 100 62 101 63 102 64 103 65 104 66 105
REMARK H PARENT 21 7 6 20 28 36 90 55 56 66
REMARK Flexibility Score: inf
ROOT
ATOM      1  C   UNL A   1      36.774  21.407  25.734  1.00  0.00     0.002 C 
ENDROOT
BRANCH   1   2
ATOM      2  C   UNL A   1      35.557  22.320  25.927  1.00  0.00     0.021 C 
BRANCH   2   3
ATOM      3  C   UNL A   1      35.063  22.941  24.617  1.00  0.00     0.116 C 
BRANCH   3   4
ATOM      4  N   UNL A   1      33.999  22.126  24.063  1.00  0.00    -0.352 N 
ATOM      5  C   UNL A   1      32.830  22.418  23.412  1.00  0.00     0.253 C 
ATOM      6  O   UNL A   1      32.094  21.456  23.169  1.00  0.00    -0.269 OA
ATOM      7  H   UNL A   1      34.148  21.160  24.182  1.00  0.00     0.163 HD
BRANCH   5   8
ATOM      8  C   UNL A   1      32.435  23.784  22.930  1.00  0.00     0.067 A 
ATOM      9  C   UNL A   1      31.540  26.258  21.918  1.00  0.00     0.162 A 
ATOM     10  C   UNL A   1      31.176  25.833  23.205  1.00  0.00     0.077 A 
ATOM     11  C   UNL A   1      32.440  25.508  21.176  1.00  0.00     0.161 A 
ATOM     12  C   UNL A   1      31.569  24.587  23.719  1.00  0.00     0.058 A 
ATOM     13  C   UNL A   1      32.914  24.310  21.720  1.00  0.00     0.066 A 
BRANCH   9  14
ATOM     14  O   UNL A   1      31.095  27.481  21.495  1.00  0.00    -0.493 OA
ATOM     15  C   UNL A   1      30.232  28.091  22.460  1.00  0.00     0.278 C 
ENDBRANCH   9  14
BRANCH  11  16
ATOM     16  O   UNL A   1      32.988  25.807  19.961  1.00  0.00    -0.493 OA
ATOM     17  C   UNL A   1      32.268  25.428  18.796  1.00  0.00     0.278 C 
ENDBRANCH  11  16
BRANCH  12  18
ATOM     18  N   UNL A   1      31.190  24.132  25.015  1.00  0.00    -0.321 N 
ATOM     19  C   UNL A   1      31.420  24.562  26.300  1.00  0.00     0.255 C 
ATOM     20  H   UNL A   1      30.636  23.320  24.982  1.00  0.00     0.170 HD
ATOM     21  O   UNL A   1      31.144  23.865  27.273  1.00  0.00    -0.269 OA
BRANCH  19  22
ATOM     22  C   UNL A   1      31.984  25.892  26.554  1.00  0.00     0.040 A 
ATOM     23  C   UNL A   1      33.309  26.140  26.178  1.00  0.00     0.021 A 
ATOM     24  C   UNL A   1      31.172  26.903  27.080  1.00  0.00     0.021 A 
ATOM     25  C   UNL A   1      33.796  27.446  26.220  1.00  0.00     0.086 A 
ATOM     26  C   UNL A   1      31.654  28.210  27.120  1.00  0.00     0.086 A 
ATOM     27  C   UNL A   1      32.953  28.480  26.658  1.00  0.00     0.269 A 
BRANCH  27  28
ATOM     28  N   UNL A   1      33.409  29.871  26.567  1.00  0.00     0.062 N 
ATOM     29  O   UNL A   1      32.657  30.689  26.020  1.00  0.00    -0.258 OA
ATOM     30  O   UNL A   1      34.510  30.146  27.064  1.00  0.00    -0.258 OA
ENDBRANCH  27  28
ENDBRANCH  19  22
ENDBRANCH  12  18
ENDBRANCH   5   8
ENDBRANCH   3   4
ENDBRANCH   2   3
ENDBRANCH   1   2
BRANCH   1  31
ATOM     31  C   UNL A   1      38.060  22.140  25.333  1.00  0.00     0.002 C 
BRANCH  31  32
ATOM     32  C   UNL A   1      38.341  23.420  26.126  1.00  0.00     0.021 C 
BRANCH  32  33
ATOM     33  C   UNL A   1      39.594  23.351  26.992  1.00  0.00     0.116 C 
BRANCH  33  34
ATOM     34  N   UNL A   1      40.784  23.697  26.230  1.00  0.00    -0.352 N 
ATOM     35  C   UNL A   1      41.497  24.867  26.230  1.00  0.00     0.251 C 
ATOM     36  H   UNL A   1      41.124  22.993  25.632  1.00  0.00     0.163 HD
ATOM     37  O   UNL A   1      42.316  25.088  25.334  1.00  0.00    -0.269 OA
BRANCH  35  38
ATOM     38  C   UNL A   1      41.277  25.864  27.296  1.00  0.00     0.039 A 
ATOM     39  C   UNL A   1      40.329  25.605  28.288  1.00  0.00     0.014 A 
ATOM     40  C   UNL A   1      41.999  27.061  27.305  1.00  0.00     0.014 A 
ATOM     41  C   UNL A   1      40.140  26.527  29.319  1.00  0.00     0.010 A 
ATOM     42  C   UNL A   1      41.862  27.944  28.372  1.00  0.00     0.010 A 
ATOM     43  C   UNL A   1      40.926  27.691  29.385  1.00  0.00    -0.014 A 
BRANCH  43  44
ATOM     44  C   UNL A   1      40.777  28.657  30.502  1.00  0.00     0.031 A 
ATOM     45  C   UNL A   1      41.653  28.544  31.719  1.00  0.00     0.074 A 
ATOM     46  C   UNL A   1      39.812  29.595  30.444  1.00  0.00     0.049 A 
ATOM     47  N   UNL A   1      41.635  29.253  32.819  1.00  0.00    -0.248 NA
ATOM     48  C   UNL A   1      42.664  27.474  31.711  1.00  0.00     0.031 C 
ATOM     49  C   UNL A   1      38.872  29.774  29.336  1.00  0.00     0.029 A 
ATOM     50  N   UNL A   1      39.456  30.570  31.342  1.00  0.00    -0.354 N 
ATOM     51  C   UNL A   1      42.619  28.709  33.636  1.00  0.00     0.074 A 
ATOM     52  C   UNL A   1      43.175  27.576  32.929  1.00  0.00     0.031 C 
ATOM     53  C   UNL A   1      38.064  30.811  29.608  1.00  0.00     0.029 A 
ATOM     54  C   UNL A   1      38.402  31.347  30.923  1.00  0.00     0.049 A 
ATOM     55  H   UNL A   1      39.913  30.701  32.204  1.00  0.00     0.167 HD
ATOM     56  C   UNL A   1      43.039  29.131  34.853  1.00  0.00     0.037 A 
ATOM     57  C   UNL A   1      37.776  32.372  31.533  1.00  0.00     0.037 A 
ATOM     58  C   UNL A   1      42.490  30.272  35.541  1.00  0.00     0.049 A 
ATOM     59  C   UNL A   1      38.251  32.819  32.888  1.00  0.00     0.074 A 
ATOM     60  C   UNL A   1      42.880  30.817  36.752  1.00  0.00     0.029 A 
ATOM     61  N   UNL A   1      41.430  31.040  35.080  1.00  0.00    -0.354 N 
ATOM     62  N   UNL A   1      39.226  32.334  33.620  1.00  0.00    -0.248 NA
ATOM     63  C   UNL A   1      37.546  33.955  33.497  1.00  0.00     0.031 C 
ATOM     64  C   UNL A   1      42.025  31.885  37.045  1.00  0.00     0.029 A 
ATOM     65  C   UNL A   1      41.136  32.039  35.994  1.00  0.00     0.049 A 
ATOM     66  H   UNL A   1      40.956  30.895  34.229  1.00  0.00     0.167 HD
ATOM     67  C   UNL A   1      39.269  33.121  34.765  1.00  0.00     0.074 A 
ATOM     68  C   UNL A   1      38.229  34.120  34.622  1.00  0.00     0.031 C 
ATOM     69  C   UNL A   1      40.095  33.026  35.837  1.00  0.00     0.037 A 
BRANCH  56  70
ATOM     70  C   UNL A   1      44.141  28.349  35.516  1.00  0.00     0.058 A 
ATOM     71  C   UNL A   1      45.495  28.614  35.253  1.00  0.00     0.135 A 
ATOM     72  C   UNL A   1      43.843  27.328  36.432  1.00  0.00     0.135 A 
ATOM     73  F   UNL A   1      45.840  29.571  34.376  1.00  0.00    -0.206 F 
ATOM     74  C   UNL A   1      46.512  27.866  35.838  1.00  0.00     0.059 A 
ATOM     75  C   UNL A   1      44.845  26.587  37.054  1.00  0.00     0.059 A 
ATOM     76  F   UNL A   1      42.567  27.032  36.724  1.00  0.00    -0.206 F 
ATOM     77  C   UNL A   1      46.176  26.850  36.734  1.00  0.00     0.060 A 
BRANCH  77  78
ATOM     78  S   UNL A   1      47.505  25.875  37.469  1.00  0.00     0.124 S 
ATOM     79  O   UNL A   1      47.782  24.914  36.405  1.00  0.00    -0.237 OA
ATOM     80  O   UNL A   1      48.538  26.879  37.701  1.00  0.00    -0.237 OA
ATOM     81  O   UNL A   1      46.893  25.318  38.672  1.00  0.00    -0.744 OA
ENDBRANCH  77  78
ENDBRANCH  56  70
BRANCH  57  82
ATOM     82  C   UNL A   1      36.652  33.063  30.845  1.00  0.00     0.058 A 
ATOM     83  C   UNL A   1      35.326  32.857  31.251  1.00  0.00     0.135 A 
ATOM     84  C   UNL A   1      36.883  33.968  29.797  1.00  0.00     0.135 A 
ATOM     85  F   UNL A   1      35.054  31.996  32.244  1.00  0.00    -0.206 F 
ATOM     86  C   UNL A   1      34.265  33.518  30.639  1.00  0.00     0.059 A 
ATOM     87  C   UNL A   1      35.842  34.659  29.187  1.00  0.00     0.059 A 
ATOM     88  F   UNL A   1      38.137  34.213  29.384  1.00  0.00    -0.206 F 
ATOM     89  C   UNL A   1      34.535  34.423  29.611  1.00  0.00     0.060 A 
BRANCH  89  90
ATOM     90  S   UNL A   1      33.158  35.328  28.872  1.00  0.00     0.124 S 
ATOM     91  O   UNL A   1      32.405  35.734  30.053  1.00  0.00    -0.237 OA
ATOM     92  O   UNL A   1      33.844  36.396  28.152  1.00  0.00    -0.237 OA
ATOM     93  O   UNL A   1      32.515  34.326  28.027  1.00  0.00    -0.744 OA
ENDBRANCH  89  90
ENDBRANCH  57  82
BRANCH  69  94
ATOM     94  C   UNL A   1      39.929  34.045  36.929  1.00  0.00     0.058 A 
ATOM     95  C   UNL A   1      40.508  35.321  36.844  1.00  0.00     0.135 A 
ATOM     96  C   UNL A   1      39.137  33.760  38.053  1.00  0.00     0.135 A 
ATOM     97  F   UNL A   1      41.281  35.644  35.794  1.00  0.00    -0.206 F 
ATOM     98  C   UNL A   1      40.327  36.270  37.844  1.00  0.00     0.059 A 
ATOM     99  C   UNL A   1      38.918  34.704  39.053  1.00  0.00     0.059 A 
ATOM    100  F   UNL A   1      38.552  32.558  38.180  1.00  0.00    -0.206 F 
ATOM    101  C   UNL A   1      39.528  35.952  38.945  1.00  0.00     0.060 A 
BRANCH 101 102
ATOM    102  S   UNL A   1      39.273  37.205  40.219  1.00  0.00     0.124 S 
ATOM    103  O   UNL A   1      40.646  37.575  40.546  1.00  0.00    -0.237 OA
ATOM    104  O   UNL A   1      38.494  38.217  39.512  1.00  0.00    -0.237 OA
ATOM    105  O   UNL A   1      38.552  36.485  41.265  1.00  0.00    -0.744 OA
ENDBRANCH 101 102
ENDBRANCH  69  94
ENDBRANCH  43  44
ENDBRANCH  35  38
ENDBRANCH  33  34
ENDBRANCH  32  33
ENDBRANCH  31  32
ENDBRANCH   1  31
TORSDOF 21
ENDMDL
MODEL 3
REMARK VINA RESULT:     -11.9      4.756     10.387
REMARK SMILES COc1cc(NC(=O)c2ccc([N+](=O)[O-])cc2)c(C(=O)NCCCCCCNC(=O)c2ccc(-c3c4nc(c(-c5c(F)cc(S(=O)(=O)[O-])cc5F)c5ccc([nH]5)c(-c5c(F)cc(S(=O)(=O)[O-])cc5F)c5nc(c(-c6c(F)cc(S(=O)(=O)[O-])cc6F)c6ccc3[nH]6)C=C5)C=C4)cc2)cc1OC
REMARK SMILES IDX 24 1 23 2 22 3 21 4 19 5 20 6 18 8 3 9 4 10 98 11 5 12 97 13
REMARK SMILES IDX 2 14 1 15 99 16 100 17 6 18 7 19 8 21 9 22 10 23 17 24 11 25
REMARK SMILES IDX 16 26 12 27 13 28 14 29 15 30 25 31 26 32 27 33 28 34 29 35
REMARK SMILES IDX 30 37 31 38 32 39 96 40 33 41 95 42 34 43 35 44 36 45 89 46
REMARK SMILES IDX 37 47 94 48 88 49 90 50 38 51 93 52 87 53 86 54 39 56 73 57
REMARK SMILES IDX 52 58 72 59 53 60 56 61 71 62 91 63 54 64 55 65 70 67 92 68
REMARK SMILES IDX 57 69 40 70 41 71 50 72 42 73 43 74 49 75 51 76 44 77 45 78
REMARK SMILES IDX 46 79 47 80 48 81 74 82 75 83 84 84 76 85 77 86 83 87 85 88
REMARK SMILES IDX 78 89 79 90 80 91 81 92 82 93 58 94 59 95 68 96 60 97 61 98
REMARK SMILES IDX 67 99 69 100 62 101 63 102 64 103 65 104 66 105
REMARK H PARENT 21 7 6 20 28 36 90 55 56 66
REMARK Flexibility Score: inf
ROOT
ATOM      1  C   UNL A   1      32.521  29.652  24.699  1.00  0.00     0.002 C 
ENDROOT
BRANCH   1   2
ATOM      2  C   UNL A   1      32.471  29.079  23.277  1.00  0.00     0.021 C 
BRANCH   2   3
ATOM      3  C   UNL A   1      33.842  28.621  22.770  1.00  0.00     0.116 C 
BRANCH   3   4
ATOM      4  N   UNL A   1      33.682  27.452  21.926  1.00  0.00    -0.352 N 
ATOM      5  C   UNL A   1      33.110  26.222  22.118  1.00  0.00     0.253 C 
ATOM      6  O   UNL A   1      33.250  25.413  21.196  1.00  0.00    -0.269 OA
ATOM      7  H   UNL A   1      34.065  27.567  21.026  1.00  0.00     0.163 HD
BRANCH   5   8
ATOM      8  C   UNL A   1      32.290  25.835  23.316  1.00  0.00     0.067 A 
ATOM      9  C   UNL A   1      30.694  24.940  25.459  1.00  0.00     0.162 A 
ATOM     10  C   UNL A   1      32.079  24.719  25.453  1.00  0.00     0.077 A 
ATOM     11  C   UNL A   1      30.115  25.705  24.457  1.00  0.00     0.161 A 
ATOM     12  C   UNL A   1      32.894  25.113  24.380  1.00  0.00     0.058 A 
ATOM     13  C   UNL A   1      30.935  26.185  23.431  1.00  0.00     0.066 A 
BRANCH   9  14
ATOM     14  O   UNL A   1      29.977  24.505  26.541  1.00  0.00    -0.493 OA
ATOM     15  C   UNL A   1      30.245  23.129  26.831  1.00  0.00     0.278 C 
ENDBRANCH   9  14
BRANCH  11  16
ATOM     16  O   UNL A   1      28.816  26.112  24.349  1.00  0.00    -0.493 OA
ATOM     17  C   UNL A   1      28.550  27.291  23.600  1.00  0.00     0.278 C 
ENDBRANCH  11  16
BRANCH  12  18
ATOM     18  N   UNL A   1      34.298  24.877  24.349  1.00  0.00    -0.321 N 
ATOM     19  C   UNL A   1      35.095  23.758  24.389  1.00  0.00     0.255 C 
ATOM     20  H   UNL A   1      34.819  25.709  24.283  1.00  0.00     0.170 HD
ATOM     21  O   UNL A   1      36.310  23.837  24.553  1.00  0.00    -0.269 OA
BRANCH  19  22
ATOM     22  C   UNL A   1      34.518  22.422  24.211  1.00  0.00     0.040 A 
ATOM     23  C   UNL A   1      35.074  21.352  24.921  1.00  0.00     0.021 A 
ATOM     24  C   UNL A   1      33.379  22.256  23.413  1.00  0.00     0.021 A 
ATOM     25  C   UNL A   1      34.417  20.122  24.926  1.00  0.00     0.086 A 
ATOM     26  C   UNL A   1      32.718  21.030  23.419  1.00  0.00     0.086 A 
ATOM     27  C   UNL A   1      33.222  19.979  24.203  1.00  0.00     0.269 A 
BRANCH  27  28
ATOM     28  N   UNL A   1      32.451  18.737  24.322  1.00  0.00     0.062 N 
ATOM     29  O   UNL A   1      32.233  18.093  23.286  1.00  0.00    -0.258 OA
ATOM     30  O   UNL A   1      32.084  18.398  25.455  1.00  0.00    -0.258 OA
ENDBRANCH  27  28
ENDBRANCH  19  22
ENDBRANCH  12  18
ENDBRANCH   5   8
ENDBRANCH   3   4
ENDBRANCH   2   3
ENDBRANCH   1   2
BRANCH   1  31
ATOM     31  C   UNL A   1      31.842  28.777  25.759  1.00  0.00     0.002 C 
BRANCH  31  32
ATOM     32  C   UNL A   1      32.798  27.900  26.574  1.00  0.00     0.021 C 
BRANCH  32  33
ATOM     33  C   UNL A   1      34.134  28.563  26.888  1.00  0.00     0.116 C 
BRANCH  33  34
ATOM     34  N   UNL A   1      33.947  29.898  27.437  1.00  0.00    -0.352 N 
ATOM     35  C   UNL A   1      34.761  30.603  28.283  1.00  0.00     0.251 C 
ATOM     36  H   UNL A   1      33.121  30.357  27.161  1.00  0.00     0.163 HD
ATOM     37  O   UNL A   1      34.330  31.605  28.859  1.00  0.00    -0.269 OA
BRANCH  35  38
ATOM     38  C   UNL A   1      36.150  30.157  28.511  1.00  0.00     0.039 A 
ATOM     39  C   UNL A   1      37.082  30.269  27.477  1.00  0.00     0.014 A 
ATOM     40  C   UNL A   1      36.525  29.614  29.744  1.00  0.00     0.014 A 
ATOM     41  C   UNL A   1      38.404  29.881  27.696  1.00  0.00     0.010 A 
ATOM     42  C   UNL A   1      37.859  29.298  29.983  1.00  0.00     0.010 A 
ATOM     43  C   UNL A   1      38.810  29.419  28.960  1.00  0.00    -0.014 A 
BRANCH  43  44
ATOM     44  C   UNL A   1      40.224  29.053  29.228  1.00  0.00     0.031 A 
ATOM     45  C   UNL A   1      41.162  30.059  29.836  1.00  0.00     0.074 A 
ATOM     46  C   UNL A   1      40.674  27.836  28.866  1.00  0.00     0.049 A 
ATOM     47  N   UNL A   1      42.441  29.948  30.090  1.00  0.00    -0.248 NA
ATOM     48  C   UNL A   1      40.594  31.373  30.177  1.00  0.00     0.031 C 
ATOM     49  C   UNL A   1      39.871  26.793  28.227  1.00  0.00     0.029 A 
ATOM     50  N   UNL A   1      41.921  27.274  28.976  1.00  0.00    -0.354 N 
ATOM     51  C   UNL A   1      42.832  31.177  30.607  1.00  0.00     0.074 A 
ATOM     52  C   UNL A   1      41.669  32.037  30.577  1.00  0.00     0.031 C 
ATOM     53  C   UNL A   1      40.637  25.709  28.025  1.00  0.00     0.029 A 
ATOM     54  C   UNL A   1      41.993  25.992  28.484  1.00  0.00     0.049 A 
ATOM     55  H   UNL A   1      42.691  27.744  29.370  1.00  0.00     0.167 HD
ATOM     56  C   UNL A   1      44.044  31.549  31.087  1.00  0.00     0.037 A 
ATOM     57  C   UNL A   1      43.036  25.143  28.407  1.00  0.00     0.037 A 
ATOM     58  C   UNL A   1      45.191  30.679  31.129  1.00  0.00     0.049 A 
ATOM     59  C   UNL A   1      44.375  25.577  28.937  1.00  0.00     0.074 A 
ATOM     60  C   UNL A   1      46.449  30.937  31.646  1.00  0.00     0.029 A 
ATOM     61  N   UNL A   1      45.223  29.384  30.631  1.00  0.00    -0.354 N 
ATOM     62  N   UNL A   1      44.713  26.722  29.483  1.00  0.00    -0.248 NA
ATOM     63  C   UNL A   1      45.472  24.604  28.848  1.00  0.00     0.031 C 
ATOM     64  C   UNL A   1      47.254  29.816  31.417  1.00  0.00     0.029 A 
ATOM     65  C   UNL A   1      46.484  28.839  30.805  1.00  0.00     0.049 A 
ATOM     66  H   UNL A   1      44.460  28.921  30.214  1.00  0.00     0.167 HD
ATOM     67  C   UNL A   1      46.055  26.599  29.825  1.00  0.00     0.074 A 
ATOM     68  C   UNL A   1      46.462  25.264  29.434  1.00  0.00     0.031 C 
ATOM     69  C   UNL A   1      46.874  27.507  30.410  1.00  0.00     0.037 A 
BRANCH  56  70
ATOM     70  C   UNL A   1      44.185  32.957  31.600  1.00  0.00     0.058 A 
ATOM     71  C   UNL A   1      43.920  33.285  32.940  1.00  0.00     0.135 A 
ATOM     72  C   UNL A   1      44.598  33.991  30.745  1.00  0.00     0.135 A 
ATOM     73  F   UNL A   1      43.509  32.339  33.800  1.00  0.00    -0.206 F 
ATOM     74  C   UNL A   1      44.016  34.593  33.403  1.00  0.00     0.059 A 
ATOM     75  C   UNL A   1      44.730  35.303  31.194  1.00  0.00     0.059 A 
ATOM     76  F   UNL A   1      44.867  33.736  29.455  1.00  0.00    -0.206 F 
ATOM     77  C   UNL A   1      44.416  35.597  32.520  1.00  0.00     0.060 A 
BRANCH  77  78
ATOM     78  S   UNL A   1      44.516  37.293  33.130  1.00  0.00     0.124 S 
ATOM     79  O   UNL A   1      43.189  37.468  33.715  1.00  0.00    -0.237 OA
ATOM     80  O   UNL A   1      45.621  37.219  34.080  1.00  0.00    -0.237 OA
ATOM     81  O   UNL A   1      44.778  38.073  31.925  1.00  0.00    -0.744 OA
ENDBRANCH  77  78
ENDBRANCH  56  70
BRANCH  57  82
ATOM     82  C   UNL A   1      42.840  23.785  27.833  1.00  0.00     0.058 A 
ATOM     83  C   UNL A   1      42.530  22.694  28.657  1.00  0.00     0.135 A 
ATOM     84  C   UNL A   1      42.922  23.558  26.450  1.00  0.00     0.135 A 
ATOM     85  F   UNL A   1      42.447  22.859  29.986  1.00  0.00    -0.206 F 
ATOM     86  C   UNL A   1      42.313  21.423  28.134  1.00  0.00     0.059 A 
ATOM     87  C   UNL A   1      42.685  22.302  25.900  1.00  0.00     0.059 A 
ATOM     88  F   UNL A   1      43.199  24.573  25.617  1.00  0.00    -0.206 F 
ATOM     89  C   UNL A   1      42.387  21.239  26.752  1.00  0.00     0.060 A 
BRANCH  89  90
ATOM     90  S   UNL A   1      42.035  19.601  26.077  1.00  0.00     0.124 S 
ATOM     91  O   UNL A   1      42.497  18.734  27.156  1.00  0.00    -0.237 OA
ATOM     92  O   UNL A   1      40.591  19.656  25.876  1.00  0.00    -0.237 OA
ATOM     93  O   UNL A   1      42.830  19.565  24.854  1.00  0.00    -0.744 OA
ENDBRANCH  89  90
ENDBRANCH  57  82
BRANCH  69  94
ATOM     94  C   UNL A   1      48.289  27.081  30.691  1.00  0.00     0.058 A 
ATOM     95  C   UNL A   1      49.308  27.232  29.739  1.00  0.00     0.135 A 
ATOM     96  C   UNL A   1      48.638  26.563  31.949  1.00  0.00     0.135 A 
ATOM     97  F   UNL A   1      49.027  27.715  28.517  1.00  0.00    -0.206 F 
ATOM     98  C   UNL A   1      50.621  26.862  30.015  1.00  0.00     0.059 A 
ATOM     99  C   UNL A   1      49.950  26.214  32.257  1.00  0.00     0.059 A 
ATOM    100  F   UNL A   1      47.703  26.408  32.900  1.00  0.00    -0.206 F 
ATOM    101  C   UNL A   1      50.932  26.355  31.279  1.00  0.00     0.060 A 
BRANCH 101 102
ATOM    102  S   UNL A   1      52.645  25.913  31.635  1.00  0.00     0.124 S 
ATOM    103  O   UNL A   1      53.271  26.084  30.328  1.00  0.00    -0.237 OA
ATOM    104  O   UNL A   1      53.018  26.893  32.649  1.00  0.00    -0.237 OA
ATOM    105  O   UNL A   1      52.549  24.535  32.108  1.00  0.00    -0.744 OA
ENDBRANCH 101 102
ENDBRANCH  69  94
ENDBRANCH  43  44
ENDBRANCH  35  38
ENDBRANCH  33  34
ENDBRANCH  32  33
ENDBRANCH  31  32
ENDBRANCH   1  31
TORSDOF 21
ENDMDL
