MODEL 1
REMARK VINA RESULT:     -10.7      0.000      0.000
REMARK SMILES CC1C[NH+]([C@@H](C(=O)NCCCCCCNC(=O)c2ccc(-c3c4nc(c(-c5c(F)cc(S(=O)(=O)[O-])cc5F)c5ccc([nH]5)c(-c5c(F)cc(S(=O)(=O)[O-])cc5F)c5nc(c(-c6c(F)cc(S(=O)(=O)[O-])cc6F)c6ccc3[nH]6)C=C5)C=C4)cc2)C2CCCCC2)C1
REMARK SMILES IDX 12 1 11 2 10 3 9 4 8 5 6 6 7 7 5 9 4 10 1 11 2 12 3 13 90 14
REMARK SMILES IDX 84 16 85 17 89 18 86 19 88 20 87 21 13 22 14 23 15 24 16 25
REMARK SMILES IDX 17 27 18 28 19 29 83 30 20 31 82 32 21 33 22 34 23 35 76 36
REMARK SMILES IDX 24 37 81 38 75 39 77 40 25 41 80 42 74 43 73 44 26 46 60 47
REMARK SMILES IDX 39 48 59 49 40 50 43 51 58 52 78 53 41 54 42 55 57 57 79 58
REMARK SMILES IDX 44 59 27 60 28 61 37 62 29 63 30 64 36 65 38 66 31 67 32 68
REMARK SMILES IDX 33 69 34 70 35 71 61 72 62 73 71 74 63 75 64 76 70 77 72 78
REMARK SMILES IDX 65 79 66 80 67 81 68 82 69 83 45 84 46 85 55 86 47 87 48 88
REMARK SMILES IDX 54 89 56 90 49 91 50 92 51 93 52 94 53 95
REMARK H PARENT 8 8 4 15 15 26 77 45 43 56
REMARK Flexibility Score: inf
ROOT
ATOM      1  C   UNL A   1      33.370  26.060  24.944  1.00  0.00     0.002 C 
ENDROOT
BRANCH   1   2
ATOM      2  C   UNL A   1      32.118  25.369  25.484  1.00  0.00     0.002 C 
BRANCH   2   3
ATOM      3  C   UNL A   1      32.390  24.270  26.517  1.00  0.00     0.021 C 
BRANCH   3   4
ATOM      4  C   UNL A   1      31.640  22.951  26.285  1.00  0.00     0.116 C 
BRANCH   4   5
ATOM      5  N   UNL A   1      31.831  22.452  24.932  1.00  0.00    -0.351 N 
ATOM      6  C   UNL A   1      32.607  21.464  24.399  1.00  0.00     0.278 C 
ATOM      7  O   UNL A   1      32.575  21.388  23.165  1.00  0.00    -0.268 OA
ATOM      8  H   UNL A   1      31.286  22.925  24.262  1.00  0.00     0.163 HD
BRANCH   6   9
ATOM      9  C   UNL A   1      33.444  20.481  25.267  1.00  0.00     0.277 C 
BRANCH   9  10
ATOM     10  N   UNL A   1      34.904  20.755  25.405  1.00  0.00    -0.324 N 
ATOM     11  C   UNL A   1      36.456  23.833  25.717  1.00  0.00     0.020 C 
ATOM     12  C   UNL A   1      35.336  22.829  25.560  1.00  0.00     0.096 C 
ATOM     13  C   UNL A   1      35.468  21.755  24.471  1.00  0.00     0.271 C 
ATOM     14  C   UNL A   1      35.277  21.620  26.535  1.00  0.00     0.271 C 
ATOM     15  H   UNL A   1      35.214  19.784  25.365  1.00  0.00     0.348 HD
ENDBRANCH   9  10
BRANCH   9  16
ATOM     16  C   UNL A   1      33.234  18.994  24.761  1.00  0.00     0.057 C 
ATOM     17  C   UNL A   1      34.516  18.315  24.220  1.00  0.00     0.010 C 
ATOM     18  C   UNL A   1      32.604  18.113  25.866  1.00  0.00     0.010 C 
ATOM     19  C   UNL A   1      34.298  16.872  23.787  1.00  0.00     0.001 C 
ATOM     20  C   UNL A   1      32.453  16.645  25.457  1.00  0.00     0.001 C 
ATOM     21  C   UNL A   1      33.762  16.052  24.950  1.00  0.00     0.000 C 
ENDBRANCH   9  16
ENDBRANCH   6   9
ENDBRANCH   4   5
ENDBRANCH   3   4
ENDBRANCH   2   3
ENDBRANCH   1   2
BRANCH   1  22
ATOM     22  C   UNL A   1      33.448  27.568  25.210  1.00  0.00     0.021 C 
BRANCH  22  23
ATOM     23  C   UNL A   1      34.064  27.961  26.552  1.00  0.00     0.116 C 
BRANCH  23  24
ATOM     24  N   UNL A   1      33.695  29.310  26.945  1.00  0.00    -0.352 N 
ATOM     25  C   UNL A   1      34.389  30.200  27.729  1.00  0.00     0.251 C 
ATOM     26  H   UNL A   1      32.829  29.630  26.600  1.00  0.00     0.163 HD
ATOM     27  O   UNL A   1      33.835  31.210  28.150  1.00  0.00    -0.269 OA
BRANCH  25  28
ATOM     28  C   UNL A   1      35.801  29.924  28.075  1.00  0.00     0.039 A 
ATOM     29  C   UNL A   1      36.112  29.496  29.367  1.00  0.00     0.014 A 
ATOM     30  C   UNL A   1      36.814  30.096  27.126  1.00  0.00     0.014 A 
ATOM     31  C   UNL A   1      37.436  29.190  29.694  1.00  0.00     0.010 A 
ATOM     32  C   UNL A   1      38.123  29.732  27.436  1.00  0.00     0.010 A 
ATOM     33  C   UNL A   1      38.449  29.279  28.724  1.00  0.00    -0.014 A 
BRANCH  33  34
ATOM     34  C   UNL A   1      39.851  28.901  29.040  1.00  0.00     0.031 A 
ATOM     35  C   UNL A   1      40.794  29.915  29.631  1.00  0.00     0.074 A 
ATOM     36  C   UNL A   1      40.294  27.664  28.732  1.00  0.00     0.049 A 
ATOM     37  N   UNL A   1      42.066  29.794  29.909  1.00  0.00    -0.248 NA
ATOM     38  C   UNL A   1      40.243  31.249  29.926  1.00  0.00     0.031 C 
ATOM     39  C   UNL A   1      39.494  26.610  28.103  1.00  0.00     0.029 A 
ATOM     40  N   UNL A   1      41.530  27.087  28.891  1.00  0.00    -0.354 N 
ATOM     41  C   UNL A   1      42.473  31.035  30.384  1.00  0.00     0.074 A 
ATOM     42  C   UNL A   1      41.321  31.908  30.327  1.00  0.00     0.031 C 
ATOM     43  C   UNL A   1      40.255  25.517  27.935  1.00  0.00     0.029 A 
ATOM     44  C   UNL A   1      41.605  25.799  28.414  1.00  0.00     0.049 A 
ATOM     45  H   UNL A   1      42.292  27.553  29.306  1.00  0.00     0.167 HD
ATOM     46  C   UNL A   1      43.691  31.408  30.843  1.00  0.00     0.037 A 
ATOM     47  C   UNL A   1      42.647  24.946  28.355  1.00  0.00     0.037 A 
ATOM     48  C   UNL A   1      44.820  30.520  30.946  1.00  0.00     0.049 A 
ATOM     49  C   UNL A   1      43.982  25.378  28.902  1.00  0.00     0.074 A 
ATOM     50  C   UNL A   1      46.067  30.779  31.490  1.00  0.00     0.029 A 
ATOM     51  N   UNL A   1      44.844  29.210  30.498  1.00  0.00    -0.354 N 
ATOM     52  N   UNL A   1      44.320  26.529  29.436  1.00  0.00    -0.248 NA
ATOM     53  C   UNL A   1      45.075  24.396  28.850  1.00  0.00     0.031 C 
ATOM     54  C   UNL A   1      46.860  29.639  31.329  1.00  0.00     0.029 A 
ATOM     55  C   UNL A   1      46.091  28.654  30.730  1.00  0.00     0.049 A 
ATOM     56  H   UNL A   1      44.086  28.741  30.078  1.00  0.00     0.167 HD
ATOM     57  C   UNL A   1      45.653  26.397  29.808  1.00  0.00     0.074 A 
ATOM     58  C   UNL A   1      46.056  25.052  29.453  1.00  0.00     0.031 C 
ATOM     59  C   UNL A   1      46.472  27.307  30.389  1.00  0.00     0.037 A 
BRANCH  46  60
ATOM     60  C   UNL A   1      43.883  32.832  31.285  1.00  0.00     0.058 A 
ATOM     61  C   UNL A   1      44.304  33.831  30.394  1.00  0.00     0.135 A 
ATOM     62  C   UNL A   1      43.543  33.220  32.591  1.00  0.00     0.135 A 
ATOM     63  F   UNL A   1      44.656  33.511  29.138  1.00  0.00    -0.206 F 
ATOM     64  C   UNL A   1      44.384  35.163  30.781  1.00  0.00     0.059 A 
ATOM     65  C   UNL A   1      43.591  34.552  32.995  1.00  0.00     0.059 A 
ATOM     66  F   UNL A   1      43.138  32.304  33.485  1.00  0.00    -0.206 F 
ATOM     67  C   UNL A   1      44.016  35.516  32.082  1.00  0.00     0.060 A 
BRANCH  67  68
ATOM     68  S   UNL A   1      44.069  37.259  32.550  1.00  0.00     0.124 S 
ATOM     69  O   UNL A   1      45.432  37.385  33.053  1.00  0.00    -0.237 OA
ATOM     70  O   UNL A   1      43.796  37.929  31.283  1.00  0.00    -0.237 OA
ATOM     71  O   UNL A   1      43.017  37.374  33.555  1.00  0.00    -0.744 OA
ENDBRANCH  67  68
ENDBRANCH  46  60
BRANCH  47  72
ATOM     72  C   UNL A   1      42.482  23.594  27.753  1.00  0.00     0.058 A 
ATOM     73  C   UNL A   1      42.323  22.455  28.558  1.00  0.00     0.135 A 
ATOM     74  C   UNL A   1      42.518  23.410  26.362  1.00  0.00     0.135 A 
ATOM     75  F   UNL A   1      42.286  22.578  29.894  1.00  0.00    -0.206 F 
ATOM     76  C   UNL A   1      42.246  21.179  28.009  1.00  0.00     0.059 A 
ATOM     77  C   UNL A   1      42.413  22.147  25.789  1.00  0.00     0.059 A 
ATOM     78  F   UNL A   1      42.647  24.467  25.546  1.00  0.00    -0.206 F 
ATOM     79  C   UNL A   1      42.299  21.035  26.622  1.00  0.00     0.060 A 
BRANCH  79  80
ATOM     80  S   UNL A   1      42.198  19.376  25.915  1.00  0.00     0.124 S 
ATOM     81  O   UNL A   1      43.042  19.509  24.735  1.00  0.00    -0.237 OA
ATOM     82  O   UNL A   1      42.731  18.548  26.993  1.00  0.00    -0.237 OA
ATOM     83  O   UNL A   1      40.770  19.211  25.658  1.00  0.00    -0.744 OA
ENDBRANCH  79  80
ENDBRANCH  47  72
BRANCH  59  84
ATOM     84  C   UNL A   1      47.872  26.872  30.721  1.00  0.00     0.058 A 
ATOM     85  C   UNL A   1      48.938  27.070  29.829  1.00  0.00     0.135 A 
ATOM     86  C   UNL A   1      48.159  26.298  31.970  1.00  0.00     0.135 A 
ATOM     87  F   UNL A   1      48.715  27.610  28.619  1.00  0.00    -0.206 F 
ATOM     88  C   UNL A   1      50.235  26.692  30.154  1.00  0.00     0.059 A 
ATOM     89  C   UNL A   1      49.454  25.939  32.327  1.00  0.00     0.059 A 
ATOM     90  F   UNL A   1      47.177  26.098  32.863  1.00  0.00    -0.206 F 
ATOM     91  C   UNL A   1      50.485  26.128  31.407  1.00  0.00     0.060 A 
BRANCH  91  92
ATOM     92  S   UNL A   1      52.178  25.671  31.830  1.00  0.00     0.124 S 
ATOM     93  O   UNL A   1      52.033  24.252  32.133  1.00  0.00    -0.237 OA
ATOM     94  O   UNL A   1      52.904  25.988  30.604  1.00  0.00    -0.237 OA
ATOM     95  O   UNL A   1      52.485  26.529  32.972  1.00  0.00    -0.744 OA
ENDBRANCH  91  92
ENDBRANCH  59  84
ENDBRANCH  33  34
ENDBRANCH  25  28
ENDBRANCH  23  24
ENDBRANCH  22  23
ENDBRANCH   1  22
TORSDOF 18
ENDMDL
MODEL 2
REMARK VINA RESULT:     -10.5      0.506      2.109
REMARK SMILES CC1C[NH+]([C@@H](C(=O)NCCCCCCNC(=O)c2ccc(-c3c4nc(c(-c5c(F)cc(S(=O)(=O)[O-])cc5F)c5ccc([nH]5)c(-c5c(F)cc(S(=O)(=O)[O-])cc5F)c5nc(c(-c6c(F)cc(S(=O)(=O)[O-])cc6F)c6ccc3[nH]6)C=C5)C=C4)cc2)C2CCCCC2)C1
REMARK SMILES IDX 12 1 11 2 10 3 9 4 8 5 6 6 7 7 5 9 4 10 1 11 2 12 3 13 90 14
REMARK SMILES IDX 84 16 85 17 89 18 86 19 88 20 87 21 13 22 14 23 15 24 16 25
REMARK SMILES IDX 17 27 18 28 19 29 83 30 20 31 82 32 21 33 22 34 23 35 76 36
REMARK SMILES IDX 24 37 81 38 75 39 77 40 25 41 80 42 74 43 73 44 26 46 60 47
REMARK SMILES IDX 39 48 59 49 40 50 43 51 58 52 78 53 41 54 42 55 57 57 79 58
REMARK SMILES IDX 44 59 27 60 28 61 37 62 29 63 30 64 36 65 38 66 31 67 32 68
REMARK SMILES IDX 33 69 34 70 35 71 61 72 62 73 71 74 63 75 64 76 70 77 72 78
REMARK SMILES IDX 65 79 66 80 67 81 68 82 69 83 45 84 46 85 55 86 47 87 48 88
REMARK SMILES IDX 54 89 56 90 49 91 50 92 51 93 52 94 53 95
REMARK H PARENT 8 8 4 15 15 26 77 45 43 56
REMARK Flexibility Score: inf
ROOT
ATOM      1  C   UNL A   1      33.514  26.237  24.784  1.00  0.00     0.002 C 
ENDROOT
BRANCH   1   2
ATOM      2  C   UNL A   1      32.163  25.655  25.202  1.00  0.00     0.002 C 
BRANCH   2   3
ATOM      3  C   UNL A   1      32.219  24.716  26.412  1.00  0.00     0.021 C 
BRANCH   3   4
ATOM      4  C   UNL A   1      31.704  23.292  26.161  1.00  0.00     0.116 C 
BRANCH   4   5
ATOM      5  N   UNL A   1      31.486  23.037  24.747  1.00  0.00    -0.351 N 
ATOM      6  C   UNL A   1      32.231  22.426  23.780  1.00  0.00     0.278 C 
ATOM      7  O   UNL A   1      31.749  22.482  22.641  1.00  0.00    -0.268 OA
ATOM      8  H   UNL A   1      30.621  23.375  24.418  1.00  0.00     0.163 HD
BRANCH   6   9
ATOM      9  C   UNL A   1      33.565  21.684  24.078  1.00  0.00     0.277 C 
BRANCH   9  10
ATOM     10  N   UNL A   1      33.530  20.580  25.081  1.00  0.00    -0.324 N 
ATOM     11  C   UNL A   1      33.099  17.197  24.488  1.00  0.00     0.020 C 
ATOM     12  C   UNL A   1      33.235  18.674  24.192  1.00  0.00     0.096 C 
ATOM     13  C   UNL A   1      32.374  19.660  24.994  1.00  0.00     0.271 C 
ATOM     14  C   UNL A   1      34.432  19.451  24.806  1.00  0.00     0.271 C 
ATOM     15  H   UNL A   1      33.659  21.164  25.908  1.00  0.00     0.348 HD
ENDBRANCH   9  10
BRANCH   9  16
ATOM     16  C   UNL A   1      34.690  22.725  24.481  1.00  0.00     0.057 C 
ATOM     17  C   UNL A   1      35.126  22.653  25.964  1.00  0.00     0.010 C 
ATOM     18  C   UNL A   1      35.929  22.588  23.565  1.00  0.00     0.010 C 
ATOM     19  C   UNL A   1      36.241  23.629  26.314  1.00  0.00     0.001 C 
ATOM     20  C   UNL A   1      37.080  23.517  23.963  1.00  0.00     0.001 C 
ATOM     21  C   UNL A   1      37.454  23.374  25.432  1.00  0.00     0.000 C 
ENDBRANCH   9  16
ENDBRANCH   6   9
ENDBRANCH   4   5
ENDBRANCH   3   4
ENDBRANCH   2   3
ENDBRANCH   1   2
BRANCH   1  22
ATOM     22  C   UNL A   1      33.718  27.718  25.122  1.00  0.00     0.021 C 
BRANCH  22  23
ATOM     23  C   UNL A   1      34.049  28.011  26.585  1.00  0.00     0.116 C 
BRANCH  23  24
ATOM     24  N   UNL A   1      33.694  29.369  26.961  1.00  0.00    -0.352 N 
ATOM     25  C   UNL A   1      34.399  30.262  27.731  1.00  0.00     0.251 C 
ATOM     26  H   UNL A   1      32.830  29.693  26.615  1.00  0.00     0.163 HD
ATOM     27  O   UNL A   1      33.856  31.283  28.140  1.00  0.00    -0.269 OA
BRANCH  25  28
ATOM     28  C   UNL A   1      35.809  29.978  28.076  1.00  0.00     0.039 A 
ATOM     29  C   UNL A   1      36.119  29.550  29.369  1.00  0.00     0.014 A 
ATOM     30  C   UNL A   1      36.822  30.141  27.127  1.00  0.00     0.014 A 
ATOM     31  C   UNL A   1      37.441  29.235  29.695  1.00  0.00     0.010 A 
ATOM     32  C   UNL A   1      38.129  29.768  27.436  1.00  0.00     0.010 A 
ATOM     33  C   UNL A   1      38.454  29.315  28.725  1.00  0.00    -0.014 A 
BRANCH  33  34
ATOM     34  C   UNL A   1      39.854  28.928  29.041  1.00  0.00     0.031 A 
ATOM     35  C   UNL A   1      40.803  29.936  29.633  1.00  0.00     0.074 A 
ATOM     36  C   UNL A   1      40.288  27.690  28.731  1.00  0.00     0.049 A 
ATOM     37  N   UNL A   1      42.074  29.807  29.911  1.00  0.00    -0.248 NA
ATOM     38  C   UNL A   1      40.259  31.274  29.929  1.00  0.00     0.031 C 
ATOM     39  C   UNL A   1      39.482  26.641  28.101  1.00  0.00     0.029 A 
ATOM     40  N   UNL A   1      41.521  27.105  28.889  1.00  0.00    -0.354 N 
ATOM     41  C   UNL A   1      42.487  31.045  30.388  1.00  0.00     0.074 A 
ATOM     42  C   UNL A   1      41.342  31.925  30.332  1.00  0.00     0.031 C 
ATOM     43  C   UNL A   1      40.237  25.543  27.931  1.00  0.00     0.029 A 
ATOM     44  C   UNL A   1      41.588  25.817  28.410  1.00  0.00     0.049 A 
ATOM     45  H   UNL A   1      42.286  27.565  29.305  1.00  0.00     0.167 HD
ATOM     46  C   UNL A   1      43.708  31.410  30.847  1.00  0.00     0.037 A 
ATOM     47  C   UNL A   1      42.625  24.957  28.351  1.00  0.00     0.037 A 
ATOM     48  C   UNL A   1      44.832  30.516  30.949  1.00  0.00     0.049 A 
ATOM     49  C   UNL A   1      43.963  25.381  28.898  1.00  0.00     0.074 A 
ATOM     50  C   UNL A   1      46.081  30.766  31.493  1.00  0.00     0.029 A 
ATOM     51  N   UNL A   1      44.847  29.205  30.500  1.00  0.00    -0.354 N 
ATOM     52  N   UNL A   1      44.308  26.529  29.433  1.00  0.00    -0.248 NA
ATOM     53  C   UNL A   1      45.050  24.393  28.845  1.00  0.00     0.031 C 
ATOM     54  C   UNL A   1      46.866  29.621  31.331  1.00  0.00     0.029 A 
ATOM     55  C   UNL A   1      46.091  28.642  30.730  1.00  0.00     0.049 A 
ATOM     56  H   UNL A   1      44.087  28.742  30.078  1.00  0.00     0.167 HD
ATOM     57  C   UNL A   1      45.640  26.388  29.806  1.00  0.00     0.074 A 
ATOM     58  C   UNL A   1      46.035  25.042  29.449  1.00  0.00     0.031 C 
ATOM     59  C   UNL A   1      46.464  27.293  30.388  1.00  0.00     0.037 A 
BRANCH  46  60
ATOM     60  C   UNL A   1      43.909  32.832  31.291  1.00  0.00     0.058 A 
ATOM     61  C   UNL A   1      44.418  33.811  30.423  1.00  0.00     0.135 A 
ATOM     62  C   UNL A   1      43.490  33.241  32.567  1.00  0.00     0.135 A 
ATOM     63  F   UNL A   1      44.847  33.470  29.197  1.00  0.00    -0.206 F 
ATOM     64  C   UNL A   1      44.508  35.144  30.806  1.00  0.00     0.059 A 
ATOM     65  C   UNL A   1      43.548  34.575  32.964  1.00  0.00     0.059 A 
ATOM     66  F   UNL A   1      42.998  32.345  33.437  1.00  0.00    -0.206 F 
ATOM     67  C   UNL A   1      44.061  35.519  32.075  1.00  0.00     0.060 A 
BRANCH  67  68
ATOM     68  S   UNL A   1      44.130  37.264  32.533  1.00  0.00     0.124 S 
ATOM     69  O   UNL A   1      45.522  37.403  32.946  1.00  0.00    -0.237 OA
ATOM     70  O   UNL A   1      43.770  37.927  31.284  1.00  0.00    -0.237 OA
ATOM     71  O   UNL A   1      43.145  37.375  33.604  1.00  0.00    -0.744 OA
ENDBRANCH  67  68
ENDBRANCH  46  60
BRANCH  47  72
ATOM     72  C   UNL A   1      42.452  23.608  27.747  1.00  0.00     0.058 A 
ATOM     73  C   UNL A   1      42.202  22.481  28.546  1.00  0.00     0.135 A 
ATOM     74  C   UNL A   1      42.570  23.411  26.363  1.00  0.00     0.135 A 
ATOM     75  F   UNL A   1      42.083  22.616  29.876  1.00  0.00    -0.206 F 
ATOM     76  C   UNL A   1      42.115  21.204  28.001  1.00  0.00     0.059 A 
ATOM     77  C   UNL A   1      42.459  22.148  25.791  1.00  0.00     0.059 A 
ATOM     78  F   UNL A   1      42.789  24.457  25.550  1.00  0.00    -0.206 F 
ATOM     79  C   UNL A   1      42.253  21.047  26.621  1.00  0.00     0.060 A 
BRANCH  79  80
ATOM     80  S   UNL A   1      42.139  19.387  25.919  1.00  0.00     0.124 S 
ATOM     81  O   UNL A   1      42.969  19.517  24.728  1.00  0.00    -0.237 OA
ATOM     82  O   UNL A   1      42.684  18.560  26.991  1.00  0.00    -0.237 OA
ATOM     83  O   UNL A   1      40.707  19.225  25.679  1.00  0.00    -0.744 OA
ENDBRANCH  79  80
ENDBRANCH  47  72
BRANCH  59  84
ATOM     84  C   UNL A   1      47.861  26.849  30.719  1.00  0.00     0.058 A 
ATOM     85  C   UNL A   1      48.916  26.985  29.803  1.00  0.00     0.135 A 
ATOM     86  C   UNL A   1      48.158  26.329  31.990  1.00  0.00     0.135 A 
ATOM     87  F   UNL A   1      48.684  27.471  28.573  1.00  0.00    -0.206 F 
ATOM     88  C   UNL A   1      50.212  26.600  30.127  1.00  0.00     0.059 A 
ATOM     89  C   UNL A   1      49.452  25.964  32.344  1.00  0.00     0.059 A 
ATOM     90  F   UNL A   1      47.187  26.190  32.906  1.00  0.00    -0.206 F 
ATOM     91  C   UNL A   1      50.471  26.091  31.401  1.00  0.00     0.060 A 
BRANCH  91  92
ATOM     92  S   UNL A   1      52.163  25.625  31.821  1.00  0.00     0.124 S 
ATOM     93  O   UNL A   1      52.874  25.963  30.593  1.00  0.00    -0.237 OA
ATOM     94  O   UNL A   1      52.446  26.475  32.973  1.00  0.00    -0.237 OA
ATOM     95  O   UNL A   1      52.059  24.198  32.115  1.00  0.00    -0.744 OA
ENDBRANCH  91  92
ENDBRANCH  59  84
ENDBRANCH  33  34
ENDBRANCH  25  28
ENDBRANCH  23  24
ENDBRANCH  22  23
ENDBRANCH   1  22
TORSDOF 18
ENDMDL
MODEL 3
REMARK VINA RESULT:     -10.5      3.517      4.699
REMARK SMILES CC1C[NH+]([C@@H](C(=O)NCCCCCCNC(=O)c2ccc(-c3c4nc(c(-c5c(F)cc(S(=O)(=O)[O-])cc5F)c5ccc([nH]5)c(-c5c(F)cc(S(=O)(=O)[O-])cc5F)c5nc(c(-c6c(F)cc(S(=O)(=O)[O-])cc6F)c6ccc3[nH]6)C=C5)C=C4)cc2)C2CCCCC2)C1
REMARK SMILES IDX 12 1 11 2 10 3 9 4 8 5 6 6 7 7 5 9 4 10 1 11 2 12 3 13 90 14
REMARK SMILES IDX 84 16 85 17 89 18 86 19 88 20 87 21 13 22 14 23 15 24 16 25
REMARK SMILES IDX 17 27 18 28 19 29 83 30 20 31 82 32 21 33 22 34 23 35 76 36
REMARK SMILES IDX 24 37 81 38 75 39 77 40 25 41 80 42 74 43 73 44 26 46 60 47
REMARK SMILES IDX 39 48 59 49 40 50 43 51 58 52 78 53 41 54 42 55 57 57 79 58
REMARK SMILES IDX 44 59 27 60 28 61 37 62 29 63 30 64 36 65 38 66 31 67 32 68
REMARK SMILES IDX 33 69 34 70 35 71 61 72 62 73 71 74 63 75 64 76 70 77 72 78
REMARK SMILES IDX 65 79 66 80 67 81 68 82 69 83 45 84 46 85 55 86 47 87 48 88
REMARK SMILES IDX 54 89 56 90 49 91 50 92 51 93 52 94 53 95
REMARK H PARENT 8 8 4 15 15 26 77 45 43 56
REMARK Flexibility Score: inf
ROOT
ATOM      1  C   UNL A   1      33.400  30.885  27.192  1.00  0.00     0.002 C 
ENDROOT
BRANCH   1   2
ATOM      2  C   UNL A   1      33.798  29.437  26.907  1.00  0.00     0.002 C 
BRANCH   2   3
ATOM      3  C   UNL A   1      32.856  28.386  27.503  1.00  0.00     0.021 C 
BRANCH   3   4
ATOM      4  C   UNL A   1      31.533  28.187  26.750  1.00  0.00     0.116 C 
BRANCH   4   5
ATOM      5  N   UNL A   1      31.029  26.831  26.892  1.00  0.00    -0.351 N 
ATOM      6  C   UNL A   1      30.889  25.788  26.023  1.00  0.00     0.278 C 
ATOM      7  O   UNL A   1      30.321  24.794  26.492  1.00  0.00    -0.268 OA
ATOM      8  H   UNL A   1      30.725  26.622  27.805  1.00  0.00     0.163 HD
BRANCH   6   9
ATOM      9  C   UNL A   1      31.428  25.820  24.564  1.00  0.00     0.277 C 
BRANCH   9  10
ATOM     10  N   UNL A   1      30.440  26.050  23.469  1.00  0.00    -0.324 N 
ATOM     11  C   UNL A   1      28.723  28.969  22.751  1.00  0.00     0.020 C 
ATOM     12  C   UNL A   1      29.668  28.029  23.466  1.00  0.00     0.096 C 
ATOM     13  C   UNL A   1      29.147  26.645  23.876  1.00  0.00     0.271 C 
ATOM     14  C   UNL A   1      30.699  27.228  22.625  1.00  0.00     0.271 C 
ATOM     15  H   UNL A   1      30.471  25.109  23.078  1.00  0.00     0.348 HD
ENDBRANCH   9  10
BRANCH   9  16
ATOM     16  C   UNL A   1      32.253  24.502  24.258  1.00  0.00     0.057 C 
ATOM     17  C   UNL A   1      32.436  24.196  22.752  1.00  0.00     0.010 C 
ATOM     18  C   UNL A   1      33.634  24.535  24.955  1.00  0.00     0.010 C 
ATOM     19  C   UNL A   1      33.272  22.953  22.486  1.00  0.00     0.001 C 
ATOM     20  C   UNL A   1      34.506  23.320  24.628  1.00  0.00     0.001 C 
ATOM     21  C   UNL A   1      34.644  23.099  23.127  1.00  0.00     0.000 C 
ENDBRANCH   9  16
ENDBRANCH   6   9
ENDBRANCH   4   5
ENDBRANCH   3   4
ENDBRANCH   2   3
ENDBRANCH   1   2
BRANCH   1  22
ATOM     22  C   UNL A   1      34.417  31.692  28.008  1.00  0.00     0.021 C 
BRANCH  22  23
ATOM     23  C   UNL A   1      35.575  30.882  28.588  1.00  0.00     0.116 C 
BRANCH  23  24
ATOM     24  N   UNL A   1      35.530  30.833  30.039  1.00  0.00    -0.352 N 
ATOM     25  C   UNL A   1      36.479  30.367  30.916  1.00  0.00     0.251 C 
ATOM     26  H   UNL A   1      34.706  31.184  30.450  1.00  0.00     0.163 HD
ATOM     27  O   UNL A   1      36.193  30.187  32.095  1.00  0.00    -0.269 OA
BRANCH  25  28
ATOM     28  C   UNL A   1      37.843  30.068  30.427  1.00  0.00     0.039 A 
ATOM     29  C   UNL A   1      38.840  29.745  31.350  1.00  0.00     0.014 A 
ATOM     30  C   UNL A   1      38.136  30.114  29.061  1.00  0.00     0.014 A 
ATOM     31  C   UNL A   1      40.121  29.416  30.898  1.00  0.00     0.010 A 
ATOM     32  C   UNL A   1      39.397  29.727  28.609  1.00  0.00     0.010 A 
ATOM     33  C   UNL A   1      40.404  29.378  29.522  1.00  0.00    -0.014 A 
BRANCH  33  34
ATOM     34  C   UNL A   1      41.745  28.974  29.024  1.00  0.00     0.031 A 
ATOM     35  C   UNL A   1      42.840  29.998  28.884  1.00  0.00     0.074 A 
ATOM     36  C   UNL A   1      41.955  27.700  28.634  1.00  0.00     0.049 A 
ATOM     37  N   UNL A   1      44.048  29.852  28.404  1.00  0.00    -0.248 NA
ATOM     38  C   UNL A   1      42.531  31.372  29.315  1.00  0.00     0.031 C 
ATOM     39  C   UNL A   1      40.956  26.629  28.665  1.00  0.00     0.029 A 
ATOM     40  N   UNL A   1      43.072  27.092  28.118  1.00  0.00    -0.354 N 
ATOM     41  C   UNL A   1      44.632  31.112  28.452  1.00  0.00     0.074 A 
ATOM     42  C   UNL A   1      43.637  32.020  28.976  1.00  0.00     0.031 C 
ATOM     43  C   UNL A   1      41.506  25.497  28.197  1.00  0.00     0.029 A 
ATOM     44  C   UNL A   1      42.885  25.766  27.801  1.00  0.00     0.049 A 
ATOM     45  H   UNL A   1      43.929  27.561  27.986  1.00  0.00     0.167 HD
ATOM     46  C   UNL A   1      45.890  31.475  28.106  1.00  0.00     0.037 A 
ATOM     47  C   UNL A   1      43.725  24.872  27.242  1.00  0.00     0.037 A 
ATOM     48  C   UNL A   1      46.894  30.557  27.634  1.00  0.00     0.049 A 
ATOM     49  C   UNL A   1      45.128  25.297  26.898  1.00  0.00     0.074 A 
ATOM     50  C   UNL A   1      48.225  30.812  27.352  1.00  0.00     0.029 A 
ATOM     51  N   UNL A   1      46.680  29.213  27.372  1.00  0.00    -0.354 N 
ATOM     52  N   UNL A   1      45.690  26.475  27.040  1.00  0.00    -0.248 NA
ATOM     53  C   UNL A   1      46.015  24.273  26.327  1.00  0.00     0.031 C 
ATOM     54  C   UNL A   1      48.806  29.633  26.876  1.00  0.00     0.029 A 
ATOM     55  C   UNL A   1      47.849  28.632  26.908  1.00  0.00     0.049 A 
ATOM     56  H   UNL A   1      45.826  28.740  27.498  1.00  0.00     0.167 HD
ATOM     57  C   UNL A   1      47.002  26.323  26.604  1.00  0.00     0.074 A 
ATOM     58  C   UNL A   1      47.155  24.939  26.208  1.00  0.00     0.031 C 
ATOM     59  C   UNL A   1      47.991  27.247  26.536  1.00  0.00     0.037 A 
BRANCH  46  60
ATOM     60  C   UNL A   1      46.276  32.923  28.231  1.00  0.00     0.058 A 
ATOM     61  C   UNL A   1      46.864  33.432  29.399  1.00  0.00     0.135 A 
ATOM     62  C   UNL A   1      46.148  33.787  27.131  1.00  0.00     0.135 A 
ATOM     63  F   UNL A   1      46.995  32.652  30.485  1.00  0.00    -0.206 F 
ATOM     64  C   UNL A   1      47.310  34.746  29.474  1.00  0.00     0.059 A 
ATOM     65  C   UNL A   1      46.609  35.100  27.175  1.00  0.00     0.059 A 
ATOM     66  F   UNL A   1      45.589  33.352  25.991  1.00  0.00    -0.206 F 
ATOM     67  C   UNL A   1      47.187  35.571  28.353  1.00  0.00     0.060 A 
BRANCH  67  68
ATOM     68  S   UNL A   1      47.825  37.257  28.450  1.00  0.00     0.124 S 
ATOM     69  O   UNL A   1      49.069  37.141  27.696  1.00  0.00    -0.237 OA
ATOM     70  O   UNL A   1      46.765  38.027  27.808  1.00  0.00    -0.237 OA
ATOM     71  O   UNL A   1      47.980  37.481  29.884  1.00  0.00    -0.744 OA
ENDBRANCH  67  68
ENDBRANCH  46  60
BRANCH  47  72
ATOM     72  C   UNL A   1      43.270  23.482  26.965  1.00  0.00     0.058 A 
ATOM     73  C   UNL A   1      43.113  22.548  28.001  1.00  0.00     0.135 A 
ATOM     74  C   UNL A   1      43.019  23.048  25.654  1.00  0.00     0.135 A 
ATOM     75  F   UNL A   1      43.344  22.913  29.272  1.00  0.00    -0.206 F 
ATOM     76  C   UNL A   1      42.763  21.226  27.746  1.00  0.00     0.059 A 
ATOM     77  C   UNL A   1      42.640  21.739  25.376  1.00  0.00     0.059 A 
ATOM     78  F   UNL A   1      43.134  23.905  24.628  1.00  0.00    -0.206 F 
ATOM     79  C   UNL A   1      42.536  20.829  26.427  1.00  0.00     0.060 A 
BRANCH  79  80
ATOM     80  S   UNL A   1      42.082  19.112  26.101  1.00  0.00     0.124 S 
ATOM     81  O   UNL A   1      42.984  18.773  25.008  1.00  0.00    -0.237 OA
ATOM     82  O   UNL A   1      42.361  18.470  27.383  1.00  0.00    -0.237 OA
ATOM     83  O   UNL A   1      40.667  19.203  25.751  1.00  0.00    -0.744 OA
ENDBRANCH  79  80
ENDBRANCH  47  72
BRANCH  59  84
ATOM     84  C   UNL A   1      49.340  26.788  26.057  1.00  0.00     0.058 A 
ATOM     85  C   UNL A   1      49.748  26.958  24.725  1.00  0.00     0.135 A 
ATOM     86  C   UNL A   1      50.256  26.218  26.956  1.00  0.00     0.135 A 
ATOM     87  F   UNL A   1      48.907  27.493  23.824  1.00  0.00    -0.206 F 
ATOM     88  C   UNL A   1      51.008  26.558  24.295  1.00  0.00     0.059 A 
ATOM     89  C   UNL A   1      51.532  25.837  26.554  1.00  0.00     0.059 A 
ATOM     90  F   UNL A   1      49.919  26.045  28.244  1.00  0.00    -0.206 F 
ATOM     91  C   UNL A   1      51.894  25.999  25.218  1.00  0.00     0.060 A 
BRANCH  91  92
ATOM     92  S   UNL A   1      53.539  25.514  24.656  1.00  0.00     0.124 S 
ATOM     93  O   UNL A   1      53.515  25.953  23.265  1.00  0.00    -0.237 OA
ATOM     94  O   UNL A   1      54.411  26.274  25.546  1.00  0.00    -0.237 OA
ATOM     95  O   UNL A   1      53.554  24.069  24.859  1.00  0.00    -0.744 OA
ENDBRANCH  91  92
ENDBRANCH  59  84
ENDBRANCH  33  34
ENDBRANCH  25  28
ENDBRANCH  23  24
ENDBRANCH  22  23
ENDBRANCH   1  22
TORSDOF 18
ENDMDL
