MODEL 1
REMARK VINA RESULT:     -12.2      0.000      0.000
REMARK SMILES CCc1cc(N2CCC[C@H](C(=O)NCCCCCCNC(=O)c3ccc(-c4c5nc(c(-c6c(F)cc(S(=O)(=O)[O-])cc6F)c6ccc([nH]6)c(-c6c(F)cc(S(=O)(=O)[O-])cc6F)c6nc(c(-c7c(F)cc(S(=O)(=O)[O-])cc7F)c7ccc4[nH]7)C=C6)C=C5)cc3)C2)nc(-c2ccc(Cl)cc2)n1
REMARK SMILES IDX 17 1 16 2 15 3 14 4 13 5 11 6 12 7 10 9 6 10 7 11 89 12 8 13
REMARK SMILES IDX 9 14 5 15 3 16 4 17 99 18 91 19 90 20 2 21 1 22 92 23 93 24
REMARK SMILES IDX 98 25 94 26 97 27 95 28 96 29 18 30 19 31 20 32 21 33 22 35
REMARK SMILES IDX 23 36 24 37 88 38 25 39 87 40 26 41 27 42 28 43 81 44 29 45
REMARK SMILES IDX 86 46 80 47 82 48 30 49 85 50 79 51 78 52 31 54 65 55 44 56
REMARK SMILES IDX 64 57 45 58 48 59 63 60 83 61 46 62 47 63 62 65 84 66 49 67
REMARK SMILES IDX 32 68 33 69 42 70 34 71 35 72 41 73 43 74 36 75 37 76 38 77
REMARK SMILES IDX 39 78 40 79 66 80 67 81 76 82 68 83 69 84 75 85 77 86 70 87
REMARK SMILES IDX 71 88 72 89 73 90 74 91 50 92 51 93 60 94 52 95 53 96 59 97
REMARK SMILES IDX 61 98 54 99 55 100 56 101 57 102 58 103
REMARK H PARENT 13 8 20 34 82 53 48 64
REMARK Flexibility Score: inf
ROOT
ATOM      1  C   UNL A   1      34.218  30.776  27.873  1.00  0.00     0.002 C 
ENDROOT
BRANCH   1   2
ATOM      2  C   UNL A   1      33.049  30.692  26.884  1.00  0.00     0.002 C 
BRANCH   2   3
ATOM      3  C   UNL A   1      32.027  29.591  27.169  1.00  0.00     0.021 C 
BRANCH   3   4
ATOM      4  C   UNL A   1      32.610  28.182  27.112  1.00  0.00     0.116 C 
BRANCH   4   5
ATOM      5  N   UNL A   1      33.124  27.845  25.804  1.00  0.00    -0.356 N 
ATOM      6  C   UNL A   1      32.751  26.876  24.933  1.00  0.00     0.224 C 
ATOM      7  O   UNL A   1      33.256  26.928  23.803  1.00  0.00    -0.275 OA
ATOM      8  H   UNL A   1      33.868  28.410  25.496  1.00  0.00     0.163 HD
BRANCH   6   9
ATOM      9  C   UNL A   1      31.772  25.745  25.258  1.00  0.00     0.098 C 
ATOM     10  N   UNL A   1      32.547  23.513  24.553  1.00  0.00    -0.356 N 
ATOM     11  C   UNL A   1      31.336  23.172  23.824  1.00  0.00     0.118 C 
ATOM     12  C   UNL A   1      32.451  24.443  25.666  1.00  0.00     0.131 C 
ATOM     13  C   UNL A   1      30.681  24.446  23.280  1.00  0.00     0.022 C 
ATOM     14  C   UNL A   1      30.586  25.585  24.296  1.00  0.00     0.017 C 
BRANCH  10  15
ATOM     15  C   UNL A   1      33.582  22.600  24.632  1.00  0.00     0.132 A 
ATOM     16  C   UNL A   1      35.869  22.018  24.598  1.00  0.00     0.046 A 
ATOM     17  C   UNL A   1      34.902  23.006  24.590  1.00  0.00     0.070 A 
ATOM     18  N   UNL A   1      35.550  20.717  24.712  1.00  0.00    -0.233 NA
ATOM     19  C   UNL A   1      34.245  20.411  24.753  1.00  0.00     0.161 A 
ATOM     20  N   UNL A   1      33.241  21.301  24.680  1.00  0.00    -0.211 NA
BRANCH  16  21
ATOM     21  C   UNL A   1      37.324  22.394  24.467  1.00  0.00     0.053 C 
ATOM     22  C   UNL A   1      38.158  22.107  25.710  1.00  0.00     0.011 C 
ENDBRANCH  16  21
BRANCH  19  23
ATOM     23  C   UNL A   1      33.903  18.991  24.869  1.00  0.00     0.019 A 
ATOM     24  C   UNL A   1      32.669  18.593  25.418  1.00  0.00     0.013 A 
ATOM     25  C   UNL A   1      34.802  17.985  24.471  1.00  0.00     0.013 A 
ATOM     26  C   UNL A   1      32.345  17.241  25.570  1.00  0.00     0.021 A 
ATOM     27  C   UNL A   1      34.488  16.631  24.638  1.00  0.00     0.021 A 
ATOM     28  C   UNL A   1      33.261  16.266  25.188  1.00  0.00     0.041 A 
ATOM     29  Cl  UNL A   1      32.883  14.602  25.405  1.00  0.00    -0.084 Cl
ENDBRANCH  19  23
ENDBRANCH  10  15
ENDBRANCH   6   9
ENDBRANCH   4   5
ENDBRANCH   3   4
ENDBRANCH   2   3
ENDBRANCH   1   2
BRANCH   1  30
ATOM     30  C   UNL A   1      34.881  32.150  28.013  1.00  0.00     0.021 C 
BRANCH  30  31
ATOM     31  C   UNL A   1      36.071  32.202  28.969  1.00  0.00     0.116 C 
BRANCH  31  32
ATOM     32  N   UNL A   1      35.852  31.399  30.163  1.00  0.00    -0.352 N 
ATOM     33  C   UNL A   1      36.603  30.383  30.689  1.00  0.00     0.251 C 
ATOM     34  H   UNL A   1      35.039  31.622  30.670  1.00  0.00     0.163 HD
ATOM     35  O   UNL A   1      36.142  29.694  31.601  1.00  0.00    -0.269 OA
BRANCH  33  36
ATOM     36  C   UNL A   1      37.956  30.103  30.168  1.00  0.00     0.039 A 
ATOM     37  C   UNL A   1      39.018  29.997  31.070  1.00  0.00     0.014 A 
ATOM     38  C   UNL A   1      38.188  29.985  28.793  1.00  0.00     0.014 A 
ATOM     39  C   UNL A   1      40.304  29.722  30.599  1.00  0.00     0.010 A 
ATOM     40  C   UNL A   1      39.459  29.651  28.330  1.00  0.00     0.010 A 
ATOM     41  C   UNL A   1      40.530  29.521  29.227  1.00  0.00    -0.014 A 
BRANCH  41  42
ATOM     42  C   UNL A   1      41.882  29.184  28.712  1.00  0.00     0.031 A 
ATOM     43  C   UNL A   1      42.200  27.772  28.301  1.00  0.00     0.074 A 
ATOM     44  C   UNL A   1      42.831  30.139  28.659  1.00  0.00     0.049 A 
ATOM     45  N   UNL A   1      43.339  27.262  27.911  1.00  0.00    -0.248 NA
ATOM     46  C   UNL A   1      41.095  26.799  28.355  1.00  0.00     0.031 C 
ATOM     47  C   UNL A   1      42.652  31.537  29.060  1.00  0.00     0.029 A 
ATOM     48  N   UNL A   1      44.142  30.077  28.257  1.00  0.00    -0.354 N 
ATOM     49  C   UNL A   1      43.091  25.915  27.672  1.00  0.00     0.074 A 
ATOM     50  C   UNL A   1      41.708  25.673  28.018  1.00  0.00     0.031 C 
ATOM     51  C   UNL A   1      43.802  32.202  28.868  1.00  0.00     0.029 A 
ATOM     52  C   UNL A   1      44.811  31.274  28.366  1.00  0.00     0.049 A 
ATOM     53  H   UNL A   1      44.564  29.253  27.920  1.00  0.00     0.167 HD
ATOM     54  C   UNL A   1      43.932  24.973  27.182  1.00  0.00     0.037 A 
ATOM     55  C   UNL A   1      46.095  31.584  28.102  1.00  0.00     0.037 A 
ATOM     56  C   UNL A   1      45.304  25.223  26.823  1.00  0.00     0.049 A 
ATOM     57  C   UNL A   1      47.016  30.510  27.585  1.00  0.00     0.074 A 
ATOM     58  C   UNL A   1      46.236  24.339  26.308  1.00  0.00     0.029 A 
ATOM     59  N   UNL A   1      45.937  26.453  26.930  1.00  0.00    -0.354 N 
ATOM     60  N   UNL A   1      46.754  29.248  27.339  1.00  0.00    -0.248 NA
ATOM     61  C   UNL A   1      48.403  30.903  27.302  1.00  0.00     0.031 C 
ATOM     62  C   UNL A   1      47.441  25.026  26.129  1.00  0.00     0.029 A 
ATOM     63  C   UNL A   1      47.248  26.349  26.494  1.00  0.00     0.049 A 
ATOM     64  H   UNL A   1      45.518  27.277  27.266  1.00  0.00     0.167 HD
ATOM     65  C   UNL A   1      47.934  28.706  26.842  1.00  0.00     0.074 A 
ATOM     66  C   UNL A   1      48.906  29.779  26.810  1.00  0.00     0.031 C 
ATOM     67  C   UNL A   1      48.192  27.435  26.448  1.00  0.00     0.037 A 
BRANCH  54  68
ATOM     68  C   UNL A   1      43.386  23.586  26.978  1.00  0.00     0.058 A 
ATOM     69  C   UNL A   1      43.040  23.122  25.699  1.00  0.00     0.135 A 
ATOM     70  C   UNL A   1      43.264  22.693  28.054  1.00  0.00     0.135 A 
ATOM     71  F   UNL A   1      43.120  23.942  24.638  1.00  0.00    -0.206 F 
ATOM     72  C   UNL A   1      42.574  21.828  25.496  1.00  0.00     0.059 A 
ATOM     73  C   UNL A   1      42.826  21.384  27.870  1.00  0.00     0.059 A 
ATOM     74  F   UNL A   1      43.580  23.085  29.298  1.00  0.00    -0.206 F 
ATOM     75  C   UNL A   1      42.475  20.964  26.587  1.00  0.00     0.060 A 
BRANCH  75  76
ATOM     76  S   UNL A   1      41.898  19.278  26.299  1.00  0.00     0.124 S 
ATOM     77  O   UNL A   1      40.452  19.472  26.238  1.00  0.00    -0.237 OA
ATOM     78  O   UNL A   1      42.545  18.938  25.036  1.00  0.00    -0.237 OA
ATOM     79  O   UNL A   1      42.383  18.548  27.466  1.00  0.00    -0.744 OA
ENDBRANCH  75  76
ENDBRANCH  54  68
BRANCH  55  80
ATOM     80  C   UNL A   1      46.598  32.968  28.315  1.00  0.00     0.058 A 
ATOM     81  C   UNL A   1      47.152  33.353  29.545  1.00  0.00     0.135 A 
ATOM     82  C   UNL A   1      46.502  33.942  27.310  1.00  0.00     0.135 A 
ATOM     83  F   UNL A   1      47.264  32.458  30.539  1.00  0.00    -0.206 F 
ATOM     84  C   UNL A   1      47.553  34.663  29.788  1.00  0.00     0.059 A 
ATOM     85  C   UNL A   1      46.921  35.252  27.519  1.00  0.00     0.059 A 
ATOM     86  F   UNL A   1      45.998  33.621  26.108  1.00  0.00    -0.206 F 
ATOM     87  C   UNL A   1      47.423  35.608  28.769  1.00  0.00     0.060 A 
BRANCH  87  88
ATOM     88  S   UNL A   1      47.937  37.309  29.092  1.00  0.00     0.124 S 
ATOM     89  O   UNL A   1      49.363  37.244  28.797  1.00  0.00    -0.237 OA
ATOM     90  O   UNL A   1      47.123  38.064  28.145  1.00  0.00    -0.237 OA
ATOM     91  O   UNL A   1      47.590  37.501  30.498  1.00  0.00    -0.744 OA
ENDBRANCH  87  88
ENDBRANCH  55  80
BRANCH  67  92
ATOM     92  C   UNL A   1      49.563  27.146  25.901  1.00  0.00     0.058 A 
ATOM     93  C   UNL A   1      50.618  26.745  26.734  1.00  0.00     0.135 A 
ATOM     94  C   UNL A   1      49.806  27.226  24.521  1.00  0.00     0.135 A 
ATOM     95  F   UNL A   1      50.438  26.660  28.061  1.00  0.00    -0.206 F 
ATOM     96  C   UNL A   1      51.878  26.456  26.218  1.00  0.00     0.059 A 
ATOM     97  C   UNL A   1      51.050  26.916  23.980  1.00  0.00     0.059 A 
ATOM     98  F   UNL A   1      48.825  27.595  23.681  1.00  0.00    -0.206 F 
ATOM     99  C   UNL A   1      52.083  26.543  24.839  1.00  0.00     0.060 A 
BRANCH  99 100
ATOM    100  S   UNL A   1      53.712  26.131  24.179  1.00  0.00     0.124 S 
ATOM    101  O   UNL A   1      53.444  26.077  22.746  1.00  0.00    -0.237 OA
ATOM    102  O   UNL A   1      54.525  27.257  24.629  1.00  0.00    -0.237 OA
ATOM    103  O   UNL A   1      54.021  24.852  24.811  1.00  0.00    -0.744 OA
ENDBRANCH  99 100
ENDBRANCH  67  92
ENDBRANCH  41  42
ENDBRANCH  33  36
ENDBRANCH  31  32
ENDBRANCH  30  31
ENDBRANCH   1  30
TORSDOF 19
ENDMDL
MODEL 2
REMARK VINA RESULT:     -11.9      4.757      8.933
REMARK SMILES CCc1cc(N2CCC[C@H](C(=O)NCCCCCCNC(=O)c3ccc(-c4c5nc(c(-c6c(F)cc(S(=O)(=O)[O-])cc6F)c6ccc([nH]6)c(-c6c(F)cc(S(=O)(=O)[O-])cc6F)c6nc(c(-c7c(F)cc(S(=O)(=O)[O-])cc7F)c7ccc4[nH]7)C=C6)C=C5)cc3)C2)nc(-c2ccc(Cl)cc2)n1
REMARK SMILES IDX 17 1 16 2 15 3 14 4 13 5 11 6 12 7 10 9 6 10 7 11 89 12 8 13
REMARK SMILES IDX 9 14 5 15 3 16 4 17 99 18 91 19 90 20 2 21 1 22 92 23 93 24
REMARK SMILES IDX 98 25 94 26 97 27 95 28 96 29 18 30 19 31 20 32 21 33 22 35
REMARK SMILES IDX 23 36 24 37 88 38 25 39 87 40 26 41 27 42 28 43 81 44 29 45
REMARK SMILES IDX 86 46 80 47 82 48 30 49 85 50 79 51 78 52 31 54 65 55 44 56
REMARK SMILES IDX 64 57 45 58 48 59 63 60 83 61 46 62 47 63 62 65 84 66 49 67
REMARK SMILES IDX 32 68 33 69 42 70 34 71 35 72 41 73 43 74 36 75 37 76 38 77
REMARK SMILES IDX 39 78 40 79 66 80 67 81 76 82 68 83 69 84 75 85 77 86 70 87
REMARK SMILES IDX 71 88 72 89 73 90 74 91 50 92 51 93 60 94 52 95 53 96 59 97
REMARK SMILES IDX 61 98 54 99 55 100 56 101 57 102 58 103
REMARK H PARENT 13 8 20 34 82 53 48 64
REMARK Flexibility Score: inf
ROOT
ATOM      1  C   UNL A   1      32.793  29.463  25.137  1.00  0.00     0.002 C 
ENDROOT
BRANCH   1   2
ATOM      2  C   UNL A   1      31.495  29.270  24.342  1.00  0.00     0.002 C 
BRANCH   2   3
ATOM      3  C   UNL A   1      31.675  28.814  22.894  1.00  0.00     0.021 C 
BRANCH   3   4
ATOM      4  C   UNL A   1      33.134  28.710  22.459  1.00  0.00     0.116 C 
BRANCH   4   5
ATOM      5  N   UNL A   1      33.432  27.453  21.810  1.00  0.00    -0.356 N 
ATOM      6  C   UNL A   1      33.061  26.188  22.125  1.00  0.00     0.224 C 
ATOM      7  O   UNL A   1      33.321  25.314  21.286  1.00  0.00    -0.275 OA
ATOM      8  H   UNL A   1      33.998  27.528  21.008  1.00  0.00     0.163 HD
BRANCH   6   9
ATOM      9  C   UNL A   1      32.364  25.785  23.427  1.00  0.00     0.098 C 
ATOM     10  N   UNL A   1      32.811  23.464  24.129  1.00  0.00    -0.356 N 
ATOM     11  C   UNL A   1      31.414  23.100  24.292  1.00  0.00     0.118 C 
ATOM     12  C   UNL A   1      33.192  24.857  24.306  1.00  0.00     0.131 C 
ATOM     13  C   UNL A   1      30.547  23.920  23.331  1.00  0.00     0.022 C 
ATOM     14  C   UNL A   1      30.879  25.413  23.306  1.00  0.00     0.017 C 
BRANCH  10  15
ATOM     15  C   UNL A   1      33.801  22.541  24.407  1.00  0.00     0.132 A 
ATOM     16  C   UNL A   1      36.051  21.923  24.757  1.00  0.00     0.046 A 
ATOM     17  C   UNL A   1      35.120  22.924  24.557  1.00  0.00     0.070 A 
ATOM     18  N   UNL A   1      35.691  20.633  24.871  1.00  0.00    -0.233 NA
ATOM     19  C   UNL A   1      34.389  20.349  24.718  1.00  0.00     0.161 A 
ATOM     20  N   UNL A   1      33.429  21.250  24.452  1.00  0.00    -0.211 NA
BRANCH  16  21
ATOM     21  C   UNL A   1      37.517  22.270  24.842  1.00  0.00     0.053 C 
ATOM     22  C   UNL A   1      38.402  21.131  25.337  1.00  0.00     0.011 C 
ENDBRANCH  16  21
BRANCH  19  23
ATOM     23  C   UNL A   1      34.002  18.940  24.835  1.00  0.00     0.019 A 
ATOM     24  C   UNL A   1      32.781  18.579  25.435  1.00  0.00     0.013 A 
ATOM     25  C   UNL A   1      34.846  17.908  24.387  1.00  0.00     0.013 A 
ATOM     26  C   UNL A   1      32.416  17.238  25.588  1.00  0.00     0.021 A 
ATOM     27  C   UNL A   1      34.493  16.564  24.555  1.00  0.00     0.021 A 
ATOM     28  C   UNL A   1      33.279  16.236  25.156  1.00  0.00     0.041 A 
ATOM     29  Cl  UNL A   1      32.852  14.584  25.373  1.00  0.00    -0.084 Cl
ENDBRANCH  19  23
ENDBRANCH  10  15
ENDBRANCH   6   9
ENDBRANCH   4   5
ENDBRANCH   3   4
ENDBRANCH   2   3
ENDBRANCH   1   2
BRANCH   1  30
ATOM     30  C   UNL A   1      33.123  28.367  26.156  1.00  0.00     0.021 C 
BRANCH  30  31
ATOM     31  C   UNL A   1      33.970  28.821  27.344  1.00  0.00     0.116 C 
BRANCH  31  32
ATOM     32  N   UNL A   1      33.875  30.254  27.571  1.00  0.00    -0.352 N 
ATOM     33  C   UNL A   1      34.680  31.084  28.303  1.00  0.00     0.251 C 
ATOM     34  H   UNL A   1      33.114  30.695  27.130  1.00  0.00     0.163 HD
ATOM     35  O   UNL A   1      34.316  32.238  28.536  1.00  0.00    -0.269 OA
BRANCH  33  36
ATOM     36  C   UNL A   1      35.978  30.604  28.820  1.00  0.00     0.039 A 
ATOM     37  C   UNL A   1      37.156  31.116  28.267  1.00  0.00     0.014 A 
ATOM     38  C   UNL A   1      36.038  29.626  29.818  1.00  0.00     0.014 A 
ATOM     39  C   UNL A   1      38.393  30.684  28.750  1.00  0.00     0.010 A 
ATOM     40  C   UNL A   1      37.271  29.241  30.340  1.00  0.00     0.010 A 
ATOM     41  C   UNL A   1      38.460  29.762  29.808  1.00  0.00    -0.014 A 
BRANCH  41  42
ATOM     42  C   UNL A   1      39.767  29.324  30.363  1.00  0.00     0.031 A 
ATOM     43  C   UNL A   1      40.358  30.039  31.548  1.00  0.00     0.074 A 
ATOM     44  C   UNL A   1      40.438  28.316  29.772  1.00  0.00     0.049 A 
ATOM     45  N   UNL A   1      41.520  29.866  32.122  1.00  0.00    -0.248 NA
ATOM     46  C   UNL A   1      39.543  31.105  32.155  1.00  0.00     0.031 C 
ATOM     47  C   UNL A   1      39.982  27.567  28.598  1.00  0.00     0.029 A 
ATOM     48  N   UNL A   1      41.654  27.753  30.070  1.00  0.00    -0.354 N 
ATOM     49  C   UNL A   1      41.576  30.794  33.155  1.00  0.00     0.074 A 
ATOM     50  C   UNL A   1      40.357  31.569  33.093  1.00  0.00     0.031 C 
ATOM     51  C   UNL A   1      40.896  26.634  28.288  1.00  0.00     0.029 A 
ATOM     52  C   UNL A   1      42.018  26.741  29.213  1.00  0.00     0.049 A 
ATOM     53  H   UNL A   1      42.211  28.045  30.827  1.00  0.00     0.167 HD
ATOM     54  C   UNL A   1      42.543  30.964  34.088  1.00  0.00     0.037 A 
ATOM     55  C   UNL A   1      43.138  25.991  29.174  1.00  0.00     0.037 A 
ATOM     56  C   UNL A   1      43.748  30.178  34.156  1.00  0.00     0.049 A 
ATOM     57  C   UNL A   1      44.210  26.222  30.207  1.00  0.00     0.074 A 
ATOM     58  C   UNL A   1      44.784  30.266  35.069  1.00  0.00     0.029 A 
ATOM     59  N   UNL A   1      44.071  29.150  33.283  1.00  0.00    -0.354 N 
ATOM     60  N   UNL A   1      44.231  27.087  31.193  1.00  0.00    -0.248 NA
ATOM     61  C   UNL A   1      45.405  25.371  30.127  1.00  0.00     0.031 C 
ATOM     62  C   UNL A   1      45.747  29.309  34.732  1.00  0.00     0.029 A 
ATOM     63  C   UNL A   1      45.291  28.598  33.634  1.00  0.00     0.049 A 
ATOM     64  H   UNL A   1      43.515  28.856  32.526  1.00  0.00     0.167 HD
ATOM     65  C   UNL A   1      45.425  26.860  31.870  1.00  0.00     0.074 A 
ATOM     66  C   UNL A   1      46.092  25.770  31.188  1.00  0.00     0.031 C 
ATOM     67  C   UNL A   1      45.927  27.497  32.956  1.00  0.00     0.037 A 
BRANCH  54  68
ATOM     68  C   UNL A   1      42.329  32.027  35.131  1.00  0.00     0.058 A 
ATOM     69  C   UNL A   1      41.765  31.716  36.379  1.00  0.00     0.135 A 
ATOM     70  C   UNL A   1      42.742  33.350  34.910  1.00  0.00     0.135 A 
ATOM     71  F   UNL A   1      41.336  30.470  36.636  1.00  0.00    -0.206 F 
ATOM     72  C   UNL A   1      41.602  32.684  37.364  1.00  0.00     0.059 A 
ATOM     73  C   UNL A   1      42.613  34.328  35.892  1.00  0.00     0.059 A 
ATOM     74  F   UNL A   1      43.286  33.701  33.734  1.00  0.00    -0.206 F 
ATOM     75  C   UNL A   1      42.034  33.987  37.113  1.00  0.00     0.060 A 
BRANCH  75  76
ATOM     76  S   UNL A   1      41.841  35.222  38.416  1.00  0.00     0.124 S 
ATOM     77  O   UNL A   1      40.945  36.181  37.778  1.00  0.00    -0.237 OA
ATOM     78  O   UNL A   1      41.262  34.441  39.504  1.00  0.00    -0.237 OA
ATOM     79  O   UNL A   1      43.203  35.693  38.642  1.00  0.00    -0.744 OA
ENDBRANCH  75  76
ENDBRANCH  54  68
BRANCH  55  80
ATOM     80  C   UNL A   1      43.313  24.949  28.127  1.00  0.00     0.058 A 
ATOM     81  C   UNL A   1      42.959  23.614  28.373  1.00  0.00     0.135 A 
ATOM     82  C   UNL A   1      43.871  25.257  26.877  1.00  0.00     0.135 A 
ATOM     83  F   UNL A   1      42.424  23.269  29.554  1.00  0.00    -0.206 F 
ATOM     84  C   UNL A   1      43.192  22.613  27.435  1.00  0.00     0.059 A 
ATOM     85  C   UNL A   1      44.088  24.278  25.913  1.00  0.00     0.059 A 
ATOM     86  F   UNL A   1      44.208  26.523  26.583  1.00  0.00    -0.206 F 
ATOM     87  C   UNL A   1      43.766  22.955  26.210  1.00  0.00     0.060 A 
BRANCH  87  88
ATOM     88  S   UNL A   1      44.073  21.650  24.999  1.00  0.00     0.124 S 
ATOM     89  O   UNL A   1      43.006  20.707  25.311  1.00  0.00    -0.237 OA
ATOM     90  O   UNL A   1      43.946  22.365  23.734  1.00  0.00    -0.237 OA
ATOM     91  O   UNL A   1      45.426  21.205  25.326  1.00  0.00    -0.744 OA
ENDBRANCH  87  88
ENDBRANCH  55  80
BRANCH  67  92
ATOM     92  C   UNL A   1      47.234  26.999  33.506  1.00  0.00     0.058 A 
ATOM     93  C   UNL A   1      48.461  27.542  33.094  1.00  0.00     0.135 A 
ATOM     94  C   UNL A   1      47.254  26.000  34.492  1.00  0.00     0.135 A 
ATOM     95  F   UNL A   1      48.496  28.494  32.149  1.00  0.00    -0.206 F 
ATOM     96  C   UNL A   1      49.667  27.093  33.624  1.00  0.00     0.059 A 
ATOM     97  C   UNL A   1      48.445  25.555  35.056  1.00  0.00     0.059 A 
ATOM     98  F   UNL A   1      46.106  25.457  34.928  1.00  0.00    -0.206 F 
ATOM     99  C   UNL A   1      49.647  26.100  34.607  1.00  0.00     0.060 A 
BRANCH  99 100
ATOM    100  S   UNL A   1      51.216  25.551  35.312  1.00  0.00     0.124 S 
ATOM    101  O   UNL A   1      51.981  26.793  35.329  1.00  0.00    -0.237 OA
ATOM    102  O   UNL A   1      50.810  25.039  36.617  1.00  0.00    -0.237 OA
ATOM    103  O   UNL A   1      51.678  24.539  34.366  1.00  0.00    -0.744 OA
ENDBRANCH  99 100
ENDBRANCH  67  92
ENDBRANCH  41  42
ENDBRANCH  33  36
ENDBRANCH  31  32
ENDBRANCH  30  31
ENDBRANCH   1  30
TORSDOF 19
ENDMDL
MODEL 3
REMARK VINA RESULT:     -11.6      6.467     10.980
REMARK SMILES CCc1cc(N2CCC[C@H](C(=O)NCCCCCCNC(=O)c3ccc(-c4c5nc(c(-c6c(F)cc(S(=O)(=O)[O-])cc6F)c6ccc([nH]6)c(-c6c(F)cc(S(=O)(=O)[O-])cc6F)c6nc(c(-c7c(F)cc(S(=O)(=O)[O-])cc7F)c7ccc4[nH]7)C=C6)C=C5)cc3)C2)nc(-c2ccc(Cl)cc2)n1
REMARK SMILES IDX 17 1 16 2 15 3 14 4 13 5 11 6 12 7 10 9 6 10 7 11 89 12 8 13
REMARK SMILES IDX 9 14 5 15 3 16 4 17 99 18 91 19 90 20 2 21 1 22 92 23 93 24
REMARK SMILES IDX 98 25 94 26 97 27 95 28 96 29 18 30 19 31 20 32 21 33 22 35
REMARK SMILES IDX 23 36 24 37 88 38 25 39 87 40 26 41 27 42 28 43 81 44 29 45
REMARK SMILES IDX 86 46 80 47 82 48 30 49 85 50 79 51 78 52 31 54 65 55 44 56
REMARK SMILES IDX 64 57 45 58 48 59 63 60 83 61 46 62 47 63 62 65 84 66 49 67
REMARK SMILES IDX 32 68 33 69 42 70 34 71 35 72 41 73 43 74 36 75 37 76 38 77
REMARK SMILES IDX 39 78 40 79 66 80 67 81 76 82 68 83 69 84 75 85 77 86 70 87
REMARK SMILES IDX 71 88 72 89 73 90 74 91 50 92 51 93 60 94 52 95 53 96 59 97
REMARK SMILES IDX 61 98 54 99 55 100 56 101 57 102 58 103
REMARK H PARENT 13 8 20 34 82 53 48 64
REMARK Flexibility Score: inf
ROOT
ATOM      1  C   UNL A   1      34.025  33.331  29.039  1.00  0.00     0.002 C 
ENDROOT
BRANCH   1   2
ATOM      2  C   UNL A   1      35.502  33.252  28.628  1.00  0.00     0.002 C 
BRANCH   2   3
ATOM      3  C   UNL A   1      35.927  31.943  27.962  1.00  0.00     0.021 C 
BRANCH   3   4
ATOM      4  C   UNL A   1      34.835  30.878  27.946  1.00  0.00     0.116 C 
BRANCH   4   5
ATOM      5  N   UNL A   1      34.348  30.600  26.613  1.00  0.00    -0.356 N 
ATOM      6  C   UNL A   1      33.656  29.539  26.131  1.00  0.00     0.224 C 
ATOM      7  O   UNL A   1      33.217  29.647  24.978  1.00  0.00    -0.275 OA
ATOM      8  H   UNL A   1      34.553  31.294  25.947  1.00  0.00     0.163 HD
BRANCH   6   9
ATOM      9  C   UNL A   1      33.399  28.244  26.906  1.00  0.00     0.098 C 
ATOM     10  N   UNL A   1      32.348  26.462  25.564  1.00  0.00    -0.356 N 
ATOM     11  C   UNL A   1      31.266  26.207  26.499  1.00  0.00     0.118 C 
ATOM     12  C   UNL A   1      33.606  26.981  26.079  1.00  0.00     0.131 C 
ATOM     13  C   UNL A   1      30.931  27.489  27.269  1.00  0.00     0.022 C 
ATOM     14  C   UNL A   1      32.155  28.235  27.806  1.00  0.00     0.017 C 
BRANCH  10  15
ATOM     15  C   UNL A   1      32.448  25.715  24.405  1.00  0.00     0.132 A 
ATOM     16  C   UNL A   1      32.566  25.494  22.059  1.00  0.00     0.046 A 
ATOM     17  C   UNL A   1      32.550  26.319  23.167  1.00  0.00     0.070 A 
ATOM     18  N   UNL A   1      32.555  24.154  22.174  1.00  0.00    -0.233 NA
ATOM     19  C   UNL A   1      32.461  23.651  23.414  1.00  0.00     0.161 A 
ATOM     20  N   UNL A   1      32.369  24.380  24.537  1.00  0.00    -0.211 NA
BRANCH  16  21
ATOM     21  C   UNL A   1      32.588  26.096  20.676  1.00  0.00     0.053 C 
ATOM     22  C   UNL A   1      32.556  25.071  19.547  1.00  0.00     0.011 C 
ENDBRANCH  16  21
BRANCH  19  23
ATOM     23  C   UNL A   1      32.441  22.190  23.533  1.00  0.00     0.019 A 
ATOM     24  C   UNL A   1      32.727  21.567  24.762  1.00  0.00     0.013 A 
ATOM     25  C   UNL A   1      32.170  21.367  22.425  1.00  0.00     0.013 A 
ATOM     26  C   UNL A   1      32.749  20.174  24.883  1.00  0.00     0.021 A 
ATOM     27  C   UNL A   1      32.208  19.972  22.537  1.00  0.00     0.021 A 
ATOM     28  C   UNL A   1      32.499  19.383  23.765  1.00  0.00     0.041 A 
ATOM     29  Cl  UNL A   1      32.559  17.669  23.898  1.00  0.00    -0.084 Cl
ENDBRANCH  19  23
ENDBRANCH  10  15
ENDBRANCH   6   9
ENDBRANCH   4   5
ENDBRANCH   3   4
ENDBRANCH   2   3
ENDBRANCH   1   2
BRANCH   1  30
ATOM     30  C   UNL A   1      33.254  34.556  28.536  1.00  0.00     0.021 C 
BRANCH  30  31
ATOM     31  C   UNL A   1      33.531  35.853  29.295  1.00  0.00     0.116 C 
BRANCH  31  32
ATOM     32  N   UNL A   1      32.622  36.037  30.416  1.00  0.00    -0.352 N 
ATOM     33  C   UNL A   1      32.674  35.522  31.684  1.00  0.00     0.251 C 
ATOM     34  H   UNL A   1      31.852  36.622  30.236  1.00  0.00     0.163 HD
ATOM     35  O   UNL A   1      31.700  35.637  32.429  1.00  0.00    -0.269 OA
BRANCH  33  36
ATOM     36  C   UNL A   1      33.886  34.824  32.160  1.00  0.00     0.039 A 
ATOM     37  C   UNL A   1      33.745  33.602  32.822  1.00  0.00     0.014 A 
ATOM     38  C   UNL A   1      35.155  35.388  31.991  1.00  0.00     0.014 A 
ATOM     39  C   UNL A   1      34.879  32.920  33.271  1.00  0.00     0.010 A 
ATOM     40  C   UNL A   1      36.288  34.680  32.385  1.00  0.00     0.010 A 
ATOM     41  C   UNL A   1      36.161  33.442  33.033  1.00  0.00    -0.014 A 
BRANCH  41  42
ATOM     42  C   UNL A   1      37.380  32.710  33.464  1.00  0.00     0.031 A 
ATOM     43  C   UNL A   1      38.069  33.088  34.747  1.00  0.00     0.074 A 
ATOM     44  C   UNL A   1      37.888  31.742  32.677  1.00  0.00     0.049 A 
ATOM     45  N   UNL A   1      39.187  32.632  35.249  1.00  0.00    -0.248 NA
ATOM     46  C   UNL A   1      37.427  34.132  35.564  1.00  0.00     0.031 C 
ATOM     47  C   UNL A   1      37.328  31.309  31.395  1.00  0.00     0.029 A 
ATOM     48  N   UNL A   1      39.000  30.952  32.834  1.00  0.00    -0.354 N 
ATOM     49  C   UNL A   1      39.382  33.327  36.438  1.00  0.00     0.074 A 
ATOM     50  C   UNL A   1      38.299  34.278  36.552  1.00  0.00     0.031 C 
ATOM     51  C   UNL A   1      38.087  30.322  30.892  1.00  0.00     0.029 A 
ATOM     52  C   UNL A   1      39.207  30.077  31.794  1.00  0.00     0.049 A 
ATOM     53  H   UNL A   1      39.592  31.006  33.619  1.00  0.00     0.167 HD
ATOM     54  C   UNL A   1      40.359  33.166  37.362  1.00  0.00     0.037 A 
ATOM     55  C   UNL A   1      40.196  29.185  31.586  1.00  0.00     0.037 A 
ATOM     56  C   UNL A   1      41.425  32.205  37.251  1.00  0.00     0.049 A 
ATOM     57  C   UNL A   1      41.285  29.047  32.618  1.00  0.00     0.074 A 
ATOM     58  C   UNL A   1      42.458  31.957  38.139  1.00  0.00     0.029 A 
ATOM     59  N   UNL A   1      41.589  31.324  36.193  1.00  0.00    -0.354 N 
ATOM     60  N   UNL A   1      41.436  29.695  33.748  1.00  0.00    -0.248 NA
ATOM     61  C   UNL A   1      42.334  28.053  32.349  1.00  0.00     0.031 C 
ATOM     62  C   UNL A   1      43.262  30.945  37.604  1.00  0.00     0.029 A 
ATOM     63  C   UNL A   1      42.707  30.534  36.403  1.00  0.00     0.049 A 
ATOM     64  H   UNL A   1      40.998  31.268  35.407  1.00  0.00     0.167 HD
ATOM     65  C   UNL A   1      42.577  29.163  34.341  1.00  0.00     0.074 A 
ATOM     66  C   UNL A   1      43.069  28.133  33.449  1.00  0.00     0.031 C 
ATOM     67  C   UNL A   1      43.166  29.497  35.515  1.00  0.00     0.037 A 
BRANCH  54  68
ATOM     68  C   UNL A   1      40.308  34.031  38.591  1.00  0.00     0.058 A 
ATOM     69  C   UNL A   1      41.022  35.238  38.662  1.00  0.00     0.135 A 
ATOM     70  C   UNL A   1      39.495  33.686  39.683  1.00  0.00     0.135 A 
ATOM     71  F   UNL A   1      41.829  35.606  37.653  1.00  0.00    -0.206 F 
ATOM     72  C   UNL A   1      40.947  36.064  39.778  1.00  0.00     0.059 A 
ATOM     73  C   UNL A   1      39.385  34.511  40.799  1.00  0.00     0.059 A 
ATOM     74  F   UNL A   1      38.792  32.543  39.669  1.00  0.00    -0.206 F 
ATOM     75  C   UNL A   1      40.122  35.694  40.840  1.00  0.00     0.060 A 
BRANCH  75  76
ATOM     76  S   UNL A   1      40.014  36.794  42.268  1.00  0.00     0.124 S 
ATOM     77  O   UNL A   1      39.421  37.987  41.672  1.00  0.00    -0.237 OA
ATOM     78  O   UNL A   1      39.152  36.044  43.176  1.00  0.00    -0.237 OA
ATOM     79  O   UNL A   1      41.402  36.932  42.696  1.00  0.00    -0.744 OA
ENDBRANCH  75  76
ENDBRANCH  54  68
BRANCH  55  80
ATOM     80  C   UNL A   1      40.212  28.346  30.358  1.00  0.00     0.058 A 
ATOM     81  C   UNL A   1      39.402  27.205  30.253  1.00  0.00     0.135 A 
ATOM     82  C   UNL A   1      41.062  28.644  29.282  1.00  0.00     0.135 A 
ATOM     83  F   UNL A   1      38.574  26.877  31.257  1.00  0.00    -0.206 F 
ATOM     84  C   UNL A   1      39.464  26.365  29.146  1.00  0.00     0.059 A 
ATOM     85  C   UNL A   1      41.122  27.834  28.152  1.00  0.00     0.059 A 
ATOM     86  F   UNL A   1      41.843  29.735  29.323  1.00  0.00    -0.206 F 
ATOM     87  C   UNL A   1      40.336  26.684  28.104  1.00  0.00     0.060 A 
BRANCH  87  88
ATOM     88  S   UNL A   1      40.419  25.585  26.673  1.00  0.00     0.124 S 
ATOM     89  O   UNL A   1      40.863  26.501  25.629  1.00  0.00    -0.237 OA
ATOM     90  O   UNL A   1      41.392  24.587  27.104  1.00  0.00    -0.237 OA
ATOM     91  O   UNL A   1      39.047  25.099  26.547  1.00  0.00    -0.744 OA
ENDBRANCH  87  88
ENDBRANCH  55  80
BRANCH  67  92
ATOM     92  C   UNL A   1      44.377  28.708  35.929  1.00  0.00     0.058 A 
ATOM     93  C   UNL A   1      45.675  29.119  35.589  1.00  0.00     0.135 A 
ATOM     94  C   UNL A   1      44.236  27.555  36.716  1.00  0.00     0.135 A 
ATOM     95  F   UNL A   1      45.862  30.211  34.831  1.00  0.00    -0.206 F 
ATOM     96  C   UNL A   1      46.793  28.397  35.995  1.00  0.00     0.059 A 
ATOM     97  C   UNL A   1      45.340  26.833  37.157  1.00  0.00     0.059 A 
ATOM     98  F   UNL A   1      43.015  27.128  37.078  1.00  0.00    -0.206 F 
ATOM     99  C   UNL A   1      46.615  27.256  36.781  1.00  0.00     0.060 A 
BRANCH  99 100
ATOM    100  S   UNL A   1      48.075  26.348  37.332  1.00  0.00     0.124 S 
ATOM    101  O   UNL A   1      49.091  26.837  36.406  1.00  0.00    -0.237 OA
ATOM    102  O   UNL A   1      48.214  26.791  38.716  1.00  0.00    -0.237 OA
ATOM    103  O   UNL A   1      47.689  24.950  37.164  1.00  0.00    -0.744 OA
ENDBRANCH  99 100
ENDBRANCH  67  92
ENDBRANCH  41  42
ENDBRANCH  33  36
ENDBRANCH  31  32
ENDBRANCH  30  31
ENDBRANCH   1  30
TORSDOF 19
ENDMDL
