MODEL 1
REMARK VINA RESULT:     -12.8      0.000      0.000
REMARK SMILES C=C[C@@H]1[C@@H](O)C[C@@H]2[C@@]3(CC[C@@]4(C)[C@@H]([C@H](C)CCC=C(C)C)CC[C@@]24C)C[C@@]13CCC(=O)NCCCCCCNC(=O)c1ccc(-c2c3nc(c(-c4c(F)cc(S(=O)(=O)[O-])cc4F)c4ccc([nH]4)c(-c4c(F)cc(S(=O)(=O)[O-])cc4F)c4nc(c(-c5c(F)cc(S(=O)(=O)[O-])cc5F)c5ccc2[nH]5)C=C4)C=C3)cc1
REMARK SMILES IDX 34 1 33 2 32 3 30 4 31 5 29 7 28 8 27 9 3 10 4 11 6 12 8 13
REMARK SMILES IDX 26 14 7 15 9 16 24 17 10 18 11 19 23 20 25 21 12 22 13 23
REMARK SMILES IDX 22 24 2 25 1 26 5 27 14 29 15 30 16 31 17 32 18 33 19 34
REMARK SMILES IDX 20 35 21 36 35 37 36 38 37 39 38 40 39 41 40 42 41 44 42 45
REMARK SMILES IDX 43 46 107 47 44 48 106 49 45 50 46 51 47 52 100 53 48 54
REMARK SMILES IDX 105 55 99 56 101 57 49 58 104 59 98 60 97 61 50 63 84 64
REMARK SMILES IDX 63 65 83 66 64 67 67 68 82 69 102 70 65 71 66 72 81 74
REMARK SMILES IDX 103 75 68 76 51 77 52 78 61 79 53 80 54 81 60 82 62 83 55 84
REMARK SMILES IDX 56 85 57 86 58 87 59 88 85 89 86 90 95 91 87 92 88 93 94 94
REMARK SMILES IDX 96 95 89 96 90 97 91 98 92 99 93 100 69 101 70 102 79 103
REMARK SMILES IDX 71 104 72 105 78 106 80 107 73 108 74 109 75 110 76 111
REMARK SMILES IDX 77 112
REMARK H PARENT 32 6 5 28 39 43 101 62 67 73
REMARK Flexibility Score: inf
ROOT
ATOM      1  C   UNL A   1      35.352  31.362  27.785  1.00  0.00     0.021 C 
ENDROOT
BRANCH   1   2
ATOM      2  C   UNL A   1      33.667  30.363  27.011  1.00  0.00     0.116 C 
BRANCH   2   3
ATOM      3  N   UNL A   1      32.335  29.860  27.600  1.00  0.00    -0.356 N 
ATOM      4  C   UNL A   1      31.718  28.700  27.236  1.00  0.00     0.220 C 
ATOM      5  O   UNL A   1      31.459  27.834  28.070  1.00  0.00    -0.275 OA
ATOM      6  H   UNL A   1      31.899  30.415  28.286  1.00  0.00     0.163 HD
BRANCH   4   7
ATOM      7  C   UNL A   1      31.378  28.563  25.791  1.00  0.00     0.100 C 
BRANCH   7   8
ATOM      8  C   UNL A   1      31.495  27.124  25.298  1.00  0.00     0.018 C 
BRANCH   8   9
ATOM      9  C   UNL A   1      32.671  26.809  24.324  1.00  0.00    -0.014 C 
ATOM     10  C   UNL A   1      32.122  26.955  22.483  1.00  0.00     0.047 C 
ATOM     11  C   UNL A   1      32.557  25.472  21.306  1.00  0.00     0.122 C 
ATOM     12  C   UNL A   1      33.765  24.042  21.840  1.00  0.00     0.037 C 
ATOM     13  C   UNL A   1      34.106  25.581  24.846  1.00  0.00    -0.019 C 
ATOM     14  C   UNL A   1      33.988  27.234  24.834  1.00  0.00     0.016 C 
ATOM     15  C   UNL A   1      34.426  24.006  23.691  1.00  0.00     0.005 C 
ATOM     16  C   UNL A   1      34.521  25.163  26.235  1.00  0.00     0.008 C 
ATOM     17  C   UNL A   1      35.632  23.041  23.958  1.00  0.00    -0.023 C 
ATOM     18  C   UNL A   1      35.868  24.481  26.299  1.00  0.00     0.008 C 
ATOM     19  C   UNL A   1      36.113  23.171  25.489  1.00  0.00    -0.024 C 
ATOM     20  C   UNL A   1      35.342  21.462  23.901  1.00  0.00     0.008 C 
ATOM     21  C   UNL A   1      36.400  23.050  22.617  1.00  0.00     0.012 C 
ATOM     22  C   UNL A   1      37.669  22.938  25.583  1.00  0.00     0.012 C 
ATOM     23  C   UNL A   1      35.432  21.918  26.255  1.00  0.00    -0.002 C 
ATOM     24  C   UNL A   1      35.672  20.819  25.235  1.00  0.00     0.005 C 
BRANCH  10  25
ATOM     25  C   UNL A   1      30.650  27.382  22.338  1.00  0.00    -0.028 C 
ATOM     26  C   UNL A   1      30.170  28.617  22.123  1.00  0.00     0.004 C 
ENDBRANCH  10  25
BRANCH  11  27
ATOM     27  O   UNL A   1      33.003  25.983  20.043  1.00  0.00    -0.392 OA
ATOM     28  H   UNL A   1      33.312  25.251  19.488  1.00  0.00     0.210 HD
ENDBRANCH  11  27
BRANCH  23  29
ATOM     29  C   UNL A   1      33.974  21.701  26.875  1.00  0.00    -0.010 C 
ATOM     30  C   UNL A   1      33.602  22.313  28.234  1.00  0.00     0.008 C 
BRANCH  29  31
ATOM     31  C   UNL A   1      33.197  20.417  26.457  1.00  0.00     0.008 C 
BRANCH  31  32
ATOM     32  C   UNL A   1      32.240  20.396  25.247  1.00  0.00     0.027 C 
BRANCH  32  33
ATOM     33  C   UNL A   1      32.329  19.264  24.266  1.00  0.00    -0.028 C 
ATOM     34  C   UNL A   1      32.256  19.418  22.925  1.00  0.00    -0.080 C 
ATOM     35  C   UNL A   1      32.505  18.260  21.997  1.00  0.00     0.039 C 
ATOM     36  C   UNL A   1      32.014  20.727  22.217  1.00  0.00     0.039 C 
ENDBRANCH  32  33
ENDBRANCH  31  32
ENDBRANCH  29  31
ENDBRANCH  23  29
ENDBRANCH   8   9
ENDBRANCH   7   8
ENDBRANCH   4   7
ENDBRANCH   2   3
ENDBRANCH   1   2
BRANCH   1  37
ATOM     37  C   UNL A   1      36.040  32.957  28.315  1.00  0.00     0.002 C 
BRANCH  37  38
ATOM     38  C   UNL A   1      37.006  33.735  29.282  1.00  0.00     0.002 C 
BRANCH  38  39
ATOM     39  C   UNL A   1      37.291  33.909  30.798  1.00  0.00     0.021 C 
BRANCH  39  40
ATOM     40  C   UNL A   1      37.795  32.786  31.671  1.00  0.00     0.116 C 
BRANCH  40  41
ATOM     41  N   UNL A   1      36.794  31.692  31.671  1.00  0.00    -0.352 N 
ATOM     42  C   UNL A   1      36.881  30.437  31.129  1.00  0.00     0.251 C 
ATOM     43  H   UNL A   1      35.945  31.896  32.126  1.00  0.00     0.163 HD
ATOM     44  O   UNL A   1      35.903  29.679  31.108  1.00  0.00    -0.269 OA
BRANCH  42  45
ATOM     45  C   UNL A   1      38.159  30.024  30.546  1.00  0.00     0.039 A 
ATOM     46  C   UNL A   1      38.406  30.200  29.184  1.00  0.00     0.014 A 
ATOM     47  C   UNL A   1      39.140  29.517  31.396  1.00  0.00     0.014 A 
ATOM     48  C   UNL A   1      39.673  29.906  28.688  1.00  0.00     0.010 A 
ATOM     49  C   UNL A   1      40.430  29.362  30.935  1.00  0.00     0.010 A 
ATOM     50  C   UNL A   1      40.690  29.500  29.566  1.00  0.00    -0.014 A 
BRANCH  50  51
ATOM     51  C   UNL A   1      42.005  29.048  29.072  1.00  0.00     0.031 A 
ATOM     52  C   UNL A   1      43.123  30.055  29.019  1.00  0.00     0.074 A 
ATOM     53  C   UNL A   1      42.161  27.790  28.625  1.00  0.00     0.049 A 
ATOM     54  N   UNL A   1      44.329  29.925  28.538  1.00  0.00    -0.248 NA
ATOM     55  C   UNL A   1      42.828  31.411  29.526  1.00  0.00     0.031 C 
ATOM     56  C   UNL A   1      41.111  26.770  28.567  1.00  0.00     0.029 A 
ATOM     57  N   UNL A   1      43.266  27.158  28.124  1.00  0.00    -0.354 N 
ATOM     58  C   UNL A   1      44.913  31.181  28.655  1.00  0.00     0.074 A 
ATOM     59  C   UNL A   1      43.912  32.080  29.173  1.00  0.00     0.031 C 
ATOM     60  C   UNL A   1      41.634  25.629  28.088  1.00  0.00     0.029 A 
ATOM     61  C   UNL A   1      43.044  25.846  27.782  1.00  0.00     0.049 A 
ATOM     62  H   UNL A   1      44.139  27.602  28.018  1.00  0.00     0.167 HD
ATOM     63  C   UNL A   1      46.190  31.540  28.398  1.00  0.00     0.037 A 
ATOM     64  C   UNL A   1      43.896  24.930  27.285  1.00  0.00     0.037 A 
ATOM     65  C   UNL A   1      47.191  30.607  27.966  1.00  0.00     0.049 A 
ATOM     66  C   UNL A   1      45.331  25.336  27.071  1.00  0.00     0.074 A 
ATOM     67  C   UNL A   1      48.540  30.823  27.762  1.00  0.00     0.029 A 
ATOM     68  N   UNL A   1      46.946  29.268  27.690  1.00  0.00    -0.354 N 
ATOM     69  N   UNL A   1      45.893  26.509  27.261  1.00  0.00    -0.248 NA
ATOM     70  C   UNL A   1      46.251  24.299  26.591  1.00  0.00     0.031 C 
ATOM     71  C   UNL A   1      49.107  29.620  27.330  1.00  0.00     0.029 A 
ATOM     72  C   UNL A   1      48.117  28.647  27.304  1.00  0.00     0.049 A 
ATOM     73  H   UNL A   1      46.069  28.829  27.760  1.00  0.00     0.167 HD
ATOM     74  C   UNL A   1      47.236  26.345  26.943  1.00  0.00     0.074 A 
ATOM     75  C   UNL A   1      47.404  24.954  26.568  1.00  0.00     0.031 C 
ATOM     76  C   UNL A   1      48.241  27.255  26.952  1.00  0.00     0.037 A 
BRANCH  63  77
ATOM     77  C   UNL A   1      46.571  32.978  28.609  1.00  0.00     0.058 A 
ATOM     78  C   UNL A   1      47.095  33.433  29.831  1.00  0.00     0.135 A 
ATOM     79  C   UNL A   1      46.424  33.913  27.572  1.00  0.00     0.135 A 
ATOM     80  F   UNL A   1      47.232  32.588  30.865  1.00  0.00    -0.206 F 
ATOM     81  C   UNL A   1      47.438  34.766  30.025  1.00  0.00     0.059 A 
ATOM     82  C   UNL A   1      46.788  35.247  27.734  1.00  0.00     0.059 A 
ATOM     83  F   UNL A   1      45.917  33.536  26.388  1.00  0.00    -0.206 F 
ATOM     84  C   UNL A   1      47.284  35.665  28.969  1.00  0.00     0.060 A 
BRANCH  84  85
ATOM     85  S   UNL A   1      47.757  37.388  29.227  1.00  0.00     0.124 S 
ATOM     86  O   UNL A   1      46.495  38.078  28.976  1.00  0.00    -0.237 OA
ATOM     87  O   UNL A   1      48.207  37.381  30.618  1.00  0.00    -0.237 OA
ATOM     88  O   UNL A   1      48.802  37.607  28.235  1.00  0.00    -0.744 OA
ENDBRANCH  84  85
ENDBRANCH  63  77
BRANCH  64  89
ATOM     89  C   UNL A   1      43.431  23.549  26.996  1.00  0.00     0.058 A 
ATOM     90  C   UNL A   1      43.284  22.604  28.023  1.00  0.00     0.135 A 
ATOM     91  C   UNL A   1      43.118  23.143  25.689  1.00  0.00     0.135 A 
ATOM     92  F   UNL A   1      43.567  22.942  29.290  1.00  0.00    -0.206 F 
ATOM     93  C   UNL A   1      42.874  21.300  27.762  1.00  0.00     0.059 A 
ATOM     94  C   UNL A   1      42.682  21.852  25.406  1.00  0.00     0.059 A 
ATOM     95  F   UNL A   1      43.220  24.014  24.672  1.00  0.00    -0.206 F 
ATOM     96  C   UNL A   1      42.578  20.932  26.449  1.00  0.00     0.060 A 
BRANCH  96  97
ATOM     97  S   UNL A   1      42.026  19.243  26.125  1.00  0.00     0.124 S 
ATOM     98  O   UNL A   1      42.340  18.584  27.388  1.00  0.00    -0.237 OA
ATOM     99  O   UNL A   1      40.606  19.432  25.839  1.00  0.00    -0.237 OA
ATOM    100  O   UNL A   1      42.838  18.838  24.982  1.00  0.00    -0.744 OA
ENDBRANCH  96  97
ENDBRANCH  64  89
BRANCH  76 101
ATOM    101  C   UNL A   1      49.607  26.770  26.567  1.00  0.00     0.058 A 
ATOM    102  C   UNL A   1      50.504  26.278  27.527  1.00  0.00     0.135 A 
ATOM    103  C   UNL A   1      49.990  26.726  25.217  1.00  0.00     0.135 A 
ATOM    104  F   UNL A   1      50.181  26.302  28.830  1.00  0.00    -0.206 F 
ATOM    105  C   UNL A   1      51.748  25.779  27.162  1.00  0.00     0.059 A 
ATOM    106  C   UNL A   1      51.218  26.204  24.829  1.00  0.00     0.059 A 
ATOM    107  F   UNL A   1      49.157  27.170  24.262  1.00  0.00    -0.206 F 
ATOM    108  C   UNL A   1      52.094  25.744  25.810  1.00  0.00     0.060 A 
BRANCH 108 109
ATOM    109  S   UNL A   1      53.696  25.054  25.347  1.00  0.00     0.124 S 
ATOM    110  O   UNL A   1      53.990  25.792  24.124  1.00  0.00    -0.237 OA
ATOM    111  O   UNL A   1      54.523  25.384  26.503  1.00  0.00    -0.237 OA
ATOM    112  O   UNL A   1      53.414  23.633  25.171  1.00  0.00    -0.744 OA
ENDBRANCH 108 109
ENDBRANCH  76 101
ENDBRANCH  50  51
ENDBRANCH  42  45
ENDBRANCH  40  41
ENDBRANCH  39  40
ENDBRANCH  38  39
ENDBRANCH  37  38
ENDBRANCH   1  37
TORSDOF 24
ENDMDL
MODEL 2
REMARK VINA RESULT:     -11.7      0.964      2.115
REMARK SMILES C=C[C@@H]1[C@@H](O)C[C@@H]2[C@@]3(CC[C@@]4(C)[C@@H]([C@H](C)CCC=C(C)C)CC[C@@]24C)C[C@@]13CCC(=O)NCCCCCCNC(=O)c1ccc(-c2c3nc(c(-c4c(F)cc(S(=O)(=O)[O-])cc4F)c4ccc([nH]4)c(-c4c(F)cc(S(=O)(=O)[O-])cc4F)c4nc(c(-c5c(F)cc(S(=O)(=O)[O-])cc5F)c5ccc2[nH]5)C=C4)C=C3)cc1
REMARK SMILES IDX 34 1 33 2 32 3 30 4 31 5 29 7 28 8 27 9 3 10 4 11 6 12 8 13
REMARK SMILES IDX 26 14 7 15 9 16 24 17 10 18 11 19 23 20 25 21 12 22 13 23
REMARK SMILES IDX 22 24 2 25 1 26 5 27 14 29 15 30 16 31 17 32 18 33 19 34
REMARK SMILES IDX 20 35 21 36 35 37 36 38 37 39 38 40 39 41 40 42 41 44 42 45
REMARK SMILES IDX 43 46 107 47 44 48 106 49 45 50 46 51 47 52 100 53 48 54
REMARK SMILES IDX 105 55 99 56 101 57 49 58 104 59 98 60 97 61 50 63 84 64
REMARK SMILES IDX 63 65 83 66 64 67 67 68 82 69 102 70 65 71 66 72 81 74
REMARK SMILES IDX 103 75 68 76 51 77 52 78 61 79 53 80 54 81 60 82 62 83 55 84
REMARK SMILES IDX 56 85 57 86 58 87 59 88 85 89 86 90 95 91 87 92 88 93 94 94
REMARK SMILES IDX 96 95 89 96 90 97 91 98 92 99 93 100 69 101 70 102 79 103
REMARK SMILES IDX 71 104 72 105 78 106 80 107 73 108 74 109 75 110 76 111
REMARK SMILES IDX 77 112
REMARK H PARENT 32 6 5 28 39 43 101 62 67 73
REMARK Flexibility Score: inf
ROOT
ATOM      1  C   UNL A   1      35.723  31.458  27.667  1.00  0.00     0.021 C 
ENDROOT
BRANCH   1   2
ATOM      2  C   UNL A   1      34.351  29.867  27.528  1.00  0.00     0.116 C 
BRANCH   2   3
ATOM      3  N   UNL A   1      32.853  29.691  27.845  1.00  0.00    -0.356 N 
ATOM      4  C   UNL A   1      31.996  28.919  27.119  1.00  0.00     0.220 C 
ATOM      5  O   UNL A   1      31.366  28.005  27.650  1.00  0.00    -0.275 OA
ATOM      6  H   UNL A   1      32.491  30.170  28.624  1.00  0.00     0.163 HD
BRANCH   4   7
ATOM      7  C   UNL A   1      31.869  29.258  25.673  1.00  0.00     0.100 C 
BRANCH   7   8
ATOM      8  C   UNL A   1      31.529  28.043  24.816  1.00  0.00     0.018 C 
BRANCH   8   9
ATOM      9  C   UNL A   1      32.666  27.486  23.906  1.00  0.00    -0.014 C 
ATOM     10  C   UNL A   1      32.134  27.451  22.054  1.00  0.00     0.047 C 
ATOM     11  C   UNL A   1      32.412  25.791  21.082  1.00  0.00     0.122 C 
ATOM     12  C   UNL A   1      33.464  24.324  21.811  1.00  0.00     0.037 C 
ATOM     13  C   UNL A   1      33.965  26.193  24.599  1.00  0.00    -0.019 C 
ATOM     14  C   UNL A   1      34.020  27.835  24.375  1.00  0.00     0.016 C 
ATOM     15  C   UNL A   1      34.118  24.458  23.660  1.00  0.00     0.005 C 
ATOM     16  C   UNL A   1      34.334  25.917  26.036  1.00  0.00     0.008 C 
ATOM     17  C   UNL A   1      35.218  23.416  24.064  1.00  0.00    -0.023 C 
ATOM     18  C   UNL A   1      35.603  25.113  26.204  1.00  0.00     0.008 C 
ATOM     19  C   UNL A   1      35.710  23.691  25.572  1.00  0.00    -0.024 C 
ATOM     20  C   UNL A   1      34.764  21.881  24.204  1.00  0.00     0.008 C 
ATOM     21  C   UNL A   1      35.982  23.174  22.742  1.00  0.00     0.012 C 
ATOM     22  C   UNL A   1      37.233  23.313  25.715  1.00  0.00     0.012 C 
ATOM     23  C   UNL A   1      34.902  22.624  26.483  1.00  0.00    -0.002 C 
ATOM     24  C   UNL A   1      35.026  21.384  25.614  1.00  0.00     0.005 C 
BRANCH  10  25
ATOM     25  C   UNL A   1      30.715  28.005  21.836  1.00  0.00    -0.028 C 
ATOM     26  C   UNL A   1      30.149  29.069  22.427  1.00  0.00     0.004 C 
ENDBRANCH  10  25
BRANCH  11  27
ATOM     27  O   UNL A   1      32.908  26.087  19.770  1.00  0.00    -0.392 OA
ATOM     28  H   UNL A   1      33.486  26.865  19.810  1.00  0.00     0.210 HD
ENDBRANCH  11  27
BRANCH  23  29
ATOM     29  C   UNL A   1      33.430  22.641  27.106  1.00  0.00    -0.010 C 
ATOM     30  C   UNL A   1      33.116  21.867  28.395  1.00  0.00     0.008 C 
BRANCH  29  31
ATOM     31  C   UNL A   1      32.238  22.875  26.131  1.00  0.00     0.008 C 
BRANCH  31  32
ATOM     32  C   UNL A   1      30.819  23.213  26.637  1.00  0.00     0.027 C 
BRANCH  32  33
ATOM     33  C   UNL A   1      30.183  24.506  26.218  1.00  0.00    -0.028 C 
ATOM     34  C   UNL A   1      30.010  24.882  24.932  1.00  0.00    -0.080 C 
ATOM     35  C   UNL A   1      29.230  26.120  24.585  1.00  0.00     0.039 C 
ATOM     36  C   UNL A   1      30.480  24.100  23.731  1.00  0.00     0.039 C 
ENDBRANCH  32  33
ENDBRANCH  31  32
ENDBRANCH  29  31
ENDBRANCH  23  29
ENDBRANCH   8   9
ENDBRANCH   7   8
ENDBRANCH   4   7
ENDBRANCH   2   3
ENDBRANCH   1   2
BRANCH   1  37
ATOM     37  C   UNL A   1      36.045  33.108  28.355  1.00  0.00     0.002 C 
BRANCH  37  38
ATOM     38  C   UNL A   1      36.822  33.985  29.404  1.00  0.00     0.002 C 
BRANCH  38  39
ATOM     39  C   UNL A   1      37.221  33.976  30.905  1.00  0.00     0.021 C 
BRANCH  39  40
ATOM     40  C   UNL A   1      37.870  32.788  31.572  1.00  0.00     0.116 C 
BRANCH  40  41
ATOM     41  N   UNL A   1      36.888  31.680  31.643  1.00  0.00    -0.352 N 
ATOM     42  C   UNL A   1      36.972  30.412  31.131  1.00  0.00     0.251 C 
ATOM     43  H   UNL A   1      36.055  31.884  32.126  1.00  0.00     0.163 HD
ATOM     44  O   UNL A   1      36.007  29.640  31.170  1.00  0.00    -0.269 OA
BRANCH  42  45
ATOM     45  C   UNL A   1      38.232  30.002  30.508  1.00  0.00     0.039 A 
ATOM     46  C   UNL A   1      38.432  30.173  29.137  1.00  0.00     0.014 A 
ATOM     47  C   UNL A   1      39.244  29.505  31.326  1.00  0.00     0.014 A 
ATOM     48  C   UNL A   1      39.683  29.882  28.600  1.00  0.00     0.010 A 
ATOM     49  C   UNL A   1      40.518  29.353  30.822  1.00  0.00     0.010 A 
ATOM     50  C   UNL A   1      40.731  29.485  29.445  1.00  0.00    -0.014 A 
BRANCH  50  51
ATOM     51  C   UNL A   1      42.030  29.037  28.909  1.00  0.00     0.031 A 
ATOM     52  C   UNL A   1      43.129  30.058  28.775  1.00  0.00     0.074 A 
ATOM     53  C   UNL A   1      42.188  27.767  28.497  1.00  0.00     0.049 A 
ATOM     54  N   UNL A   1      44.315  29.931  28.245  1.00  0.00    -0.248 NA
ATOM     55  C   UNL A   1      42.833  31.426  29.249  1.00  0.00     0.031 C 
ATOM     56  C   UNL A   1      41.153  26.730  28.520  1.00  0.00     0.029 A 
ATOM     57  N   UNL A   1      43.281  27.135  27.970  1.00  0.00    -0.354 N 
ATOM     58  C   UNL A   1      44.882  31.199  28.295  1.00  0.00     0.074 A 
ATOM     59  C   UNL A   1      43.890  32.099  28.827  1.00  0.00     0.031 C 
ATOM     60  C   UNL A   1      41.674  25.581  28.056  1.00  0.00     0.029 A 
ATOM     61  C   UNL A   1      43.066  25.810  27.682  1.00  0.00     0.049 A 
ATOM     62  H   UNL A   1      44.141  27.588  27.811  1.00  0.00     0.167 HD
ATOM     63  C   UNL A   1      46.141  31.568  27.971  1.00  0.00     0.037 A 
ATOM     64  C   UNL A   1      43.911  24.891  27.178  1.00  0.00     0.037 A 
ATOM     65  C   UNL A   1      47.137  30.636  27.527  1.00  0.00     0.049 A 
ATOM     66  C   UNL A   1      45.329  25.311  26.889  1.00  0.00     0.074 A 
ATOM     67  C   UNL A   1      48.472  30.865  27.257  1.00  0.00     0.029 A 
ATOM     68  N   UNL A   1      46.904  29.285  27.306  1.00  0.00    -0.354 N 
ATOM     69  N   UNL A   1      45.879  26.497  27.015  1.00  0.00    -0.248 NA
ATOM     70  C   UNL A   1      46.244  24.272  26.403  1.00  0.00     0.031 C 
ATOM     71  C   UNL A   1      49.040  29.657  26.841  1.00  0.00     0.029 A 
ATOM     72  C   UNL A   1      48.067  28.669  26.890  1.00  0.00     0.049 A 
ATOM     73  H   UNL A   1      46.037  28.835  27.429  1.00  0.00     0.167 HD
ATOM     74  C   UNL A   1      47.209  26.343  26.644  1.00  0.00     0.074 A 
ATOM     75  C   UNL A   1      47.384  24.943  26.309  1.00  0.00     0.031 C 
ATOM     76  C   UNL A   1      48.198  27.268  26.579  1.00  0.00     0.037 A 
BRANCH  63  77
ATOM     77  C   UNL A   1      46.507  33.018  28.117  1.00  0.00     0.058 A 
ATOM     78  C   UNL A   1      46.315  33.938  27.073  1.00  0.00     0.135 A 
ATOM     79  C   UNL A   1      47.043  33.498  29.323  1.00  0.00     0.135 A 
ATOM     80  F   UNL A   1      45.831  33.529  25.890  1.00  0.00    -0.206 F 
ATOM     81  C   UNL A   1      46.664  35.278  27.210  1.00  0.00     0.059 A 
ATOM     82  C   UNL A   1      47.371  34.841  29.492  1.00  0.00     0.059 A 
ATOM     83  F   UNL A   1      47.258  32.660  30.349  1.00  0.00    -0.206 F 
ATOM     84  C   UNL A   1      47.188  35.720  28.425  1.00  0.00     0.060 A 
BRANCH  84  85
ATOM     85  S   UNL A   1      47.611  37.466  28.597  1.00  0.00     0.124 S 
ATOM     86  O   UNL A   1      48.288  37.476  29.892  1.00  0.00    -0.237 OA
ATOM     87  O   UNL A   1      48.469  37.693  27.435  1.00  0.00    -0.237 OA
ATOM     88  O   UNL A   1      46.318  38.136  28.558  1.00  0.00    -0.744 OA
ENDBRANCH  84  85
ENDBRANCH  63  77
BRANCH  64  89
ATOM     89  C   UNL A   1      43.457  23.493  26.956  1.00  0.00     0.058 A 
ATOM     90  C   UNL A   1      43.112  23.038  25.674  1.00  0.00     0.135 A 
ATOM     91  C   UNL A   1      43.361  22.580  28.018  1.00  0.00     0.135 A 
ATOM     92  F   UNL A   1      43.188  23.870  24.625  1.00  0.00    -0.206 F 
ATOM     93  C   UNL A   1      42.661  21.740  25.457  1.00  0.00     0.059 A 
ATOM     94  C   UNL A   1      42.937  21.269  27.822  1.00  0.00     0.059 A 
ATOM     95  F   UNL A   1      43.700  22.957  29.261  1.00  0.00    -0.206 F 
ATOM     96  C   UNL A   1      42.574  20.862  26.539  1.00  0.00     0.060 A 
BRANCH  96  97
ATOM     97  S   UNL A   1      42.007  19.173  26.243  1.00  0.00     0.124 S 
ATOM     98  O   UNL A   1      40.625  19.394  25.834  1.00  0.00    -0.237 OA
ATOM     99  O   UNL A   1      42.918  18.722  25.194  1.00  0.00    -0.237 OA
ATOM    100  O   UNL A   1      42.188  18.526  27.538  1.00  0.00    -0.744 OA
ENDBRANCH  96  97
ENDBRANCH  64  89
BRANCH  76 101
ATOM    101  C   UNL A   1      49.554  26.791  26.151  1.00  0.00     0.058 A 
ATOM    102  C   UNL A   1      49.975  26.892  24.817  1.00  0.00     0.135 A 
ATOM    103  C   UNL A   1      50.465  26.299  27.098  1.00  0.00     0.135 A 
ATOM    104  F   UNL A   1      49.137  27.355  23.875  1.00  0.00    -0.206 F 
ATOM    105  C   UNL A   1      51.251  26.499  24.432  1.00  0.00     0.059 A 
ATOM    106  C   UNL A   1      51.756  25.929  26.739  1.00  0.00     0.059 A 
ATOM    107  F   UNL A   1      50.112  26.200  28.390  1.00  0.00    -0.206 F 
ATOM    108  C   UNL A   1      52.135  26.022  25.401  1.00  0.00     0.060 A 
BRANCH 108 109
ATOM    109  S   UNL A   1      53.802  25.556  24.894  1.00  0.00     0.124 S 
ATOM    110  O   UNL A   1      53.745  24.102  25.001  1.00  0.00    -0.237 OA
ATOM    111  O   UNL A   1      53.877  26.091  23.538  1.00  0.00    -0.237 OA
ATOM    112  O   UNL A   1      54.653  26.225  25.872  1.00  0.00    -0.744 OA
ENDBRANCH 108 109
ENDBRANCH  76 101
ENDBRANCH  50  51
ENDBRANCH  42  45
ENDBRANCH  40  41
ENDBRANCH  39  40
ENDBRANCH  38  39
ENDBRANCH  37  38
ENDBRANCH   1  37
TORSDOF 24
ENDMDL
MODEL 3
REMARK VINA RESULT:     -11.4      3.390      6.260
REMARK SMILES C=C[C@@H]1[C@@H](O)C[C@@H]2[C@@]3(CC[C@@]4(C)[C@@H]([C@H](C)CCC=C(C)C)CC[C@@]24C)C[C@@]13CCC(=O)NCCCCCCNC(=O)c1ccc(-c2c3nc(c(-c4c(F)cc(S(=O)(=O)[O-])cc4F)c4ccc([nH]4)c(-c4c(F)cc(S(=O)(=O)[O-])cc4F)c4nc(c(-c5c(F)cc(S(=O)(=O)[O-])cc5F)c5ccc2[nH]5)C=C4)C=C3)cc1
REMARK SMILES IDX 34 1 33 2 32 3 30 4 31 5 29 7 28 8 27 9 3 10 4 11 6 12 8 13
REMARK SMILES IDX 26 14 7 15 9 16 24 17 10 18 11 19 23 20 25 21 12 22 13 23
REMARK SMILES IDX 22 24 2 25 1 26 5 27 14 29 15 30 16 31 17 32 18 33 19 34
REMARK SMILES IDX 20 35 21 36 35 37 36 38 37 39 38 40 39 41 40 42 41 44 42 45
REMARK SMILES IDX 43 46 107 47 44 48 106 49 45 50 46 51 47 52 100 53 48 54
REMARK SMILES IDX 105 55 99 56 101 57 49 58 104 59 98 60 97 61 50 63 84 64
REMARK SMILES IDX 63 65 83 66 64 67 67 68 82 69 102 70 65 71 66 72 81 74
REMARK SMILES IDX 103 75 68 76 51 77 52 78 61 79 53 80 54 81 60 82 62 83 55 84
REMARK SMILES IDX 56 85 57 86 58 87 59 88 85 89 86 90 95 91 87 92 88 93 94 94
REMARK SMILES IDX 96 95 89 96 90 97 91 98 92 99 93 100 69 101 70 102 79 103
REMARK SMILES IDX 71 104 72 105 78 106 80 107 73 108 74 109 75 110 76 111
REMARK SMILES IDX 77 112
REMARK H PARENT 32 6 5 28 39 43 101 62 67 73
REMARK Flexibility Score: inf
ROOT
ATOM      1  C   UNL A   1      39.565  27.116  27.906  1.00  0.00     0.021 C 
ENDROOT
BRANCH   1   2
ATOM      2  C   UNL A   1      40.179  25.110  27.724  1.00  0.00     0.116 C 
BRANCH   2   3
ATOM      3  N   UNL A   1      39.454  23.751  27.671  1.00  0.00    -0.356 N 
ATOM      4  C   UNL A   1      39.069  23.126  26.522  1.00  0.00     0.220 C 
ATOM      5  O   UNL A   1      39.462  21.990  26.260  1.00  0.00    -0.275 OA
ATOM      6  H   UNL A   1      39.254  23.305  28.525  1.00  0.00     0.163 HD
BRANCH   4   7
ATOM      7  C   UNL A   1      38.151  23.892  25.632  1.00  0.00     0.100 C 
BRANCH   7   8
ATOM      8  C   UNL A   1      37.243  22.984  24.809  1.00  0.00     0.018 C 
BRANCH   8   9
ATOM      9  C   UNL A   1      35.916  22.519  25.482  1.00  0.00    -0.014 C 
ATOM     10  C   UNL A   1      35.684  20.612  25.342  1.00  0.00     0.047 C 
ATOM     11  C   UNL A   1      33.972  19.972  24.682  1.00  0.00     0.122 C 
ATOM     12  C   UNL A   1      32.434  21.149  24.471  1.00  0.00     0.037 C 
ATOM     13  C   UNL A   1      34.365  23.713  25.573  1.00  0.00    -0.019 C 
ATOM     14  C   UNL A   1      35.547  23.316  26.666  1.00  0.00     0.016 C 
ATOM     15  C   UNL A   1      32.674  23.077  24.766  1.00  0.00     0.005 C 
ATOM     16  C   UNL A   1      34.334  25.217  25.461  1.00  0.00     0.008 C 
ATOM     17  C   UNL A   1      31.351  23.908  24.905  1.00  0.00    -0.023 C 
ATOM     18  C   UNL A   1      33.036  25.845  25.915  1.00  0.00     0.008 C 
ATOM     19  C   UNL A   1      31.698  25.449  25.217  1.00  0.00    -0.024 C 
ATOM     20  C   UNL A   1      30.456  24.096  23.584  1.00  0.00     0.008 C 
ATOM     21  C   UNL A   1      30.367  22.906  25.551  1.00  0.00     0.012 C 
ATOM     22  C   UNL A   1      30.579  26.075  26.133  1.00  0.00     0.012 C 
ATOM     23  C   UNL A   1      31.579  26.207  23.792  1.00  0.00    -0.002 C 
ATOM     24  C   UNL A   1      30.308  25.571  23.256  1.00  0.00     0.005 C 
BRANCH  10  25
ATOM     25  C   UNL A   1      36.860  19.924  24.626  1.00  0.00    -0.028 C 
ATOM     26  C   UNL A   1      37.962  19.393  25.180  1.00  0.00     0.004 C 
ENDBRANCH  10  25
BRANCH  11  27
ATOM     27  O   UNL A   1      33.560  18.836  25.454  1.00  0.00    -0.392 OA
ATOM     28  H   UNL A   1      32.624  18.927  25.690  1.00  0.00     0.210 HD
ENDBRANCH  11  27
BRANCH  23  29
ATOM     29  C   UNL A   1      32.598  26.368  22.571  1.00  0.00    -0.010 C 
ATOM     30  C   UNL A   1      32.909  25.179  21.648  1.00  0.00     0.008 C 
BRANCH  29  31
ATOM     31  C   UNL A   1      33.706  27.455  22.696  1.00  0.00     0.008 C 
BRANCH  31  32
ATOM     32  C   UNL A   1      33.378  28.924  23.036  1.00  0.00     0.027 C 
BRANCH  32  33
ATOM     33  C   UNL A   1      33.166  29.311  24.470  1.00  0.00    -0.028 C 
ATOM     34  C   UNL A   1      31.956  29.575  25.012  1.00  0.00    -0.080 C 
ATOM     35  C   UNL A   1      31.803  29.808  26.490  1.00  0.00     0.039 C 
ATOM     36  C   UNL A   1      30.652  29.581  24.255  1.00  0.00     0.039 C 
ENDBRANCH  32  33
ENDBRANCH  31  32
ENDBRANCH  29  31
ENDBRANCH  23  29
ENDBRANCH   8   9
ENDBRANCH   7   8
ENDBRANCH   4   7
ENDBRANCH   2   3
ENDBRANCH   1   2
BRANCH   1  37
ATOM     37  C   UNL A   1      38.592  28.307  28.872  1.00  0.00     0.002 C 
BRANCH  37  38
ATOM     38  C   UNL A   1      37.420  29.357  28.902  1.00  0.00     0.002 C 
BRANCH  38  39
ATOM     39  C   UNL A   1      36.141  29.695  29.714  1.00  0.00     0.021 C 
BRANCH  39  40
ATOM     40  C   UNL A   1      35.567  31.088  29.795  1.00  0.00     0.116 C 
BRANCH  40  41
ATOM     41  N   UNL A   1      35.441  31.473  31.221  1.00  0.00    -0.352 N 
ATOM     42  C   UNL A   1      36.420  31.796  32.122  1.00  0.00     0.251 C 
ATOM     43  H   UNL A   1      34.521  31.501  31.571  1.00  0.00     0.163 HD
ATOM     44  O   UNL A   1      36.158  31.976  33.318  1.00  0.00    -0.269 OA
BRANCH  42  45
ATOM     45  C   UNL A   1      37.799  31.894  31.638  1.00  0.00     0.039 A 
ATOM     46  C   UNL A   1      38.819  31.167  32.253  1.00  0.00     0.014 A 
ATOM     47  C   UNL A   1      38.050  32.673  30.511  1.00  0.00     0.014 A 
ATOM     48  C   UNL A   1      40.094  31.192  31.693  1.00  0.00     0.010 A 
ATOM     49  C   UNL A   1      39.271  32.585  29.877  1.00  0.00     0.010 A 
ATOM     50  C   UNL A   1      40.317  31.891  30.496  1.00  0.00    -0.014 A 
BRANCH  50  51
ATOM     51  C   UNL A   1      41.672  32.059  29.940  1.00  0.00     0.031 A 
ATOM     52  C   UNL A   1      42.293  33.430  29.995  1.00  0.00     0.074 A 
ATOM     53  C   UNL A   1      42.291  31.024  29.346  1.00  0.00     0.049 A 
ATOM     54  N   UNL A   1      43.422  33.846  29.489  1.00  0.00    -0.248 NA
ATOM     55  C   UNL A   1      41.512  34.492  30.660  1.00  0.00     0.031 C 
ATOM     56  C   UNL A   1      41.731  29.680  29.180  1.00  0.00     0.029 A 
ATOM     57  N   UNL A   1      43.526  30.944  28.763  1.00  0.00    -0.354 N 
ATOM     58  C   UNL A   1      43.464  35.211  29.747  1.00  0.00     0.074 A 
ATOM     59  C   UNL A   1      42.219  35.573  30.377  1.00  0.00     0.031 C 
ATOM     60  C   UNL A   1      42.637  28.901  28.564  1.00  0.00     0.029 A 
ATOM     61  C   UNL A   1      43.825  29.697  28.273  1.00  0.00     0.049 A 
ATOM     62  H   UNL A   1      44.143  31.709  28.702  1.00  0.00     0.167 HD
ATOM     63  C   UNL A   1      44.476  36.078  29.521  1.00  0.00     0.037 A 
ATOM     64  C   UNL A   1      44.942  29.257  27.663  1.00  0.00     0.037 A 
ATOM     65  C   UNL A   1      45.739  35.675  28.974  1.00  0.00     0.049 A 
ATOM     66  C   UNL A   1      46.083  30.225  27.484  1.00  0.00     0.074 A 
ATOM     67  C   UNL A   1      46.877  36.434  28.782  1.00  0.00     0.029 A 
ATOM     68  N   UNL A   1      46.033  34.388  28.545  1.00  0.00    -0.354 N 
ATOM     69  N   UNL A   1      46.142  31.498  27.805  1.00  0.00    -0.248 NA
ATOM     70  C   UNL A   1      47.310  29.701  26.876  1.00  0.00     0.031 C 
ATOM     71  C   UNL A   1      47.851  35.612  28.207  1.00  0.00     0.029 A 
ATOM     72  C   UNL A   1      47.330  34.332  28.077  1.00  0.00     0.049 A 
ATOM     73  H   UNL A   1      45.408  33.628  28.571  1.00  0.00     0.167 HD
ATOM     74  C   UNL A   1      47.418  31.921  27.457  1.00  0.00     0.074 A 
ATOM     75  C   UNL A   1      48.105  30.762  26.919  1.00  0.00     0.031 C 
ATOM     76  C   UNL A   1      47.977  33.152  27.562  1.00  0.00     0.037 A 
BRANCH  63  77
ATOM     77  C   UNL A   1      44.265  37.518  29.896  1.00  0.00     0.058 A 
ATOM     78  C   UNL A   1      44.523  37.989  31.194  1.00  0.00     0.135 A 
ATOM     79  C   UNL A   1      43.812  38.442  28.942  1.00  0.00     0.135 A 
ATOM     80  F   UNL A   1      44.932  37.143  32.154  1.00  0.00    -0.206 F 
ATOM     81  C   UNL A   1      44.317  39.320  31.540  1.00  0.00     0.059 A 
ATOM     82  C   UNL A   1      43.627  39.785  29.257  1.00  0.00     0.059 A 
ATOM     83  F   UNL A   1      43.538  38.043  27.690  1.00  0.00    -0.206 F 
ATOM     84  C   UNL A   1      43.872  40.212  30.563  1.00  0.00     0.060 A 
BRANCH  84  85
ATOM     85  S   UNL A   1      43.634  41.942  31.019  1.00  0.00     0.124 S 
ATOM     86  O   UNL A   1      44.109  42.628  29.819  1.00  0.00    -0.237 OA
ATOM     87  O   UNL A   1      42.193  42.006  31.254  1.00  0.00    -0.237 OA
ATOM     88  O   UNL A   1      44.467  42.100  32.204  1.00  0.00    -0.744 OA
ENDBRANCH  84  85
ENDBRANCH  63  77
BRANCH  64  89
ATOM     89  C   UNL A   1      45.049  27.843  27.218  1.00  0.00     0.058 A 
ATOM     90  C   UNL A   1      44.544  27.433  25.975  1.00  0.00     0.135 A 
ATOM     91  C   UNL A   1      45.663  26.871  28.024  1.00  0.00     0.135 A 
ATOM     92  F   UNL A   1      43.950  28.325  25.167  1.00  0.00    -0.206 F 
ATOM     93  C   UNL A   1      44.615  26.108  25.559  1.00  0.00     0.059 A 
ATOM     94  C   UNL A   1      45.769  25.543  27.618  1.00  0.00     0.059 A 
ATOM     95  F   UNL A   1      46.183  27.213  29.213  1.00  0.00    -0.206 F 
ATOM     96  C   UNL A   1      45.228  25.168  26.390  1.00  0.00     0.060 A 
BRANCH  96  97
ATOM     97  S   UNL A   1      45.334  23.454  25.830  1.00  0.00     0.124 S 
ATOM     98  O   UNL A   1      44.611  23.513  24.565  1.00  0.00    -0.237 OA
ATOM     99  O   UNL A   1      46.777  23.251  25.731  1.00  0.00    -0.237 OA
ATOM    100  O   UNL A   1      44.677  22.710  26.900  1.00  0.00    -0.744 OA
ENDBRANCH  96  97
ENDBRANCH  64  89
BRANCH  76 101
ATOM    101  C   UNL A   1      49.400  33.299  27.109  1.00  0.00     0.058 A 
ATOM    102  C   UNL A   1      50.467  32.841  27.896  1.00  0.00     0.135 A 
ATOM    103  C   UNL A   1      49.690  33.833  25.845  1.00  0.00     0.135 A 
ATOM    104  F   UNL A   1      50.237  32.324  29.114  1.00  0.00    -0.206 F 
ATOM    105  C   UNL A   1      51.780  32.929  27.451  1.00  0.00     0.059 A 
ATOM    106  C   UNL A   1      50.994  33.904  25.369  1.00  0.00     0.059 A 
ATOM    107  F   UNL A   1      48.699  34.269  25.050  1.00  0.00    -0.206 F 
ATOM    108  C   UNL A   1      52.032  33.459  26.185  1.00  0.00     0.060 A 
BRANCH 108 109
ATOM    109  S   UNL A   1      53.739  33.528  25.603  1.00  0.00     0.124 S 
ATOM    110  O   UNL A   1      53.753  32.459  24.610  1.00  0.00    -0.237 OA
ATOM    111  O   UNL A   1      53.835  34.885  25.076  1.00  0.00    -0.237 OA
ATOM    112  O   UNL A   1      54.519  33.274  26.810  1.00  0.00    -0.744 OA
ENDBRANCH 108 109
ENDBRANCH  76 101
ENDBRANCH  50  51
ENDBRANCH  42  45
ENDBRANCH  40  41
ENDBRANCH  39  40
ENDBRANCH  38  39
ENDBRANCH  37  38
ENDBRANCH   1  37
TORSDOF 24
ENDMDL
