MODEL 1
REMARK VINA RESULT:     -10.8      0.000      0.000
REMARK SMILES O=C(NCCCCCCNC(=O)[C@@H]1C[C@@H](O)CN1C(=O)c1ccccc1)c1ccc(-c2c3nc(c(-c4c(F)cc(S(=O)(=O)[O-])cc4F)c4ccc([nH]4)c(-c4c(F)cc(S(=O)(=O)[O-])cc4F)c4nc(c(-c5c(F)cc(S(=O)(=O)[O-])cc5F)c5ccc2[nH]5)C=C4)C=C3)cc1
REMARK SMILES IDX 6 1 5 2 4 3 3 4 1 5 2 6 27 8 28 9 92 10 29 11 91 12 30 13
REMARK SMILES IDX 31 14 32 15 85 16 33 17 90 18 84 19 86 20 34 21 89 22 83 23
REMARK SMILES IDX 82 24 35 26 69 27 48 28 68 29 49 30 52 31 67 32 87 33 50 34
REMARK SMILES IDX 51 35 66 37 88 38 53 39 36 40 37 41 46 42 38 43 39 44 45 45
REMARK SMILES IDX 47 46 40 47 41 48 42 49 43 50 44 51 70 52 71 53 80 54 72 55
REMARK SMILES IDX 73 56 79 57 81 58 74 59 75 60 76 61 77 62 78 63 54 64 55 65
REMARK SMILES IDX 64 66 56 67 57 68 63 69 65 70 58 71 59 72 60 73 61 74 62 75
REMARK SMILES IDX 7 76 8 77 9 78 10 79 11 80 12 82 13 83 14 84 18 85 15 86
REMARK SMILES IDX 17 87 19 88 20 89 21 90 22 91 26 92 23 93 25 94 24 95 16 96
REMARK H PARENT 3 7 86 25 52 36 10 81 16 97
REMARK Flexibility Score: inf
ROOT
ATOM      1  C   UNL A   1      38.132  22.281  24.957  1.00  0.00     0.002 C 
ENDROOT
BRANCH   1   2
ATOM      2  C   UNL A   1      37.809  23.088  26.215  1.00  0.00     0.021 C 
BRANCH   2   3
ATOM      3  C   UNL A   1      39.017  23.630  26.967  1.00  0.00     0.116 C 
BRANCH   3   4
ATOM      4  N   UNL A   1      40.066  24.118  26.087  1.00  0.00    -0.352 N 
ATOM      5  O   UNL A   1      41.534  25.615  25.251  1.00  0.00    -0.269 OA
ATOM      6  C   UNL A   1      40.765  25.300  26.156  1.00  0.00     0.251 C 
ATOM      7  H   UNL A   1      40.307  23.521  25.342  1.00  0.00     0.163 HD
BRANCH   6   8
ATOM      8  C   UNL A   1      40.563  26.202  27.312  1.00  0.00     0.039 A 
ATOM      9  C   UNL A   1      41.295  27.387  27.424  1.00  0.00     0.014 A 
ATOM     10  C   UNL A   1      39.639  25.855  28.302  1.00  0.00     0.014 A 
ATOM     11  C   UNL A   1      41.209  28.143  28.587  1.00  0.00     0.010 A 
ATOM     12  C   UNL A   1      39.490  26.666  29.433  1.00  0.00     0.010 A 
ATOM     13  C   UNL A   1      40.296  27.800  29.599  1.00  0.00    -0.014 A 
BRANCH  13  14
ATOM     14  C   UNL A   1      40.173  28.697  30.779  1.00  0.00     0.031 A 
ATOM     15  C   UNL A   1      41.096  28.579  31.960  1.00  0.00     0.074 A 
ATOM     16  C   UNL A   1      39.244  29.674  30.740  1.00  0.00     0.049 A 
ATOM     17  N   UNL A   1      41.165  29.338  33.025  1.00  0.00    -0.248 NA
ATOM     18  C   UNL A   1      42.059  27.468  31.954  1.00  0.00     0.031 C 
ATOM     19  C   UNL A   1      38.270  29.864  29.660  1.00  0.00     0.029 A 
ATOM     20  N   UNL A   1      38.985  30.705  31.603  1.00  0.00    -0.354 N 
ATOM     21  C   UNL A   1      42.170  28.796  33.819  1.00  0.00     0.074 A 
ATOM     22  C   UNL A   1      42.664  27.625  33.125  1.00  0.00     0.031 C 
ATOM     23  C   UNL A   1      37.561  30.976  29.896  1.00  0.00     0.029 A 
ATOM     24  C   UNL A   1      37.991  31.550  31.166  1.00  0.00     0.049 A 
ATOM     25  H   UNL A   1      39.463  30.831  32.454  1.00  0.00     0.167 HD
ATOM     26  C   UNL A   1      42.643  29.242  35.008  1.00  0.00     0.037 A 
ATOM     27  C   UNL A   1      37.476  32.660  31.724  1.00  0.00     0.037 A 
ATOM     28  C   UNL A   1      42.150  30.414  35.689  1.00  0.00     0.049 A 
ATOM     29  C   UNL A   1      38.036  33.145  33.030  1.00  0.00     0.074 A 
ATOM     30  C   UNL A   1      42.564  30.948  36.899  1.00  0.00     0.029 A 
ATOM     31  N   UNL A   1      41.138  31.238  35.219  1.00  0.00    -0.354 N 
ATOM     32  N   UNL A   1      38.995  32.624  33.756  1.00  0.00    -0.248 NA
ATOM     33  C   UNL A   1      37.445  34.365  33.591  1.00  0.00     0.031 C 
ATOM     34  C   UNL A   1      41.785  32.078  37.171  1.00  0.00     0.029 A 
ATOM     35  C   UNL A   1      40.911  32.271  36.115  1.00  0.00     0.049 A 
ATOM     36  H   UNL A   1      40.652  31.109  34.373  1.00  0.00     0.167 HD
ATOM     37  C   UNL A   1      39.121  33.451  34.864  1.00  0.00     0.074 A 
ATOM     38  C   UNL A   1      38.164  34.526  34.693  1.00  0.00     0.031 C 
ATOM     39  C   UNL A   1      39.945  33.326  35.933  1.00  0.00     0.037 A 
BRANCH  26  40
ATOM     40  C   UNL A   1      43.752  28.461  35.659  1.00  0.00     0.058 A 
ATOM     41  C   UNL A   1      43.483  27.409  36.548  1.00  0.00     0.135 A 
ATOM     42  C   UNL A   1      45.095  28.724  35.345  1.00  0.00     0.135 A 
ATOM     43  F   UNL A   1      42.217  27.125  36.894  1.00  0.00    -0.206 F 
ATOM     44  C   UNL A   1      44.506  26.656  37.116  1.00  0.00     0.059 A 
ATOM     45  C   UNL A   1      46.134  27.970  35.885  1.00  0.00     0.059 A 
ATOM     46  F   UNL A   1      45.409  29.718  34.499  1.00  0.00    -0.206 F 
ATOM     47  C   UNL A   1      45.830  26.944  36.779  1.00  0.00     0.060 A 
BRANCH  47  48
ATOM     48  S   UNL A   1      47.145  25.946  37.510  1.00  0.00     0.124 S 
ATOM     49  O   UNL A   1      48.225  26.138  36.546  1.00  0.00    -0.237 OA
ATOM     50  O   UNL A   1      47.337  26.584  38.809  1.00  0.00    -0.237 OA
ATOM     51  O   UNL A   1      46.571  24.605  37.552  1.00  0.00    -0.744 OA
ENDBRANCH  47  48
ENDBRANCH  26  40
BRANCH  27  52
ATOM     52  C   UNL A   1      36.368  33.379  31.046  1.00  0.00     0.058 A 
ATOM     53  C   UNL A   1      35.066  33.367  31.565  1.00  0.00     0.135 A 
ATOM     54  C   UNL A   1      36.601  34.121  29.878  1.00  0.00     0.135 A 
ATOM     55  F   UNL A   1      34.795  32.670  32.680  1.00  0.00    -0.206 F 
ATOM     56  C   UNL A   1      34.029  34.052  30.942  1.00  0.00     0.059 A 
ATOM     57  C   UNL A   1      35.588  34.836  29.252  1.00  0.00     0.059 A 
ATOM     58  F   UNL A   1      37.836  34.181  29.355  1.00  0.00    -0.206 F 
ATOM     59  C   UNL A   1      34.300  34.786  29.785  1.00  0.00     0.060 A 
BRANCH  59  60
ATOM     60  S   UNL A   1      32.964  35.719  29.008  1.00  0.00     0.124 S 
ATOM     61  O   UNL A   1      32.358  34.704  28.154  1.00  0.00    -0.237 OA
ATOM     62  O   UNL A   1      32.172  36.144  30.157  1.00  0.00    -0.237 OA
ATOM     63  O   UNL A   1      33.671  36.792  28.314  1.00  0.00    -0.744 OA
ENDBRANCH  59  60
ENDBRANCH  27  52
BRANCH  39  64
ATOM     64  C   UNL A   1      39.839  34.383  36.995  1.00  0.00     0.058 A 
ATOM     65  C   UNL A   1      40.570  35.578  36.909  1.00  0.00     0.135 A 
ATOM     66  C   UNL A   1      39.002  34.200  38.105  1.00  0.00     0.135 A 
ATOM     67  F   UNL A   1      41.390  35.796  35.869  1.00  0.00    -0.206 F 
ATOM     68  C   UNL A   1      40.502  36.542  37.909  1.00  0.00     0.059 A 
ATOM     69  C   UNL A   1      38.901  35.161  39.106  1.00  0.00     0.059 A 
ATOM     70  F   UNL A   1      38.277  33.077  38.228  1.00  0.00    -0.206 F 
ATOM     71  C   UNL A   1      39.670  36.321  39.008  1.00  0.00     0.060 A 
BRANCH  71  72
ATOM     72  S   UNL A   1      39.589  37.576  40.303  1.00  0.00     0.124 S 
ATOM     73  O   UNL A   1      38.924  36.845  41.376  1.00  0.00    -0.237 OA
ATOM     74  O   UNL A   1      40.997  37.890  40.528  1.00  0.00    -0.237 OA
ATOM     75  O   UNL A   1      38.805  38.643  39.690  1.00  0.00    -0.744 OA
ENDBRANCH  71  72
ENDBRANCH  39  64
ENDBRANCH  13  14
ENDBRANCH   6   8
ENDBRANCH   3   4
ENDBRANCH   2   3
ENDBRANCH   1   2
BRANCH   1  76
ATOM     76  C   UNL A   1      37.692  20.814  24.977  1.00  0.00     0.002 C 
BRANCH  76  77
ATOM     77  C   UNL A   1      38.662  19.835  25.645  1.00  0.00     0.021 C 
BRANCH  77  78
ATOM     78  C   UNL A   1      40.121  20.282  25.671  1.00  0.00     0.116 C 
BRANCH  78  79
ATOM     79  N   UNL A   1      40.885  19.576  26.682  1.00  0.00    -0.354 N 
ATOM     80  C   UNL A   1      42.220  19.279  26.693  1.00  0.00     0.242 C 
ATOM     81  H   UNL A   1      40.373  19.268  27.465  1.00  0.00     0.163 HD
ATOM     82  O   UNL A   1      42.678  18.661  27.657  1.00  0.00    -0.273 OA
BRANCH  80  83
ATOM     83  C   UNL A   1      43.064  19.625  25.454  1.00  0.00     0.177 C 
ATOM     84  C   UNL A   1      44.123  18.532  25.256  1.00  0.00     0.069 C 
ATOM     85  N   UNL A   1      43.823  20.862  25.624  1.00  0.00    -0.324 N 
ATOM     86  C   UNL A   1      45.357  19.300  24.800  1.00  0.00     0.136 C 
ATOM     87  C   UNL A   1      45.259  20.621  25.562  1.00  0.00     0.152 C 
BRANCH  85  88
ATOM     88  C   UNL A   1      43.153  22.060  25.746  1.00  0.00     0.254 C 
ATOM     89  O   UNL A   1      42.432  22.521  24.867  1.00  0.00    -0.269 OA
BRANCH  88  90
ATOM     90  C   UNL A   1      43.298  22.817  26.999  1.00  0.00     0.040 A 
ATOM     91  C   UNL A   1      42.527  22.449  28.104  1.00  0.00     0.014 A 
ATOM     92  C   UNL A   1      44.135  23.935  27.048  1.00  0.00     0.014 A 
ATOM     93  C   UNL A   1      42.617  23.194  29.280  1.00  0.00     0.001 A 
ATOM     94  C   UNL A   1      44.224  24.672  28.228  1.00  0.00     0.001 A 
ATOM     95  C   UNL A   1      43.466  24.301  29.341  1.00  0.00     0.000 A 
ENDBRANCH  88  90
ENDBRANCH  85  88
BRANCH  86  96
ATOM     96  O   UNL A   1      45.290  19.521  23.390  1.00  0.00    -0.391 OA
ATOM     97  H   UNL A   1      45.102  20.456  23.218  1.00  0.00     0.211 HD
ENDBRANCH  86  96
ENDBRANCH  80  83
ENDBRANCH  78  79
ENDBRANCH  77  78
ENDBRANCH  76  77
ENDBRANCH   1  76
TORSDOF 19
ENDMDL
MODEL 2
REMARK VINA RESULT:     -10.8      4.567     10.649
REMARK SMILES O=C(NCCCCCCNC(=O)[C@@H]1C[C@@H](O)CN1C(=O)c1ccccc1)c1ccc(-c2c3nc(c(-c4c(F)cc(S(=O)(=O)[O-])cc4F)c4ccc([nH]4)c(-c4c(F)cc(S(=O)(=O)[O-])cc4F)c4nc(c(-c5c(F)cc(S(=O)(=O)[O-])cc5F)c5ccc2[nH]5)C=C4)C=C3)cc1
REMARK SMILES IDX 6 1 5 2 4 3 3 4 1 5 2 6 27 8 28 9 92 10 29 11 91 12 30 13
REMARK SMILES IDX 31 14 32 15 85 16 33 17 90 18 84 19 86 20 34 21 89 22 83 23
REMARK SMILES IDX 82 24 35 26 69 27 48 28 68 29 49 30 52 31 67 32 87 33 50 34
REMARK SMILES IDX 51 35 66 37 88 38 53 39 36 40 37 41 46 42 38 43 39 44 45 45
REMARK SMILES IDX 47 46 40 47 41 48 42 49 43 50 44 51 70 52 71 53 80 54 72 55
REMARK SMILES IDX 73 56 79 57 81 58 74 59 75 60 76 61 77 62 78 63 54 64 55 65
REMARK SMILES IDX 64 66 56 67 57 68 63 69 65 70 58 71 59 72 60 73 61 74 62 75
REMARK SMILES IDX 7 76 8 77 9 78 10 79 11 80 12 82 13 83 14 84 18 85 15 86
REMARK SMILES IDX 17 87 19 88 20 89 21 90 22 91 26 92 23 93 25 94 24 95 16 96
REMARK H PARENT 3 7 86 25 52 36 10 81 16 97
REMARK Flexibility Score: inf
ROOT
ATOM      1  C   UNL A   1      31.914  30.603  26.472  1.00  0.00     0.002 C 
ENDROOT
BRANCH   1   2
ATOM      2  C   UNL A   1      31.659  32.074  26.800  1.00  0.00     0.021 C 
BRANCH   2   3
ATOM      3  C   UNL A   1      32.859  32.836  27.348  1.00  0.00     0.116 C 
BRANCH   3   4
ATOM      4  N   UNL A   1      32.537  34.196  27.749  1.00  0.00    -0.352 N 
ATOM      5  O   UNL A   1      32.608  36.040  29.049  1.00  0.00    -0.269 OA
ATOM      6  C   UNL A   1      33.088  34.947  28.761  1.00  0.00     0.251 C 
ATOM      7  H   UNL A   1      31.830  34.637  27.225  1.00  0.00     0.163 HD
BRANCH   6   8
ATOM      8  C   UNL A   1      34.244  34.416  29.519  1.00  0.00     0.039 A 
ATOM      9  C   UNL A   1      35.542  34.551  29.021  1.00  0.00     0.014 A 
ATOM     10  C   UNL A   1      34.026  33.764  30.737  1.00  0.00     0.014 A 
ATOM     11  C   UNL A   1      36.597  33.913  29.663  1.00  0.00     0.010 A 
ATOM     12  C   UNL A   1      35.104  33.198  31.428  1.00  0.00     0.010 A 
ATOM     13  C   UNL A   1      36.394  33.242  30.881  1.00  0.00    -0.014 A 
BRANCH  13  14
ATOM     14  C   UNL A   1      37.572  32.661  31.578  1.00  0.00     0.031 A 
ATOM     15  C   UNL A   1      38.025  33.167  32.920  1.00  0.00     0.074 A 
ATOM     16  C   UNL A   1      38.197  31.613  31.004  1.00  0.00     0.049 A 
ATOM     17  N   UNL A   1      38.982  32.711  33.688  1.00  0.00    -0.248 NA
ATOM     18  C   UNL A   1      37.323  34.337  33.470  1.00  0.00     0.031 C 
ATOM     19  C   UNL A   1      37.867  31.057  29.687  1.00  0.00     0.029 A 
ATOM     20  N   UNL A   1      39.209  30.809  31.457  1.00  0.00    -0.354 N 
ATOM     21  C   UNL A   1      39.005  33.537  34.806  1.00  0.00     0.074 A 
ATOM     22  C   UNL A   1      37.983  34.543  34.603  1.00  0.00     0.031 C 
ATOM     23  C   UNL A   1      38.620  29.971  29.465  1.00  0.00     0.029 A 
ATOM     24  C   UNL A   1      39.521  29.783  30.596  1.00  0.00     0.049 A 
ATOM     25  H   UNL A   1      39.670  30.952  32.315  1.00  0.00     0.167 HD
ATOM     26  C   UNL A   1      39.796  33.455  35.903  1.00  0.00     0.037 A 
ATOM     27  C   UNL A   1      40.433  28.799  30.700  1.00  0.00     0.037 A 
ATOM     28  C   UNL A   1      40.807  32.446  36.101  1.00  0.00     0.049 A 
ATOM     29  C   UNL A   1      41.279  28.719  31.937  1.00  0.00     0.074 A 
ATOM     30  C   UNL A   1      41.661  32.279  37.179  1.00  0.00     0.029 A 
ATOM     31  N   UNL A   1      41.099  31.428  35.204  1.00  0.00    -0.354 N 
ATOM     32  N   UNL A   1      41.274  29.503  32.987  1.00  0.00    -0.248 NA
ATOM     33  C   UNL A   1      42.253  27.622  32.003  1.00  0.00     0.031 C 
ATOM     34  C   UNL A   1      42.484  31.177  36.922  1.00  0.00     0.029 A 
ATOM     35  C   UNL A   1      42.120  30.634  35.701  1.00  0.00     0.049 A 
ATOM     36  H   UNL A   1      40.646  31.290  34.341  1.00  0.00     0.167 HD
ATOM     37  C   UNL A   1      42.247  28.998  33.840  1.00  0.00     0.074 A 
ATOM     38  C   UNL A   1      42.794  27.819  33.197  1.00  0.00     0.031 C 
ATOM     39  C   UNL A   1      42.660  29.472  35.040  1.00  0.00     0.037 A 
BRANCH  26  40
ATOM     40  C   UNL A   1      39.607  34.487  36.982  1.00  0.00     0.058 A 
ATOM     41  C   UNL A   1      38.841  34.216  38.127  1.00  0.00     0.135 A 
ATOM     42  C   UNL A   1      40.245  35.735  36.902  1.00  0.00     0.135 A 
ATOM     43  F   UNL A   1      38.198  33.044  38.247  1.00  0.00    -0.206 F 
ATOM     44  C   UNL A   1      38.701  35.152  39.148  1.00  0.00     0.059 A 
ATOM     45  C   UNL A   1      40.136  36.679  37.921  1.00  0.00     0.059 A 
ATOM     46  F   UNL A   1      40.990  36.045  35.830  1.00  0.00    -0.206 F 
ATOM     47  C   UNL A   1      39.353  36.382  39.035  1.00  0.00     0.060 A 
BRANCH  47  48
ATOM     48  S   UNL A   1      39.176  37.579  40.376  1.00  0.00     0.124 S 
ATOM     49  O   UNL A   1      38.141  38.461  39.843  1.00  0.00    -0.237 OA
ATOM     50  O   UNL A   1      38.771  36.737  41.497  1.00  0.00    -0.237 OA
ATOM     51  O   UNL A   1      40.507  38.166  40.485  1.00  0.00    -0.744 OA
ENDBRANCH  47  48
ENDBRANCH  26  40
BRANCH  27  52
ATOM     52  C   UNL A   1      40.589  27.821  29.594  1.00  0.00     0.058 A 
ATOM     53  C   UNL A   1      41.630  27.934  28.662  1.00  0.00     0.135 A 
ATOM     54  C   UNL A   1      39.714  26.731  29.469  1.00  0.00     0.135 A 
ATOM     55  F   UNL A   1      42.492  28.960  28.740  1.00  0.00    -0.206 F 
ATOM     56  C   UNL A   1      41.790  27.011  27.634  1.00  0.00     0.059 A 
ATOM     57  C   UNL A   1      39.868  25.780  28.467  1.00  0.00     0.059 A 
ATOM     58  F   UNL A   1      38.715  26.567  30.351  1.00  0.00    -0.206 F 
ATOM     59  C   UNL A   1      40.903  25.936  27.546  1.00  0.00     0.060 A 
BRANCH  59  60
ATOM     60  S   UNL A   1      41.144  24.708  26.244  1.00  0.00     0.124 S 
ATOM     61  O   UNL A   1      41.280  25.556  25.066  1.00  0.00    -0.237 OA
ATOM     62  O   UNL A   1      42.356  24.023  26.683  1.00  0.00    -0.237 OA
ATOM     63  O   UNL A   1      39.923  23.909  26.314  1.00  0.00    -0.744 OA
ENDBRANCH  59  60
ENDBRANCH  27  52
BRANCH  39  64
ATOM     64  C   UNL A   1      43.756  28.709  35.728  1.00  0.00     0.058 A 
ATOM     65  C   UNL A   1      45.108  29.024  35.516  1.00  0.00     0.135 A 
ATOM     66  C   UNL A   1      43.453  27.656  36.604  1.00  0.00     0.135 A 
ATOM     67  F   UNL A   1      45.447  30.018  34.681  1.00  0.00    -0.206 F 
ATOM     68  C   UNL A   1      46.124  28.295  36.123  1.00  0.00     0.059 A 
ATOM     69  C   UNL A   1      44.454  26.928  37.239  1.00  0.00     0.059 A 
ATOM     70  F   UNL A   1      42.176  27.322  36.845  1.00  0.00    -0.206 F 
ATOM     71  C   UNL A   1      45.788  27.244  36.977  1.00  0.00     0.060 A 
BRANCH  71  72
ATOM     72  S   UNL A   1      47.114  26.300  37.759  1.00  0.00     0.124 S 
ATOM     73  O   UNL A   1      48.297  26.974  37.237  1.00  0.00    -0.237 OA
ATOM     74  O   UNL A   1      46.846  26.496  39.180  1.00  0.00    -0.237 OA
ATOM     75  O   UNL A   1      46.896  24.943  37.268  1.00  0.00    -0.744 OA
ENDBRANCH  71  72
ENDBRANCH  39  64
ENDBRANCH  13  14
ENDBRANCH   6   8
ENDBRANCH   3   4
ENDBRANCH   2   3
ENDBRANCH   1   2
BRANCH   1  76
ATOM     76  C   UNL A   1      32.724  29.821  27.511  1.00  0.00     0.002 C 
BRANCH  76  77
ATOM     77  C   UNL A   1      34.007  29.159  26.997  1.00  0.00     0.021 C 
BRANCH  77  78
ATOM     78  C   UNL A   1      33.805  28.118  25.899  1.00  0.00     0.116 C 
BRANCH  78  79
ATOM     79  N   UNL A   1      34.046  28.671  24.580  1.00  0.00    -0.354 N 
ATOM     80  C   UNL A   1      33.685  28.165  23.362  1.00  0.00     0.242 C 
ATOM     81  H   UNL A   1      34.537  29.525  24.559  1.00  0.00     0.163 HD
ATOM     82  O   UNL A   1      33.992  28.797  22.347  1.00  0.00    -0.273 OA
BRANCH  80  83
ATOM     83  C   UNL A   1      33.018  26.780  23.305  1.00  0.00     0.177 C 
ATOM     84  C   UNL A   1      33.713  25.939  22.225  1.00  0.00     0.069 C 
ATOM     85  N   UNL A   1      31.619  26.850  22.888  1.00  0.00    -0.324 N 
ATOM     86  C   UNL A   1      32.573  25.163  21.579  1.00  0.00     0.136 C 
ATOM     87  C   UNL A   1      31.397  26.138  21.637  1.00  0.00     0.152 C 
BRANCH  85  88
ATOM     88  C   UNL A   1      30.699  27.478  23.699  1.00  0.00     0.254 C 
ATOM     89  O   UNL A   1      30.615  27.274  24.906  1.00  0.00    -0.269 OA
BRANCH  88  90
ATOM     90  C   UNL A   1      29.781  28.453  23.089  1.00  0.00     0.040 A 
ATOM     91  C   UNL A   1      28.406  28.297  23.280  1.00  0.00     0.014 A 
ATOM     92  C   UNL A   1      30.281  29.466  22.268  1.00  0.00     0.014 A 
ATOM     93  C   UNL A   1      27.524  29.184  22.662  1.00  0.00     0.001 A 
ATOM     94  C   UNL A   1      29.395  30.352  21.658  1.00  0.00     0.001 A 
ATOM     95  C   UNL A   1      28.019  30.211  21.855  1.00  0.00     0.000 A 
ENDBRANCH  88  90
ENDBRANCH  85  88
BRANCH  86  96
ATOM     96  O   UNL A   1      32.298  23.990  22.345  1.00  0.00    -0.391 OA
ATOM     97  H   UNL A   1      33.110  23.467  22.439  1.00  0.00     0.211 HD
ENDBRANCH  86  96
ENDBRANCH  80  83
ENDBRANCH  78  79
ENDBRANCH  77  78
ENDBRANCH  76  77
ENDBRANCH   1  76
TORSDOF 19
ENDMDL
MODEL 3
REMARK VINA RESULT:     -10.8      2.896      5.465
REMARK SMILES O=C(NCCCCCCNC(=O)[C@@H]1C[C@@H](O)CN1C(=O)c1ccccc1)c1ccc(-c2c3nc(c(-c4c(F)cc(S(=O)(=O)[O-])cc4F)c4ccc([nH]4)c(-c4c(F)cc(S(=O)(=O)[O-])cc4F)c4nc(c(-c5c(F)cc(S(=O)(=O)[O-])cc5F)c5ccc2[nH]5)C=C4)C=C3)cc1
REMARK SMILES IDX 6 1 5 2 4 3 3 4 1 5 2 6 27 8 28 9 92 10 29 11 91 12 30 13
REMARK SMILES IDX 31 14 32 15 85 16 33 17 90 18 84 19 86 20 34 21 89 22 83 23
REMARK SMILES IDX 82 24 35 26 69 27 48 28 68 29 49 30 52 31 67 32 87 33 50 34
REMARK SMILES IDX 51 35 66 37 88 38 53 39 36 40 37 41 46 42 38 43 39 44 45 45
REMARK SMILES IDX 47 46 40 47 41 48 42 49 43 50 44 51 70 52 71 53 80 54 72 55
REMARK SMILES IDX 73 56 79 57 81 58 74 59 75 60 76 61 77 62 78 63 54 64 55 65
REMARK SMILES IDX 64 66 56 67 57 68 63 69 65 70 58 71 59 72 60 73 61 74 62 75
REMARK SMILES IDX 7 76 8 77 9 78 10 79 11 80 12 82 13 83 14 84 18 85 15 86
REMARK SMILES IDX 17 87 19 88 20 89 21 90 22 91 26 92 23 93 25 94 24 95 16 96
REMARK H PARENT 3 7 86 25 52 36 10 81 16 97
REMARK Flexibility Score: inf
ROOT
ATOM      1  C   UNL A   1      38.872  22.784  26.396  1.00  0.00     0.002 C 
ENDROOT
BRANCH   1   2
ATOM      2  C   UNL A   1      40.054  22.180  27.153  1.00  0.00     0.021 C 
BRANCH   2   3
ATOM      3  C   UNL A   1      41.256  23.100  27.324  1.00  0.00     0.116 C 
BRANCH   3   4
ATOM      4  N   UNL A   1      41.516  23.921  26.153  1.00  0.00    -0.352 N 
ATOM      5  O   UNL A   1      41.645  25.829  24.953  1.00  0.00    -0.269 OA
ATOM      6  C   UNL A   1      41.534  25.293  26.053  1.00  0.00     0.251 C 
ATOM      7  H   UNL A   1      41.705  23.429  25.321  1.00  0.00     0.163 HD
BRANCH   6   8
ATOM      8  C   UNL A   1      41.389  26.117  27.274  1.00  0.00     0.039 A 
ATOM      9  C   UNL A   1      40.304  25.928  28.133  1.00  0.00     0.014 A 
ATOM     10  C   UNL A   1      42.344  27.099  27.558  1.00  0.00     0.014 A 
ATOM     11  C   UNL A   1      40.097  26.810  29.187  1.00  0.00     0.010 A 
ATOM     12  C   UNL A   1      42.180  27.930  28.672  1.00  0.00     0.010 A 
ATOM     13  C   UNL A   1      41.039  27.812  29.478  1.00  0.00    -0.014 A 
BRANCH  13  14
ATOM     14  C   UNL A   1      40.821  28.666  30.676  1.00  0.00     0.031 A 
ATOM     15  C   UNL A   1      41.708  28.570  31.886  1.00  0.00     0.074 A 
ATOM     16  C   UNL A   1      39.837  29.588  30.629  1.00  0.00     0.049 A 
ATOM     17  N   UNL A   1      41.695  29.301  32.973  1.00  0.00    -0.248 NA
ATOM     18  C   UNL A   1      42.736  27.519  31.886  1.00  0.00     0.031 C 
ATOM     19  C   UNL A   1      38.891  29.750  29.519  1.00  0.00     0.029 A 
ATOM     20  N   UNL A   1      39.486  30.577  31.509  1.00  0.00    -0.354 N 
ATOM     21  C   UNL A   1      42.702  28.798  33.787  1.00  0.00     0.074 A 
ATOM     22  C   UNL A   1      43.289  27.678  33.082  1.00  0.00     0.031 C 
ATOM     23  C   UNL A   1      38.109  30.811  29.759  1.00  0.00     0.029 A 
ATOM     24  C   UNL A   1      38.459  31.373  31.058  1.00  0.00     0.049 A 
ATOM     25  H   UNL A   1      39.927  30.707  32.380  1.00  0.00     0.167 HD
ATOM     26  C   UNL A   1      43.106  29.237  35.004  1.00  0.00     0.037 A 
ATOM     27  C   UNL A   1      37.860  32.435  31.626  1.00  0.00     0.037 A 
ATOM     28  C   UNL A   1      42.521  30.359  35.697  1.00  0.00     0.049 A 
ATOM     29  C   UNL A   1      38.344  32.915  32.963  1.00  0.00     0.074 A 
ATOM     30  C   UNL A   1      42.860  30.881  36.935  1.00  0.00     0.029 A 
ATOM     31  N   UNL A   1      41.478  31.134  35.213  1.00  0.00    -0.354 N 
ATOM     32  N   UNL A   1      39.307  32.431  33.709  1.00  0.00    -0.248 NA
ATOM     33  C   UNL A   1      37.661  34.082  33.535  1.00  0.00     0.031 C 
ATOM     34  C   UNL A   1      42.005  31.956  37.208  1.00  0.00     0.029 A 
ATOM     35  C   UNL A   1      41.158  32.127  36.127  1.00  0.00     0.049 A 
ATOM     36  H   UNL A   1      41.030  31.000  34.346  1.00  0.00     0.167 HD
ATOM     37  C   UNL A   1      39.345  33.232  34.843  1.00  0.00     0.074 A 
ATOM     38  C   UNL A   1      38.331  34.253  34.666  1.00  0.00     0.031 C 
ATOM     39  C   UNL A   1      40.137  33.127  35.938  1.00  0.00     0.037 A 
BRANCH  26  40
ATOM     40  C   UNL A   1      44.238  28.505  35.674  1.00  0.00     0.058 A 
ATOM     41  C   UNL A   1      45.576  28.869  35.455  1.00  0.00     0.135 A 
ATOM     42  C   UNL A   1      43.983  27.471  36.589  1.00  0.00     0.135 A 
ATOM     43  F   UNL A   1      45.877  29.841  34.579  1.00  0.00    -0.206 F 
ATOM     44  C   UNL A   1      46.622  28.223  36.107  1.00  0.00     0.059 A 
ATOM     45  C   UNL A   1      45.012  26.825  37.269  1.00  0.00     0.059 A 
ATOM     46  F   UNL A   1      42.721  27.084  36.836  1.00  0.00    -0.206 F 
ATOM     47  C   UNL A   1      46.330  27.201  37.013  1.00  0.00     0.060 A 
BRANCH  47  48
ATOM     48  S   UNL A   1      47.698  26.385  37.864  1.00  0.00     0.124 S 
ATOM     49  O   UNL A   1      47.193  25.020  37.982  1.00  0.00    -0.237 OA
ATOM     50  O   UNL A   1      48.804  26.571  36.931  1.00  0.00    -0.237 OA
ATOM     51  O   UNL A   1      47.807  27.125  39.117  1.00  0.00    -0.744 OA
ENDBRANCH  47  48
ENDBRANCH  26  40
BRANCH  27  52
ATOM     52  C   UNL A   1      36.734  33.105  30.928  1.00  0.00     0.058 A 
ATOM     53  C   UNL A   1      35.408  32.927  31.344  1.00  0.00     0.135 A 
ATOM     54  C   UNL A   1      36.971  33.967  29.845  1.00  0.00     0.135 A 
ATOM     55  F   UNL A   1      35.132  32.112  32.374  1.00  0.00    -0.206 F 
ATOM     56  C   UNL A   1      34.352  33.566  30.702  1.00  0.00     0.059 A 
ATOM     57  C   UNL A   1      35.937  34.638  29.205  1.00  0.00     0.059 A 
ATOM     58  F   UNL A   1      38.227  34.188  29.424  1.00  0.00    -0.206 F 
ATOM     59  C   UNL A   1      34.627  34.422  29.634  1.00  0.00     0.060 A 
BRANCH  59  60
ATOM     60  S   UNL A   1      33.261  35.293  28.836  1.00  0.00     0.124 S 
ATOM     61  O   UNL A   1      33.974  36.285  28.041  1.00  0.00    -0.237 OA
ATOM     62  O   UNL A   1      32.606  34.224  28.089  1.00  0.00    -0.237 OA
ATOM     63  O   UNL A   1      32.498  35.814  29.966  1.00  0.00    -0.744 OA
ENDBRANCH  59  60
ENDBRANCH  27  52
BRANCH  39  64
ATOM     64  C   UNL A   1      39.931  34.145  37.022  1.00  0.00     0.058 A 
ATOM     65  C   UNL A   1      39.176  33.849  38.167  1.00  0.00     0.135 A 
ATOM     66  C   UNL A   1      40.493  35.426  36.915  1.00  0.00     0.135 A 
ATOM     67  F   UNL A   1      38.612  32.639  38.311  1.00  0.00    -0.206 F 
ATOM     68  C   UNL A   1      38.954  34.803  39.155  1.00  0.00     0.059 A 
ATOM     69  C   UNL A   1      40.302  36.388  37.902  1.00  0.00     0.059 A 
ATOM     70  F   UNL A   1      41.230  35.755  35.842  1.00  0.00    -0.206 F 
ATOM     71  C   UNL A   1      39.515  36.072  39.009  1.00  0.00     0.060 A 
BRANCH  71  72
ATOM     72  S   UNL A   1      39.219  37.306  40.294  1.00  0.00     0.124 S 
ATOM     73  O   UNL A   1      38.396  38.277  39.582  1.00  0.00    -0.237 OA
ATOM     74  O   UNL A   1      38.536  36.531  41.325  1.00  0.00    -0.237 OA
ATOM     75  O   UNL A   1      40.563  37.757  40.644  1.00  0.00    -0.744 OA
ENDBRANCH  71  72
ENDBRANCH  39  64
ENDBRANCH  13  14
ENDBRANCH   6   8
ENDBRANCH   3   4
ENDBRANCH   2   3
ENDBRANCH   1   2
BRANCH   1  76
ATOM     76  C   UNL A   1      38.142  21.838  25.438  1.00  0.00     0.002 C 
BRANCH  76  77
ATOM     77  C   UNL A   1      36.631  21.704  25.653  1.00  0.00     0.021 C 
BRANCH  77  78
ATOM     78  C   UNL A   1      35.951  22.927  26.262  1.00  0.00     0.116 C 
BRANCH  78  79
ATOM     79  N   UNL A   1      34.936  22.555  27.229  1.00  0.00    -0.354 N 
ATOM     80  C   UNL A   1      33.593  22.808  27.198  1.00  0.00     0.242 C 
ATOM     81  H   UNL A   1      35.258  22.054  28.014  1.00  0.00     0.163 HD
ATOM     82  O   UNL A   1      32.895  22.402  28.132  1.00  0.00    -0.273 OA
BRANCH  80  83
ATOM     83  C   UNL A   1      33.031  23.684  26.065  1.00  0.00     0.177 C 
ATOM     84  C   UNL A   1      31.921  24.578  26.634  1.00  0.00     0.069 C 
ATOM     85  N   UNL A   1      32.382  22.895  25.019  1.00  0.00    -0.324 N 
ATOM     86  C   UNL A   1      30.877  24.612  25.526  1.00  0.00     0.136 C 
ATOM     87  C   UNL A   1      30.967  23.218  24.907  1.00  0.00     0.152 C 
BRANCH  85  88
ATOM     88  C   UNL A   1      33.136  22.037  24.249  1.00  0.00     0.254 C 
ATOM     89  O   UNL A   1      34.050  22.412  23.521  1.00  0.00    -0.269 OA
BRANCH  88  90
ATOM     90  C   UNL A   1      32.841  20.597  24.314  1.00  0.00     0.040 A 
ATOM     91  C   UNL A   1      33.114  19.904  25.495  1.00  0.00     0.014 A 
ATOM     92  C   UNL A   1      32.371  19.928  23.182  1.00  0.00     0.014 A 
ATOM     93  C   UNL A   1      32.888  18.528  25.550  1.00  0.00     0.001 A 
ATOM     94  C   UNL A   1      32.142  18.554  23.244  1.00  0.00     0.001 A 
ATOM     95  C   UNL A   1      32.400  17.857  24.427  1.00  0.00     0.000 A 
ENDBRANCH  88  90
ENDBRANCH  85  88
BRANCH  86  96
ATOM     96  O   UNL A   1      31.226  25.616  24.571  1.00  0.00    -0.391 OA
ATOM     97  H   UNL A   1      30.876  26.473  24.860  1.00  0.00     0.211 HD
ENDBRANCH  86  96
ENDBRANCH  80  83
ENDBRANCH  78  79
ENDBRANCH  77  78
ENDBRANCH  76  77
ENDBRANCH   1  76
TORSDOF 19
ENDMDL
