MODEL 1
REMARK VINA RESULT:     -11.9      0.000      0.000
REMARK SMILES CC1(C)OC(=O)C(=CNc2ccccc2C(=O)NCCCCCCNC(=O)c2ccc(-c3c4nc(c(-c5c(F)cc(S(=O)(=O)[O-])cc5F)c5ccc([nH]5)c(-c5c(F)cc(S(=O)(=O)[O-])cc5F)c5nc(c(-c6c(F)cc(S(=O)(=O)[O-])cc6F)c6ccc3[nH]6)C=C5)C=C4)cc2)C(=O)O1
REMARK SMILES IDX 22 1 21 2 20 3 19 4 18 5 16 6 17 7 15 9 10 10 11 11 12 12
REMARK SMILES IDX 14 13 13 14 9 15 8 17 1 18 2 19 3 20 4 21 96 22 5 23 94 24
REMARK SMILES IDX 6 25 7 26 95 27 23 28 24 29 25 30 26 31 27 33 28 34 29 35
REMARK SMILES IDX 93 36 30 37 92 38 31 39 32 40 33 41 86 42 34 43 91 44 85 45
REMARK SMILES IDX 87 46 35 47 90 48 84 49 83 50 36 52 70 53 49 54 69 55 50 56
REMARK SMILES IDX 53 57 68 58 88 59 51 60 52 61 67 63 89 64 54 65 37 66 38 67
REMARK SMILES IDX 47 68 39 69 40 70 46 71 48 72 41 73 42 74 43 75 44 76 45 77
REMARK SMILES IDX 71 78 72 79 81 80 73 81 74 82 80 83 82 84 75 85 76 86 77 87
REMARK SMILES IDX 78 88 79 89 55 90 56 91 65 92 57 93 58 94 64 95 66 96 59 97
REMARK SMILES IDX 60 98 61 99 62 100 63 101
REMARK H PARENT 18 8 9 16 25 32 87 51 53 62
REMARK Flexibility Score: inf
ROOT
ATOM      1  C   UNL A   1      48.383  37.523  25.375  1.00  0.00     0.002 C 
ENDROOT
BRANCH   1   2
ATOM      2  C   UNL A   1      47.062  38.653  25.325  1.00  0.00     0.002 C 
BRANCH   2   3
ATOM      3  C   UNL A   1      47.211  40.187  25.336  1.00  0.00     0.021 C 
BRANCH   3   4
ATOM      4  C   UNL A   1      46.482  40.985  24.274  1.00  0.00     0.116 C 
BRANCH   4   5
ATOM      5  N   UNL A   1      46.659  42.411  24.400  1.00  0.00    -0.352 N 
ATOM      6  C   UNL A   1      45.712  43.387  24.216  1.00  0.00     0.253 C 
ATOM      7  O   UNL A   1      46.040  44.570  24.294  1.00  0.00    -0.269 OA
ATOM      8  H   UNL A   1      47.561  42.720  24.645  1.00  0.00     0.163 HD
BRANCH   6   9
ATOM      9  C   UNL A   1      44.357  43.025  23.736  1.00  0.00     0.063 A 
ATOM     10  C   UNL A   1      43.270  42.584  24.524  1.00  0.00     0.051 A 
ATOM     11  C   UNL A   1      42.108  42.179  23.838  1.00  0.00     0.027 A 
ATOM     12  C   UNL A   1      42.031  42.176  22.439  1.00  0.00     0.002 A 
ATOM     13  C   UNL A   1      44.265  43.037  22.326  1.00  0.00     0.016 A 
ATOM     14  C   UNL A   1      43.114  42.600  21.680  1.00  0.00     0.001 A 
BRANCH  10  15
ATOM     15  N   UNL A   1      43.236  42.439  25.935  1.00  0.00    -0.360 N 
ATOM     16  H   UNL A   1      42.739  43.130  26.428  1.00  0.00     0.166 HD
BRANCH  15  17
ATOM     17  C   UNL A   1      43.812  41.455  26.698  1.00  0.00     0.106 C 
ATOM     18  C   UNL A   1      43.382  35.458  26.472  1.00  0.00     0.106 C 
ATOM     19  C   UNL A   1      43.044  36.606  27.469  1.00  0.00     0.252 C 
ATOM     20  C   UNL A   1      42.781  35.820  28.814  1.00  0.00     0.106 C 
ATOM     21  O   UNL A   1      44.464  37.609  27.992  1.00  0.00    -0.419 OA
ATOM     22  O   UNL A   1      41.723  37.650  26.645  1.00  0.00    -0.419 OA
ATOM     23  C   UNL A   1      44.625  39.227  27.950  1.00  0.00     0.350 C 
ATOM     24  C   UNL A   1      41.758  39.417  26.490  1.00  0.00     0.350 C 
ATOM     25  O   UNL A   1      45.622  39.739  28.450  1.00  0.00    -0.246 OA
ATOM     26  C   UNL A   1      43.337  40.262  27.105  1.00  0.00     0.161 C 
ATOM     27  O   UNL A   1      40.788  40.020  26.057  1.00  0.00    -0.246 OA
ENDBRANCH  15  17
ENDBRANCH  10  15
ENDBRANCH   6   9
ENDBRANCH   4   5
ENDBRANCH   3   4
ENDBRANCH   2   3
ENDBRANCH   1   2
BRANCH   1  28
ATOM     28  C   UNL A   1      49.972  37.227  26.810  1.00  0.00     0.021 C 
BRANCH  28  29
ATOM     29  C   UNL A   1      49.973  36.229  28.327  1.00  0.00     0.116 C 
BRANCH  29  30
ATOM     30  N   UNL A   1      49.148  36.700  29.468  1.00  0.00    -0.352 N 
ATOM     31  C   UNL A   1      47.829  36.481  29.766  1.00  0.00     0.251 C 
ATOM     32  H   UNL A   1      49.628  37.263  30.118  1.00  0.00     0.163 HD
ATOM     33  O   UNL A   1      47.179  37.216  30.495  1.00  0.00    -0.269 OA
BRANCH  31  34
ATOM     34  C   UNL A   1      47.276  35.250  29.230  1.00  0.00     0.039 A 
ATOM     35  C   UNL A   1      46.856  35.124  27.907  1.00  0.00     0.014 A 
ATOM     36  C   UNL A   1      47.289  34.184  30.127  1.00  0.00     0.014 A 
ATOM     37  C   UNL A   1      46.457  33.868  27.467  1.00  0.00     0.010 A 
ATOM     38  C   UNL A   1      46.971  32.933  29.668  1.00  0.00     0.010 A 
ATOM     39  C   UNL A   1      46.525  32.774  28.349  1.00  0.00    -0.014 A 
BRANCH  39  40
ATOM     40  C   UNL A   1      46.055  31.428  27.993  1.00  0.00     0.031 A 
ATOM     41  C   UNL A   1      44.630  31.083  28.317  1.00  0.00     0.074 A 
ATOM     42  C   UNL A   1      46.939  30.514  27.563  1.00  0.00     0.049 A 
ATOM     43  N   UNL A   1      44.053  29.916  28.353  1.00  0.00    -0.248 NA
ATOM     44  C   UNL A   1      43.759  32.202  28.729  1.00  0.00     0.031 C 
ATOM     45  C   UNL A   1      48.356  30.763  27.285  1.00  0.00     0.029 A 
ATOM     46  N   UNL A   1      46.779  29.179  27.317  1.00  0.00    -0.354 N 
ATOM     47  C   UNL A   1      42.763  30.156  28.812  1.00  0.00     0.074 A 
ATOM     48  C   UNL A   1      42.670  31.563  29.124  1.00  0.00     0.031 C 
ATOM     49  C   UNL A   1      48.931  29.615  26.891  1.00  0.00     0.029 A 
ATOM     50  C   UNL A   1      47.936  28.550  26.930  1.00  0.00     0.049 A 
ATOM     51  H   UNL A   1      45.916  28.714  27.408  1.00  0.00     0.167 HD
ATOM     52  C   UNL A   1      41.739  29.282  28.921  1.00  0.00     0.037 A 
ATOM     53  C   UNL A   1      48.152  27.251  26.652  1.00  0.00     0.037 A 
ATOM     54  C   UNL A   1      41.856  27.896  28.559  1.00  0.00     0.049 A 
ATOM     55  C   UNL A   1      46.990  26.299  26.768  1.00  0.00     0.074 A 
ATOM     56  C   UNL A   1      40.884  26.915  28.569  1.00  0.00     0.029 A 
ATOM     57  N   UNL A   1      43.026  27.302  28.103  1.00  0.00    -0.354 N 
ATOM     58  N   UNL A   1      45.757  26.543  27.150  1.00  0.00    -0.248 NA
ATOM     59  C   UNL A   1      47.244  24.900  26.406  1.00  0.00     0.031 C 
ATOM     60  C   UNL A   1      41.474  25.720  28.149  1.00  0.00     0.029 A 
ATOM     61  C   UNL A   1      42.801  25.967  27.830  1.00  0.00     0.049 A 
ATOM     62  H   UNL A   1      43.889  27.764  27.991  1.00  0.00     0.167 HD
ATOM     63  C   UNL A   1      45.077  25.336  27.035  1.00  0.00     0.074 A 
ATOM     64  C   UNL A   1      46.037  24.369  26.538  1.00  0.00     0.031 C 
ATOM     65  C   UNL A   1      43.782  25.045  27.312  1.00  0.00     0.037 A 
BRANCH  52  66
ATOM     66  C   UNL A   1      40.418  29.808  29.408  1.00  0.00     0.058 A 
ATOM     67  C   UNL A   1      39.326  29.962  28.537  1.00  0.00     0.135 A 
ATOM     68  C   UNL A   1      40.229  30.141  30.758  1.00  0.00     0.135 A 
ATOM     69  F   UNL A   1      39.457  29.683  27.231  1.00  0.00    -0.206 F 
ATOM     70  C   UNL A   1      38.103  30.452  28.981  1.00  0.00     0.059 A 
ATOM     71  C   UNL A   1      39.003  30.601  31.231  1.00  0.00     0.059 A 
ATOM     72  F   UNL A   1      41.240  30.024  31.634  1.00  0.00    -0.206 F 
ATOM     73  C   UNL A   1      37.950  30.763  30.332  1.00  0.00     0.060 A 
BRANCH  73  74
ATOM     74  S   UNL A   1      36.343  31.365  30.893  1.00  0.00     0.124 S 
ATOM     75  O   UNL A   1      35.927  30.294  31.792  1.00  0.00    -0.237 OA
ATOM     76  O   UNL A   1      36.692  32.629  31.533  1.00  0.00    -0.237 OA
ATOM     77  O   UNL A   1      35.573  31.482  29.658  1.00  0.00    -0.744 OA
ENDBRANCH  73  74
ENDBRANCH  52  66
BRANCH  53  78
ATOM     78  C   UNL A   1      49.488  26.789  26.198  1.00  0.00     0.058 A 
ATOM     79  C   UNL A   1      50.462  26.400  27.130  1.00  0.00     0.135 A 
ATOM     80  C   UNL A   1      49.826  26.725  24.837  1.00  0.00     0.135 A 
ATOM     81  F   UNL A   1      50.185  26.435  28.442  1.00  0.00    -0.206 F 
ATOM     82  C   UNL A   1      51.736  26.007  26.736  1.00  0.00     0.059 A 
ATOM     83  C   UNL A   1      51.085  26.306  24.416  1.00  0.00     0.059 A 
ATOM     84  F   UNL A   1      48.923  27.057  23.901  1.00  0.00    -0.206 F 
ATOM     85  C   UNL A   1      52.039  25.968  25.375  1.00  0.00     0.060 A 
BRANCH  85  86
ATOM     86  S   UNL A   1      53.696  25.452  24.876  1.00  0.00     0.124 S 
ATOM     87  O   UNL A   1      54.485  25.838  26.040  1.00  0.00    -0.237 OA
ATOM     88  O   UNL A   1      53.521  24.018  24.670  1.00  0.00    -0.237 OA
ATOM     89  O   UNL A   1      53.937  26.228  23.664  1.00  0.00    -0.744 OA
ENDBRANCH  85  86
ENDBRANCH  53  78
BRANCH  65  90
ATOM     90  C   UNL A   1      43.319  23.644  27.030  1.00  0.00     0.058 A 
ATOM     91  C   UNL A   1      43.051  23.204  25.726  1.00  0.00     0.135 A 
ATOM     92  C   UNL A   1      43.206  22.717  28.079  1.00  0.00     0.135 A 
ATOM     93  F   UNL A   1      43.139  24.055  24.692  1.00  0.00    -0.206 F 
ATOM     94  C   UNL A   1      42.659  21.895  25.473  1.00  0.00     0.059 A 
ATOM     95  C   UNL A   1      42.850  21.395  27.844  1.00  0.00     0.059 A 
ATOM     96  F   UNL A   1      43.467  23.088  29.342  1.00  0.00    -0.206 F 
ATOM     97  C   UNL A   1      42.566  20.997  26.539  1.00  0.00     0.060 A 
BRANCH  97  98
ATOM     98  S   UNL A   1      42.096  19.291  26.188  1.00  0.00     0.124 S 
ATOM     99  O   UNL A   1      42.919  18.995  25.020  1.00  0.00    -0.237 OA
ATOM    100  O   UNL A   1      42.474  18.605  27.420  1.00  0.00    -0.237 OA
ATOM    101  O   UNL A   1      40.661  19.377  25.941  1.00  0.00    -0.744 OA
ENDBRANCH  97  98
ENDBRANCH  65  90
ENDBRANCH  39  40
ENDBRANCH  31  34
ENDBRANCH  29  30
ENDBRANCH  28  29
ENDBRANCH   1  28
TORSDOF 18
ENDMDL
MODEL 2
REMARK VINA RESULT:     -11.7      7.994     14.034
REMARK SMILES CC1(C)OC(=O)C(=CNc2ccccc2C(=O)NCCCCCCNC(=O)c2ccc(-c3c4nc(c(-c5c(F)cc(S(=O)(=O)[O-])cc5F)c5ccc([nH]5)c(-c5c(F)cc(S(=O)(=O)[O-])cc5F)c5nc(c(-c6c(F)cc(S(=O)(=O)[O-])cc6F)c6ccc3[nH]6)C=C5)C=C4)cc2)C(=O)O1
REMARK SMILES IDX 22 1 21 2 20 3 19 4 18 5 16 6 17 7 15 9 10 10 11 11 12 12
REMARK SMILES IDX 14 13 13 14 9 15 8 17 1 18 2 19 3 20 4 21 96 22 5 23 94 24
REMARK SMILES IDX 6 25 7 26 95 27 23 28 24 29 25 30 26 31 27 33 28 34 29 35
REMARK SMILES IDX 93 36 30 37 92 38 31 39 32 40 33 41 86 42 34 43 91 44 85 45
REMARK SMILES IDX 87 46 35 47 90 48 84 49 83 50 36 52 70 53 49 54 69 55 50 56
REMARK SMILES IDX 53 57 68 58 88 59 51 60 52 61 67 63 89 64 54 65 37 66 38 67
REMARK SMILES IDX 47 68 39 69 40 70 46 71 48 72 41 73 42 74 43 75 44 76 45 77
REMARK SMILES IDX 71 78 72 79 81 80 73 81 74 82 80 83 82 84 75 85 76 86 77 87
REMARK SMILES IDX 78 88 79 89 55 90 56 91 65 92 57 93 58 94 64 95 66 96 59 97
REMARK SMILES IDX 60 98 61 99 62 100 63 101
REMARK H PARENT 18 8 9 16 25 32 87 51 53 62
REMARK Flexibility Score: inf
ROOT
ATOM      1  C   UNL A   1      41.672  23.524  27.942  1.00  0.00     0.002 C 
ENDROOT
BRANCH   1   2
ATOM      2  C   UNL A   1      40.048  23.045  27.542  1.00  0.00     0.002 C 
BRANCH   2   3
ATOM      3  C   UNL A   1      39.633  22.329  26.242  1.00  0.00     0.021 C 
BRANCH   3   4
ATOM      4  C   UNL A   1      38.154  22.153  25.963  1.00  0.00     0.116 C 
BRANCH   4   5
ATOM      5  N   UNL A   1      37.790  22.409  24.591  1.00  0.00    -0.352 N 
ATOM      6  C   UNL A   1      36.567  22.807  24.113  1.00  0.00     0.253 C 
ATOM      7  O   UNL A   1      36.398  22.918  22.901  1.00  0.00    -0.269 OA
ATOM      8  H   UNL A   1      38.500  22.284  23.920  1.00  0.00     0.163 HD
BRANCH   6   9
ATOM      9  C   UNL A   1      35.410  22.911  25.035  1.00  0.00     0.063 A 
ATOM     10  C   UNL A   1      34.526  24.007  25.162  1.00  0.00     0.051 A 
ATOM     11  C   UNL A   1      33.566  23.935  26.191  1.00  0.00     0.027 A 
ATOM     12  C   UNL A   1      33.501  22.850  27.076  1.00  0.00     0.002 A 
ATOM     13  C   UNL A   1      35.325  21.813  25.919  1.00  0.00     0.016 A 
ATOM     14  C   UNL A   1      34.386  21.789  26.944  1.00  0.00     0.001 A 
BRANCH  10  15
ATOM     15  N   UNL A   1      34.535  25.209  24.409  1.00  0.00    -0.360 N 
ATOM     16  H   UNL A   1      35.100  25.209  23.603  1.00  0.00     0.166 HD
BRANCH  15  17
ATOM     17  C   UNL A   1      33.857  26.373  24.666  1.00  0.00     0.106 C 
ATOM     18  C   UNL A   1      28.384  28.253  23.016  1.00  0.00     0.106 C 
ATOM     19  C   UNL A   1      29.868  28.680  22.806  1.00  0.00     0.252 C 
ATOM     20  C   UNL A   1      29.719  30.140  22.219  1.00  0.00     0.106 C 
ATOM     21  O   UNL A   1      30.775  29.072  24.329  1.00  0.00    -0.419 OA
ATOM     22  O   UNL A   1      30.686  27.294  21.846  1.00  0.00    -0.419 OA
ATOM     23  C   UNL A   1      32.205  28.480  24.831  1.00  0.00     0.350 C 
ATOM     24  C   UNL A   1      32.226  26.521  22.271  1.00  0.00     0.350 C 
ATOM     25  O   UNL A   1      32.719  28.945  25.842  1.00  0.00    -0.246 OA
ATOM     26  C   UNL A   1      33.002  27.083  23.904  1.00  0.00     0.161 C 
ATOM     27  O   UNL A   1      32.746  25.718  21.511  1.00  0.00    -0.246 OA
ENDBRANCH  15  17
ENDBRANCH  10  15
ENDBRANCH   6   9
ENDBRANCH   4   5
ENDBRANCH   3   4
ENDBRANCH   2   3
ENDBRANCH   1   2
BRANCH   1  28
ATOM     28  C   UNL A   1      43.390  23.964  26.705  1.00  0.00     0.021 C 
BRANCH  28  29
ATOM     29  C   UNL A   1      44.351  25.500  26.586  1.00  0.00     0.116 C 
BRANCH  29  30
ATOM     30  N   UNL A   1      43.964  26.481  25.541  1.00  0.00    -0.352 N 
ATOM     31  C   UNL A   1      42.911  27.354  25.481  1.00  0.00     0.251 C 
ATOM     32  H   UNL A   1      44.565  26.508  24.760  1.00  0.00     0.163 HD
ATOM     33  O   UNL A   1      42.487  27.817  24.432  1.00  0.00    -0.269 OA
BRANCH  31  34
ATOM     34  C   UNL A   1      42.391  27.774  26.770  1.00  0.00     0.039 A 
ATOM     35  C   UNL A   1      41.463  27.023  27.490  1.00  0.00     0.014 A 
ATOM     36  C   UNL A   1      42.968  28.943  27.263  1.00  0.00     0.014 A 
ATOM     37  C   UNL A   1      41.124  27.458  28.766  1.00  0.00     0.010 A 
ATOM     38  C   UNL A   1      42.692  29.322  28.550  1.00  0.00     0.010 A 
ATOM     39  C   UNL A   1      41.748  28.601  29.294  1.00  0.00    -0.014 A 
BRANCH  39  40
ATOM     40  C   UNL A   1      41.398  29.173  30.602  1.00  0.00     0.031 A 
ATOM     41  C   UNL A   1      40.230  30.114  30.658  1.00  0.00     0.074 A 
ATOM     42  C   UNL A   1      42.220  28.981  31.647  1.00  0.00     0.049 A 
ATOM     43  N   UNL A   1      39.881  30.942  31.602  1.00  0.00    -0.248 NA
ATOM     44  C   UNL A   1      39.383  30.185  29.450  1.00  0.00     0.031 C 
ATOM     45  C   UNL A   1      43.411  28.127  31.649  1.00  0.00     0.029 A 
ATOM     46  N   UNL A   1      42.193  29.521  32.902  1.00  0.00    -0.354 N 
ATOM     47  C   UNL A   1      38.794  31.643  31.095  1.00  0.00     0.074 A 
ATOM     48  C   UNL A   1      38.596  31.210  29.732  1.00  0.00     0.031 C 
ATOM     49  C   UNL A   1      43.992  28.192  32.858  1.00  0.00     0.029 A 
ATOM     50  C   UNL A   1      43.240  29.120  33.694  1.00  0.00     0.049 A 
ATOM     51  H   UNL A   1      41.490  30.139  33.207  1.00  0.00     0.167 HD
ATOM     52  C   UNL A   1      38.009  32.540  31.732  1.00  0.00     0.037 A 
ATOM     53  C   UNL A   1      43.547  29.482  34.953  1.00  0.00     0.037 A 
ATOM     54  C   UNL A   1      38.210  32.916  33.104  1.00  0.00     0.049 A 
ATOM     55  C   UNL A   1      42.647  30.473  35.646  1.00  0.00     0.074 A 
ATOM     56  C   UNL A   1      37.457  33.770  33.885  1.00  0.00     0.029 A 
ATOM     57  N   UNL A   1      39.241  32.438  33.903  1.00  0.00    -0.354 N 
ATOM     58  N   UNL A   1      41.587  31.092  35.179  1.00  0.00    -0.248 NA
ATOM     59  C   UNL A   1      42.978  30.806  37.035  1.00  0.00     0.031 C 
ATOM     60  C   UNL A   1      38.050  33.834  35.149  1.00  0.00     0.029 A 
ATOM     61  C   UNL A   1      39.145  32.981  35.170  1.00  0.00     0.049 A 
ATOM     62  H   UNL A   1      39.937  31.806  33.611  1.00  0.00     0.167 HD
ATOM     63  C   UNL A   1      41.100  31.858  36.232  1.00  0.00     0.074 A 
ATOM     64  C   UNL A   1      41.978  31.613  37.360  1.00  0.00     0.031 C 
ATOM     65  C   UNL A   1      40.028  32.688  36.271  1.00  0.00     0.037 A 
BRANCH  52  66
ATOM     66  C   UNL A   1      36.859  33.130  30.966  1.00  0.00     0.058 A 
ATOM     67  C   UNL A   1      35.541  32.687  31.168  1.00  0.00     0.135 A 
ATOM     68  C   UNL A   1      37.064  34.164  30.039  1.00  0.00     0.135 A 
ATOM     69  F   UNL A   1      35.288  31.684  32.024  1.00  0.00    -0.206 F 
ATOM     70  C   UNL A   1      34.473  33.227  30.460  1.00  0.00     0.059 A 
ATOM     71  C   UNL A   1      36.006  34.743  29.344  1.00  0.00     0.059 A 
ATOM     72  F   UNL A   1      38.304  34.621  29.797  1.00  0.00    -0.206 F 
ATOM     73  C   UNL A   1      34.715  34.259  29.554  1.00  0.00     0.060 A 
BRANCH  73  74
ATOM     74  S   UNL A   1      33.310  34.969  28.671  1.00  0.00     0.124 S 
ATOM     75  O   UNL A   1      32.797  33.806  27.956  1.00  0.00    -0.237 OA
ATOM     76  O   UNL A   1      32.476  35.462  29.761  1.00  0.00    -0.237 OA
ATOM     77  O   UNL A   1      33.919  36.000  27.836  1.00  0.00    -0.744 OA
ENDBRANCH  73  74
ENDBRANCH  52  66
BRANCH  53  78
ATOM     78  C   UNL A   1      44.713  28.879  35.648  1.00  0.00     0.058 A 
ATOM     79  C   UNL A   1      45.982  29.470  35.552  1.00  0.00     0.135 A 
ATOM     80  C   UNL A   1      44.594  27.710  36.415  1.00  0.00     0.135 A 
ATOM     81  F   UNL A   1      46.146  30.594  34.838  1.00  0.00    -0.206 F 
ATOM     82  C   UNL A   1      47.099  28.903  36.154  1.00  0.00     0.059 A 
ATOM     83  C   UNL A   1      45.692  27.139  37.052  1.00  0.00     0.059 A 
ATOM     84  F   UNL A   1      43.398  27.120  36.565  1.00  0.00    -0.206 F 
ATOM     85  C   UNL A   1      46.945  27.733  36.899  1.00  0.00     0.060 A 
BRANCH  85  86
ATOM     86  S   UNL A   1      48.403  27.009  37.678  1.00  0.00     0.124 S 
ATOM     87  O   UNL A   1      49.055  28.189  38.234  1.00  0.00    -0.237 OA
ATOM     88  O   UNL A   1      47.810  26.091  38.646  1.00  0.00    -0.237 OA
ATOM     89  O   UNL A   1      49.097  26.371  36.563  1.00  0.00    -0.744 OA
ENDBRANCH  85  86
ENDBRANCH  53  78
BRANCH  65  90
ATOM     90  C   UNL A   1      39.718  33.343  37.587  1.00  0.00     0.058 A 
ATOM     91  C   UNL A   1      40.387  34.500  38.011  1.00  0.00     0.135 A 
ATOM     92  C   UNL A   1      38.690  32.837  38.399  1.00  0.00     0.135 A 
ATOM     93  F   UNL A   1      41.381  35.017  37.272  1.00  0.00    -0.206 F 
ATOM     94  C   UNL A   1      40.067  35.119  39.213  1.00  0.00     0.059 A 
ATOM     95  C   UNL A   1      38.329  33.461  39.587  1.00  0.00     0.059 A 
ATOM     96  F   UNL A   1      38.010  31.742  38.027  1.00  0.00    -0.206 F 
ATOM     97  C   UNL A   1      39.032  34.594  39.991  1.00  0.00     0.060 A 
BRANCH  97  98
ATOM     98  S   UNL A   1      38.600  35.434  41.528  1.00  0.00     0.124 S 
ATOM     99  O   UNL A   1      38.672  36.835  41.127  1.00  0.00    -0.237 OA
ATOM    100  O   UNL A   1      37.260  34.920  41.797  1.00  0.00    -0.237 OA
ATOM    101  O   UNL A   1      39.633  34.993  42.460  1.00  0.00    -0.744 OA
ENDBRANCH  97  98
ENDBRANCH  65  90
ENDBRANCH  39  40
ENDBRANCH  31  34
ENDBRANCH  29  30
ENDBRANCH  28  29
ENDBRANCH   1  28
TORSDOF 18
ENDMDL
MODEL 3
REMARK VINA RESULT:     -11.7      5.248     13.816
REMARK SMILES CC1(C)OC(=O)C(=CNc2ccccc2C(=O)NCCCCCCNC(=O)c2ccc(-c3c4nc(c(-c5c(F)cc(S(=O)(=O)[O-])cc5F)c5ccc([nH]5)c(-c5c(F)cc(S(=O)(=O)[O-])cc5F)c5nc(c(-c6c(F)cc(S(=O)(=O)[O-])cc6F)c6ccc3[nH]6)C=C5)C=C4)cc2)C(=O)O1
REMARK SMILES IDX 22 1 21 2 20 3 19 4 18 5 16 6 17 7 15 9 10 10 11 11 12 12
REMARK SMILES IDX 14 13 13 14 9 15 8 17 1 18 2 19 3 20 4 21 96 22 5 23 94 24
REMARK SMILES IDX 6 25 7 26 95 27 23 28 24 29 25 30 26 31 27 33 28 34 29 35
REMARK SMILES IDX 93 36 30 37 92 38 31 39 32 40 33 41 86 42 34 43 91 44 85 45
REMARK SMILES IDX 87 46 35 47 90 48 84 49 83 50 36 52 70 53 49 54 69 55 50 56
REMARK SMILES IDX 53 57 68 58 88 59 51 60 52 61 67 63 89 64 54 65 37 66 38 67
REMARK SMILES IDX 47 68 39 69 40 70 46 71 48 72 41 73 42 74 43 75 44 76 45 77
REMARK SMILES IDX 71 78 72 79 81 80 73 81 74 82 80 83 82 84 75 85 76 86 77 87
REMARK SMILES IDX 78 88 79 89 55 90 56 91 65 92 57 93 58 94 64 95 66 96 59 97
REMARK SMILES IDX 60 98 61 99 62 100 63 101
REMARK H PARENT 18 8 9 16 25 32 87 51 53 62
REMARK Flexibility Score: inf
ROOT
ATOM      1  C   UNL A   1      43.150  22.993  29.389  1.00  0.00     0.002 C 
ENDROOT
BRANCH   1   2
ATOM      2  C   UNL A   1      44.810  23.426  29.680  1.00  0.00     0.002 C 
BRANCH   2   3
ATOM      3  C   UNL A   1      45.671  24.302  28.751  1.00  0.00     0.021 C 
BRANCH   3   4
ATOM      4  C   UNL A   1      46.122  23.716  27.428  1.00  0.00     0.116 C 
BRANCH   4   5
ATOM      5  N   UNL A   1      45.585  24.403  26.279  1.00  0.00    -0.352 N 
ATOM      6  C   UNL A   1      45.927  25.650  25.818  1.00  0.00     0.253 C 
ATOM      7  O   UNL A   1      45.325  26.126  24.858  1.00  0.00    -0.269 OA
ATOM      8  H   UNL A   1      44.895  23.924  25.766  1.00  0.00     0.163 HD
BRANCH   6   9
ATOM      9  C   UNL A   1      46.875  26.490  26.589  1.00  0.00     0.063 A 
ATOM     10  C   UNL A   1      46.551  27.587  27.419  1.00  0.00     0.051 A 
ATOM     11  C   UNL A   1      47.628  28.317  27.960  1.00  0.00     0.027 A 
ATOM     12  C   UNL A   1      48.962  28.003  27.670  1.00  0.00     0.002 A 
ATOM     13  C   UNL A   1      48.223  26.168  26.317  1.00  0.00     0.016 A 
ATOM     14  C   UNL A   1      49.262  26.930  26.842  1.00  0.00     0.001 A 
BRANCH  10  15
ATOM     15  N   UNL A   1      45.256  28.083  27.720  1.00  0.00    -0.360 N 
ATOM     16  H   UNL A   1      44.510  27.460  27.567  1.00  0.00     0.166 HD
BRANCH  15  17
ATOM     17  C   UNL A   1      44.914  29.322  28.198  1.00  0.00     0.106 C 
ATOM     18  C   UNL A   1      43.284  34.380  25.376  1.00  0.00     0.106 C 
ATOM     19  C   UNL A   1      44.440  33.889  26.298  1.00  0.00     0.252 C 
ATOM     20  C   UNL A   1      45.130  35.244  26.725  1.00  0.00     0.106 C 
ATOM     21  O   UNL A   1      43.919  33.301  27.934  1.00  0.00    -0.419 OA
ATOM     22  O   UNL A   1      45.351  32.560  25.340  1.00  0.00    -0.419 OA
ATOM     23  C   UNL A   1      44.268  31.885  28.655  1.00  0.00     0.350 C 
ATOM     24  C   UNL A   1      45.784  30.958  25.965  1.00  0.00     0.350 C 
ATOM     25  O   UNL A   1      43.914  31.705  29.815  1.00  0.00    -0.246 OA
ATOM     26  C   UNL A   1      45.139  30.553  27.699  1.00  0.00     0.161 C 
ATOM     27  O   UNL A   1      46.495  30.209  25.312  1.00  0.00    -0.246 OA
ENDBRANCH  15  17
ENDBRANCH  10  15
ENDBRANCH   6   9
ENDBRANCH   4   5
ENDBRANCH   3   4
ENDBRANCH   2   3
ENDBRANCH   1   2
BRANCH   1  28
ATOM     28  C   UNL A   1      42.009  22.812  27.562  1.00  0.00     0.021 C 
BRANCH  28  29
ATOM     29  C   UNL A   1      40.437  21.949  27.276  1.00  0.00     0.116 C 
BRANCH  29  30
ATOM     30  N   UNL A   1      39.605  22.386  26.127  1.00  0.00    -0.352 N 
ATOM     31  C   UNL A   1      38.735  23.437  26.003  1.00  0.00     0.251 C 
ATOM     32  H   UNL A   1      39.693  21.828  25.320  1.00  0.00     0.163 HD
ATOM     33  O   UNL A   1      37.840  23.467  25.171  1.00  0.00    -0.269 OA
BRANCH  31  34
ATOM     34  C   UNL A   1      39.012  24.566  26.872  1.00  0.00     0.039 A 
ATOM     35  C   UNL A   1      38.558  24.636  28.188  1.00  0.00     0.014 A 
ATOM     36  C   UNL A   1      39.847  25.527  26.305  1.00  0.00     0.014 A 
ATOM     37  C   UNL A   1      38.982  25.706  28.967  1.00  0.00     0.010 A 
ATOM     38  C   UNL A   1      40.327  26.535  27.100  1.00  0.00     0.010 A 
ATOM     39  C   UNL A   1      39.874  26.646  28.422  1.00  0.00    -0.014 A 
BRANCH  39  40
ATOM     40  C   UNL A   1      40.316  27.846  29.147  1.00  0.00     0.031 A 
ATOM     41  C   UNL A   1      41.627  27.772  29.875  1.00  0.00     0.074 A 
ATOM     42  C   UNL A   1      39.474  28.882  29.282  1.00  0.00     0.049 A 
ATOM     43  N   UNL A   1      42.111  28.568  30.785  1.00  0.00    -0.248 NA
ATOM     44  C   UNL A   1      42.473  26.595  29.589  1.00  0.00     0.031 C 
ATOM     45  C   UNL A   1      38.155  28.997  28.654  1.00  0.00     0.029 A 
ATOM     46  N   UNL A   1      39.592  30.025  30.022  1.00  0.00    -0.354 N 
ATOM     47  C   UNL A   1      43.302  27.980  31.194  1.00  0.00     0.074 A 
ATOM     48  C   UNL A   1      43.424  26.720  30.501  1.00  0.00     0.031 C 
ATOM     49  C   UNL A   1      37.594  30.158  29.026  1.00  0.00     0.029 A 
ATOM     50  C   UNL A   1      38.493  30.843  29.947  1.00  0.00     0.049 A 
ATOM     51  H   UNL A   1      40.390  30.240  30.557  1.00  0.00     0.167 HD
ATOM     52  C   UNL A   1      44.228  28.475  32.045  1.00  0.00     0.037 A 
ATOM     53  C   UNL A   1      38.251  32.010  30.571  1.00  0.00     0.037 A 
ATOM     54  C   UNL A   1      44.094  29.755  32.684  1.00  0.00     0.049 A 
ATOM     55  C   UNL A   1      39.306  32.548  31.503  1.00  0.00     0.074 A 
ATOM     56  C   UNL A   1      44.982  30.399  33.524  1.00  0.00     0.029 A 
ATOM     57  N   UNL A   1      42.997  30.594  32.534  1.00  0.00    -0.354 N 
ATOM     58  N   UNL A   1      40.456  32.013  31.845  1.00  0.00    -0.248 NA
ATOM     59  C   UNL A   1      39.038  33.848  32.126  1.00  0.00     0.031 C 
ATOM     60  C   UNL A   1      44.408  31.614  33.907  1.00  0.00     0.029 A 
ATOM     61  C   UNL A   1      43.184  31.750  33.267  1.00  0.00     0.049 A 
ATOM     62  H   UNL A   1      42.204  30.395  31.986  1.00  0.00     0.167 HD
ATOM     63  C   UNL A   1      41.067  32.931  32.691  1.00  0.00     0.074 A 
ATOM     64  C   UNL A   1      40.160  34.058  32.799  1.00  0.00     0.031 C 
ATOM     65  C   UNL A   1      42.264  32.858  33.324  1.00  0.00     0.037 A 
BRANCH  52  66
ATOM     66  C   UNL A   1      45.462  27.653  32.290  1.00  0.00     0.058 A 
ATOM     67  C   UNL A   1      46.689  27.976  31.686  1.00  0.00     0.135 A 
ATOM     68  C   UNL A   1      45.432  26.547  33.154  1.00  0.00     0.135 A 
ATOM     69  F   UNL A   1      46.771  29.009  30.831  1.00  0.00    -0.206 F 
ATOM     70  C   UNL A   1      47.833  27.218  31.906  1.00  0.00     0.059 A 
ATOM     71  C   UNL A   1      46.573  25.794  33.416  1.00  0.00     0.059 A 
ATOM     72  F   UNL A   1      44.285  26.185  33.752  1.00  0.00    -0.206 F 
ATOM     73  C   UNL A   1      47.766  26.131  32.778  1.00  0.00     0.060 A 
BRANCH  73  74
ATOM     74  S   UNL A   1      49.271  25.181  33.077  1.00  0.00     0.124 S 
ATOM     75  O   UNL A   1      50.062  26.124  33.861  1.00  0.00    -0.237 OA
ATOM     76  O   UNL A   1      48.766  24.020  33.802  1.00  0.00    -0.237 OA
ATOM     77  O   UNL A   1      49.772  24.907  31.733  1.00  0.00    -0.744 OA
ENDBRANCH  73  74
ENDBRANCH  52  66
BRANCH  53  78
ATOM     78  C   UNL A   1      37.000  32.765  30.304  1.00  0.00     0.058 A 
ATOM     79  C   UNL A   1      36.881  33.564  29.158  1.00  0.00     0.135 A 
ATOM     80  C   UNL A   1      35.902  32.711  31.177  1.00  0.00     0.135 A 
ATOM     81  F   UNL A   1      37.900  33.643  28.287  1.00  0.00    -0.206 F 
ATOM     82  C   UNL A   1      35.740  34.317  28.906  1.00  0.00     0.059 A 
ATOM     83  C   UNL A   1      34.737  33.431  30.932  1.00  0.00     0.059 A 
ATOM     84  F   UNL A   1      35.950  31.937  32.274  1.00  0.00    -0.206 F 
ATOM     85  C   UNL A   1      34.674  34.247  29.802  1.00  0.00     0.060 A 
BRANCH  85  86
ATOM     86  S   UNL A   1      33.196  35.226  29.462  1.00  0.00     0.124 S 
ATOM     87  O   UNL A   1      33.776  36.507  29.075  1.00  0.00    -0.237 OA
ATOM     88  O   UNL A   1      32.562  34.462  28.392  1.00  0.00    -0.237 OA
ATOM     89  O   UNL A   1      32.485  35.215  30.737  1.00  0.00    -0.744 OA
ENDBRANCH  85  86
ENDBRANCH  53  78
BRANCH  65  90
ATOM     90  C   UNL A   1      42.682  34.049  34.139  1.00  0.00     0.058 A 
ATOM     91  C   UNL A   1      42.314  34.188  35.485  1.00  0.00     0.135 A 
ATOM     92  C   UNL A   1      43.515  35.029  33.575  1.00  0.00     0.135 A 
ATOM     93  F   UNL A   1      41.514  33.280  36.065  1.00  0.00    -0.206 F 
ATOM     94  C   UNL A   1      42.736  35.275  36.240  1.00  0.00     0.059 A 
ATOM     95  C   UNL A   1      43.978  36.106  34.322  1.00  0.00     0.059 A 
ATOM     96  F   UNL A   1      43.906  34.931  32.295  1.00  0.00    -0.206 F 
ATOM     97  C   UNL A   1      43.572  36.226  35.650  1.00  0.00     0.060 A 
BRANCH  97  98
ATOM     98  S   UNL A   1      44.147  37.610  36.655  1.00  0.00     0.124 S 
ATOM     99  O   UNL A   1      43.986  38.729  35.732  1.00  0.00    -0.237 OA
ATOM    100  O   UNL A   1      43.221  37.580  37.783  1.00  0.00    -0.237 OA
ATOM    101  O   UNL A   1      45.525  37.250  36.973  1.00  0.00    -0.744 OA
ENDBRANCH  97  98
ENDBRANCH  65  90
ENDBRANCH  39  40
ENDBRANCH  31  34
ENDBRANCH  29  30
ENDBRANCH  28  29
ENDBRANCH   1  28
TORSDOF 18
ENDMDL
