MODEL 1
REMARK VINA RESULT:     -12.9      0.000      0.000
REMARK SMILES O=C(Cn1cc(/C=C2\SC(N3CCOCC3)=[NH+]C2=O)c2ccccc21)NCCCCCCNC(=O)c1ccc(-c2c3nc(c(-c4c(F)cc(S(=O)(=O)[O-])cc4F)c4ccc([nH]4)c(-c4c(F)cc(S(=O)(=O)[O-])cc4F)c4nc(c(-c5c(F)cc(S(=O)(=O)[O-])cc5F)c5ccc2[nH]5)C=C4)C=C3)cc1
REMARK SMILES IDX 30 1 29 2 28 3 27 4 26 5 1 6 2 7 3 9 4 10 5 11 25 12 6 13
REMARK SMILES IDX 20 14 24 15 21 16 23 17 22 18 7 19 8 20 9 21 18 22 10 23
REMARK SMILES IDX 17 24 19 25 11 26 12 28 16 29 13 30 15 31 14 32 31 33 32 34
REMARK SMILES IDX 33 35 34 36 35 38 36 39 37 40 101 41 38 42 100 43 39 44
REMARK SMILES IDX 40 45 41 46 94 47 42 48 99 49 93 50 95 51 43 52 98 53 92 54
REMARK SMILES IDX 91 55 44 57 78 58 57 59 77 60 58 61 61 62 76 63 96 64 59 65
REMARK SMILES IDX 60 66 75 68 97 69 62 70 45 71 46 72 55 73 47 74 48 75 54 76
REMARK SMILES IDX 56 77 49 78 50 79 51 80 52 81 53 82 79 83 80 84 89 85 81 86
REMARK SMILES IDX 82 87 88 88 90 89 83 90 84 91 85 92 86 93 87 94 63 95 64 96
REMARK SMILES IDX 73 97 65 98 66 99 72 100 74 101 67 102 68 103 69 104 70 105
REMARK SMILES IDX 71 106
REMARK H PARENT 26 8 17 27 33 37 95 56 61 67
REMARK Flexibility Score: inf
ROOT
ATOM      1  C   UNL A   1      41.072  23.477  28.212  1.00  0.00     0.002 C 
ENDROOT
BRANCH   1   2
ATOM      2  C   UNL A   1      40.276  24.490  27.381  1.00  0.00     0.002 C 
BRANCH   2   3
ATOM      3  C   UNL A   1      38.753  24.303  27.411  1.00  0.00     0.021 C 
BRANCH   3   4
ATOM      4  C   UNL A   1      38.135  23.974  26.052  1.00  0.00     0.116 C 
BRANCH   4   5
ATOM      5  N   UNL A   1      37.796  22.569  25.961  1.00  0.00    -0.355 N 
ATOM      6  O   UNL A   1      37.064  22.617  23.788  1.00  0.00    -0.273 OA
ATOM      7  C   UNL A   1      37.270  21.992  24.827  1.00  0.00     0.239 C 
ATOM      8  H   UNL A   1      37.949  21.998  26.749  1.00  0.00     0.163 HD
BRANCH   7   9
ATOM      9  C   UNL A   1      36.832  20.549  24.974  1.00  0.00     0.222 C 
BRANCH   9  10
ATOM     10  N   UNL A   1      35.398  20.402  25.166  1.00  0.00    -0.337 N 
ATOM     11  C   UNL A   1      34.610  21.367  25.735  1.00  0.00     0.095 A 
ATOM     12  C   UNL A   1      34.634  19.303  24.821  1.00  0.00     0.049 A 
ATOM     13  C   UNL A   1      33.311  20.912  25.720  1.00  0.00     0.001 A 
ATOM     14  C   UNL A   1      33.309  19.603  25.168  1.00  0.00     0.007 A 
ATOM     15  C   UNL A   1      34.983  18.083  24.216  1.00  0.00     0.027 A 
ATOM     16  C   UNL A   1      32.305  18.650  24.904  1.00  0.00     0.011 A 
ATOM     17  C   UNL A   1      33.966  17.159  23.961  1.00  0.00     0.002 A 
ATOM     18  C   UNL A   1      32.646  17.435  24.300  1.00  0.00     0.001 A 
BRANCH  13  19
ATOM     19  C   UNL A   1      32.207  21.676  26.198  1.00  0.00     0.034 C 
ATOM     20  C   UNL A   1      31.833  22.874  25.729  1.00  0.00     0.110 C 
ATOM     21  S   UNL A   1      32.469  23.721  24.380  1.00  0.00     0.006 SA
ATOM     22  C   UNL A   1      30.799  23.716  26.396  1.00  0.00     0.346 C 
ATOM     23  C   UNL A   1      31.529  25.132  24.834  1.00  0.00     0.319 C 
ATOM     24  N   UNL A   1      30.779  24.994  25.878  1.00  0.00    -0.200 N 
ATOM     25  O   UNL A   1      30.110  23.319  27.321  1.00  0.00    -0.240 OA
ATOM     26  N   UNL A   1      31.724  26.286  24.132  1.00  0.00    -0.251 N 
ATOM     27  H   UNL A   1      30.246  25.727  26.264  1.00  0.00     0.316 HD
ATOM     28  C   UNL A   1      31.743  26.372  22.666  1.00  0.00     0.265 C 
ATOM     29  C   UNL A   1      31.860  27.582  24.790  1.00  0.00     0.265 C 
ATOM     30  C   UNL A   1      33.019  27.096  22.215  1.00  0.00     0.206 C 
ATOM     31  C   UNL A   1      33.154  28.245  24.287  1.00  0.00     0.206 C 
ATOM     32  O   UNL A   1      33.159  28.379  22.857  1.00  0.00    -0.373 OA
ENDBRANCH  13  19
ENDBRANCH   9  10
ENDBRANCH   7   9
ENDBRANCH   4   5
ENDBRANCH   3   4
ENDBRANCH   2   3
ENDBRANCH   1   2
BRANCH   1  33
ATOM     33  C   UNL A   1      41.976  22.536  27.404  1.00  0.00     0.021 C 
BRANCH  33  34
ATOM     34  C   UNL A   1      41.613  22.442  25.921  1.00  0.00     0.116 C 
BRANCH  34  35
ATOM     35  N   UNL A   1      42.713  22.740  25.028  1.00  0.00    -0.352 N 
ATOM     36  C   UNL A   1      43.676  23.708  24.983  1.00  0.00     0.251 C 
ATOM     37  H   UNL A   1      42.783  22.100  24.284  1.00  0.00     0.163 HD
ATOM     38  O   UNL A   1      44.564  23.554  24.140  1.00  0.00    -0.269 OA
BRANCH  36  39
ATOM     39  C   UNL A   1      43.659  24.953  25.794  1.00  0.00     0.039 A 
ATOM     40  C   UNL A   1      44.319  25.139  27.009  1.00  0.00     0.014 A 
ATOM     41  C   UNL A   1      42.816  25.974  25.317  1.00  0.00     0.014 A 
ATOM     42  C   UNL A   1      44.005  26.221  27.817  1.00  0.00     0.010 A 
ATOM     43  C   UNL A   1      42.528  27.078  26.104  1.00  0.00     0.010 A 
ATOM     44  C   UNL A   1      43.057  27.147  27.387  1.00  0.00    -0.014 A 
BRANCH  44  45
ATOM     45  C   UNL A   1      42.689  28.221  28.299  1.00  0.00     0.031 A 
ATOM     46  C   UNL A   1      43.687  29.330  28.378  1.00  0.00     0.074 A 
ATOM     47  C   UNL A   1      41.486  28.231  28.912  1.00  0.00     0.049 A 
ATOM     48  N   UNL A   1      44.318  29.781  29.413  1.00  0.00    -0.248 NA
ATOM     49  C   UNL A   1      44.153  29.912  27.104  1.00  0.00     0.031 C 
ATOM     50  C   UNL A   1      40.357  27.316  28.703  1.00  0.00     0.029 A 
ATOM     51  N   UNL A   1      40.967  29.142  29.777  1.00  0.00    -0.354 N 
ATOM     52  C   UNL A   1      45.099  30.843  28.956  1.00  0.00     0.074 A 
ATOM     53  C   UNL A   1      45.082  30.773  27.519  1.00  0.00     0.031 C 
ATOM     54  C   UNL A   1      39.231  27.869  29.207  1.00  0.00     0.029 A 
ATOM     55  C   UNL A   1      39.579  29.099  29.892  1.00  0.00     0.049 A 
ATOM     56  H   UNL A   1      41.525  29.779  30.278  1.00  0.00     0.167 HD
ATOM     57  C   UNL A   1      45.542  31.828  29.786  1.00  0.00     0.037 A 
ATOM     58  C   UNL A   1      38.794  30.072  30.425  1.00  0.00     0.037 A 
ATOM     59  C   UNL A   1      45.495  31.415  31.162  1.00  0.00     0.049 A 
ATOM     60  C   UNL A   1      39.680  30.925  31.267  1.00  0.00     0.074 A 
ATOM     61  C   UNL A   1      46.133  30.435  31.897  1.00  0.00     0.029 A 
ATOM     62  N   UNL A   1      44.417  31.806  31.916  1.00  0.00    -0.354 N 
ATOM     63  N   UNL A   1      40.267  30.503  32.355  1.00  0.00    -0.248 NA
ATOM     64  C   UNL A   1      40.303  32.074  30.626  1.00  0.00     0.031 C 
ATOM     65  C   UNL A   1      45.141  29.942  32.790  1.00  0.00     0.029 A 
ATOM     66  C   UNL A   1      43.983  30.699  32.604  1.00  0.00     0.049 A 
ATOM     67  H   UNL A   1      44.028  32.709  31.957  1.00  0.00     0.167 HD
ATOM     68  C   UNL A   1      41.542  31.050  32.309  1.00  0.00     0.074 A 
ATOM     69  C   UNL A   1      41.488  32.049  31.242  1.00  0.00     0.031 C 
ATOM     70  C   UNL A   1      42.598  30.451  32.934  1.00  0.00     0.037 A 
BRANCH  57  71
ATOM     71  C   UNL A   1      45.704  33.272  29.376  1.00  0.00     0.058 A 
ATOM     72  C   UNL A   1      44.615  33.967  28.809  1.00  0.00     0.135 A 
ATOM     73  C   UNL A   1      46.959  33.910  29.260  1.00  0.00     0.135 A 
ATOM     74  F   UNL A   1      43.377  33.451  28.853  1.00  0.00    -0.206 F 
ATOM     75  C   UNL A   1      44.775  35.171  28.121  1.00  0.00     0.059 A 
ATOM     76  C   UNL A   1      47.133  35.133  28.624  1.00  0.00     0.059 A 
ATOM     77  F   UNL A   1      48.093  33.331  29.674  1.00  0.00    -0.206 F 
ATOM     78  C   UNL A   1      46.043  35.738  28.021  1.00  0.00     0.060 A 
BRANCH  78  79
ATOM     79  S   UNL A   1      46.270  37.232  27.040  1.00  0.00     0.124 S 
ATOM     80  O   UNL A   1      46.745  36.682  25.774  1.00  0.00    -0.237 OA
ATOM     81  O   UNL A   1      44.923  37.792  27.028  1.00  0.00    -0.237 OA
ATOM     82  O   UNL A   1      47.254  37.992  27.806  1.00  0.00    -0.744 OA
ENDBRANCH  78  79
ENDBRANCH  57  71
BRANCH  58  83
ATOM     83  C   UNL A   1      37.489  30.565  29.897  1.00  0.00     0.058 A 
ATOM     84  C   UNL A   1      36.500  31.077  30.757  1.00  0.00     0.135 A 
ATOM     85  C   UNL A   1      37.301  30.820  28.522  1.00  0.00     0.135 A 
ATOM     86  F   UNL A   1      36.605  30.898  32.083  1.00  0.00    -0.206 F 
ATOM     87  C   UNL A   1      35.423  31.841  30.290  1.00  0.00     0.059 A 
ATOM     88  C   UNL A   1      36.233  31.572  28.033  1.00  0.00     0.059 A 
ATOM     89  F   UNL A   1      38.206  30.428  27.613  1.00  0.00    -0.206 F 
ATOM     90  C   UNL A   1      35.312  32.105  28.925  1.00  0.00     0.060 A 
BRANCH  90  91
ATOM     91  S   UNL A   1      34.039  33.247  28.335  1.00  0.00     0.124 S 
ATOM     92  O   UNL A   1      33.112  32.345  27.660  1.00  0.00    -0.237 OA
ATOM     93  O   UNL A   1      33.560  33.841  29.578  1.00  0.00    -0.237 OA
ATOM     94  O   UNL A   1      34.775  34.154  27.458  1.00  0.00    -0.744 OA
ENDBRANCH  90  91
ENDBRANCH  58  83
BRANCH  70  95
ATOM     95  C   UNL A   1      42.317  29.311  33.882  1.00  0.00     0.058 A 
ATOM     96  C   UNL A   1      42.339  27.951  33.524  1.00  0.00     0.135 A 
ATOM     97  C   UNL A   1      42.171  29.608  35.244  1.00  0.00     0.135 A 
ATOM     98  F   UNL A   1      42.586  27.574  32.261  1.00  0.00    -0.206 F 
ATOM     99  C   UNL A   1      42.171  26.935  34.470  1.00  0.00     0.059 A 
ATOM    100  C   UNL A   1      42.037  28.613  36.209  1.00  0.00     0.059 A 
ATOM    101  F   UNL A   1      42.210  30.884  35.662  1.00  0.00    -0.206 F 
ATOM    102  C   UNL A   1      42.020  27.278  35.813  1.00  0.00     0.060 A 
BRANCH 102 103
ATOM    103  S   UNL A   1      41.848  25.968  37.044  1.00  0.00     0.124 S 
ATOM    104  O   UNL A   1      40.488  26.178  37.529  1.00  0.00    -0.237 OA
ATOM    105  O   UNL A   1      42.060  24.758  36.253  1.00  0.00    -0.237 OA
ATOM    106  O   UNL A   1      42.906  26.263  38.008  1.00  0.00    -0.744 OA
ENDBRANCH 102 103
ENDBRANCH  70  95
ENDBRANCH  44  45
ENDBRANCH  36  39
ENDBRANCH  34  35
ENDBRANCH  33  34
ENDBRANCH   1  33
TORSDOF 18
ENDMDL
MODEL 2
REMARK VINA RESULT:     -12.8      2.644      9.292
REMARK SMILES O=C(Cn1cc(/C=C2\SC(N3CCOCC3)=[NH+]C2=O)c2ccccc21)NCCCCCCNC(=O)c1ccc(-c2c3nc(c(-c4c(F)cc(S(=O)(=O)[O-])cc4F)c4ccc([nH]4)c(-c4c(F)cc(S(=O)(=O)[O-])cc4F)c4nc(c(-c5c(F)cc(S(=O)(=O)[O-])cc5F)c5ccc2[nH]5)C=C4)C=C3)cc1
REMARK SMILES IDX 30 1 29 2 28 3 27 4 26 5 1 6 2 7 3 9 4 10 5 11 25 12 6 13
REMARK SMILES IDX 20 14 24 15 21 16 23 17 22 18 7 19 8 20 9 21 18 22 10 23
REMARK SMILES IDX 17 24 19 25 11 26 12 28 16 29 13 30 15 31 14 32 31 33 32 34
REMARK SMILES IDX 33 35 34 36 35 38 36 39 37 40 101 41 38 42 100 43 39 44
REMARK SMILES IDX 40 45 41 46 94 47 42 48 99 49 93 50 95 51 43 52 98 53 92 54
REMARK SMILES IDX 91 55 44 57 78 58 57 59 77 60 58 61 61 62 76 63 96 64 59 65
REMARK SMILES IDX 60 66 75 68 97 69 62 70 45 71 46 72 55 73 47 74 48 75 54 76
REMARK SMILES IDX 56 77 49 78 50 79 51 80 52 81 53 82 79 83 80 84 89 85 81 86
REMARK SMILES IDX 82 87 88 88 90 89 83 90 84 91 85 92 86 93 87 94 63 95 64 96
REMARK SMILES IDX 73 97 65 98 66 99 72 100 74 101 67 102 68 103 69 104 70 105
REMARK SMILES IDX 71 106
REMARK H PARENT 26 8 17 27 33 37 95 56 61 67
REMARK Flexibility Score: inf
ROOT
ATOM      1  C   UNL A   1      36.105  32.755  28.108  1.00  0.00     0.002 C 
ENDROOT
BRANCH   1   2
ATOM      2  C   UNL A   1      35.729  31.313  28.466  1.00  0.00     0.002 C 
BRANCH   2   3
ATOM      3  C   UNL A   1      36.102  30.262  27.411  1.00  0.00     0.021 C 
BRANCH   3   4
ATOM      4  C   UNL A   1      35.169  29.052  27.376  1.00  0.00     0.116 C 
BRANCH   4   5
ATOM      5  N   UNL A   1      34.534  28.922  26.081  1.00  0.00    -0.355 N 
ATOM      6  O   UNL A   1      32.894  30.486  26.435  1.00  0.00    -0.273 OA
ATOM      7  C   UNL A   1      33.426  29.649  25.707  1.00  0.00     0.239 C 
ATOM      8  H   UNL A   1      34.913  28.282  25.435  1.00  0.00     0.163 HD
BRANCH   7   9
ATOM      9  C   UNL A   1      32.810  29.261  24.378  1.00  0.00     0.222 C 
BRANCH   9  10
ATOM     10  N   UNL A   1      31.682  28.353  24.513  1.00  0.00    -0.337 N 
ATOM     11  C   UNL A   1      31.674  27.278  25.362  1.00  0.00     0.095 A 
ATOM     12  C   UNL A   1      30.484  28.429  23.827  1.00  0.00     0.049 A 
ATOM     13  C   UNL A   1      30.442  26.672  25.262  1.00  0.00     0.001 A 
ATOM     14  C   UNL A   1      29.686  27.370  24.282  1.00  0.00     0.007 A 
ATOM     15  C   UNL A   1      30.022  29.344  22.864  1.00  0.00     0.027 A 
ATOM     16  C   UNL A   1      28.388  27.221  23.754  1.00  0.00     0.011 A 
ATOM     17  C   UNL A   1      28.728  29.175  22.363  1.00  0.00     0.002 A 
ATOM     18  C   UNL A   1      27.921  28.129  22.799  1.00  0.00     0.001 A 
BRANCH  13  19
ATOM     19  C   UNL A   1      30.062  25.538  26.036  1.00  0.00     0.034 C 
ATOM     20  C   UNL A   1      30.851  24.493  26.320  1.00  0.00     0.110 C 
ATOM     21  S   UNL A   1      32.519  24.307  25.964  1.00  0.00     0.006 SA
ATOM     22  C   UNL A   1      30.343  23.248  26.963  1.00  0.00     0.346 C 
ATOM     23  C   UNL A   1      32.433  22.632  26.481  1.00  0.00     0.319 C 
ATOM     24  N   UNL A   1      31.281  22.237  26.913  1.00  0.00    -0.200 N 
ATOM     25  O   UNL A   1      29.216  23.142  27.415  1.00  0.00    -0.240 OA
ATOM     26  N   UNL A   1      33.536  21.849  26.303  1.00  0.00    -0.251 N 
ATOM     27  H   UNL A   1      31.091  21.308  27.181  1.00  0.00     0.316 HD
ATOM     28  C   UNL A   1      34.900  22.235  26.690  1.00  0.00     0.265 C 
ATOM     29  C   UNL A   1      33.448  20.494  25.767  1.00  0.00     0.265 C 
ATOM     30  C   UNL A   1      35.841  22.045  25.494  1.00  0.00     0.206 C 
ATOM     31  C   UNL A   1      34.419  20.382  24.579  1.00  0.00     0.206 C 
ATOM     32  O   UNL A   1      35.764  20.708  24.960  1.00  0.00    -0.373 OA
ENDBRANCH  13  19
ENDBRANCH   9  10
ENDBRANCH   7   9
ENDBRANCH   4   5
ENDBRANCH   3   4
ENDBRANCH   2   3
ENDBRANCH   1   2
BRANCH   1  33
ATOM     33  C   UNL A   1      34.969  33.779  28.245  1.00  0.00     0.021 C 
BRANCH  33  34
ATOM     34  C   UNL A   1      34.979  34.549  29.566  1.00  0.00     0.116 C 
BRANCH  34  35
ATOM     35  N   UNL A   1      34.288  33.875  30.644  1.00  0.00    -0.352 N 
ATOM     36  C   UNL A   1      34.678  33.084  31.687  1.00  0.00     0.251 C 
ATOM     37  H   UNL A   1      33.314  34.019  30.620  1.00  0.00     0.163 HD
ATOM     38  O   UNL A   1      33.808  32.806  32.516  1.00  0.00    -0.269 OA
BRANCH  36  39
ATOM     39  C   UNL A   1      36.024  32.470  31.821  1.00  0.00     0.039 A 
ATOM     40  C   UNL A   1      37.240  33.137  31.667  1.00  0.00     0.014 A 
ATOM     41  C   UNL A   1      36.037  31.077  32.022  1.00  0.00     0.014 A 
ATOM     42  C   UNL A   1      38.418  32.420  31.525  1.00  0.00     0.010 A 
ATOM     43  C   UNL A   1      37.217  30.358  31.920  1.00  0.00     0.010 A 
ATOM     44  C   UNL A   1      38.387  31.029  31.583  1.00  0.00    -0.014 A 
BRANCH  44  45
ATOM     45  C   UNL A   1      39.629  30.307  31.343  1.00  0.00     0.031 A 
ATOM     46  C   UNL A   1      40.451  30.074  32.568  1.00  0.00     0.074 A 
ATOM     47  C   UNL A   1      39.918  29.808  30.122  1.00  0.00     0.049 A 
ATOM     48  N   UNL A   1      41.670  30.435  32.807  1.00  0.00    -0.248 NA
ATOM     49  C   UNL A   1      39.769  29.490  33.738  1.00  0.00     0.031 C 
ATOM     50  C   UNL A   1      39.060  29.778  28.931  1.00  0.00     0.029 A 
ATOM     51  N   UNL A   1      41.008  29.107  29.713  1.00  0.00    -0.354 N 
ATOM     52  C   UNL A   1      41.978  29.937  34.074  1.00  0.00     0.074 A 
ATOM     53  C   UNL A   1      40.733  29.513  34.659  1.00  0.00     0.031 C 
ATOM     54  C   UNL A   1      39.549  28.880  28.047  1.00  0.00     0.029 A 
ATOM     55  C   UNL A   1      40.818  28.380  28.540  1.00  0.00     0.049 A 
ATOM     56  H   UNL A   1      41.860  29.112  30.206  1.00  0.00     0.167 HD
ATOM     57  C   UNL A   1      43.261  29.721  34.477  1.00  0.00     0.037 A 
ATOM     58  C   UNL A   1      41.610  27.371  28.091  1.00  0.00     0.037 A 
ATOM     59  C   UNL A   1      44.195  30.452  33.667  1.00  0.00     0.049 A 
ATOM     60  C   UNL A   1      42.921  27.513  28.787  1.00  0.00     0.074 A 
ATOM     61  C   UNL A   1      44.434  31.794  33.441  1.00  0.00     0.029 A 
ATOM     62  N   UNL A   1      44.821  29.785  32.643  1.00  0.00    -0.354 N 
ATOM     63  N   UNL A   1      43.731  28.521  28.602  1.00  0.00    -0.248 NA
ATOM     64  C   UNL A   1      43.088  26.800  30.044  1.00  0.00     0.031 C 
ATOM     65  C   UNL A   1      44.742  31.885  32.055  1.00  0.00     0.029 A 
ATOM     66  C   UNL A   1      44.751  30.591  31.533  1.00  0.00     0.049 A 
ATOM     67  H   UNL A   1      45.241  28.896  32.694  1.00  0.00     0.167 HD
ATOM     68  C   UNL A   1      44.215  28.828  29.866  1.00  0.00     0.074 A 
ATOM     69  C   UNL A   1      43.819  27.700  30.708  1.00  0.00     0.031 C 
ATOM     70  C   UNL A   1      44.636  30.088  30.183  1.00  0.00     0.037 A 
BRANCH  57  71
ATOM     71  C   UNL A   1      43.684  28.597  35.391  1.00  0.00     0.058 A 
ATOM     72  C   UNL A   1      44.376  28.886  36.586  1.00  0.00     0.135 A 
ATOM     73  C   UNL A   1      43.685  27.238  35.002  1.00  0.00     0.135 A 
ATOM     74  F   UNL A   1      44.447  30.145  37.047  1.00  0.00    -0.206 F 
ATOM     75  C   UNL A   1      45.071  27.909  37.302  1.00  0.00     0.059 A 
ATOM     76  C   UNL A   1      44.327  26.242  35.727  1.00  0.00     0.059 A 
ATOM     77  F   UNL A   1      43.144  26.828  33.848  1.00  0.00    -0.206 F 
ATOM     78  C   UNL A   1      45.052  26.592  36.854  1.00  0.00     0.060 A 
BRANCH  78  79
ATOM     79  S   UNL A   1      46.038  25.351  37.711  1.00  0.00     0.124 S 
ATOM     80  O   UNL A   1      46.023  24.251  36.753  1.00  0.00    -0.237 OA
ATOM     81  O   UNL A   1      47.314  26.040  37.873  1.00  0.00    -0.237 OA
ATOM     82  O   UNL A   1      45.294  25.123  38.946  1.00  0.00    -0.744 OA
ENDBRANCH  78  79
ENDBRANCH  57  71
BRANCH  58  83
ATOM     83  C   UNL A   1      41.168  26.079  27.490  1.00  0.00     0.058 A 
ATOM     84  C   UNL A   1      41.938  25.432  26.506  1.00  0.00     0.135 A 
ATOM     85  C   UNL A   1      40.144  25.307  28.077  1.00  0.00     0.135 A 
ATOM     86  F   UNL A   1      42.947  26.082  25.906  1.00  0.00    -0.206 F 
ATOM     87  C   UNL A   1      41.740  24.087  26.164  1.00  0.00     0.059 A 
ATOM     88  C   UNL A   1      39.923  23.970  27.748  1.00  0.00     0.059 A 
ATOM     89  F   UNL A   1      39.382  25.801  29.065  1.00  0.00    -0.206 F 
ATOM     90  C   UNL A   1      40.744  23.356  26.811  1.00  0.00     0.060 A 
BRANCH  90  91
ATOM     91  S   UNL A   1      40.607  21.577  26.517  1.00  0.00     0.124 S 
ATOM     92  O   UNL A   1      39.308  21.476  25.862  1.00  0.00    -0.237 OA
ATOM     93  O   UNL A   1      41.769  21.314  25.675  1.00  0.00    -0.237 OA
ATOM     94  O   UNL A   1      40.674  21.004  27.860  1.00  0.00    -0.744 OA
ENDBRANCH  90  91
ENDBRANCH  58  83
BRANCH  70  95
ATOM     95  C   UNL A   1      44.796  31.092  29.067  1.00  0.00     0.058 A 
ATOM     96  C   UNL A   1      45.916  31.173  28.219  1.00  0.00     0.135 A 
ATOM     97  C   UNL A   1      43.697  31.903  28.749  1.00  0.00     0.135 A 
ATOM     98  F   UNL A   1      46.965  30.355  28.382  1.00  0.00    -0.206 F 
ATOM     99  C   UNL A   1      45.960  32.058  27.138  1.00  0.00     0.059 A 
ATOM    100  C   UNL A   1      43.704  32.766  27.657  1.00  0.00     0.059 A 
ATOM    101  F   UNL A   1      42.571  31.824  29.477  1.00  0.00    -0.206 F 
ATOM    102  C   UNL A   1      44.847  32.852  26.865  1.00  0.00     0.060 A 
BRANCH 102 103
ATOM    103  S   UNL A   1      44.883  33.963  25.442  1.00  0.00     0.124 S 
ATOM    104  O   UNL A   1      44.351  33.118  24.378  1.00  0.00    -0.237 OA
ATOM    105  O   UNL A   1      44.020  35.060  25.872  1.00  0.00    -0.237 OA
ATOM    106  O   UNL A   1      46.296  34.310  25.314  1.00  0.00    -0.744 OA
ENDBRANCH 102 103
ENDBRANCH  70  95
ENDBRANCH  44  45
ENDBRANCH  36  39
ENDBRANCH  34  35
ENDBRANCH  33  34
ENDBRANCH   1  33
TORSDOF 18
ENDMDL
MODEL 3
REMARK VINA RESULT:     -11.6      5.263     11.884
REMARK SMILES O=C(Cn1cc(/C=C2\SC(N3CCOCC3)=[NH+]C2=O)c2ccccc21)NCCCCCCNC(=O)c1ccc(-c2c3nc(c(-c4c(F)cc(S(=O)(=O)[O-])cc4F)c4ccc([nH]4)c(-c4c(F)cc(S(=O)(=O)[O-])cc4F)c4nc(c(-c5c(F)cc(S(=O)(=O)[O-])cc5F)c5ccc2[nH]5)C=C4)C=C3)cc1
REMARK SMILES IDX 30 1 29 2 28 3 27 4 26 5 1 6 2 7 3 9 4 10 5 11 25 12 6 13
REMARK SMILES IDX 20 14 24 15 21 16 23 17 22 18 7 19 8 20 9 21 18 22 10 23
REMARK SMILES IDX 17 24 19 25 11 26 12 28 16 29 13 30 15 31 14 32 31 33 32 34
REMARK SMILES IDX 33 35 34 36 35 38 36 39 37 40 101 41 38 42 100 43 39 44
REMARK SMILES IDX 40 45 41 46 94 47 42 48 99 49 93 50 95 51 43 52 98 53 92 54
REMARK SMILES IDX 91 55 44 57 78 58 57 59 77 60 58 61 61 62 76 63 96 64 59 65
REMARK SMILES IDX 60 66 75 68 97 69 62 70 45 71 46 72 55 73 47 74 48 75 54 76
REMARK SMILES IDX 56 77 49 78 50 79 51 80 52 81 53 82 79 83 80 84 89 85 81 86
REMARK SMILES IDX 82 87 88 88 90 89 83 90 84 91 85 92 86 93 87 94 63 95 64 96
REMARK SMILES IDX 73 97 65 98 66 99 72 100 74 101 67 102 68 103 69 104 70 105
REMARK SMILES IDX 71 106
REMARK H PARENT 26 8 17 27 33 37 95 56 61 67
REMARK Flexibility Score: inf
ROOT
ATOM      1  C   UNL A   1      35.964  34.681  33.362  1.00  0.00     0.002 C 
ENDROOT
BRANCH   1   2
ATOM      2  C   UNL A   1      34.634  35.407  33.596  1.00  0.00     0.002 C 
BRANCH   2   3
ATOM      3  C   UNL A   1      34.216  36.374  32.480  1.00  0.00     0.021 C 
BRANCH   3   4
ATOM      4  C   UNL A   1      33.310  35.751  31.419  1.00  0.00     0.116 C 
BRANCH   4   5
ATOM      5  N   UNL A   1      34.076  35.328  30.265  1.00  0.00    -0.355 N 
ATOM      6  O   UNL A   1      34.183  33.105  30.822  1.00  0.00    -0.273 OA
ATOM      7  C   UNL A   1      34.468  34.025  30.056  1.00  0.00     0.239 C 
ATOM      8  H   UNL A   1      34.329  36.005  29.595  1.00  0.00     0.163 HD
BRANCH   7   9
ATOM      9  C   UNL A   1      35.396  33.804  28.878  1.00  0.00     0.222 C 
BRANCH   9  10
ATOM     10  N   UNL A   1      36.645  33.156  29.247  1.00  0.00    -0.337 N 
ATOM     11  C   UNL A   1      37.602  33.749  30.027  1.00  0.00     0.095 A 
ATOM     12  C   UNL A   1      37.048  31.886  28.877  1.00  0.00     0.049 A 
ATOM     13  C   UNL A   1      38.621  32.840  30.205  1.00  0.00     0.001 A 
ATOM     14  C   UNL A   1      38.300  31.668  29.469  1.00  0.00     0.007 A 
ATOM     15  C   UNL A   1      36.417  30.904  28.094  1.00  0.00     0.027 A 
ATOM     16  C   UNL A   1      38.941  30.429  29.267  1.00  0.00     0.011 A 
ATOM     17  C   UNL A   1      37.073  29.682  27.916  1.00  0.00     0.002 A 
ATOM     18  C   UNL A   1      38.317  29.446  28.492  1.00  0.00     0.001 A 
BRANCH  13  19
ATOM     19  C   UNL A   1      39.773  33.101  31.002  1.00  0.00     0.034 C 
ATOM     20  C   UNL A   1      40.728  33.995  30.714  1.00  0.00     0.110 C 
ATOM     21  S   UNL A   1      40.753  35.130  29.428  1.00  0.00     0.006 SA
ATOM     22  C   UNL A   1      42.007  34.085  31.475  1.00  0.00     0.346 C 
ATOM     23  C   UNL A   1      42.419  35.523  29.819  1.00  0.00     0.319 C 
ATOM     24  N   UNL A   1      42.919  34.897  30.833  1.00  0.00    -0.200 N 
ATOM     25  O   UNL A   1      42.216  33.465  32.504  1.00  0.00    -0.240 OA
ATOM     26  N   UNL A   1      43.090  36.369  28.985  1.00  0.00    -0.251 N 
ATOM     27  H   UNL A   1      43.857  34.990  31.119  1.00  0.00     0.316 HD
ATOM     28  C   UNL A   1      42.563  37.652  28.503  1.00  0.00     0.265 C 
ATOM     29  C   UNL A   1      44.457  36.102  28.546  1.00  0.00     0.265 C 
ATOM     30  C   UNL A   1      42.680  37.708  26.974  1.00  0.00     0.206 C 
ATOM     31  C   UNL A   1      44.493  36.179  27.010  1.00  0.00     0.206 C 
ATOM     32  O   UNL A   1      44.027  37.451  26.531  1.00  0.00    -0.373 OA
ENDBRANCH  13  19
ENDBRANCH   9  10
ENDBRANCH   7   9
ENDBRANCH   4   5
ENDBRANCH   3   4
ENDBRANCH   2   3
ENDBRANCH   1   2
BRANCH   1  33
ATOM     33  C   UNL A   1      36.664  34.177  34.632  1.00  0.00     0.021 C 
BRANCH  33  34
ATOM     34  C   UNL A   1      37.061  32.701  34.581  1.00  0.00     0.116 C 
BRANCH  34  35
ATOM     35  N   UNL A   1      36.525  31.988  33.441  1.00  0.00    -0.352 N 
ATOM     36  C   UNL A   1      36.877  30.852  32.768  1.00  0.00     0.251 C 
ATOM     37  H   UNL A   1      35.725  32.420  33.065  1.00  0.00     0.163 HD
ATOM     38  O   UNL A   1      36.078  30.453  31.918  1.00  0.00    -0.269 OA
BRANCH  36  39
ATOM     39  C   UNL A   1      38.177  30.150  32.922  1.00  0.00     0.039 A 
ATOM     40  C   UNL A   1      39.390  30.752  33.259  1.00  0.00     0.014 A 
ATOM     41  C   UNL A   1      38.169  28.781  32.596  1.00  0.00     0.014 A 
ATOM     42  C   UNL A   1      40.582  30.064  33.092  1.00  0.00     0.010 A 
ATOM     43  C   UNL A   1      39.354  28.077  32.466  1.00  0.00     0.010 A 
ATOM     44  C   UNL A   1      40.559  28.751  32.629  1.00  0.00    -0.014 A 
BRANCH  44  45
ATOM     45  C   UNL A   1      41.834  28.091  32.383  1.00  0.00     0.031 A 
ATOM     46  C   UNL A   1      42.644  27.842  33.613  1.00  0.00     0.074 A 
ATOM     47  C   UNL A   1      42.163  27.653  31.149  1.00  0.00     0.049 A 
ATOM     48  N   UNL A   1      43.844  28.243  33.888  1.00  0.00    -0.248 NA
ATOM     49  C   UNL A   1      41.968  27.185  34.747  1.00  0.00     0.031 C 
ATOM     50  C   UNL A   1      41.327  27.635  29.943  1.00  0.00     0.029 A 
ATOM     51  N   UNL A   1      43.288  27.013  30.734  1.00  0.00    -0.354 N 
ATOM     52  C   UNL A   1      44.150  27.708  35.140  1.00  0.00     0.074 A 
ATOM     53  C   UNL A   1      42.915  27.211  35.685  1.00  0.00     0.031 C 
ATOM     54  C   UNL A   1      41.867  26.793  29.033  1.00  0.00     0.029 A 
ATOM     55  C   UNL A   1      43.147  26.326  29.530  1.00  0.00     0.049 A 
ATOM     56  H   UNL A   1      44.131  27.033  31.241  1.00  0.00     0.167 HD
ATOM     57  C   UNL A   1      45.435  27.529  35.558  1.00  0.00     0.037 A 
ATOM     58  C   UNL A   1      43.988  25.369  29.056  1.00  0.00     0.037 A 
ATOM     59  C   UNL A   1      46.351  28.329  34.793  1.00  0.00     0.049 A 
ATOM     60  C   UNL A   1      45.280  25.537  29.780  1.00  0.00     0.074 A 
ATOM     61  C   UNL A   1      46.538  29.687  34.625  1.00  0.00     0.029 A 
ATOM     62  N   UNL A   1      47.021  27.728  33.756  1.00  0.00    -0.354 N 
ATOM     63  N   UNL A   1      46.051  26.583  29.649  1.00  0.00    -0.248 NA
ATOM     64  C   UNL A   1      45.456  24.781  31.012  1.00  0.00     0.031 C 
ATOM     65  C   UNL A   1      46.865  29.845  33.248  1.00  0.00     0.029 A 
ATOM     66  C   UNL A   1      46.935  28.574  32.677  1.00  0.00     0.049 A 
ATOM     67  H   UNL A   1      47.476  26.856  33.780  1.00  0.00     0.167 HD
ATOM     68  C   UNL A   1      46.500  26.859  30.933  1.00  0.00     0.074 A 
ATOM     69  C   UNL A   1      46.138  25.683  31.723  1.00  0.00     0.031 C 
ATOM     70  C   UNL A   1      46.864  28.122  31.306  1.00  0.00     0.037 A 
BRANCH  57  71
ATOM     71  C   UNL A   1      45.889  26.387  36.435  1.00  0.00     0.058 A 
ATOM     72  C   UNL A   1      45.688  25.056  36.014  1.00  0.00     0.135 A 
ATOM     73  C   UNL A   1      46.256  26.547  37.790  1.00  0.00     0.135 A 
ATOM     74  F   UNL A   1      45.328  24.786  34.749  1.00  0.00    -0.206 F 
ATOM     75  C   UNL A   1      45.780  23.974  36.891  1.00  0.00     0.059 A 
ATOM     76  C   UNL A   1      46.403  25.480  38.667  1.00  0.00     0.059 A 
ATOM     77  F   UNL A   1      46.396  27.754  38.352  1.00  0.00    -0.206 F 
ATOM     78  C   UNL A   1      46.123  24.199  38.221  1.00  0.00     0.060 A 
BRANCH  78  79
ATOM     79  S   UNL A   1      46.133  22.820  39.379  1.00  0.00     0.124 S 
ATOM     80  O   UNL A   1      45.104  23.228  40.330  1.00  0.00    -0.237 OA
ATOM     81  O   UNL A   1      45.793  21.696  38.512  1.00  0.00    -0.237 OA
ATOM     82  O   UNL A   1      47.500  22.819  39.891  1.00  0.00    -0.744 OA
ENDBRANCH  78  79
ENDBRANCH  57  71
BRANCH  58  83
ATOM     83  C   UNL A   1      43.610  24.085  28.398  1.00  0.00     0.058 A 
ATOM     84  C   UNL A   1      43.087  23.011  29.141  1.00  0.00     0.135 A 
ATOM     85  C   UNL A   1      43.473  23.988  26.997  1.00  0.00     0.135 A 
ATOM     86  F   UNL A   1      43.156  23.024  30.482  1.00  0.00    -0.206 F 
ATOM     87  C   UNL A   1      42.421  21.935  28.538  1.00  0.00     0.059 A 
ATOM     88  C   UNL A   1      42.821  22.924  26.374  1.00  0.00     0.059 A 
ATOM     89  F   UNL A   1      43.884  24.977  26.189  1.00  0.00    -0.206 F 
ATOM     90  C   UNL A   1      42.271  21.915  27.152  1.00  0.00     0.060 A 
BRANCH  90  91
ATOM     91  S   UNL A   1      41.251  20.634  26.382  1.00  0.00     0.124 S 
ATOM     92  O   UNL A   1      40.221  21.425  25.718  1.00  0.00    -0.237 OA
ATOM     93  O   UNL A   1      42.206  19.966  25.506  1.00  0.00    -0.237 OA
ATOM     94  O   UNL A   1      40.789  19.839  27.518  1.00  0.00    -0.744 OA
ENDBRANCH  90  91
ENDBRANCH  58  83
BRANCH  70  95
ATOM     95  C   UNL A   1      47.000  29.174  30.233  1.00  0.00     0.058 A 
ATOM     96  C   UNL A   1      48.130  29.336  29.411  1.00  0.00     0.135 A 
ATOM     97  C   UNL A   1      45.874  29.951  29.927  1.00  0.00     0.135 A 
ATOM     98  F   UNL A   1      49.210  28.556  29.562  1.00  0.00    -0.206 F 
ATOM     99  C   UNL A   1      48.156  30.264  28.366  1.00  0.00     0.059 A 
ATOM    100  C   UNL A   1      45.864  30.857  28.869  1.00  0.00     0.059 A 
ATOM    101  F   UNL A   1      44.739  29.797  30.629  1.00  0.00    -0.206 F 
ATOM    102  C   UNL A   1      47.015  31.021  28.103  1.00  0.00     0.060 A 
BRANCH 102 103
ATOM    103  S   UNL A   1      47.029  32.188  26.725  1.00  0.00     0.124 S 
ATOM    104  O   UNL A   1      46.393  33.363  27.311  1.00  0.00    -0.237 OA
ATOM    105  O   UNL A   1      48.454  32.318  26.432  1.00  0.00    -0.237 OA
ATOM    106  O   UNL A   1      46.251  31.508  25.692  1.00  0.00    -0.744 OA
ENDBRANCH 102 103
ENDBRANCH  70  95
ENDBRANCH  44  45
ENDBRANCH  36  39
ENDBRANCH  34  35
ENDBRANCH  33  34
ENDBRANCH   1  33
TORSDOF 18
ENDMDL
