MODEL 1
REMARK VINA RESULT:     -11.8      0.000      0.000
REMARK SMILES O=C(NCCCCCCNC(=O)c1cccc2nc(Cl)c(Cl)nc12)c1ccc(-c2c3nc(c(-c4c(F)cc(S(=O)(=O)[O-])cc4F)c4ccc([nH]4)c(-c4c(F)cc(S(=O)(=O)[O-])cc4F)c4nc(c(-c5c(F)cc(S(=O)(=O)[O-])cc5F)c5ccc2[nH]5)C=C4)C=C3)cc1
REMARK SMILES IDX 5 1 4 2 3 3 1 4 2 5 25 7 26 8 90 9 27 10 89 11 28 12 29 13
REMARK SMILES IDX 30 14 83 15 31 16 88 17 82 18 84 19 32 20 87 21 81 22 80 23
REMARK SMILES IDX 33 25 67 26 46 27 66 28 47 29 50 30 65 31 85 32 48 33 49 34
REMARK SMILES IDX 64 36 86 37 51 38 34 39 35 40 44 41 36 42 37 43 43 44 45 45
REMARK SMILES IDX 38 46 39 47 40 48 41 49 42 50 68 51 69 52 78 53 70 54 71 55
REMARK SMILES IDX 77 56 79 57 72 58 73 59 74 60 75 61 76 62 52 63 53 64 62 65
REMARK SMILES IDX 54 66 55 67 61 68 63 69 56 70 57 71 58 72 59 73 60 74 6 75
REMARK SMILES IDX 7 76 8 77 9 78 10 79 11 80 12 82 13 83 14 84 24 85 15 86
REMARK SMILES IDX 17 87 23 88 16 89 18 90 21 91 19 92 22 93 20 94
REMARK H PARENT 3 6 84 24 50 35 10 81
REMARK Flexibility Score: inf
ROOT
ATOM      1  C   UNL A   1      32.065  27.745  26.996  1.00  0.00     0.021 C 
ENDROOT
BRANCH   1   2
ATOM      2  C   UNL A   1      33.438  28.367  27.243  1.00  0.00     0.116 C 
BRANCH   2   3
ATOM      3  N   UNL A   1      33.361  29.792  27.514  1.00  0.00    -0.352 N 
ATOM      4  O   UNL A   1      33.986  31.785  28.339  1.00  0.00    -0.269 OA
ATOM      5  C   UNL A   1      34.307  30.637  28.035  1.00  0.00     0.251 C 
ATOM      6  H   UNL A   1      32.500  30.214  27.290  1.00  0.00     0.163 HD
BRANCH   5   7
ATOM      7  C   UNL A   1      35.702  30.185  28.246  1.00  0.00     0.039 A 
ATOM      8  C   UNL A   1      36.068  29.719  29.514  1.00  0.00     0.014 A 
ATOM      9  C   UNL A   1      36.666  30.286  27.238  1.00  0.00     0.014 A 
ATOM     10  C   UNL A   1      37.388  29.327  29.763  1.00  0.00     0.010 A 
ATOM     11  C   UNL A   1      37.973  29.855  27.476  1.00  0.00     0.010 A 
ATOM     12  C   UNL A   1      38.349  29.383  28.744  1.00  0.00    -0.014 A 
BRANCH  12  13
ATOM     13  C   UNL A   1      39.766  29.015  28.998  1.00  0.00     0.031 A 
ATOM     14  C   UNL A   1      40.696  30.024  29.616  1.00  0.00     0.074 A 
ATOM     15  C   UNL A   1      40.224  27.794  28.657  1.00  0.00     0.049 A 
ATOM     16  N   UNL A   1      41.990  29.956  29.795  1.00  0.00    -0.248 NA
ATOM     17  C   UNL A   1      40.090  31.282  30.087  1.00  0.00     0.031 C 
ATOM     18  C   UNL A   1      39.421  26.720  28.072  1.00  0.00     0.029 A 
ATOM     19  N   UNL A   1      41.482  27.255  28.753  1.00  0.00    -0.354 N 
ATOM     20  C   UNL A   1      42.355  31.158  30.391  1.00  0.00     0.074 A 
ATOM     21  C   UNL A   1      41.152  31.953  30.512  1.00  0.00     0.031 C 
ATOM     22  C   UNL A   1      40.203  25.644  27.877  1.00  0.00     0.029 A 
ATOM     23  C   UNL A   1      41.568  25.965  28.284  1.00  0.00     0.049 A 
ATOM     24  H   UNL A   1      42.251  27.745  29.122  1.00  0.00     0.167 HD
ATOM     25  C   UNL A   1      43.578  31.557  30.813  1.00  0.00     0.037 A 
ATOM     26  C   UNL A   1      42.630  25.141  28.185  1.00  0.00     0.037 A 
ATOM     27  C   UNL A   1      44.771  30.759  30.710  1.00  0.00     0.049 A 
ATOM     28  C   UNL A   1      43.984  25.622  28.632  1.00  0.00     0.074 A 
ATOM     29  C   UNL A   1      46.066  31.092  31.072  1.00  0.00     0.029 A 
ATOM     30  N   UNL A   1      44.812  29.456  30.236  1.00  0.00    -0.354 N 
ATOM     31  N   UNL A   1      44.320  26.784  29.139  1.00  0.00    -0.248 NA
ATOM     32  C   UNL A   1      45.105  24.680  28.491  1.00  0.00     0.031 C 
ATOM     33  C   UNL A   1      46.892  29.994  30.809  1.00  0.00     0.029 A 
ATOM     34  C   UNL A   1      46.105  28.968  30.311  1.00  0.00     0.049 A 
ATOM     35  H   UNL A   1      44.037  28.954  29.897  1.00  0.00     0.167 HD
ATOM     36  C   UNL A   1      45.681  26.700  29.410  1.00  0.00     0.074 A 
ATOM     37  C   UNL A   1      46.107  25.374  29.013  1.00  0.00     0.031 C 
ATOM     38  C   UNL A   1      46.505  27.636  29.940  1.00  0.00     0.037 A 
BRANCH  25  39
ATOM     39  C   UNL A   1      43.693  32.913  31.444  1.00  0.00     0.058 A 
ATOM     40  C   UNL A   1      43.957  34.054  30.671  1.00  0.00     0.135 A 
ATOM     41  C   UNL A   1      43.462  33.089  32.818  1.00  0.00     0.135 A 
ATOM     42  F   UNL A   1      44.205  33.936  29.357  1.00  0.00    -0.206 F 
ATOM     43  C   UNL A   1      43.992  35.323  31.238  1.00  0.00     0.059 A 
ATOM     44  C   UNL A   1      43.473  34.351  33.403  1.00  0.00     0.059 A 
ATOM     45  F   UNL A   1      43.211  32.029  33.602  1.00  0.00    -0.206 F 
ATOM     46  C   UNL A   1      43.742  35.463  32.604  1.00  0.00     0.060 A 
BRANCH  46  47
ATOM     47  S   UNL A   1      43.747  37.122  33.315  1.00  0.00     0.124 S 
ATOM     48  O   UNL A   1      42.566  37.076  34.173  1.00  0.00    -0.237 OA
ATOM     49  O   UNL A   1      45.032  37.160  34.008  1.00  0.00    -0.237 OA
ATOM     50  O   UNL A   1      43.640  37.993  32.149  1.00  0.00    -0.744 OA
ENDBRANCH  46  47
ENDBRANCH  25  39
BRANCH  26  51
ATOM     51  C   UNL A   1      42.466  23.763  27.652  1.00  0.00     0.058 A 
ATOM     52  C   UNL A   1      42.349  22.668  28.521  1.00  0.00     0.135 A 
ATOM     53  C   UNL A   1      42.454  23.509  26.273  1.00  0.00     0.135 A 
ATOM     54  F   UNL A   1      42.364  22.863  29.849  1.00  0.00    -0.206 F 
ATOM     55  C   UNL A   1      42.252  21.366  28.044  1.00  0.00     0.059 A 
ATOM     56  C   UNL A   1      42.337  22.217  25.770  1.00  0.00     0.059 A 
ATOM     57  F   UNL A   1      42.549  24.525  25.401  1.00  0.00    -0.206 F 
ATOM     58  C   UNL A   1      42.253  21.150  26.665  1.00  0.00     0.060 A 
BRANCH  58  59
ATOM     59  S   UNL A   1      42.109  19.458  26.049  1.00  0.00     0.124 S 
ATOM     60  O   UNL A   1      43.022  19.483  24.912  1.00  0.00    -0.237 OA
ATOM     61  O   UNL A   1      42.543  18.672  27.199  1.00  0.00    -0.237 OA
ATOM     62  O   UNL A   1      40.691  19.344  25.720  1.00  0.00    -0.744 OA
ENDBRANCH  58  59
ENDBRANCH  26  51
BRANCH  38  63
ATOM     63  C   UNL A   1      47.933  27.243  30.180  1.00  0.00     0.058 A 
ATOM     64  C   UNL A   1      48.920  27.413  29.198  1.00  0.00     0.135 A 
ATOM     65  C   UNL A   1      48.325  26.732  31.428  1.00  0.00     0.135 A 
ATOM     66  F   UNL A   1      48.593  27.895  27.988  1.00  0.00    -0.206 F 
ATOM     67  C   UNL A   1      50.246  27.068  29.438  1.00  0.00     0.059 A 
ATOM     68  C   UNL A   1      49.648  26.399  31.695  1.00  0.00     0.059 A 
ATOM     69  F   UNL A   1      47.418  26.559  32.403  1.00  0.00    -0.206 F 
ATOM     70  C   UNL A   1      50.600  26.560  30.689  1.00  0.00     0.060 A 
BRANCH  70  71
ATOM     71  S   UNL A   1      52.329  26.140  30.997  1.00  0.00     0.124 S 
ATOM     72  O   UNL A   1      52.884  26.176  29.649  1.00  0.00    -0.237 OA
ATOM     73  O   UNL A   1      52.759  27.214  31.888  1.00  0.00    -0.237 OA
ATOM     74  O   UNL A   1      52.252  24.818  31.611  1.00  0.00    -0.744 OA
ENDBRANCH  70  71
ENDBRANCH  38  63
ENDBRANCH  12  13
ENDBRANCH   5   7
ENDBRANCH   2   3
ENDBRANCH   1   2
BRANCH   1  75
ATOM     75  C   UNL A   1      31.786  27.297  25.558  1.00  0.00     0.002 C 
BRANCH  75  76
ATOM     76  C   UNL A   1      31.447  28.411  24.564  1.00  0.00     0.002 C 
BRANCH  76  77
ATOM     77  C   UNL A   1      32.575  28.831  23.614  1.00  0.00     0.021 C 
BRANCH  77  78
ATOM     78  C   UNL A   1      33.636  27.767  23.333  1.00  0.00     0.116 C 
BRANCH  78  79
ATOM     79  N   UNL A   1      33.571  27.257  21.974  1.00  0.00    -0.352 N 
ATOM     80  C   UNL A   1      33.058  26.071  21.516  1.00  0.00     0.253 C 
ATOM     81  H   UNL A   1      33.950  27.847  21.283  1.00  0.00     0.163 HD
ATOM     82  O   UNL A   1      33.061  25.814  20.312  1.00  0.00    -0.269 OA
BRANCH  80  83
ATOM     83  C   UNL A   1      32.427  25.132  22.458  1.00  0.00     0.067 A 
ATOM     84  C   UNL A   1      31.045  25.249  22.673  1.00  0.00     0.016 A 
ATOM     85  C   UNL A   1      33.195  24.116  23.042  1.00  0.00     0.103 A 
ATOM     86  C   UNL A   1      30.410  24.353  23.517  1.00  0.00     0.003 A 
ATOM     87  C   UNL A   1      32.516  23.195  23.885  1.00  0.00     0.091 A 
ATOM     88  N   UNL A   1      34.533  23.993  22.842  1.00  0.00    -0.230 NA
ATOM     89  C   UNL A   1      31.153  23.334  24.112  1.00  0.00     0.031 A 
ATOM     90  N   UNL A   1      33.152  22.169  24.483  1.00  0.00    -0.231 NA
ATOM     91  C   UNL A   1      35.158  22.954  23.440  1.00  0.00     0.167 A 
ATOM     92  C   UNL A   1      34.479  22.057  24.243  1.00  0.00     0.167 A 
ATOM     93  Cl  UNL A   1      36.837  22.865  23.103  1.00  0.00    -0.059 Cl
ATOM     94  Cl  UNL A   1      35.208  20.712  25.019  1.00  0.00    -0.059 Cl
ENDBRANCH  80  83
ENDBRANCH  78  79
ENDBRANCH  77  78
ENDBRANCH  76  77
ENDBRANCH  75  76
ENDBRANCH   1  75
TORSDOF 16
ENDMDL
MODEL 2
REMARK VINA RESULT:     -11.1      5.186      9.985
REMARK SMILES O=C(NCCCCCCNC(=O)c1cccc2nc(Cl)c(Cl)nc12)c1ccc(-c2c3nc(c(-c4c(F)cc(S(=O)(=O)[O-])cc4F)c4ccc([nH]4)c(-c4c(F)cc(S(=O)(=O)[O-])cc4F)c4nc(c(-c5c(F)cc(S(=O)(=O)[O-])cc5F)c5ccc2[nH]5)C=C4)C=C3)cc1
REMARK SMILES IDX 5 1 4 2 3 3 1 4 2 5 25 7 26 8 90 9 27 10 89 11 28 12 29 13
REMARK SMILES IDX 30 14 83 15 31 16 88 17 82 18 84 19 32 20 87 21 81 22 80 23
REMARK SMILES IDX 33 25 67 26 46 27 66 28 47 29 50 30 65 31 85 32 48 33 49 34
REMARK SMILES IDX 64 36 86 37 51 38 34 39 35 40 44 41 36 42 37 43 43 44 45 45
REMARK SMILES IDX 38 46 39 47 40 48 41 49 42 50 68 51 69 52 78 53 70 54 71 55
REMARK SMILES IDX 77 56 79 57 72 58 73 59 74 60 75 61 76 62 52 63 53 64 62 65
REMARK SMILES IDX 54 66 55 67 61 68 63 69 56 70 57 71 58 72 59 73 60 74 6 75
REMARK SMILES IDX 7 76 8 77 9 78 10 79 11 80 12 82 13 83 14 84 24 85 15 86
REMARK SMILES IDX 17 87 23 88 16 89 18 90 21 91 19 92 22 93 20 94
REMARK H PARENT 3 6 84 24 50 35 10 81
REMARK Flexibility Score: inf
ROOT
ATOM      1  C   UNL A   1      40.458  22.441  27.562  1.00  0.00     0.021 C 
ENDROOT
BRANCH   1   2
ATOM      2  C   UNL A   1      41.754  23.206  27.303  1.00  0.00     0.116 C 
BRANCH   2   3
ATOM      3  N   UNL A   1      41.659  24.087  26.153  1.00  0.00    -0.352 N 
ATOM      4  O   UNL A   1      41.167  25.952  25.001  1.00  0.00    -0.269 OA
ATOM      5  C   UNL A   1      41.357  25.424  26.096  1.00  0.00     0.251 C 
ATOM      6  H   UNL A   1      41.837  23.661  25.283  1.00  0.00     0.163 HD
BRANCH   5   7
ATOM      7  C   UNL A   1      41.247  26.236  27.331  1.00  0.00     0.039 A 
ATOM      8  C   UNL A   1      40.138  26.041  28.161  1.00  0.00     0.014 A 
ATOM      9  C   UNL A   1      42.179  27.233  27.638  1.00  0.00     0.014 A 
ATOM     10  C   UNL A   1      39.976  26.821  29.311  1.00  0.00     0.010 A 
ATOM     11  C   UNL A   1      42.039  27.982  28.808  1.00  0.00     0.010 A 
ATOM     12  C   UNL A   1      40.931  27.791  29.649  1.00  0.00    -0.014 A 
BRANCH  12  13
ATOM     13  C   UNL A   1      40.757  28.662  30.840  1.00  0.00     0.031 A 
ATOM     14  C   UNL A   1      39.710  29.744  30.824  1.00  0.00     0.074 A 
ATOM     15  C   UNL A   1      41.546  28.503  31.921  1.00  0.00     0.049 A 
ATOM     16  N   UNL A   1      39.487  30.693  31.696  1.00  0.00    -0.248 NA
ATOM     17  C   UNL A   1      38.798  29.765  29.667  1.00  0.00     0.031 C 
ATOM     18  C   UNL A   1      42.582  27.480  32.072  1.00  0.00     0.029 A 
ATOM     19  N   UNL A   1      41.599  29.205  33.099  1.00  0.00    -0.354 N 
ATOM     20  C   UNL A   1      38.419  31.427  31.194  1.00  0.00     0.074 A 
ATOM     21  C   UNL A   1      38.059  30.836  29.923  1.00  0.00     0.031 C 
ATOM     22  C   UNL A   1      43.156  27.611  33.281  1.00  0.00     0.029 A 
ATOM     23  C   UNL A   1      42.558  28.749  33.973  1.00  0.00     0.049 A 
ATOM     24  H   UNL A   1      41.006  29.964  33.300  1.00  0.00     0.167 HD
ATOM     25  C   UNL A   1      37.785  32.487  31.748  1.00  0.00     0.037 A 
ATOM     26  C   UNL A   1      42.920  29.206  35.188  1.00  0.00     0.037 A 
ATOM     27  C   UNL A   1      38.130  33.064  33.021  1.00  0.00     0.049 A 
ATOM     28  C   UNL A   1      42.220  30.406  35.765  1.00  0.00     0.074 A 
ATOM     29  C   UNL A   1      37.574  34.166  33.648  1.00  0.00     0.029 A 
ATOM     30  N   UNL A   1      39.103  32.567  33.876  1.00  0.00    -0.354 N 
ATOM     31  N   UNL A   1      41.251  31.123  35.249  1.00  0.00    -0.248 NA
ATOM     32  C   UNL A   1      42.666  30.862  37.091  1.00  0.00     0.031 C 
ATOM     33  C   UNL A   1      38.215  34.341  34.879  1.00  0.00     0.029 A 
ATOM     34  C   UNL A   1      39.151  33.330  35.030  1.00  0.00     0.049 A 
ATOM     35  H   UNL A   1      39.674  31.787  33.689  1.00  0.00     0.167 HD
ATOM     36  C   UNL A   1      40.947  32.091  36.200  1.00  0.00     0.074 A 
ATOM     37  C   UNL A   1      41.833  31.868  37.324  1.00  0.00     0.031 C 
ATOM     38  C   UNL A   1      40.018  33.075  36.150  1.00  0.00     0.037 A 
BRANCH  25  39
ATOM     39  C   UNL A   1      36.637  33.090  30.993  1.00  0.00     0.058 A 
ATOM     40  C   UNL A   1      35.312  32.895  31.410  1.00  0.00     0.135 A 
ATOM     41  C   UNL A   1      36.863  33.929  29.890  1.00  0.00     0.135 A 
ATOM     42  F   UNL A   1      35.043  32.085  32.445  1.00  0.00    -0.206 F 
ATOM     43  C   UNL A   1      34.248  33.510  30.759  1.00  0.00     0.059 A 
ATOM     44  C   UNL A   1      35.815  34.570  29.235  1.00  0.00     0.059 A 
ATOM     45  F   UNL A   1      38.112  34.143  29.448  1.00  0.00    -0.206 F 
ATOM     46  C   UNL A   1      34.510  34.351  29.677  1.00  0.00     0.060 A 
BRANCH  46  47
ATOM     47  S   UNL A   1      33.121  35.177  28.871  1.00  0.00     0.124 S 
ATOM     48  O   UNL A   1      32.217  35.393  29.996  1.00  0.00    -0.237 OA
ATOM     49  O   UNL A   1      33.748  36.376  28.323  1.00  0.00    -0.237 OA
ATOM     50  O   UNL A   1      32.672  34.201  27.883  1.00  0.00    -0.744 OA
ENDBRANCH  46  47
ENDBRANCH  25  39
BRANCH  26  51
ATOM     51  C   UNL A   1      43.993  28.523  35.959  1.00  0.00     0.058 A 
ATOM     52  C   UNL A   1      43.682  27.487  36.853  1.00  0.00     0.135 A 
ATOM     53  C   UNL A   1      45.335  28.910  35.844  1.00  0.00     0.135 A 
ATOM     54  F   UNL A   1      42.409  27.090  37.002  1.00  0.00    -0.206 F 
ATOM     55  C   UNL A   1      44.662  26.875  37.626  1.00  0.00     0.059 A 
ATOM     56  C   UNL A   1      46.337  28.298  36.591  1.00  0.00     0.059 A 
ATOM     57  F   UNL A   1      45.684  29.887  34.992  1.00  0.00    -0.206 F 
ATOM     58  C   UNL A   1      45.988  27.292  37.492  1.00  0.00     0.060 A 
BRANCH  58  59
ATOM     59  S   UNL A   1      47.259  26.482  38.486  1.00  0.00     0.124 S 
ATOM     60  O   UNL A   1      46.494  26.061  39.653  1.00  0.00    -0.237 OA
ATOM     61  O   UNL A   1      47.712  25.414  37.599  1.00  0.00    -0.237 OA
ATOM     62  O   UNL A   1      48.230  27.547  38.716  1.00  0.00    -0.744 OA
ENDBRANCH  58  59
ENDBRANCH  26  51
BRANCH  38  63
ATOM     63  C   UNL A   1      39.867  33.946  37.362  1.00  0.00     0.058 A 
ATOM     64  C   UNL A   1      40.571  35.152  37.496  1.00  0.00     0.135 A 
ATOM     65  C   UNL A   1      38.969  33.589  38.381  1.00  0.00     0.135 A 
ATOM     66  F   UNL A   1      41.443  35.534  36.549  1.00  0.00    -0.206 F 
ATOM     67  C   UNL A   1      40.407  35.965  38.613  1.00  0.00     0.059 A 
ATOM     68  C   UNL A   1      38.776  34.397  39.496  1.00  0.00     0.059 A 
ATOM     69  F   UNL A   1      38.267  32.448  38.294  1.00  0.00    -0.206 F 
ATOM     70  C   UNL A   1      39.508  35.578  39.609  1.00  0.00     0.060 A 
BRANCH  70  71
ATOM     71  S   UNL A   1      39.283  36.653  41.041  1.00  0.00     0.124 S 
ATOM     72  O   UNL A   1      38.560  37.777  40.454  1.00  0.00    -0.237 OA
ATOM     73  O   UNL A   1      38.513  35.811  41.950  1.00  0.00    -0.237 OA
ATOM     74  O   UNL A   1      40.650  36.940  41.468  1.00  0.00    -0.744 OA
ENDBRANCH  70  71
ENDBRANCH  38  63
ENDBRANCH  12  13
ENDBRANCH   5   7
ENDBRANCH   2   3
ENDBRANCH   1   2
BRANCH   1  75
ATOM     75  C   UNL A   1      39.562  22.217  26.339  1.00  0.00     0.002 C 
BRANCH  75  76
ATOM     76  C   UNL A   1      38.387  23.187  26.184  1.00  0.00     0.002 C 
BRANCH  76  77
ATOM     77  C   UNL A   1      37.315  22.787  25.165  1.00  0.00     0.021 C 
BRANCH  77  78
ATOM     78  C   UNL A   1      36.641  21.436  25.406  1.00  0.00     0.116 C 
BRANCH  78  79
ATOM     79  N   UNL A   1      35.686  21.474  26.501  1.00  0.00    -0.352 N 
ATOM     80  C   UNL A   1      34.316  21.447  26.458  1.00  0.00     0.253 C 
ATOM     81  H   UNL A   1      36.079  21.527  27.402  1.00  0.00     0.163 HD
ATOM     82  O   UNL A   1      33.660  21.457  27.500  1.00  0.00    -0.269 OA
BRANCH  80  83
ATOM     83  C   UNL A   1      33.624  21.323  25.165  1.00  0.00     0.067 A 
ATOM     84  C   UNL A   1      33.174  20.051  24.781  1.00  0.00     0.016 A 
ATOM     85  C   UNL A   1      33.368  22.472  24.405  1.00  0.00     0.103 A 
ATOM     86  C   UNL A   1      32.477  19.906  23.592  1.00  0.00     0.003 A 
ATOM     87  C   UNL A   1      32.632  22.301  23.201  1.00  0.00     0.091 A 
ATOM     88  N   UNL A   1      33.799  23.709  24.765  1.00  0.00    -0.230 NA
ATOM     89  C   UNL A   1      32.213  21.034  22.817  1.00  0.00     0.031 A 
ATOM     90  N   UNL A   1      32.314  23.338  22.403  1.00  0.00    -0.231 NA
ATOM     91  C   UNL A   1      33.466  24.743  23.961  1.00  0.00     0.167 A 
ATOM     92  C   UNL A   1      32.734  24.560  22.802  1.00  0.00     0.167 A 
ATOM     93  Cl  UNL A   1      34.028  26.265  24.515  1.00  0.00    -0.059 Cl
ATOM     94  Cl  UNL A   1      32.267  25.830  21.746  1.00  0.00    -0.059 Cl
ENDBRANCH  80  83
ENDBRANCH  78  79
ENDBRANCH  77  78
ENDBRANCH  76  77
ENDBRANCH  75  76
ENDBRANCH   1  75
TORSDOF 16
ENDMDL
MODEL 3
REMARK VINA RESULT:     -11.1      1.363      2.275
REMARK SMILES O=C(NCCCCCCNC(=O)c1cccc2nc(Cl)c(Cl)nc12)c1ccc(-c2c3nc(c(-c4c(F)cc(S(=O)(=O)[O-])cc4F)c4ccc([nH]4)c(-c4c(F)cc(S(=O)(=O)[O-])cc4F)c4nc(c(-c5c(F)cc(S(=O)(=O)[O-])cc5F)c5ccc2[nH]5)C=C4)C=C3)cc1
REMARK SMILES IDX 5 1 4 2 3 3 1 4 2 5 25 7 26 8 90 9 27 10 89 11 28 12 29 13
REMARK SMILES IDX 30 14 83 15 31 16 88 17 82 18 84 19 32 20 87 21 81 22 80 23
REMARK SMILES IDX 33 25 67 26 46 27 66 28 47 29 50 30 65 31 85 32 48 33 49 34
REMARK SMILES IDX 64 36 86 37 51 38 34 39 35 40 44 41 36 42 37 43 43 44 45 45
REMARK SMILES IDX 38 46 39 47 40 48 41 49 42 50 68 51 69 52 78 53 70 54 71 55
REMARK SMILES IDX 77 56 79 57 72 58 73 59 74 60 75 61 76 62 52 63 53 64 62 65
REMARK SMILES IDX 54 66 55 67 61 68 63 69 56 70 57 71 58 72 59 73 60 74 6 75
REMARK SMILES IDX 7 76 8 77 9 78 10 79 11 80 12 82 13 83 14 84 24 85 15 86
REMARK SMILES IDX 17 87 23 88 16 89 18 90 21 91 19 92 22 93 20 94
REMARK H PARENT 3 6 84 24 50 35 10 81
REMARK Flexibility Score: inf
ROOT
ATOM      1  C   UNL A   1      32.722  27.852  25.864  1.00  0.00     0.021 C 
ENDROOT
BRANCH   1   2
ATOM      2  C   UNL A   1      33.756  28.230  26.922  1.00  0.00     0.116 C 
BRANCH   2   3
ATOM      3  N   UNL A   1      33.608  29.600  27.377  1.00  0.00    -0.352 N 
ATOM      4  O   UNL A   1      34.117  31.486  28.488  1.00  0.00    -0.269 OA
ATOM      5  C   UNL A   1      34.498  30.402  28.046  1.00  0.00     0.251 C 
ATOM      6  H   UNL A   1      32.739  30.017  27.176  1.00  0.00     0.163 HD
BRANCH   5   7
ATOM      7  C   UNL A   1      35.902  29.979  28.254  1.00  0.00     0.039 A 
ATOM      8  C   UNL A   1      36.272  29.487  29.511  1.00  0.00     0.014 A 
ATOM      9  C   UNL A   1      36.869  30.130  27.256  1.00  0.00     0.014 A 
ATOM     10  C   UNL A   1      37.599  29.120  29.758  1.00  0.00     0.010 A 
ATOM     11  C   UNL A   1      38.185  29.725  27.490  1.00  0.00     0.010 A 
ATOM     12  C   UNL A   1      38.564  29.227  28.746  1.00  0.00    -0.014 A 
BRANCH  12  13
ATOM     13  C   UNL A   1      39.988  28.886  28.999  1.00  0.00     0.031 A 
ATOM     14  C   UNL A   1      40.902  29.917  29.607  1.00  0.00     0.074 A 
ATOM     15  C   UNL A   1      40.467  27.671  28.667  1.00  0.00     0.049 A 
ATOM     16  N   UNL A   1      42.197  29.873  29.782  1.00  0.00    -0.248 NA
ATOM     17  C   UNL A   1      40.275  31.167  30.069  1.00  0.00     0.031 C 
ATOM     18  C   UNL A   1      39.682  26.578  28.093  1.00  0.00     0.029 A 
ATOM     19  N   UNL A   1      41.735  27.155  28.763  1.00  0.00    -0.354 N 
ATOM     20  C   UNL A   1      42.543  31.086  30.367  1.00  0.00     0.074 A 
ATOM     21  C   UNL A   1      41.326  31.861  30.485  1.00  0.00     0.031 C 
ATOM     22  C   UNL A   1      40.482  25.514  27.904  1.00  0.00     0.029 A 
ATOM     23  C   UNL A   1      41.843  25.863  28.305  1.00  0.00     0.049 A 
ATOM     24  H   UNL A   1      42.496  27.662  29.127  1.00  0.00     0.167 HD
ATOM     25  C   UNL A   1      43.760  31.510  30.783  1.00  0.00     0.037 A 
ATOM     26  C   UNL A   1      42.918  25.057  28.210  1.00  0.00     0.037 A 
ATOM     27  C   UNL A   1      44.966  30.732  30.683  1.00  0.00     0.049 A 
ATOM     28  C   UNL A   1      44.265  25.566  28.649  1.00  0.00     0.074 A 
ATOM     29  C   UNL A   1      46.256  31.092  31.038  1.00  0.00     0.029 A 
ATOM     30  N   UNL A   1      45.030  29.427  30.220  1.00  0.00    -0.354 N 
ATOM     31  N   UNL A   1      44.582  26.738  29.145  1.00  0.00    -0.248 NA
ATOM     32  C   UNL A   1      45.402  24.643  28.513  1.00  0.00     0.031 C 
ATOM     33  C   UNL A   1      47.101  30.006  30.782  1.00  0.00     0.029 A 
ATOM     34  C   UNL A   1      46.331  28.962  30.295  1.00  0.00     0.049 A 
ATOM     35  H   UNL A   1      44.262  28.908  29.887  1.00  0.00     0.167 HD
ATOM     36  C   UNL A   1      45.945  26.680  29.413  1.00  0.00     0.074 A 
ATOM     37  C   UNL A   1      46.394  25.359  29.026  1.00  0.00     0.031 C 
ATOM     38  C   UNL A   1      46.753  27.635  29.933  1.00  0.00     0.037 A 
BRANCH  25  39
ATOM     39  C   UNL A   1      43.852  32.874  31.403  1.00  0.00     0.058 A 
ATOM     40  C   UNL A   1      43.970  34.025  30.610  1.00  0.00     0.135 A 
ATOM     41  C   UNL A   1      43.746  33.040  32.793  1.00  0.00     0.135 A 
ATOM     42  F   UNL A   1      44.096  33.917  29.278  1.00  0.00    -0.206 F 
ATOM     43  C   UNL A   1      43.982  35.296  31.173  1.00  0.00     0.059 A 
ATOM     44  C   UNL A   1      43.736  34.303  33.376  1.00  0.00     0.059 A 
ATOM     45  F   UNL A   1      43.637  31.970  33.595  1.00  0.00    -0.206 F 
ATOM     46  C   UNL A   1      43.858  35.426  32.557  1.00  0.00     0.060 A 
BRANCH  46  47
ATOM     47  S   UNL A   1      43.830  37.085  33.268  1.00  0.00     0.124 S 
ATOM     48  O   UNL A   1      43.787  37.916  32.069  1.00  0.00    -0.237 OA
ATOM     49  O   UNL A   1      42.608  37.062  34.066  1.00  0.00    -0.237 OA
ATOM     50  O   UNL A   1      45.073  37.149  34.031  1.00  0.00    -0.744 OA
ENDBRANCH  46  47
ENDBRANCH  25  39
BRANCH  26  51
ATOM     51  C   UNL A   1      42.778  23.672  27.688  1.00  0.00     0.058 A 
ATOM     52  C   UNL A   1      42.850  23.415  26.311  1.00  0.00     0.135 A 
ATOM     53  C   UNL A   1      42.538  22.588  28.545  1.00  0.00     0.135 A 
ATOM     54  F   UNL A   1      43.069  24.424  25.453  1.00  0.00    -0.206 F 
ATOM     55  C   UNL A   1      42.664  22.137  25.797  1.00  0.00     0.059 A 
ATOM     56  C   UNL A   1      42.371  21.296  28.057  1.00  0.00     0.059 A 
ATOM     57  F   UNL A   1      42.475  22.780  29.872  1.00  0.00    -0.206 F 
ATOM     58  C   UNL A   1      42.419  21.083  26.680  1.00  0.00     0.060 A 
BRANCH  58  59
ATOM     59  S   UNL A   1      42.196  19.421  26.010  1.00  0.00     0.124 S 
ATOM     60  O   UNL A   1      42.728  18.597  27.088  1.00  0.00    -0.237 OA
ATOM     61  O   UNL A   1      40.752  19.358  25.810  1.00  0.00    -0.237 OA
ATOM     62  O   UNL A   1      42.989  19.448  24.784  1.00  0.00    -0.744 OA
ENDBRANCH  58  59
ENDBRANCH  26  51
BRANCH  38  63
ATOM     63  C   UNL A   1      48.189  27.269  30.173  1.00  0.00     0.058 A 
ATOM     64  C   UNL A   1      49.181  27.508  29.210  1.00  0.00     0.135 A 
ATOM     65  C   UNL A   1      48.581  26.714  31.401  1.00  0.00     0.135 A 
ATOM     66  F   UNL A   1      48.854  28.035  28.019  1.00  0.00    -0.206 F 
ATOM     67  C   UNL A   1      50.513  27.188  29.450  1.00  0.00     0.059 A 
ATOM     68  C   UNL A   1      49.910  26.404  31.668  1.00  0.00     0.059 A 
ATOM     69  F   UNL A   1      47.669  26.474  32.357  1.00  0.00    -0.206 F 
ATOM     70  C   UNL A   1      50.868  26.634  30.682  1.00  0.00     0.060 A 
BRANCH  70  71
ATOM     71  S   UNL A   1      52.604  26.247  30.992  1.00  0.00     0.124 S 
ATOM     72  O   UNL A   1      52.497  24.997  31.737  1.00  0.00    -0.237 OA
ATOM     73  O   UNL A   1      53.147  26.135  29.641  1.00  0.00    -0.237 OA
ATOM     74  O   UNL A   1      53.077  27.397  31.756  1.00  0.00    -0.744 OA
ENDBRANCH  70  71
ENDBRANCH  38  63
ENDBRANCH  12  13
ENDBRANCH   5   7
ENDBRANCH   2   3
ENDBRANCH   1   2
BRANCH   1  75
ATOM     75  C   UNL A   1      33.286  27.351  24.530  1.00  0.00     0.002 C 
BRANCH  75  76
ATOM     76  C   UNL A   1      33.987  25.991  24.569  1.00  0.00     0.002 C 
BRANCH  76  77
ATOM     77  C   UNL A   1      33.599  25.002  23.464  1.00  0.00     0.021 C 
BRANCH  77  78
ATOM     78  C   UNL A   1      32.303  24.225  23.694  1.00  0.00     0.116 C 
BRANCH  78  79
ATOM     79  N   UNL A   1      31.917  24.180  25.094  1.00  0.00    -0.352 N 
ATOM     80  C   UNL A   1      32.069  23.165  26.003  1.00  0.00     0.253 C 
ATOM     81  H   UNL A   1      31.485  24.995  25.440  1.00  0.00     0.163 HD
ATOM     82  O   UNL A   1      31.705  23.314  27.171  1.00  0.00    -0.269 OA
BRANCH  80  83
ATOM     83  C   UNL A   1      32.742  21.918  25.606  1.00  0.00     0.067 A 
ATOM     84  C   UNL A   1      31.940  20.845  25.188  1.00  0.00     0.016 A 
ATOM     85  C   UNL A   1      34.142  21.865  25.581  1.00  0.00     0.103 A 
ATOM     86  C   UNL A   1      32.543  19.672  24.762  1.00  0.00     0.003 A 
ATOM     87  C   UNL A   1      34.736  20.660  25.119  1.00  0.00     0.091 A 
ATOM     88  N   UNL A   1      34.928  22.897  25.984  1.00  0.00    -0.230 NA
ATOM     89  C   UNL A   1      33.934  19.594  24.731  1.00  0.00     0.031 A 
ATOM     90  N   UNL A   1      36.071  20.505  25.036  1.00  0.00    -0.231 NA
ATOM     91  C   UNL A   1      36.266  22.733  25.888  1.00  0.00     0.167 A 
ATOM     92  C   UNL A   1      36.827  21.560  25.419  1.00  0.00     0.167 A 
ATOM     93  Cl  UNL A   1      37.173  24.100  26.390  1.00  0.00    -0.059 Cl
ATOM     94  Cl  UNL A   1      38.515  21.293  25.259  1.00  0.00    -0.059 Cl
ENDBRANCH  80  83
ENDBRANCH  78  79
ENDBRANCH  77  78
ENDBRANCH  76  77
ENDBRANCH  75  76
ENDBRANCH   1  75
TORSDOF 16
ENDMDL
