MODEL 1
REMARK VINA RESULT:     -12.8      0.000      0.000
REMARK SMILES Cn1c(=O)c(=O)n(C)c2cc(S(=O)(=O)N3CCC[C@H]3C(=O)NCCCCCCNC(=O)c3ccc(-c4c5nc(c(-c6c(F)cc(S(=O)(=O)[O-])cc6F)c6ccc([nH]6)c(-c6c(F)cc(S(=O)(=O)[O-])cc6F)c6nc(c(-c7c(F)cc(S(=O)(=O)[O-])cc7F)c7ccc4[nH]7)C=C6)C=C5)cc3)ccc21
REMARK SMILES IDX 26 1 25 2 24 3 23 4 22 5 20 6 21 7 19 9 15 10 16 11 17 12
REMARK SMILES IDX 18 13 12 14 13 15 14 16 11 17 1 18 2 19 3 20 100 21 4 22
REMARK SMILES IDX 5 23 9 24 99 25 6 26 7 27 10 28 98 29 8 30 27 31 28 32 29 33
REMARK SMILES IDX 30 34 31 36 32 37 33 38 97 39 34 40 96 41 35 42 36 43 37 44
REMARK SMILES IDX 90 45 38 46 95 47 89 48 91 49 39 50 94 51 88 52 87 53 40 55
REMARK SMILES IDX 74 56 53 57 73 58 54 59 57 60 72 61 92 62 55 63 56 64 71 66
REMARK SMILES IDX 93 67 58 68 41 69 42 70 51 71 43 72 44 73 50 74 52 75 45 76
REMARK SMILES IDX 46 77 47 78 48 79 49 80 75 81 76 82 85 83 77 84 78 85 84 86
REMARK SMILES IDX 86 87 79 88 80 89 81 90 82 91 83 92 59 93 60 94 69 95 61 96
REMARK SMILES IDX 62 97 68 98 70 99 63 100 64 101 65 102 66 103 67 104
REMARK H PARENT 22 8 29 35 91 54 57 65
REMARK Flexibility Score: inf
ROOT
ATOM      1  C   UNL A   1      33.481  29.054  27.290  1.00  0.00     0.002 C 
ENDROOT
BRANCH   1   2
ATOM      2  C   UNL A   1      32.960  28.520  25.952  1.00  0.00     0.002 C 
BRANCH   2   3
ATOM      3  C   UNL A   1      33.984  28.449  24.818  1.00  0.00     0.021 C 
BRANCH   3   4
ATOM      4  C   UNL A   1      33.412  28.617  23.414  1.00  0.00     0.116 C 
BRANCH   4   5
ATOM      5  N   UNL A   1      33.725  27.481  22.573  1.00  0.00    -0.355 N 
ATOM      6  C   UNL A   1      32.995  26.382  22.245  1.00  0.00     0.238 C 
ATOM      7  O   UNL A   1      33.539  25.556  21.500  1.00  0.00    -0.273 OA
ATOM      8  H   UNL A   1      34.622  27.510  22.168  1.00  0.00     0.163 HD
BRANCH   6   9
ATOM      9  C   UNL A   1      31.528  26.206  22.613  1.00  0.00     0.162 C 
ATOM     10  N   UNL A   1      31.171  25.900  24.010  1.00  0.00    -0.185 NA
ATOM     11  C   UNL A   1      30.259  26.913  24.567  1.00  0.00     0.103 C 
ATOM     12  C   UNL A   1      29.680  27.612  23.351  1.00  0.00     0.019 C 
ATOM     13  C   UNL A   1      30.759  27.493  22.287  1.00  0.00     0.032 C 
BRANCH  10  14
ATOM     14  S   UNL A   1      31.133  24.316  24.555  1.00  0.00     0.243 S 
ATOM     15  O   UNL A   1      30.785  23.491  23.418  1.00  0.00    -0.207 OA
ATOM     16  O   UNL A   1      30.374  24.274  25.785  1.00  0.00    -0.207 OA
BRANCH  14  17
ATOM     17  C   UNL A   1      32.816  23.895  24.978  1.00  0.00     0.084 A 
ATOM     18  C   UNL A   1      37.838  23.984  25.870  1.00  0.00     0.154 C 
ATOM     19  N   UNL A   1      36.886  22.922  25.575  1.00  0.00    -0.305 N 
ATOM     20  C   UNL A   1      37.377  21.629  25.422  1.00  0.00     0.316 A 
ATOM     21  C   UNL A   1      35.508  23.219  25.420  1.00  0.00     0.068 A 
ATOM     22  O   UNL A   1      38.562  21.335  25.561  1.00  0.00    -0.263 OA
ATOM     23  C   UNL A   1      36.375  20.521  25.075  1.00  0.00     0.316 A 
ATOM     24  C   UNL A   1      34.605  22.229  24.989  1.00  0.00     0.069 A 
ATOM     25  C   UNL A   1      35.032  24.511  25.685  1.00  0.00     0.030 A 
ATOM     26  O   UNL A   1      36.780  19.362  25.032  1.00  0.00    -0.263 OA
ATOM     27  N   UNL A   1      35.051  20.888  24.827  1.00  0.00    -0.305 N 
ATOM     28  C   UNL A   1      33.264  22.589  24.741  1.00  0.00     0.050 A 
ATOM     29  C   UNL A   1      33.696  24.840  25.484  1.00  0.00     0.024 A 
ATOM     30  C   UNL A   1      34.114  19.839  24.456  1.00  0.00     0.154 C 
ENDBRANCH  14  17
ENDBRANCH  10  14
ENDBRANCH   6   9
ENDBRANCH   4   5
ENDBRANCH   3   4
ENDBRANCH   2   3
ENDBRANCH   1   2
BRANCH   1  31
ATOM     31  C   UNL A   1      33.954  30.507  27.287  1.00  0.00     0.021 C 
BRANCH  31  32
ATOM     32  C   UNL A   1      35.344  30.743  27.862  1.00  0.00     0.116 C 
BRANCH  32  33
ATOM     33  N   UNL A   1      35.343  30.924  29.305  1.00  0.00    -0.352 N 
ATOM     34  C   UNL A   1      36.284  30.520  30.223  1.00  0.00     0.251 C 
ATOM     35  H   UNL A   1      34.564  31.400  29.674  1.00  0.00     0.163 HD
ATOM     36  O   UNL A   1      36.078  30.648  31.424  1.00  0.00    -0.269 OA
BRANCH  34  37
ATOM     37  C   UNL A   1      37.529  29.884  29.739  1.00  0.00     0.039 A 
ATOM     38  C   UNL A   1      38.391  29.247  30.636  1.00  0.00     0.014 A 
ATOM     39  C   UNL A   1      37.868  29.992  28.389  1.00  0.00     0.014 A 
ATOM     40  C   UNL A   1      39.665  28.882  30.217  1.00  0.00     0.010 A 
ATOM     41  C   UNL A   1      39.119  29.545  27.954  1.00  0.00     0.010 A 
ATOM     42  C   UNL A   1      40.050  29.039  28.875  1.00  0.00    -0.014 A 
BRANCH  42  43
ATOM     43  C   UNL A   1      41.436  28.690  28.466  1.00  0.00     0.031 A 
ATOM     44  C   UNL A   1      42.539  29.715  28.538  1.00  0.00     0.074 A 
ATOM     45  C   UNL A   1      41.714  27.427  28.090  1.00  0.00     0.049 A 
ATOM     46  N   UNL A   1      43.806  29.585  28.234  1.00  0.00    -0.248 NA
ATOM     47  C   UNL A   1      42.177  31.061  29.009  1.00  0.00     0.031 C 
ATOM     48  C   UNL A   1      40.734  26.342  27.998  1.00  0.00     0.029 A 
ATOM     49  N   UNL A   1      42.899  26.832  27.740  1.00  0.00    -0.354 N 
ATOM     50  C   UNL A   1      44.386  30.828  28.460  1.00  0.00     0.074 A 
ATOM     51  C   UNL A   1      43.327  31.712  28.898  1.00  0.00     0.031 C 
ATOM     52  C   UNL A   1      41.366  25.205  27.671  1.00  0.00     0.029 A 
ATOM     53  C   UNL A   1      42.783  25.490  27.467  1.00  0.00     0.049 A 
ATOM     54  H   UNL A   1      43.753  27.320  27.690  1.00  0.00     0.167 HD
ATOM     55  C   UNL A   1      45.683  31.195  28.326  1.00  0.00     0.037 A 
ATOM     56  C   UNL A   1      43.706  24.590  27.081  1.00  0.00     0.037 A 
ATOM     57  C   UNL A   1      46.737  30.306  27.912  1.00  0.00     0.049 A 
ATOM     58  C   UNL A   1      45.129  25.033  26.900  1.00  0.00     0.074 A 
ATOM     59  C   UNL A   1      48.086  30.581  27.762  1.00  0.00     0.029 A 
ATOM     60  N   UNL A   1      46.566  28.968  27.586  1.00  0.00    -0.354 N 
ATOM     61  N   UNL A   1      45.655  26.216  27.109  1.00  0.00    -0.248 NA
ATOM     62  C   UNL A   1      46.082  24.026  26.415  1.00  0.00     0.031 C 
ATOM     63  C   UNL A   1      48.723  29.421  27.309  1.00  0.00     0.029 A 
ATOM     64  C   UNL A   1      47.780  28.410  27.218  1.00  0.00     0.049 A 
ATOM     65  H   UNL A   1      45.708  28.487  27.611  1.00  0.00     0.167 HD
ATOM     66  C   UNL A   1      47.002  26.093  26.789  1.00  0.00     0.074 A 
ATOM     67  C   UNL A   1      47.213  24.717  26.392  1.00  0.00     0.031 C 
ATOM     68  C   UNL A   1      47.973  27.038  26.817  1.00  0.00     0.037 A 
BRANCH  55  69
ATOM     69  C   UNL A   1      46.044  32.624  28.627  1.00  0.00     0.058 A 
ATOM     70  C   UNL A   1      46.461  33.024  29.906  1.00  0.00     0.135 A 
ATOM     71  C   UNL A   1      46.027  33.595  27.611  1.00  0.00     0.135 A 
ATOM     72  F   UNL A   1      46.480  32.142  30.918  1.00  0.00    -0.206 F 
ATOM     73  C   UNL A   1      46.832  34.339  30.173  1.00  0.00     0.059 A 
ATOM     74  C   UNL A   1      46.417  34.911  27.849  1.00  0.00     0.059 A 
ATOM     75  F   UNL A   1      45.636  33.267  26.371  1.00  0.00    -0.206 F 
ATOM     76  C   UNL A   1      46.808  35.275  29.137  1.00  0.00     0.060 A 
BRANCH  76  77
ATOM     77  S   UNL A   1      47.303  36.973  29.502  1.00  0.00     0.124 S 
ATOM     78  O   UNL A   1      46.800  37.680  28.328  1.00  0.00    -0.237 OA
ATOM     79  O   UNL A   1      46.596  37.240  30.751  1.00  0.00    -0.237 OA
ATOM     80  O   UNL A   1      48.755  36.889  29.610  1.00  0.00    -0.744 OA
ENDBRANCH  76  77
ENDBRANCH  55  69
BRANCH  56  81
ATOM     81  C   UNL A   1      43.301  23.181  26.842  1.00  0.00     0.058 A 
ATOM     82  C   UNL A   1      43.233  22.661  25.543  1.00  0.00     0.135 A 
ATOM     83  C   UNL A   1      43.022  22.314  27.911  1.00  0.00     0.135 A 
ATOM     84  F   UNL A   1      43.483  23.452  24.489  1.00  0.00    -0.206 F 
ATOM     85  C   UNL A   1      42.902  21.330  25.309  1.00  0.00     0.059 A 
ATOM     86  C   UNL A   1      42.714  20.975  27.705  1.00  0.00     0.059 A 
ATOM     87  F   UNL A   1      43.088  22.763  29.175  1.00  0.00    -0.206 F 
ATOM     88  C   UNL A   1      42.652  20.493  26.399  1.00  0.00     0.060 A 
BRANCH  88  89
ATOM     89  S   UNL A   1      42.296  18.750  26.087  1.00  0.00     0.124 S 
ATOM     90  O   UNL A   1      40.881  18.799  25.735  1.00  0.00    -0.237 OA
ATOM     91  O   UNL A   1      43.215  18.440  24.996  1.00  0.00    -0.237 OA
ATOM     92  O   UNL A   1      42.609  18.110  27.361  1.00  0.00    -0.744 OA
ENDBRANCH  88  89
ENDBRANCH  56  81
BRANCH  68  93
ATOM     93  C   UNL A   1      49.357  26.619  26.411  1.00  0.00     0.058 A 
ATOM     94  C   UNL A   1      50.188  25.901  27.282  1.00  0.00     0.135 A 
ATOM     95  C   UNL A   1      49.832  26.884  25.116  1.00  0.00     0.135 A 
ATOM     96  F   UNL A   1      49.782  25.630  28.534  1.00  0.00    -0.206 F 
ATOM     97  C   UNL A   1      51.450  25.468  26.890  1.00  0.00     0.059 A 
ATOM     98  C   UNL A   1      51.081  26.441  24.694  1.00  0.00     0.059 A 
ATOM     99  F   UNL A   1      49.071  27.562  24.241  1.00  0.00    -0.206 F 
ATOM    100  C   UNL A   1      51.886  25.740  25.591  1.00  0.00     0.060 A 
BRANCH 100 101
ATOM    101  S   UNL A   1      53.508  25.133  25.081  1.00  0.00     0.124 S 
ATOM    102  O   UNL A   1      53.531  25.503  23.670  1.00  0.00    -0.237 OA
ATOM    103  O   UNL A   1      54.409  25.886  25.949  1.00  0.00    -0.237 OA
ATOM    104  O   UNL A   1      53.436  23.701  25.355  1.00  0.00    -0.744 OA
ENDBRANCH 100 101
ENDBRANCH  68  93
ENDBRANCH  42  43
ENDBRANCH  34  37
ENDBRANCH  32  33
ENDBRANCH  31  32
ENDBRANCH   1  31
TORSDOF 18
ENDMDL
MODEL 2
REMARK VINA RESULT:     -12.6      6.258     11.822
REMARK SMILES Cn1c(=O)c(=O)n(C)c2cc(S(=O)(=O)N3CCC[C@H]3C(=O)NCCCCCCNC(=O)c3ccc(-c4c5nc(c(-c6c(F)cc(S(=O)(=O)[O-])cc6F)c6ccc([nH]6)c(-c6c(F)cc(S(=O)(=O)[O-])cc6F)c6nc(c(-c7c(F)cc(S(=O)(=O)[O-])cc7F)c7ccc4[nH]7)C=C6)C=C5)cc3)ccc21
REMARK SMILES IDX 26 1 25 2 24 3 23 4 22 5 20 6 21 7 19 9 15 10 16 11 17 12
REMARK SMILES IDX 18 13 12 14 13 15 14 16 11 17 1 18 2 19 3 20 100 21 4 22
REMARK SMILES IDX 5 23 9 24 99 25 6 26 7 27 10 28 98 29 8 30 27 31 28 32 29 33
REMARK SMILES IDX 30 34 31 36 32 37 33 38 97 39 34 40 96 41 35 42 36 43 37 44
REMARK SMILES IDX 90 45 38 46 95 47 89 48 91 49 39 50 94 51 88 52 87 53 40 55
REMARK SMILES IDX 74 56 53 57 73 58 54 59 57 60 72 61 92 62 55 63 56 64 71 66
REMARK SMILES IDX 93 67 58 68 41 69 42 70 51 71 43 72 44 73 50 74 52 75 45 76
REMARK SMILES IDX 46 77 47 78 48 79 49 80 75 81 76 82 85 83 77 84 78 85 84 86
REMARK SMILES IDX 86 87 79 88 80 89 81 90 82 91 83 92 59 93 60 94 69 95 61 96
REMARK SMILES IDX 62 97 68 98 70 99 63 100 64 101 65 102 66 103 67 104
REMARK H PARENT 22 8 29 35 91 54 57 65
REMARK Flexibility Score: inf
ROOT
ATOM      1  C   UNL A   1      40.098  22.261  27.171  1.00  0.00     0.002 C 
ENDROOT
BRANCH   1   2
ATOM      2  C   UNL A   1      39.362  21.671  25.964  1.00  0.00     0.002 C 
BRANCH   2   3
ATOM      3  C   UNL A   1      37.841  21.841  25.962  1.00  0.00     0.021 C 
BRANCH   3   4
ATOM      4  C   UNL A   1      37.173  21.697  24.599  1.00  0.00     0.116 C 
BRANCH   4   5
ATOM      5  N   UNL A   1      36.085  20.742  24.638  1.00  0.00    -0.355 N 
ATOM      6  C   UNL A   1      34.819  20.847  25.120  1.00  0.00     0.238 C 
ATOM      7  O   UNL A   1      34.103  19.842  25.025  1.00  0.00    -0.273 OA
ATOM      8  H   UNL A   1      36.301  19.864  24.248  1.00  0.00     0.163 HD
BRANCH   6   9
ATOM      9  C   UNL A   1      34.211  22.155  25.611  1.00  0.00     0.162 C 
ATOM     10  N   UNL A   1      33.027  22.699  24.922  1.00  0.00    -0.185 NA
ATOM     11  C   UNL A   1      31.896  22.869  25.849  1.00  0.00     0.103 C 
ATOM     12  C   UNL A   1      32.530  22.860  27.228  1.00  0.00     0.019 C 
ATOM     13  C   UNL A   1      33.775  22.002  27.074  1.00  0.00     0.032 C 
BRANCH  10  14
ATOM     14  S   UNL A   1      33.198  23.690  23.582  1.00  0.00     0.243 S 
ATOM     15  O   UNL A   1      32.020  23.493  22.764  1.00  0.00    -0.207 OA
ATOM     16  O   UNL A   1      34.531  23.513  23.049  1.00  0.00    -0.207 OA
BRANCH  14  17
ATOM     17  C   UNL A   1      33.108  25.367  24.188  1.00  0.00     0.084 A 
ATOM     18  C   UNL A   1      33.451  29.613  26.994  1.00  0.00     0.154 C 
ATOM     19  N   UNL A   1      32.600  29.205  25.885  1.00  0.00    -0.305 N 
ATOM     20  C   UNL A   1      31.592  30.075  25.481  1.00  0.00     0.316 A 
ATOM     21  C   UNL A   1      32.785  27.942  25.268  1.00  0.00     0.068 A 
ATOM     22  O   UNL A   1      31.411  31.181  25.984  1.00  0.00    -0.263 OA
ATOM     23  C   UNL A   1      30.676  29.624  24.336  1.00  0.00     0.316 A 
ATOM     24  C   UNL A   1      31.877  27.476  24.299  1.00  0.00     0.069 A 
ATOM     25  C   UNL A   1      33.874  27.135  25.628  1.00  0.00     0.030 A 
ATOM     26  O   UNL A   1      29.844  30.421  23.907  1.00  0.00    -0.263 OA
ATOM     27  N   UNL A   1      30.834  28.329  23.841  1.00  0.00    -0.305 N 
ATOM     28  C   UNL A   1      32.031  26.170  23.788  1.00  0.00     0.050 A 
ATOM     29  C   UNL A   1      34.044  25.869  25.079  1.00  0.00     0.024 A 
ATOM     30  C   UNL A   1      29.934  27.890  22.786  1.00  0.00     0.154 C 
ENDBRANCH  14  17
ENDBRANCH  10  14
ENDBRANCH   6   9
ENDBRANCH   4   5
ENDBRANCH   3   4
ENDBRANCH   2   3
ENDBRANCH   1   2
BRANCH   1  31
ATOM     31  C   UNL A   1      41.601  21.994  27.228  1.00  0.00     0.021 C 
BRANCH  31  32
ATOM     32  C   UNL A   1      42.489  23.225  27.102  1.00  0.00     0.116 C 
BRANCH  32  33
ATOM     33  N   UNL A   1      42.109  24.093  25.998  1.00  0.00    -0.352 N 
ATOM     34  C   UNL A   1      41.654  25.390  26.043  1.00  0.00     0.251 C 
ATOM     35  H   UNL A   1      42.189  23.698  25.100  1.00  0.00     0.163 HD
ATOM     36  O   UNL A   1      41.263  25.948  25.024  1.00  0.00    -0.269 OA
BRANCH  34  37
ATOM     37  C   UNL A   1      41.598  26.086  27.347  1.00  0.00     0.039 A 
ATOM     38  C   UNL A   1      40.558  25.824  28.242  1.00  0.00     0.014 A 
ATOM     39  C   UNL A   1      42.555  27.059  27.641  1.00  0.00     0.014 A 
ATOM     40  C   UNL A   1      40.374  26.657  29.340  1.00  0.00     0.010 A 
ATOM     41  C   UNL A   1      42.414  27.840  28.791  1.00  0.00     0.010 A 
ATOM     42  C   UNL A   1      41.292  27.684  29.620  1.00  0.00    -0.014 A 
BRANCH  42  43
ATOM     43  C   UNL A   1      41.042  28.595  30.769  1.00  0.00     0.031 A 
ATOM     44  C   UNL A   1      41.946  28.576  31.974  1.00  0.00     0.074 A 
ATOM     45  C   UNL A   1      40.033  29.485  30.697  1.00  0.00     0.049 A 
ATOM     46  N   UNL A   1      41.887  29.306  33.060  1.00  0.00    -0.248 NA
ATOM     47  C   UNL A   1      43.062  27.616  31.964  1.00  0.00     0.031 C 
ATOM     48  C   UNL A   1      39.101  29.610  29.574  1.00  0.00     0.029 A 
ATOM     49  N   UNL A   1      39.638  30.468  31.567  1.00  0.00    -0.354 N 
ATOM     50  C   UNL A   1      42.939  28.884  33.865  1.00  0.00     0.074 A 
ATOM     51  C   UNL A   1      43.606  27.812  33.157  1.00  0.00     0.031 C 
ATOM     52  C   UNL A   1      38.279  30.646  29.799  1.00  0.00     0.029 A 
ATOM     53  C   UNL A   1      38.581  31.217  31.107  1.00  0.00     0.049 A 
ATOM     54  H   UNL A   1      40.070  30.623  32.438  1.00  0.00     0.167 HD
ATOM     55  C   UNL A   1      43.322  29.355  35.077  1.00  0.00     0.037 A 
ATOM     56  C   UNL A   1      37.918  32.240  31.677  1.00  0.00     0.037 A 
ATOM     57  C   UNL A   1      42.669  30.438  35.766  1.00  0.00     0.049 A 
ATOM     58  C   UNL A   1      38.335  32.716  33.039  1.00  0.00     0.074 A 
ATOM     59  C   UNL A   1      42.993  30.997  36.991  1.00  0.00     0.029 A 
ATOM     60  N   UNL A   1      41.564  31.130  35.293  1.00  0.00    -0.354 N 
ATOM     61  N   UNL A   1      39.327  32.297  33.787  1.00  0.00    -0.248 NA
ATOM     62  C   UNL A   1      37.536  33.791  33.642  1.00  0.00     0.031 C 
ATOM     63  C   UNL A   1      42.062  32.001  37.274  1.00  0.00     0.029 A 
ATOM     64  C   UNL A   1      41.183  32.097  36.208  1.00  0.00     0.049 A 
ATOM     65  H   UNL A   1      41.117  30.958  34.433  1.00  0.00     0.167 HD
ATOM     66  C   UNL A   1      39.276  33.062  34.947  1.00  0.00     0.074 A 
ATOM     67  C   UNL A   1      38.169  33.983  34.791  1.00  0.00     0.031 C 
ATOM     68  C   UNL A   1      40.072  33.003  36.042  1.00  0.00     0.037 A 
BRANCH  55  69
ATOM     69  C   UNL A   1      44.502  28.703  35.744  1.00  0.00     0.058 A 
ATOM     70  C   UNL A   1      45.813  29.153  35.523  1.00  0.00     0.135 A 
ATOM     71  C   UNL A   1      44.316  27.653  36.659  1.00  0.00     0.135 A 
ATOM     72  F   UNL A   1      46.051  30.141  34.646  1.00  0.00    -0.206 F 
ATOM     73  C   UNL A   1      46.900  28.573  36.172  1.00  0.00     0.059 A 
ATOM     74  C   UNL A   1      45.386  27.075  37.337  1.00  0.00     0.059 A 
ATOM     75  F   UNL A   1      43.083  27.184  36.906  1.00  0.00    -0.206 F 
ATOM     76  C   UNL A   1      46.676  27.536  37.079  1.00  0.00     0.060 A 
BRANCH  76  77
ATOM     77  S   UNL A   1      48.099  26.806  37.917  1.00  0.00     0.124 S 
ATOM     78  O   UNL A   1      48.620  25.917  36.882  1.00  0.00    -0.237 OA
ATOM     79  O   UNL A   1      48.918  27.976  38.215  1.00  0.00    -0.237 OA
ATOM     80  O   UNL A   1      47.510  26.142  39.075  1.00  0.00    -0.744 OA
ENDBRANCH  76  77
ENDBRANCH  55  69
BRANCH  56  81
ATOM     81  C   UNL A   1      36.788  32.877  30.952  1.00  0.00     0.058 A 
ATOM     82  C   UNL A   1      35.460  32.628  31.324  1.00  0.00     0.135 A 
ATOM     83  C   UNL A   1      37.017  33.784  29.904  1.00  0.00     0.135 A 
ATOM     84  F   UNL A   1      35.191  31.763  32.314  1.00  0.00    -0.206 F 
ATOM     85  C   UNL A   1      34.396  33.255  30.684  1.00  0.00     0.059 A 
ATOM     86  C   UNL A   1      35.973  34.442  29.267  1.00  0.00     0.059 A 
ATOM     87  F   UNL A   1      38.273  34.065  29.522  1.00  0.00    -0.206 F 
ATOM     88  C   UNL A   1      34.664  34.167  29.661  1.00  0.00     0.060 A 
BRANCH  88  89
ATOM     89  S   UNL A   1      33.279  35.030  28.887  1.00  0.00     0.124 S 
ATOM     90  O   UNL A   1      32.437  35.326  30.041  1.00  0.00    -0.237 OA
ATOM     91  O   UNL A   1      33.940  36.175  28.268  1.00  0.00    -0.237 OA
ATOM     92  O   UNL A   1      32.748  34.042  27.953  1.00  0.00    -0.744 OA
ENDBRANCH  88  89
ENDBRANCH  56  81
BRANCH  68  93
ATOM     93  C   UNL A   1      39.780  33.961  37.161  1.00  0.00     0.058 A 
ATOM     94  C   UNL A   1      38.983  33.588  38.253  1.00  0.00     0.135 A 
ATOM     95  C   UNL A   1      40.356  35.242  37.172  1.00  0.00     0.135 A 
ATOM     96  F   UNL A   1      38.404  32.377  38.284  1.00  0.00    -0.206 F 
ATOM     97  C   UNL A   1      38.754  34.458  39.314  1.00  0.00     0.059 A 
ATOM     98  C   UNL A   1      40.159  36.119  38.234  1.00  0.00     0.059 A 
ATOM     99  F   UNL A   1      41.134  35.643  36.153  1.00  0.00    -0.206 F 
ATOM    100  C   UNL A   1      39.350  35.720  39.297  1.00  0.00     0.060 A 
BRANCH 100 101
ATOM    101  S   UNL A   1      39.080  36.821  40.703  1.00  0.00     0.124 S 
ATOM    102  O   UNL A   1      40.448  37.171  41.069  1.00  0.00    -0.237 OA
ATOM    103  O   UNL A   1      38.287  37.894  40.110  1.00  0.00    -0.237 OA
ATOM    104  O   UNL A   1      38.368  35.979  41.660  1.00  0.00    -0.744 OA
ENDBRANCH 100 101
ENDBRANCH  68  93
ENDBRANCH  42  43
ENDBRANCH  34  37
ENDBRANCH  32  33
ENDBRANCH  31  32
ENDBRANCH   1  31
TORSDOF 18
ENDMDL
MODEL 3
REMARK VINA RESULT:     -12.4      1.251      2.564
REMARK SMILES Cn1c(=O)c(=O)n(C)c2cc(S(=O)(=O)N3CCC[C@H]3C(=O)NCCCCCCNC(=O)c3ccc(-c4c5nc(c(-c6c(F)cc(S(=O)(=O)[O-])cc6F)c6ccc([nH]6)c(-c6c(F)cc(S(=O)(=O)[O-])cc6F)c6nc(c(-c7c(F)cc(S(=O)(=O)[O-])cc7F)c7ccc4[nH]7)C=C6)C=C5)cc3)ccc21
REMARK SMILES IDX 26 1 25 2 24 3 23 4 22 5 20 6 21 7 19 9 15 10 16 11 17 12
REMARK SMILES IDX 18 13 12 14 13 15 14 16 11 17 1 18 2 19 3 20 100 21 4 22
REMARK SMILES IDX 5 23 9 24 99 25 6 26 7 27 10 28 98 29 8 30 27 31 28 32 29 33
REMARK SMILES IDX 30 34 31 36 32 37 33 38 97 39 34 40 96 41 35 42 36 43 37 44
REMARK SMILES IDX 90 45 38 46 95 47 89 48 91 49 39 50 94 51 88 52 87 53 40 55
REMARK SMILES IDX 74 56 53 57 73 58 54 59 57 60 72 61 92 62 55 63 56 64 71 66
REMARK SMILES IDX 93 67 58 68 41 69 42 70 51 71 43 72 44 73 50 74 52 75 45 76
REMARK SMILES IDX 46 77 47 78 48 79 49 80 75 81 76 82 85 83 77 84 78 85 84 86
REMARK SMILES IDX 86 87 79 88 80 89 81 90 82 91 83 92 59 93 60 94 69 95 61 96
REMARK SMILES IDX 62 97 68 98 70 99 63 100 64 101 65 102 66 103 67 104
REMARK H PARENT 22 8 29 35 91 54 57 65
REMARK Flexibility Score: inf
ROOT
ATOM      1  C   UNL A   1      35.221  33.522  28.744  1.00  0.00     0.002 C 
ENDROOT
BRANCH   1   2
ATOM      2  C   UNL A   1      34.420  32.352  28.163  1.00  0.00     0.002 C 
BRANCH   2   3
ATOM      3  C   UNL A   1      35.246  31.182  27.625  1.00  0.00     0.021 C 
BRANCH   3   4
ATOM      4  C   UNL A   1      34.450  29.923  27.293  1.00  0.00     0.116 C 
BRANCH   4   5
ATOM      5  N   UNL A   1      33.203  30.241  26.629  1.00  0.00    -0.355 N 
ATOM      6  C   UNL A   1      32.552  29.627  25.607  1.00  0.00     0.238 C 
ATOM      7  O   UNL A   1      31.490  30.143  25.235  1.00  0.00    -0.273 OA
ATOM      8  H   UNL A   1      32.749  31.041  26.980  1.00  0.00     0.163 HD
BRANCH   6   9
ATOM      9  C   UNL A   1      32.976  28.285  25.024  1.00  0.00     0.162 C 
ATOM     10  N   UNL A   1      31.939  27.322  24.612  1.00  0.00    -0.185 NA
ATOM     11  C   UNL A   1      32.071  26.964  23.190  1.00  0.00     0.103 C 
ATOM     12  C   UNL A   1      33.490  27.362  22.828  1.00  0.00     0.019 C 
ATOM     13  C   UNL A   1      33.817  28.516  23.761  1.00  0.00     0.032 C 
BRANCH  10  14
ATOM     14  S   UNL A   1      31.292  26.240  25.716  1.00  0.00     0.243 S 
ATOM     15  O   UNL A   1      29.874  26.157  25.437  1.00  0.00    -0.207 OA
ATOM     16  O   UNL A   1      31.789  26.575  27.031  1.00  0.00    -0.207 OA
BRANCH  14  17
ATOM     17  C   UNL A   1      31.973  24.641  25.303  1.00  0.00     0.084 A 
ATOM     18  C   UNL A   1      32.669  19.667  24.412  1.00  0.00     0.154 C 
ATOM     19  N   UNL A   1      33.567  20.769  24.731  1.00  0.00    -0.305 N 
ATOM     20  C   UNL A   1      34.916  20.480  24.913  1.00  0.00     0.316 A 
ATOM     21  C   UNL A   1      33.061  22.085  24.878  1.00  0.00     0.068 A 
ATOM     22  O   UNL A   1      35.391  19.354  24.781  1.00  0.00    -0.263 OA
ATOM     23  C   UNL A   1      35.851  21.638  25.284  1.00  0.00     0.316 A 
ATOM     24  C   UNL A   1      33.892  23.127  25.331  1.00  0.00     0.069 A 
ATOM     25  C   UNL A   1      31.718  22.360  24.584  1.00  0.00     0.030 A 
ATOM     26  O   UNL A   1      37.057  21.414  25.354  1.00  0.00    -0.263 OA
ATOM     27  N   UNL A   1      35.281  22.889  25.523  1.00  0.00    -0.305 N 
ATOM     28  C   UNL A   1      33.327  24.397  25.571  1.00  0.00     0.050 A 
ATOM     29  C   UNL A   1      31.185  23.629  24.777  1.00  0.00     0.024 A 
ATOM     30  C   UNL A   1      36.166  23.974  25.917  1.00  0.00     0.154 C 
ENDBRANCH  14  17
ENDBRANCH  10  14
ENDBRANCH   6   9
ENDBRANCH   4   5
ENDBRANCH   3   4
ENDBRANCH   2   3
ENDBRANCH   1   2
BRANCH   1  31
ATOM     31  C   UNL A   1      36.739  33.353  28.742  1.00  0.00     0.021 C 
BRANCH  31  32
ATOM     32  C   UNL A   1      37.363  33.042  30.095  1.00  0.00     0.116 C 
BRANCH  32  33
ATOM     33  N   UNL A   1      36.572  32.116  30.891  1.00  0.00    -0.352 N 
ATOM     34  C   UNL A   1      36.766  30.768  31.087  1.00  0.00     0.251 C 
ATOM     35  H   UNL A   1      35.794  32.507  31.350  1.00  0.00     0.163 HD
ATOM     36  O   UNL A   1      35.937  30.102  31.696  1.00  0.00    -0.269 OA
BRANCH  34  37
ATOM     37  C   UNL A   1      37.967  30.126  30.509  1.00  0.00     0.039 A 
ATOM     38  C   UNL A   1      38.984  29.654  31.342  1.00  0.00     0.014 A 
ATOM     39  C   UNL A   1      38.105  30.064  29.121  1.00  0.00     0.014 A 
ATOM     40  C   UNL A   1      40.206  29.289  30.789  1.00  0.00     0.010 A 
ATOM     41  C   UNL A   1      39.306  29.617  28.566  1.00  0.00     0.010 A 
ATOM     42  C   UNL A   1      40.387  29.279  29.395  1.00  0.00    -0.014 A 
BRANCH  42  43
ATOM     43  C   UNL A   1      41.721  28.938  28.833  1.00  0.00     0.031 A 
ATOM     44  C   UNL A   1      42.833  29.954  28.822  1.00  0.00     0.074 A 
ATOM     45  C   UNL A   1      41.948  27.686  28.391  1.00  0.00     0.049 A 
ATOM     46  N   UNL A   1      44.061  29.828  28.384  1.00  0.00    -0.248 NA
ATOM     47  C   UNL A   1      42.532  31.287  29.371  1.00  0.00     0.031 C 
ATOM     48  C   UNL A   1      40.955  26.609  28.368  1.00  0.00     0.029 A 
ATOM     49  N   UNL A   1      43.086  27.097  27.902  1.00  0.00    -0.354 N 
ATOM     50  C   UNL A   1      44.670  31.061  28.587  1.00  0.00     0.074 A 
ATOM     51  C   UNL A   1      43.670  31.935  29.161  1.00  0.00     0.031 C 
ATOM     52  C   UNL A   1      41.541  25.480  27.942  1.00  0.00     0.029 A 
ATOM     53  C   UNL A   1      42.931  25.766  27.600  1.00  0.00     0.049 A 
ATOM     54  H   UNL A   1      43.933  27.583  27.778  1.00  0.00     0.167 HD
ATOM     55  C   UNL A   1      45.950  31.427  28.330  1.00  0.00     0.037 A 
ATOM     56  C   UNL A   1      43.802  24.874  27.092  1.00  0.00     0.037 A 
ATOM     57  C   UNL A   1      46.948  30.546  27.781  1.00  0.00     0.049 A 
ATOM     58  C   UNL A   1      45.202  25.316  26.777  1.00  0.00     0.074 A 
ATOM     59  C   UNL A   1      48.276  30.820  27.500  1.00  0.00     0.029 A 
ATOM     60  N   UNL A   1      46.733  29.221  27.433  1.00  0.00    -0.354 N 
ATOM     61  N   UNL A   1      45.756  26.489  26.968  1.00  0.00    -0.248 NA
ATOM     62  C   UNL A   1      46.091  24.320  26.164  1.00  0.00     0.031 C 
ATOM     63  C   UNL A   1      48.853  29.672  26.947  1.00  0.00     0.029 A 
ATOM     64  C   UNL A   1      47.898  28.669  26.923  1.00  0.00     0.049 A 
ATOM     65  H   UNL A   1      45.879  28.743  27.532  1.00  0.00     0.167 HD
ATOM     66  C   UNL A   1      47.061  26.371  26.505  1.00  0.00     0.074 A 
ATOM     67  C   UNL A   1      47.220  25.006  26.045  1.00  0.00     0.031 C 
ATOM     68  C   UNL A   1      48.038  27.310  26.462  1.00  0.00     0.037 A 
BRANCH  55  69
ATOM     69  C   UNL A   1      46.351  32.844  28.637  1.00  0.00     0.058 A 
ATOM     70  C   UNL A   1      46.241  33.864  27.679  1.00  0.00     0.135 A 
ATOM     71  C   UNL A   1      46.796  33.198  29.922  1.00  0.00     0.135 A 
ATOM     72  F   UNL A   1      45.838  33.579  26.431  1.00  0.00    -0.206 F 
ATOM     73  C   UNL A   1      46.576  35.181  27.977  1.00  0.00     0.059 A 
ATOM     74  C   UNL A   1      47.113  34.514  30.250  1.00  0.00     0.059 A 
ATOM     75  F   UNL A   1      46.919  32.262  30.875  1.00  0.00    -0.206 F 
ATOM     76  C   UNL A   1      47.009  35.497  29.267  1.00  0.00     0.060 A 
BRANCH  76  77
ATOM     77  S   UNL A   1      47.429  37.214  29.635  1.00  0.00     0.124 S 
ATOM     78  O   UNL A   1      48.761  37.069  30.216  1.00  0.00    -0.237 OA
ATOM     79  O   UNL A   1      47.380  37.836  28.316  1.00  0.00    -0.237 OA
ATOM     80  O   UNL A   1      46.382  37.630  30.563  1.00  0.00    -0.744 OA
ENDBRANCH  76  77
ENDBRANCH  55  69
BRANCH  56  81
ATOM     81  C   UNL A   1      43.364  23.475  26.853  1.00  0.00     0.058 A 
ATOM     82  C   UNL A   1      43.174  22.991  25.551  1.00  0.00     0.135 A 
ATOM     83  C   UNL A   1      43.172  22.581  27.919  1.00  0.00     0.135 A 
ATOM     84  F   UNL A   1      43.338  23.809  24.500  1.00  0.00    -0.206 F 
ATOM     85  C   UNL A   1      42.811  21.670  25.312  1.00  0.00     0.059 A 
ATOM     86  C   UNL A   1      42.834  21.250  27.705  1.00  0.00     0.059 A 
ATOM     87  F   UNL A   1      43.355  22.994  29.183  1.00  0.00    -0.206 F 
ATOM     88  C   UNL A   1      42.651  20.805  26.397  1.00  0.00     0.060 A 
BRANCH  88  89
ATOM     89  S   UNL A   1      42.251  19.074  26.072  1.00  0.00     0.124 S 
ATOM     90  O   UNL A   1      42.607  18.448  27.340  1.00  0.00    -0.237 OA
ATOM     91  O   UNL A   1      40.825  19.141  25.770  1.00  0.00    -0.237 OA
ATOM     92  O   UNL A   1      43.108  18.739  24.939  1.00  0.00    -0.744 OA
ENDBRANCH  88  89
ENDBRANCH  56  81
BRANCH  68  93
ATOM     93  C   UNL A   1      49.368  26.898  25.900  1.00  0.00     0.058 A 
ATOM     94  C   UNL A   1      49.694  27.120  24.554  1.00  0.00     0.135 A 
ATOM     95  C   UNL A   1      50.350  26.334  26.731  1.00  0.00     0.135 A 
ATOM     96  F   UNL A   1      48.786  27.649  23.718  1.00  0.00    -0.206 F 
ATOM     97  C   UNL A   1      50.944  26.785  24.046  1.00  0.00     0.059 A 
ATOM     98  C   UNL A   1      51.615  26.012  26.249  1.00  0.00     0.059 A 
ATOM     99  F   UNL A   1      50.090  26.109  28.030  1.00  0.00    -0.206 F 
ATOM    100  C   UNL A   1      51.900  26.235  24.903  1.00  0.00     0.060 A 
BRANCH 100 101
ATOM    101  S   UNL A   1      53.533  25.847  24.238  1.00  0.00     0.124 S 
ATOM    102  O   UNL A   1      53.765  24.516  24.787  1.00  0.00    -0.237 OA
ATOM    103  O   UNL A   1      53.305  25.909  22.798  1.00  0.00    -0.237 OA
ATOM    104  O   UNL A   1      54.380  26.906  24.779  1.00  0.00    -0.744 OA
ENDBRANCH 100 101
ENDBRANCH  68  93
ENDBRANCH  42  43
ENDBRANCH  34  37
ENDBRANCH  32  33
ENDBRANCH  31  32
ENDBRANCH   1  31
TORSDOF 18
ENDMDL
