MODEL 1
REMARK VINA RESULT:     -10.5      0.000      0.000
REMARK SMILES CCC(CC)C[N@H+]1[C@@H]2CC[C@H]1C[C@H](CC(=O)NCCCCCCNC(=O)c1ccc(-c3c4nc(c(-c5c(F)cc(S(=O)(=O)[O-])cc5F)c5ccc([nH]5)c(-c5c(F)cc(S(=O)(=O)[O-])cc5F)c5nc(c(-c6c(F)cc(S(=O)(=O)[O-])cc6F)c6ccc3[nH]6)C=C5)C=C4)cc1)C2
REMARK SMILES IDX 20 1 19 2 18 3 17 4 15 5 16 6 14 8 13 9 7 10 8 11 11 12 9 14
REMARK SMILES IDX 93 15 10 16 12 17 6 18 3 19 2 20 1 21 4 22 5 23 21 24 22 25
REMARK SMILES IDX 23 26 24 27 25 28 26 30 27 31 28 32 92 33 29 34 91 35 30 36
REMARK SMILES IDX 31 37 32 38 85 39 33 40 90 41 84 42 86 43 34 44 89 45 83 46
REMARK SMILES IDX 82 47 35 49 69 50 48 51 68 52 49 53 52 54 67 55 87 56 50 57
REMARK SMILES IDX 51 58 66 60 88 61 53 62 36 63 37 64 46 65 38 66 39 67 45 68
REMARK SMILES IDX 47 69 40 70 41 71 42 72 43 73 44 74 70 75 71 76 80 77 72 78
REMARK SMILES IDX 73 79 79 80 81 81 74 82 75 83 76 84 77 85 78 86 54 87 55 88
REMARK SMILES IDX 64 89 56 90 57 91 63 92 65 93 58 94 59 95 60 96 61 97 62 98
REMARK H PARENT 17 7 7 13 24 29 86 48 52 59
REMARK Flexibility Score: inf
ROOT
ATOM      1  C   UNL A   1      30.916  27.637  24.688  1.00  0.00     0.002 C 
ENDROOT
BRANCH   1   2
ATOM      2  C   UNL A   1      31.317  28.446  23.458  1.00  0.00     0.021 C 
BRANCH   2   3
ATOM      3  C   UNL A   1      32.784  28.295  23.040  1.00  0.00     0.116 C 
BRANCH   3   4
ATOM      4  N   UNL A   1      32.905  27.360  21.935  1.00  0.00    -0.356 N 
ATOM      5  C   UNL A   1      33.110  26.015  21.926  1.00  0.00     0.220 C 
ATOM      6  O   UNL A   1      33.278  25.460  20.837  1.00  0.00    -0.275 OA
ATOM      7  H   UNL A   1      32.828  27.768  21.042  1.00  0.00     0.163 HD
BRANCH   5   8
ATOM      8  C   UNL A   1      33.110  25.204  23.208  1.00  0.00     0.104 C 
BRANCH   8   9
ATOM      9  C   UNL A   1      34.504  24.689  23.641  1.00  0.00     0.010 C 
ATOM     10  N   UNL A   1      35.040  22.424  25.492  1.00  0.00    -0.330 N 
ATOM     11  C   UNL A   1      35.464  22.318  24.097  1.00  0.00     0.184 C 
ATOM     12  C   UNL A   1      35.515  23.758  25.875  1.00  0.00     0.184 C 
ATOM     13  H   UNL A   1      35.441  21.625  25.982  1.00  0.00     0.348 HD
ATOM     14  C   UNL A   1      36.935  22.756  24.218  1.00  0.00     0.071 C 
ATOM     15  C   UNL A   1      34.705  23.246  23.138  1.00  0.00     0.069 C 
ATOM     16  C   UNL A   1      36.957  23.743  25.379  1.00  0.00     0.071 C 
ATOM     17  C   UNL A   1      34.714  24.852  25.159  1.00  0.00     0.069 C 
BRANCH  10  18
ATOM     18  C   UNL A   1      33.679  22.109  25.949  1.00  0.00     0.266 C 
BRANCH  18  19
ATOM     19  C   UNL A   1      32.539  21.956  24.916  1.00  0.00     0.044 C 
BRANCH  19  20
ATOM     20  C   UNL A   1      32.242  20.490  24.560  1.00  0.00     0.006 C 
ATOM     21  C   UNL A   1      32.996  19.534  25.475  1.00  0.00     0.004 C 
ENDBRANCH  19  20
BRANCH  19  22
ATOM     22  C   UNL A   1      31.275  22.749  25.340  1.00  0.00     0.006 C 
ATOM     23  C   UNL A   1      31.448  23.741  26.479  1.00  0.00     0.004 C 
ENDBRANCH  19  22
ENDBRANCH  18  19
ENDBRANCH  10  18
ENDBRANCH   8   9
ENDBRANCH   5   8
ENDBRANCH   3   4
ENDBRANCH   2   3
ENDBRANCH   1   2
BRANCH   1  24
ATOM     24  C   UNL A   1      31.398  28.214  26.020  1.00  0.00     0.002 C 
BRANCH  24  25
ATOM     25  C   UNL A   1      32.550  27.458  26.690  1.00  0.00     0.021 C 
BRANCH  25  26
ATOM     26  C   UNL A   1      33.874  28.217  26.762  1.00  0.00     0.116 C 
BRANCH  26  27
ATOM     27  N   UNL A   1      33.689  29.597  27.184  1.00  0.00    -0.352 N 
ATOM     28  C   UNL A   1      34.507  30.392  27.942  1.00  0.00     0.251 C 
ATOM     29  H   UNL A   1      32.855  30.021  26.880  1.00  0.00     0.163 HD
ATOM     30  O   UNL A   1      34.073  31.454  28.402  1.00  0.00    -0.269 OA
BRANCH  28  31
ATOM     31  C   UNL A   1      35.897  29.983  28.219  1.00  0.00     0.039 A 
ATOM     32  C   UNL A   1      36.843  30.038  27.191  1.00  0.00     0.014 A 
ATOM     33  C   UNL A   1      36.264  29.521  29.487  1.00  0.00     0.014 A 
ATOM     34  C   UNL A   1      38.169  29.683  27.450  1.00  0.00     0.010 A 
ATOM     35  C   UNL A   1      37.598  29.231  29.760  1.00  0.00     0.010 A 
ATOM     36  C   UNL A   1      38.563  29.303  28.744  1.00  0.00    -0.014 A 
BRANCH  36  37
ATOM     37  C   UNL A   1      39.979  28.974  29.052  1.00  0.00     0.031 A 
ATOM     38  C   UNL A   1      40.881  30.012  29.659  1.00  0.00     0.074 A 
ATOM     39  C   UNL A   1      40.466  27.761  28.725  1.00  0.00     0.049 A 
ATOM     40  N   UNL A   1      42.157  29.937  29.938  1.00  0.00    -0.248 NA
ATOM     41  C   UNL A   1      40.276  31.318  29.969  1.00  0.00     0.031 C 
ATOM     42  C   UNL A   1      39.702  26.688  28.086  1.00  0.00     0.029 A 
ATOM     43  N   UNL A   1      41.724  27.231  28.870  1.00  0.00    -0.354 N 
ATOM     44  C   UNL A   1      42.511  31.185  30.441  1.00  0.00     0.074 A 
ATOM     45  C   UNL A   1      41.326  32.013  30.379  1.00  0.00     0.031 C 
ATOM     46  C   UNL A   1      40.501  25.622  27.912  1.00  0.00     0.029 A 
ATOM     47  C   UNL A   1      41.840  25.948  28.393  1.00  0.00     0.049 A 
ATOM     48  H   UNL A   1      42.471  27.723  29.279  1.00  0.00     0.167 HD
ATOM     49  C   UNL A   1      43.706  31.594  30.929  1.00  0.00     0.037 A 
ATOM     50  C   UNL A   1      42.908  25.126  28.341  1.00  0.00     0.037 A 
ATOM     51  C   UNL A   1      44.874  30.755  31.007  1.00  0.00     0.049 A 
ATOM     52  C   UNL A   1      44.224  25.599  28.894  1.00  0.00     0.074 A 
ATOM     53  C   UNL A   1      46.116  31.056  31.539  1.00  0.00     0.029 A 
ATOM     54  N   UNL A   1      44.946  29.453  30.536  1.00  0.00    -0.354 N 
ATOM     55  N   UNL A   1      44.524  26.761  29.425  1.00  0.00    -0.248 NA
ATOM     56  C   UNL A   1      45.345  24.651  28.847  1.00  0.00     0.031 C 
ATOM     57  C   UNL A   1      46.951  29.949  31.351  1.00  0.00     0.029 A 
ATOM     58  C   UNL A   1      46.216  28.942  30.746  1.00  0.00     0.049 A 
ATOM     59  H   UNL A   1      44.204  28.963  30.113  1.00  0.00     0.167 HD
ATOM     60  C   UNL A   1      45.860  26.674  29.799  1.00  0.00     0.074 A 
ATOM     61  C   UNL A   1      46.307  25.342  29.443  1.00  0.00     0.031 C 
ATOM     62  C   UNL A   1      46.645  27.612  30.387  1.00  0.00     0.037 A 
BRANCH  49  63
ATOM     63  C   UNL A   1      43.807  33.015  31.418  1.00  0.00     0.058 A 
ATOM     64  C   UNL A   1      44.167  34.066  30.559  1.00  0.00     0.135 A 
ATOM     65  C   UNL A   1      43.524  33.332  32.756  1.00  0.00     0.135 A 
ATOM     66  F   UNL A   1      44.461  33.819  29.272  1.00  0.00    -0.206 F 
ATOM     67  C   UNL A   1      44.281  35.374  31.018  1.00  0.00     0.059 A 
ATOM     68  C   UNL A   1      43.604  34.639  33.230  1.00  0.00     0.059 A 
ATOM     69  F   UNL A   1      43.173  32.368  33.621  1.00  0.00    -0.206 F 
ATOM     70  C   UNL A   1      44.003  35.651  32.358  1.00  0.00     0.060 A 
BRANCH  70  71
ATOM     71  S   UNL A   1      44.169  37.351  32.941  1.00  0.00     0.124 S 
ATOM     72  O   UNL A   1      44.135  38.092  31.684  1.00  0.00    -0.237 OA
ATOM     73  O   UNL A   1      42.999  37.505  33.798  1.00  0.00    -0.237 OA
ATOM     74  O   UNL A   1      45.453  37.348  33.634  1.00  0.00    -0.744 OA
ENDBRANCH  70  71
ENDBRANCH  49  63
BRANCH  50  75
ATOM     75  C   UNL A   1      42.761  23.763  27.767  1.00  0.00     0.058 A 
ATOM     76  C   UNL A   1      42.503  22.657  28.590  1.00  0.00     0.135 A 
ATOM     77  C   UNL A   1      42.845  23.541  26.383  1.00  0.00     0.135 A 
ATOM     78  F   UNL A   1      42.421  22.817  29.920  1.00  0.00    -0.206 F 
ATOM     79  C   UNL A   1      42.338  21.379  28.066  1.00  0.00     0.059 A 
ATOM     80  C   UNL A   1      42.660  22.277  25.832  1.00  0.00     0.059 A 
ATOM     81  F   UNL A   1      43.073  24.569  25.550  1.00  0.00    -0.206 F 
ATOM     82  C   UNL A   1      42.414  21.201  26.683  1.00  0.00     0.060 A 
BRANCH  82  83
ATOM     83  S   UNL A   1      42.133  19.550  26.007  1.00  0.00     0.124 S 
ATOM     84  O   UNL A   1      40.702  19.584  25.729  1.00  0.00    -0.237 OA
ATOM     85  O   UNL A   1      43.011  19.542  24.841  1.00  0.00    -0.237 OA
ATOM     86  O   UNL A   1      42.545  18.668  27.096  1.00  0.00    -0.744 OA
ENDBRANCH  82  83
ENDBRANCH  50  75
BRANCH  62  87
ATOM     87  C   UNL A   1      48.062  27.223  30.709  1.00  0.00     0.058 A 
ATOM     88  C   UNL A   1      48.398  26.591  31.916  1.00  0.00     0.135 A 
ATOM     89  C   UNL A   1      49.086  27.438  29.772  1.00  0.00     0.135 A 
ATOM     90  F   UNL A   1      47.458  26.369  32.848  1.00  0.00    -0.206 F 
ATOM     91  C   UNL A   1      49.706  26.206  32.194  1.00  0.00     0.059 A 
ATOM     92  C   UNL A   1      50.396  27.036  30.018  1.00  0.00     0.059 A 
ATOM     93  F   UNL A   1      48.816  28.030  28.599  1.00  0.00    -0.206 F 
ATOM     94  C   UNL A   1      50.697  26.431  31.237  1.00  0.00     0.060 A 
BRANCH  94  95
ATOM     95  S   UNL A   1      52.384  25.894  31.594  1.00  0.00     0.124 S 
ATOM     96  O   UNL A   1      52.806  26.886  32.577  1.00  0.00    -0.237 OA
ATOM     97  O   UNL A   1      52.180  24.542  32.104  1.00  0.00    -0.237 OA
ATOM     98  O   UNL A   1      53.048  25.974  30.297  1.00  0.00    -0.744 OA
ENDBRANCH  94  95
ENDBRANCH  62  87
ENDBRANCH  36  37
ENDBRANCH  28  31
ENDBRANCH  26  27
ENDBRANCH  25  26
ENDBRANCH  24  25
ENDBRANCH   1  24
TORSDOF 21
ENDMDL
MODEL 2
REMARK VINA RESULT:     -10.3      0.687      2.045
REMARK SMILES CCC(CC)C[N@H+]1[C@@H]2CC[C@H]1C[C@H](CC(=O)NCCCCCCNC(=O)c1ccc(-c3c4nc(c(-c5c(F)cc(S(=O)(=O)[O-])cc5F)c5ccc([nH]5)c(-c5c(F)cc(S(=O)(=O)[O-])cc5F)c5nc(c(-c6c(F)cc(S(=O)(=O)[O-])cc6F)c6ccc3[nH]6)C=C5)C=C4)cc1)C2
REMARK SMILES IDX 20 1 19 2 18 3 17 4 15 5 16 6 14 8 13 9 7 10 8 11 11 12 9 14
REMARK SMILES IDX 93 15 10 16 12 17 6 18 3 19 2 20 1 21 4 22 5 23 21 24 22 25
REMARK SMILES IDX 23 26 24 27 25 28 26 30 27 31 28 32 92 33 29 34 91 35 30 36
REMARK SMILES IDX 31 37 32 38 85 39 33 40 90 41 84 42 86 43 34 44 89 45 83 46
REMARK SMILES IDX 82 47 35 49 69 50 48 51 68 52 49 53 52 54 67 55 87 56 50 57
REMARK SMILES IDX 51 58 66 60 88 61 53 62 36 63 37 64 46 65 38 66 39 67 45 68
REMARK SMILES IDX 47 69 40 70 41 71 42 72 43 73 44 74 70 75 71 76 80 77 72 78
REMARK SMILES IDX 73 79 79 80 81 81 74 82 75 83 76 84 77 85 78 86 54 87 55 88
REMARK SMILES IDX 64 89 56 90 57 91 63 92 65 93 58 94 59 95 60 96 61 97 62 98
REMARK H PARENT 17 7 7 13 24 29 86 48 52 59
REMARK Flexibility Score: inf
ROOT
ATOM      1  C   UNL A   1      30.534  27.620  24.848  1.00  0.00     0.002 C 
ENDROOT
BRANCH   1   2
ATOM      2  C   UNL A   1      30.456  27.488  23.330  1.00  0.00     0.021 C 
BRANCH   2   3
ATOM      3  C   UNL A   1      31.734  27.887  22.584  1.00  0.00     0.116 C 
BRANCH   3   4
ATOM      4  N   UNL A   1      32.085  26.879  21.598  1.00  0.00    -0.356 N 
ATOM      5  C   UNL A   1      33.015  25.886  21.633  1.00  0.00     0.220 C 
ATOM      6  O   UNL A   1      33.187  25.216  20.612  1.00  0.00    -0.275 OA
ATOM      7  H   UNL A   1      31.563  26.921  20.765  1.00  0.00     0.163 HD
BRANCH   5   8
ATOM      8  C   UNL A   1      33.807  25.585  22.891  1.00  0.00     0.104 C 
BRANCH   8   9
ATOM      9  C   UNL A   1      32.964  25.020  24.060  1.00  0.00     0.010 C 
ATOM     10  N   UNL A   1      33.290  22.350  25.327  1.00  0.00    -0.330 N 
ATOM     11  C   UNL A   1      33.540  23.550  26.123  1.00  0.00     0.184 C 
ATOM     12  C   UNL A   1      32.013  22.654  24.673  1.00  0.00     0.184 C 
ATOM     13  H   UNL A   1      33.311  21.560  25.972  1.00  0.00     0.348 HD
ATOM     14  C   UNL A   1      32.177  23.709  26.824  1.00  0.00     0.071 C 
ATOM     15  C   UNL A   1      33.863  24.800  25.292  1.00  0.00     0.069 C 
ATOM     16  C   UNL A   1      31.160  23.145  25.838  1.00  0.00     0.071 C 
ATOM     17  C   UNL A   1      32.182  23.764  23.629  1.00  0.00     0.069 C 
BRANCH  10  18
ATOM     18  C   UNL A   1      34.296  21.744  24.444  1.00  0.00     0.266 C 
BRANCH  18  19
ATOM     19  C   UNL A   1      35.703  21.413  24.995  1.00  0.00     0.044 C 
BRANCH  19  20
ATOM     20  C   UNL A   1      36.048  19.917  24.904  1.00  0.00     0.006 C 
ATOM     21  C   UNL A   1      37.555  19.695  24.897  1.00  0.00     0.004 C 
ENDBRANCH  19  20
BRANCH  19  22
ATOM     22  C   UNL A   1      36.789  22.328  24.374  1.00  0.00     0.006 C 
ATOM     23  C   UNL A   1      36.422  23.030  23.076  1.00  0.00     0.004 C 
ENDBRANCH  19  22
ENDBRANCH  18  19
ENDBRANCH  10  18
ENDBRANCH   8   9
ENDBRANCH   5   8
ENDBRANCH   3   4
ENDBRANCH   2   3
ENDBRANCH   1   2
BRANCH   1  24
ATOM     24  C   UNL A   1      31.807  28.286  25.369  1.00  0.00     0.002 C 
BRANCH  24  25
ATOM     25  C   UNL A   1      32.434  27.637  26.608  1.00  0.00     0.021 C 
BRANCH  25  26
ATOM     26  C   UNL A   1      33.746  28.261  27.080  1.00  0.00     0.116 C 
BRANCH  26  27
ATOM     27  N   UNL A   1      33.597  29.675  27.391  1.00  0.00    -0.352 N 
ATOM     28  C   UNL A   1      34.449  30.514  28.057  1.00  0.00     0.251 C 
ATOM     29  H   UNL A   1      32.761  30.088  27.077  1.00  0.00     0.163 HD
ATOM     30  O   UNL A   1      34.048  31.618  28.439  1.00  0.00    -0.269 OA
BRANCH  28  31
ATOM     31  C   UNL A   1      35.841  30.103  28.327  1.00  0.00     0.039 A 
ATOM     32  C   UNL A   1      36.777  30.138  27.290  1.00  0.00     0.014 A 
ATOM     33  C   UNL A   1      36.217  29.658  29.598  1.00  0.00     0.014 A 
ATOM     34  C   UNL A   1      38.104  29.780  27.543  1.00  0.00     0.010 A 
ATOM     35  C   UNL A   1      37.552  29.366  29.864  1.00  0.00     0.010 A 
ATOM     36  C   UNL A   1      38.508  29.418  28.839  1.00  0.00    -0.014 A 
BRANCH  36  37
ATOM     37  C   UNL A   1      39.925  29.087  29.139  1.00  0.00     0.031 A 
ATOM     38  C   UNL A   1      40.833  30.126  29.738  1.00  0.00     0.074 A 
ATOM     39  C   UNL A   1      40.408  27.872  28.812  1.00  0.00     0.049 A 
ATOM     40  N   UNL A   1      42.111  30.048  30.009  1.00  0.00    -0.248 NA
ATOM     41  C   UNL A   1      40.232  31.433  30.048  1.00  0.00     0.031 C 
ATOM     42  C   UNL A   1      39.638  26.799  28.180  1.00  0.00     0.029 A 
ATOM     43  N   UNL A   1      41.666  27.340  28.951  1.00  0.00    -0.354 N 
ATOM     44  C   UNL A   1      42.469  31.297  30.506  1.00  0.00     0.074 A 
ATOM     45  C   UNL A   1      41.286  32.128  30.449  1.00  0.00     0.031 C 
ATOM     46  C   UNL A   1      40.434  25.732  28.005  1.00  0.00     0.029 A 
ATOM     47  C   UNL A   1      41.777  26.056  28.476  1.00  0.00     0.049 A 
ATOM     48  H   UNL A   1      42.416  27.833  29.353  1.00  0.00     0.167 HD
ATOM     49  C   UNL A   1      43.669  31.705  30.986  1.00  0.00     0.037 A 
ATOM     50  C   UNL A   1      42.842  25.232  28.420  1.00  0.00     0.037 A 
ATOM     51  C   UNL A   1      44.836  30.865  31.059  1.00  0.00     0.049 A 
ATOM     52  C   UNL A   1      44.163  25.704  28.963  1.00  0.00     0.074 A 
ATOM     53  C   UNL A   1      46.081  31.164  31.583  1.00  0.00     0.029 A 
ATOM     54  N   UNL A   1      44.902  29.560  30.591  1.00  0.00    -0.354 N 
ATOM     55  N   UNL A   1      44.468  26.867  29.490  1.00  0.00    -0.248 NA
ATOM     56  C   UNL A   1      45.282  24.753  28.912  1.00  0.00     0.031 C 
ATOM     57  C   UNL A   1      46.913  30.055  31.392  1.00  0.00     0.029 A 
ATOM     58  C   UNL A   1      46.173  29.048  30.794  1.00  0.00     0.049 A 
ATOM     59  H   UNL A   1      44.156  29.071  30.174  1.00  0.00     0.167 HD
ATOM     60  C   UNL A   1      45.807  26.778  29.856  1.00  0.00     0.074 A 
ATOM     61  C   UNL A   1      46.249  25.445  29.500  1.00  0.00     0.031 C 
ATOM     62  C   UNL A   1      46.597  27.716  30.437  1.00  0.00     0.037 A 
BRANCH  49  63
ATOM     63  C   UNL A   1      43.775  33.127  31.471  1.00  0.00     0.058 A 
ATOM     64  C   UNL A   1      43.477  33.478  32.798  1.00  0.00     0.135 A 
ATOM     65  C   UNL A   1      44.195  34.148  30.604  1.00  0.00     0.135 A 
ATOM     66  F   UNL A   1      43.058  32.544  33.667  1.00  0.00    -0.206 F 
ATOM     67  C   UNL A   1      43.554  34.795  33.238  1.00  0.00     0.059 A 
ATOM     68  C   UNL A   1      44.308  35.469  31.031  1.00  0.00     0.059 A 
ATOM     69  F   UNL A   1      44.495  33.871  29.326  1.00  0.00    -0.206 F 
ATOM     70  C   UNL A   1      43.966  35.786  32.345  1.00  0.00     0.060 A 
BRANCH  70  71
ATOM     71  S   UNL A   1      44.047  37.493  32.927  1.00  0.00     0.124 S 
ATOM     72  O   UNL A   1      43.793  38.231  31.695  1.00  0.00    -0.237 OA
ATOM     73  O   UNL A   1      42.981  37.536  33.922  1.00  0.00    -0.237 OA
ATOM     74  O   UNL A   1      45.401  37.606  33.460  1.00  0.00    -0.744 OA
ENDBRANCH  70  71
ENDBRANCH  49  63
BRANCH  50  75
ATOM     75  C   UNL A   1      42.690  23.867  27.850  1.00  0.00     0.058 A 
ATOM     76  C   UNL A   1      42.510  22.754  28.683  1.00  0.00     0.135 A 
ATOM     77  C   UNL A   1      42.689  23.652  26.462  1.00  0.00     0.135 A 
ATOM     78  F   UNL A   1      42.510  22.908  30.016  1.00  0.00    -0.206 F 
ATOM     79  C   UNL A   1      42.341  21.474  28.165  1.00  0.00     0.059 A 
ATOM     80  C   UNL A   1      42.497  22.386  25.919  1.00  0.00     0.059 A 
ATOM     81  F   UNL A   1      42.840  24.688  25.621  1.00  0.00    -0.206 F 
ATOM     82  C   UNL A   1      42.331  21.302  26.779  1.00  0.00     0.060 A 
BRANCH  82  83
ATOM     83  S   UNL A   1      42.044  19.647  26.115  1.00  0.00     0.124 S 
ATOM     84  O   UNL A   1      40.613  19.683  25.840  1.00  0.00    -0.237 OA
ATOM     85  O   UNL A   1      42.920  19.629  24.947  1.00  0.00    -0.237 OA
ATOM     86  O   UNL A   1      42.455  18.772  27.209  1.00  0.00    -0.744 OA
ENDBRANCH  82  83
ENDBRANCH  50  75
BRANCH  62  87
ATOM     87  C   UNL A   1      48.015  27.325  30.751  1.00  0.00     0.058 A 
ATOM     88  C   UNL A   1      49.077  27.645  29.891  1.00  0.00     0.135 A 
ATOM     89  C   UNL A   1      48.319  26.671  31.956  1.00  0.00     0.135 A 
ATOM     90  F   UNL A   1      48.839  28.264  28.724  1.00  0.00    -0.206 F 
ATOM     91  C   UNL A   1      50.390  27.309  30.204  1.00  0.00     0.059 A 
ATOM     92  C   UNL A   1      49.629  26.350  32.301  1.00  0.00     0.059 A 
ATOM     93  F   UNL A   1      47.342  26.351  32.818  1.00  0.00    -0.206 F 
ATOM     94  C   UNL A   1      50.656  26.663  31.412  1.00  0.00     0.060 A 
BRANCH  94  95
ATOM     95  S   UNL A   1      52.369  26.264  31.823  1.00  0.00     0.124 S 
ATOM     96  O   UNL A   1      52.194  25.257  32.864  1.00  0.00    -0.237 OA
ATOM     97  O   UNL A   1      52.890  25.777  30.550  1.00  0.00    -0.237 OA
ATOM     98  O   UNL A   1      52.917  27.541  32.270  1.00  0.00    -0.744 OA
ENDBRANCH  94  95
ENDBRANCH  62  87
ENDBRANCH  36  37
ENDBRANCH  28  31
ENDBRANCH  26  27
ENDBRANCH  25  26
ENDBRANCH  24  25
ENDBRANCH   1  24
TORSDOF 21
ENDMDL
MODEL 3
REMARK VINA RESULT:     -10.0      2.622      3.365
REMARK SMILES CCC(CC)C[N@H+]1[C@@H]2CC[C@H]1C[C@H](CC(=O)NCCCCCCNC(=O)c1ccc(-c3c4nc(c(-c5c(F)cc(S(=O)(=O)[O-])cc5F)c5ccc([nH]5)c(-c5c(F)cc(S(=O)(=O)[O-])cc5F)c5nc(c(-c6c(F)cc(S(=O)(=O)[O-])cc6F)c6ccc3[nH]6)C=C5)C=C4)cc1)C2
REMARK SMILES IDX 20 1 19 2 18 3 17 4 15 5 16 6 14 8 13 9 7 10 8 11 11 12 9 14
REMARK SMILES IDX 93 15 10 16 12 17 6 18 3 19 2 20 1 21 4 22 5 23 21 24 22 25
REMARK SMILES IDX 23 26 24 27 25 28 26 30 27 31 28 32 92 33 29 34 91 35 30 36
REMARK SMILES IDX 31 37 32 38 85 39 33 40 90 41 84 42 86 43 34 44 89 45 83 46
REMARK SMILES IDX 82 47 35 49 69 50 48 51 68 52 49 53 52 54 67 55 87 56 50 57
REMARK SMILES IDX 51 58 66 60 88 61 53 62 36 63 37 64 46 65 38 66 39 67 45 68
REMARK SMILES IDX 47 69 40 70 41 71 42 72 43 73 44 74 70 75 71 76 80 77 72 78
REMARK SMILES IDX 73 79 79 80 81 81 74 82 75 83 76 84 77 85 78 86 54 87 55 88
REMARK SMILES IDX 64 89 56 90 57 91 63 92 65 93 58 94 59 95 60 96 61 97 62 98
REMARK H PARENT 17 7 7 13 24 29 86 48 52 59
REMARK Flexibility Score: inf
ROOT
ATOM      1  C   UNL A   1      31.054  28.578  24.677  1.00  0.00     0.002 C 
ENDROOT
BRANCH   1   2
ATOM      2  C   UNL A   1      31.424  28.668  23.199  1.00  0.00     0.021 C 
BRANCH   2   3
ATOM      3  C   UNL A   1      32.881  28.316  22.879  1.00  0.00     0.116 C 
BRANCH   3   4
ATOM      4  N   UNL A   1      32.949  27.397  21.755  1.00  0.00    -0.356 N 
ATOM      5  C   UNL A   1      33.015  26.038  21.719  1.00  0.00     0.220 C 
ATOM      6  O   UNL A   1      33.167  25.493  20.623  1.00  0.00    -0.275 OA
ATOM      7  H   UNL A   1      32.948  27.830  20.871  1.00  0.00     0.163 HD
BRANCH   5   8
ATOM      8  C   UNL A   1      32.883  25.204  22.980  1.00  0.00     0.104 C 
BRANCH   8   9
ATOM      9  C   UNL A   1      34.230  24.805  23.628  1.00  0.00     0.010 C 
ATOM     10  N   UNL A   1      34.768  22.315  25.162  1.00  0.00    -0.330 N 
ATOM     11  C   UNL A   1      35.472  22.539  23.901  1.00  0.00     0.184 C 
ATOM     12  C   UNL A   1      34.922  23.600  25.852  1.00  0.00     0.184 C 
ATOM     13  H   UNL A   1      35.195  21.496  25.595  1.00  0.00     0.348 HD
ATOM     14  C   UNL A   1      36.793  23.137  24.421  1.00  0.00     0.071 C 
ATOM     15  C   UNL A   1      34.772  23.526  22.957  1.00  0.00     0.069 C 
ATOM     16  C   UNL A   1      36.415  23.873  25.700  1.00  0.00     0.071 C 
ATOM     17  C   UNL A   1      34.104  24.696  25.160  1.00  0.00     0.069 C 
BRANCH  10  18
ATOM     18  C   UNL A   1      33.418  21.740  25.242  1.00  0.00     0.266 C 
BRANCH  18  19
ATOM     19  C   UNL A   1      33.159  20.310  24.713  1.00  0.00     0.044 C 
BRANCH  19  20
ATOM     20  C   UNL A   1      32.479  20.292  23.335  1.00  0.00     0.006 C 
ATOM     21  C   UNL A   1      31.845  21.639  23.012  1.00  0.00     0.004 C 
ENDBRANCH  19  20
BRANCH  19  22
ATOM     22  C   UNL A   1      34.440  19.438  24.773  1.00  0.00     0.006 C 
ATOM     23  C   UNL A   1      34.285  17.978  24.379  1.00  0.00     0.004 C 
ENDBRANCH  19  22
ENDBRANCH  18  19
ENDBRANCH  10  18
ENDBRANCH   8   9
ENDBRANCH   5   8
ENDBRANCH   3   4
ENDBRANCH   2   3
ENDBRANCH   1   2
BRANCH   1  24
ATOM     24  C   UNL A   1      31.798  27.496  25.459  1.00  0.00     0.002 C 
BRANCH  24  25
ATOM     25  C   UNL A   1      32.587  27.986  26.679  1.00  0.00     0.021 C 
BRANCH  25  26
ATOM     26  C   UNL A   1      33.851  28.783  26.362  1.00  0.00     0.116 C 
BRANCH  26  27
ATOM     27  N   UNL A   1      33.682  30.203  26.634  1.00  0.00    -0.352 N 
ATOM     28  C   UNL A   1      34.363  31.008  27.508  1.00  0.00     0.251 C 
ATOM     29  H   UNL A   1      32.977  30.649  26.113  1.00  0.00     0.163 HD
ATOM     30  O   UNL A   1      33.920  32.129  27.779  1.00  0.00    -0.269 OA
BRANCH  28  31
ATOM     31  C   UNL A   1      35.615  30.540  28.133  1.00  0.00     0.039 A 
ATOM     32  C   UNL A   1      36.836  31.050  27.680  1.00  0.00     0.014 A 
ATOM     33  C   UNL A   1      35.588  29.580  29.148  1.00  0.00     0.014 A 
ATOM     34  C   UNL A   1      38.025  30.636  28.286  1.00  0.00     0.010 A 
ATOM     35  C   UNL A   1      36.767  29.220  29.794  1.00  0.00     0.010 A 
ATOM     36  C   UNL A   1      37.999  29.739  29.367  1.00  0.00    -0.014 A 
BRANCH  36  37
ATOM     37  C   UNL A   1      39.248  29.330  30.059  1.00  0.00     0.031 A 
ATOM     38  C   UNL A   1      39.702  30.059  31.294  1.00  0.00     0.074 A 
ATOM     39  C   UNL A   1      40.006  28.345  29.537  1.00  0.00     0.049 A 
ATOM     40  N   UNL A   1      40.792  29.894  31.997  1.00  0.00    -0.248 NA
ATOM     41  C   UNL A   1      38.826  31.135  31.787  1.00  0.00     0.031 C 
ATOM     42  C   UNL A   1      39.696  27.598  28.317  1.00  0.00     0.029 A 
ATOM     43  N   UNL A   1      41.198  27.813  29.958  1.00  0.00    -0.354 N 
ATOM     44  C   UNL A   1      40.742  30.851  33.005  1.00  0.00     0.074 A 
ATOM     45  C   UNL A   1      39.540  31.626  32.789  1.00  0.00     0.031 C 
ATOM     46  C   UNL A   1      40.663  26.692  28.099  1.00  0.00     0.029 A 
ATOM     47  C   UNL A   1      41.677  26.818  29.141  1.00  0.00     0.049 A 
ATOM     48  H   UNL A   1      41.665  28.115  30.770  1.00  0.00     0.167 HD
ATOM     49  C   UNL A   1      41.608  31.049  34.028  1.00  0.00     0.037 A 
ATOM     50  C   UNL A   1      42.811  26.092  29.217  1.00  0.00     0.037 A 
ATOM     51  C   UNL A   1      42.791  30.258  34.247  1.00  0.00     0.049 A 
ATOM     52  C   UNL A   1      43.755  26.325  30.364  1.00  0.00     0.074 A 
ATOM     53  C   UNL A   1      43.701  30.340  35.287  1.00  0.00     0.029 A 
ATOM     54  N   UNL A   1      43.230  29.242  33.411  1.00  0.00    -0.354 N 
ATOM     55  N   UNL A   1      43.660  27.192  31.346  1.00  0.00    -0.248 NA
ATOM     56  C   UNL A   1      44.956  25.481  30.420  1.00  0.00     0.031 C 
ATOM     57  C   UNL A   1      44.714  29.402  35.056  1.00  0.00     0.029 A 
ATOM     58  C   UNL A   1      44.409  28.703  33.898  1.00  0.00     0.049 A 
ATOM     59  H   UNL A   1      42.772  28.949  32.590  1.00  0.00     0.167 HD
ATOM     60  C   UNL A   1      44.774  26.979  32.149  1.00  0.00     0.074 A 
ATOM     61  C   UNL A   1      45.523  25.895  31.545  1.00  0.00     0.031 C 
ATOM     62  C   UNL A   1      45.142  27.621  33.286  1.00  0.00     0.037 A 
BRANCH  49  63
ATOM     63  C   UNL A   1      41.303  32.169  34.988  1.00  0.00     0.058 A 
ATOM     64  C   UNL A   1      41.881  33.441  34.846  1.00  0.00     0.135 A 
ATOM     65  C   UNL A   1      40.410  31.973  36.054  1.00  0.00     0.135 A 
ATOM     66  F   UNL A   1      42.752  33.681  33.852  1.00  0.00    -0.206 F 
ATOM     67  C   UNL A   1      41.615  34.466  35.747  1.00  0.00     0.059 A 
ATOM     68  C   UNL A   1      40.107  32.994  36.951  1.00  0.00     0.059 A 
ATOM     69  F   UNL A   1      39.827  30.779  36.237  1.00  0.00    -0.206 F 
ATOM     70  C   UNL A   1      40.730  34.232  36.800  1.00  0.00     0.060 A 
BRANCH  70  71
ATOM     71  S   UNL A   1      40.407  35.570  37.969  1.00  0.00     0.124 S 
ATOM     72  O   UNL A   1      39.411  34.957  38.841  1.00  0.00    -0.237 OA
ATOM     73  O   UNL A   1      41.721  35.790  38.565  1.00  0.00    -0.237 OA
ATOM     74  O   UNL A   1      39.918  36.651  37.121  1.00  0.00    -0.744 OA
ENDBRANCH  70  71
ENDBRANCH  49  63
BRANCH  50  75
ATOM     75  C   UNL A   1      43.095  25.058  28.187  1.00  0.00     0.058 A 
ATOM     76  C   UNL A   1      43.707  25.399  26.972  1.00  0.00     0.135 A 
ATOM     77  C   UNL A   1      42.790  23.705  28.408  1.00  0.00     0.135 A 
ATOM     78  F   UNL A   1      44.011  26.680  26.712  1.00  0.00    -0.206 F 
ATOM     79  C   UNL A   1      44.002  24.440  26.009  1.00  0.00     0.059 A 
ATOM     80  C   UNL A   1      43.097  22.724  27.471  1.00  0.00     0.059 A 
ATOM     81  F   UNL A   1      42.219  23.325  29.562  1.00  0.00    -0.206 F 
ATOM     82  C   UNL A   1      43.697  23.103  26.271  1.00  0.00     0.060 A 
BRANCH  82  83
ATOM     83  S   UNL A   1      44.144  21.857  25.042  1.00  0.00     0.124 S 
ATOM     84  O   UNL A   1      43.945  22.587  23.795  1.00  0.00    -0.237 OA
ATOM     85  O   UNL A   1      45.529  21.560  25.395  1.00  0.00    -0.237 OA
ATOM     86  O   UNL A   1      43.196  20.777  25.300  1.00  0.00    -0.744 OA
ENDBRANCH  82  83
ENDBRANCH  50  75
BRANCH  62  87
ATOM     87  C   UNL A   1      46.397  27.152  33.970  1.00  0.00     0.058 A 
ATOM     88  C   UNL A   1      46.379  26.120  34.920  1.00  0.00     0.135 A 
ATOM     89  C   UNL A   1      47.640  27.708  33.627  1.00  0.00     0.135 A 
ATOM     90  F   UNL A   1      45.216  25.560  35.288  1.00  0.00    -0.206 F 
ATOM     91  C   UNL A   1      47.547  25.670  35.524  1.00  0.00     0.059 A 
ATOM     92  C   UNL A   1      48.825  27.254  34.199  1.00  0.00     0.059 A 
ATOM     93  F   UNL A   1      47.715  28.691  32.716  1.00  0.00    -0.206 F 
ATOM     94  C   UNL A   1      48.766  26.241  35.155  1.00  0.00     0.060 A 
BRANCH  94  95
ATOM     95  S   UNL A   1      50.281  25.624  35.921  1.00  0.00     0.124 S 
ATOM     96  O   UNL A   1      49.988  24.200  36.043  1.00  0.00    -0.237 OA
ATOM     97  O   UNL A   1      51.297  25.981  34.937  1.00  0.00    -0.237 OA
ATOM     98  O   UNL A   1      50.350  26.361  37.180  1.00  0.00    -0.744 OA
ENDBRANCH  94  95
ENDBRANCH  62  87
ENDBRANCH  36  37
ENDBRANCH  28  31
ENDBRANCH  26  27
ENDBRANCH  25  26
ENDBRANCH  24  25
ENDBRANCH   1  24
TORSDOF 21
ENDMDL
