MODEL 1
REMARK VINA RESULT:      -9.9      0.000      0.000
REMARK SMILES COc1cc([C@@H]2CC(=O)Nc3c(C(=O)NCCCCCCNC(=O)c4ccc(-c5c6nc(c(-c7c(F)cc(S(=O)(=O)[O-])cc7F)c7ccc([nH]7)c(-c7c(F)cc(S(=O)(=O)[O-])cc7F)c7nc(c(-c8c(F)cc(S(=O)(=O)[O-])cc8F)c8ccc5[nH]8)C=C7)C=C6)cc4)cn(-c4ccc(F)cc4)c32)c(OC)c2c1OCO2
REMARK SMILES IDX 19 1 18 2 17 3 16 4 15 5 13 6 14 7 12 9 6 10 7 11 100 12
REMARK SMILES IDX 8 13 11 14 92 15 9 16 10 17 91 18 5 20 3 21 4 22 105 23
REMARK SMILES IDX 104 24 106 25 101 26 108 27 107 28 2 29 1 30 102 31 103 32
REMARK SMILES IDX 93 33 94 34 99 35 95 36 98 37 96 38 97 39 20 40 21 41 22 42
REMARK SMILES IDX 23 43 24 45 25 46 26 47 90 48 27 49 89 50 28 51 29 52 30 53
REMARK SMILES IDX 83 54 31 55 88 56 82 57 84 58 32 59 87 60 81 61 80 62 33 64
REMARK SMILES IDX 67 65 46 66 66 67 47 68 50 69 65 70 85 71 48 72 49 73 64 75
REMARK SMILES IDX 86 76 51 77 34 78 35 79 44 80 36 81 37 82 43 83 45 84 38 85
REMARK SMILES IDX 39 86 40 87 41 88 42 89 68 90 69 91 78 92 70 93 71 94 77 95
REMARK SMILES IDX 79 96 72 97 73 98 74 99 75 100 76 101 52 102 53 103 62 104
REMARK SMILES IDX 54 105 55 106 61 107 63 108 56 109 57 110 58 111 59 112
REMARK SMILES IDX 60 113
REMARK H PARENT 15 8 10 19 22 44 84 63 50 74
REMARK Flexibility Score: inf
ROOT
ATOM      1  C   UNL A   1      40.357  23.093  27.129  1.00  0.00     0.002 C 
ENDROOT
BRANCH   1   2
ATOM      2  C   UNL A   1      41.404  23.514  28.174  1.00  0.00     0.002 C 
BRANCH   2   3
ATOM      3  C   UNL A   1      41.250  24.947  28.688  1.00  0.00     0.021 C 
BRANCH   3   4
ATOM      4  C   UNL A   1      40.032  25.669  28.101  1.00  0.00     0.116 C 
BRANCH   4   5
ATOM      5  N   UNL A   1      40.461  26.796  27.318  1.00  0.00    -0.352 N 
ATOM      6  C   UNL A   1      40.053  28.098  27.263  1.00  0.00     0.254 C 
ATOM      7  O   UNL A   1      40.660  28.789  26.437  1.00  0.00    -0.269 OA
ATOM      8  H   UNL A   1      41.196  26.587  26.697  1.00  0.00     0.163 HD
BRANCH   6   9
ATOM      9  C   UNL A   1      39.059  28.703  28.160  1.00  0.00     0.081 A 
ATOM     10  C   UNL A   1      37.238  29.993  31.165  1.00  0.00     0.082 C 
ATOM     11  C   UNL A   1      37.427  28.830  32.139  1.00  0.00     0.115 C 
ATOM     12  C   UNL A   1      37.782  29.654  29.801  1.00  0.00     0.055 A 
ATOM     13  C   UNL A   1      38.639  27.968  31.873  1.00  0.00     0.225 C 
ATOM     14  C   UNL A   1      38.675  28.634  29.536  1.00  0.00     0.076 A 
ATOM     15  N   UNL A   1      37.428  30.225  28.600  1.00  0.00    -0.317 N 
ATOM     16  O   UNL A   1      39.185  27.314  32.765  1.00  0.00    -0.275 OA
ATOM     17  N   UNL A   1      39.052  27.818  30.578  1.00  0.00    -0.324 N 
ATOM     18  C   UNL A   1      38.173  29.633  27.616  1.00  0.00     0.107 A 
ATOM     19  H   UNL A   1      39.662  27.072  30.376  1.00  0.00     0.170 HD
BRANCH  10  20
ATOM     20  C   UNL A   1      37.766  31.321  31.723  1.00  0.00     0.012 A 
ATOM     21  C   UNL A   1      39.801  32.627  32.153  1.00  0.00     0.165 A 
ATOM     22  C   UNL A   1      39.123  31.633  31.447  1.00  0.00     0.059 A 
ATOM     23  C   UNL A   1      39.078  33.365  33.068  1.00  0.00     0.211 A 
ATOM     24  C   UNL A   1      37.724  33.148  33.270  1.00  0.00     0.211 A 
ATOM     25  O   UNL A   1      39.565  34.355  33.871  1.00  0.00    -0.449 OA
ATOM     26  C   UNL A   1      37.028  32.147  32.600  1.00  0.00     0.168 A 
ATOM     27  O   UNL A   1      37.224  33.994  34.218  1.00  0.00    -0.449 OA
ATOM     28  C   UNL A   1      38.391  34.735  34.599  1.00  0.00     0.468 C 
BRANCH  21  29
ATOM     29  O   UNL A   1      41.133  32.737  31.877  1.00  0.00    -0.493 OA
ATOM     30  C   UNL A   1      41.448  33.418  30.668  1.00  0.00     0.278 C 
ENDBRANCH  21  29
BRANCH  26  31
ATOM     31  O   UNL A   1      35.700  31.865  32.722  1.00  0.00    -0.492 OA
ATOM     32  C   UNL A   1      34.762  32.631  31.985  1.00  0.00     0.278 C 
ENDBRANCH  26  31
ENDBRANCH  10  20
BRANCH  15  33
ATOM     33  C   UNL A   1      36.455  31.215  28.363  1.00  0.00     0.046 A 
ATOM     34  C   UNL A   1      36.789  32.564  28.489  1.00  0.00     0.029 A 
ATOM     35  C   UNL A   1      35.155  30.828  28.029  1.00  0.00     0.029 A 
ATOM     36  C   UNL A   1      35.793  33.531  28.401  1.00  0.00     0.041 A 
ATOM     37  C   UNL A   1      34.162  31.803  27.930  1.00  0.00     0.041 A 
ATOM     38  C   UNL A   1      34.485  33.141  28.141  1.00  0.00     0.123 A 
ATOM     39  F   UNL A   1      33.525  34.073  28.088  1.00  0.00    -0.207 F 
ENDBRANCH  15  33
ENDBRANCH   6   9
ENDBRANCH   4   5
ENDBRANCH   3   4
ENDBRANCH   2   3
ENDBRANCH   1   2
BRANCH   1  40
ATOM     40  C   UNL A   1      40.767  21.949  26.186  1.00  0.00     0.021 C 
BRANCH  40  41
ATOM     41  C   UNL A   1      42.022  21.233  26.650  1.00  0.00     0.116 C 
BRANCH  41  42
ATOM     42  N   UNL A   1      42.958  21.027  25.538  1.00  0.00    -0.352 N 
ATOM     43  C   UNL A   1      43.813  21.928  24.928  1.00  0.00     0.251 C 
ATOM     44  H   UNL A   1      42.982  20.113  25.174  1.00  0.00     0.163 HD
ATOM     45  O   UNL A   1      44.271  21.707  23.822  1.00  0.00    -0.269 OA
BRANCH  43  46
ATOM     46  C   UNL A   1      44.168  23.152  25.664  1.00  0.00     0.039 A 
ATOM     47  C   UNL A   1      43.548  24.383  25.425  1.00  0.00     0.014 A 
ATOM     48  C   UNL A   1      45.145  23.022  26.641  1.00  0.00     0.014 A 
ATOM     49  C   UNL A   1      43.901  25.469  26.221  1.00  0.00     0.010 A 
ATOM     50  C   UNL A   1      45.289  23.998  27.576  1.00  0.00     0.010 A 
ATOM     51  C   UNL A   1      44.776  25.254  27.292  1.00  0.00    -0.014 A 
BRANCH  51  52
ATOM     52  C   UNL A   1      45.205  26.307  28.192  1.00  0.00     0.031 A 
ATOM     53  C   UNL A   1      44.741  26.154  29.590  1.00  0.00     0.074 A 
ATOM     54  C   UNL A   1      46.203  27.140  27.823  1.00  0.00     0.049 A 
ATOM     55  N   UNL A   1      43.892  26.893  30.219  1.00  0.00    -0.248 NA
ATOM     56  C   UNL A   1      45.122  24.935  30.324  1.00  0.00     0.031 C 
ATOM     57  C   UNL A   1      46.981  27.144  26.573  1.00  0.00     0.029 A 
ATOM     58  N   UNL A   1      46.848  28.069  28.573  1.00  0.00    -0.354 N 
ATOM     59  C   UNL A   1      43.826  26.379  31.511  1.00  0.00     0.074 A 
ATOM     60  C   UNL A   1      44.393  25.060  31.435  1.00  0.00     0.031 C 
ATOM     61  C   UNL A   1      48.121  27.844  26.752  1.00  0.00     0.029 A 
ATOM     62  C   UNL A   1      48.084  28.461  28.062  1.00  0.00     0.049 A 
ATOM     63  H   UNL A   1      46.474  28.435  29.406  1.00  0.00     0.167 HD
ATOM     64  C   UNL A   1      43.550  27.184  32.577  1.00  0.00     0.037 A 
ATOM     65  C   UNL A   1      49.023  29.167  28.741  1.00  0.00     0.037 A 
ATOM     66  C   UNL A   1      43.091  28.479  32.129  1.00  0.00     0.049 A 
ATOM     67  C   UNL A   1      48.293  29.866  29.845  1.00  0.00     0.074 A 
ATOM     68  C   UNL A   1      42.042  28.910  31.338  1.00  0.00     0.029 A 
ATOM     69  N   UNL A   1      43.997  29.517  32.144  1.00  0.00    -0.354 N 
ATOM     70  N   UNL A   1      47.372  30.775  29.631  1.00  0.00    -0.248 NA
ATOM     71  C   UNL A   1      48.194  29.182  31.128  1.00  0.00     0.031 C 
ATOM     72  C   UNL A   1      42.600  29.938  30.522  1.00  0.00     0.029 A 
ATOM     73  C   UNL A   1      43.921  30.143  30.925  1.00  0.00     0.049 A 
ATOM     74  H   UNL A   1      44.588  29.764  32.891  1.00  0.00     0.167 HD
ATOM     75  C   UNL A   1      46.356  30.485  30.536  1.00  0.00     0.074 A 
ATOM     76  C   UNL A   1      46.949  29.528  31.472  1.00  0.00     0.031 C 
ATOM     77  C   UNL A   1      45.046  30.788  30.275  1.00  0.00     0.037 A 
BRANCH  64  78
ATOM     78  C   UNL A   1      44.032  26.965  33.995  1.00  0.00     0.058 A 
ATOM     79  C   UNL A   1      43.074  26.880  35.028  1.00  0.00     0.135 A 
ATOM     80  C   UNL A   1      45.370  27.106  34.424  1.00  0.00     0.135 A 
ATOM     81  F   UNL A   1      41.771  26.720  34.743  1.00  0.00    -0.206 F 
ATOM     82  C   UNL A   1      43.405  27.038  36.373  1.00  0.00     0.059 A 
ATOM     83  C   UNL A   1      45.728  27.209  35.764  1.00  0.00     0.059 A 
ATOM     84  F   UNL A   1      46.391  27.252  33.574  1.00  0.00    -0.206 F 
ATOM     85  C   UNL A   1      44.735  27.226  36.728  1.00  0.00     0.060 A 
BRANCH  85  86
ATOM     86  S   UNL A   1      45.151  27.564  38.446  1.00  0.00     0.124 S 
ATOM     87  O   UNL A   1      46.540  27.124  38.499  1.00  0.00    -0.237 OA
ATOM     88  O   UNL A   1      44.931  29.004  38.532  1.00  0.00    -0.237 OA
ATOM     89  O   UNL A   1      44.199  26.743  39.190  1.00  0.00    -0.744 OA
ENDBRANCH  85  86
ENDBRANCH  64  78
BRANCH  65  90
ATOM     90  C   UNL A   1      50.493  28.906  28.730  1.00  0.00     0.058 A 
ATOM     91  C   UNL A   1      51.042  27.714  29.235  1.00  0.00     0.135 A 
ATOM     92  C   UNL A   1      51.384  29.726  28.000  1.00  0.00     0.135 A 
ATOM     93  F   UNL A   1      50.272  26.856  29.920  1.00  0.00    -0.206 F 
ATOM     94  C   UNL A   1      52.378  27.343  29.001  1.00  0.00     0.059 A 
ATOM     95  C   UNL A   1      52.716  29.387  27.770  1.00  0.00     0.059 A 
ATOM     96  F   UNL A   1      50.968  30.853  27.404  1.00  0.00    -0.206 F 
ATOM     97  C   UNL A   1      53.204  28.182  28.252  1.00  0.00     0.060 A 
BRANCH  97  98
ATOM     98  S   UNL A   1      54.873  27.649  27.799  1.00  0.00     0.124 S 
ATOM     99  O   UNL A   1      54.897  27.910  26.364  1.00  0.00    -0.237 OA
ATOM    100  O   UNL A   1      55.708  28.518  28.621  1.00  0.00    -0.237 OA
ATOM    101  O   UNL A   1      54.893  26.237  28.176  1.00  0.00    -0.744 OA
ENDBRANCH  97  98
ENDBRANCH  65  90
BRANCH  77 102
ATOM    102  C   UNL A   1      44.708  31.658  29.085  1.00  0.00     0.058 A 
ATOM    103  C   UNL A   1      44.810  33.062  29.071  1.00  0.00     0.135 A 
ATOM    104  C   UNL A   1      44.480  31.033  27.849  1.00  0.00     0.135 A 
ATOM    105  F   UNL A   1      45.136  33.740  30.177  1.00  0.00    -0.206 F 
ATOM    106  C   UNL A   1      44.659  33.807  27.899  1.00  0.00     0.059 A 
ATOM    107  C   UNL A   1      44.358  31.752  26.663  1.00  0.00     0.059 A 
ATOM    108  F   UNL A   1      44.439  29.693  27.774  1.00  0.00    -0.206 F 
ATOM    109  C   UNL A   1      44.436  33.142  26.696  1.00  0.00     0.060 A 
BRANCH 109 110
ATOM    110  S   UNL A   1      44.317  34.100  25.170  1.00  0.00     0.124 S 
ATOM    111  O   UNL A   1      45.599  34.796  25.145  1.00  0.00    -0.237 OA
ATOM    112  O   UNL A   1      44.138  33.064  24.156  1.00  0.00    -0.237 OA
ATOM    113  O   UNL A   1      43.150  34.952  25.391  1.00  0.00    -0.744 OA
ENDBRANCH 109 110
ENDBRANCH  77 102
ENDBRANCH  51  52
ENDBRANCH  43  46
ENDBRANCH  41  42
ENDBRANCH  40  41
ENDBRANCH   1  40
TORSDOF 20
ENDMDL
MODEL 2
REMARK VINA RESULT:      -9.3      5.296     10.703
REMARK SMILES COc1cc([C@@H]2CC(=O)Nc3c(C(=O)NCCCCCCNC(=O)c4ccc(-c5c6nc(c(-c7c(F)cc(S(=O)(=O)[O-])cc7F)c7ccc([nH]7)c(-c7c(F)cc(S(=O)(=O)[O-])cc7F)c7nc(c(-c8c(F)cc(S(=O)(=O)[O-])cc8F)c8ccc5[nH]8)C=C7)C=C6)cc4)cn(-c4ccc(F)cc4)c32)c(OC)c2c1OCO2
REMARK SMILES IDX 19 1 18 2 17 3 16 4 15 5 13 6 14 7 12 9 6 10 7 11 100 12
REMARK SMILES IDX 8 13 11 14 92 15 9 16 10 17 91 18 5 20 3 21 4 22 105 23
REMARK SMILES IDX 104 24 106 25 101 26 108 27 107 28 2 29 1 30 102 31 103 32
REMARK SMILES IDX 93 33 94 34 99 35 95 36 98 37 96 38 97 39 20 40 21 41 22 42
REMARK SMILES IDX 23 43 24 45 25 46 26 47 90 48 27 49 89 50 28 51 29 52 30 53
REMARK SMILES IDX 83 54 31 55 88 56 82 57 84 58 32 59 87 60 81 61 80 62 33 64
REMARK SMILES IDX 67 65 46 66 66 67 47 68 50 69 65 70 85 71 48 72 49 73 64 75
REMARK SMILES IDX 86 76 51 77 34 78 35 79 44 80 36 81 37 82 43 83 45 84 38 85
REMARK SMILES IDX 39 86 40 87 41 88 42 89 68 90 69 91 78 92 70 93 71 94 77 95
REMARK SMILES IDX 79 96 72 97 73 98 74 99 75 100 76 101 52 102 53 103 62 104
REMARK SMILES IDX 54 105 55 106 61 107 63 108 56 109 57 110 58 111 59 112
REMARK SMILES IDX 60 113
REMARK H PARENT 15 8 10 19 22 44 84 63 50 74
REMARK Flexibility Score: inf
ROOT
ATOM      1  C   UNL A   1      37.998  22.221  25.934  1.00  0.00     0.002 C 
ENDROOT
BRANCH   1   2
ATOM      2  C   UNL A   1      38.200  20.924  25.133  1.00  0.00     0.002 C 
BRANCH   2   3
ATOM      3  C   UNL A   1      36.954  20.041  25.027  1.00  0.00     0.021 C 
BRANCH   3   4
ATOM      4  C   UNL A   1      35.646  20.831  25.133  1.00  0.00     0.116 C 
BRANCH   4   5
ATOM      5  N   UNL A   1      34.564  19.944  25.461  1.00  0.00    -0.352 N 
ATOM      6  C   UNL A   1      33.207  20.106  25.497  1.00  0.00     0.254 C 
ATOM      7  O   UNL A   1      32.582  19.100  25.849  1.00  0.00    -0.269 OA
ATOM      8  H   UNL A   1      34.858  19.039  25.711  1.00  0.00     0.163 HD
BRANCH   6   9
ATOM      9  C   UNL A   1      32.497  21.316  25.062  1.00  0.00     0.081 A 
ATOM     10  C   UNL A   1      30.537  24.504  24.980  1.00  0.00     0.082 C 
ATOM     11  C   UNL A   1      29.403  24.171  25.949  1.00  0.00     0.115 C 
ATOM     12  C   UNL A   1      31.412  23.301  24.733  1.00  0.00     0.055 A 
ATOM     13  C   UNL A   1      29.729  23.106  26.971  1.00  0.00     0.225 C 
ATOM     14  C   UNL A   1      31.462  22.180  25.539  1.00  0.00     0.076 A 
ATOM     15  N   UNL A   1      32.226  23.075  23.648  1.00  0.00    -0.317 N 
ATOM     16  O   UNL A   1      29.149  23.042  28.056  1.00  0.00    -0.275 OA
ATOM     17  N   UNL A   1      30.604  22.118  26.613  1.00  0.00    -0.324 N 
ATOM     18  C   UNL A   1      32.851  21.872  23.833  1.00  0.00     0.107 A 
ATOM     19  H   UNL A   1      30.621  21.301  27.163  1.00  0.00     0.170 HD
BRANCH  10  20
ATOM     20  C   UNL A   1      31.318  25.756  25.395  1.00  0.00     0.012 A 
ATOM     21  C   UNL A   1      31.550  28.172  25.013  1.00  0.00     0.165 A 
ATOM     22  C   UNL A   1      30.785  27.006  24.983  1.00  0.00     0.059 A 
ATOM     23  C   UNL A   1      32.818  28.088  25.550  1.00  0.00     0.211 A 
ATOM     24  C   UNL A   1      33.315  26.899  26.060  1.00  0.00     0.211 A 
ATOM     25  O   UNL A   1      33.724  29.104  25.642  1.00  0.00    -0.449 OA
ATOM     26  C   UNL A   1      32.586  25.715  26.019  1.00  0.00     0.168 A 
ATOM     27  O   UNL A   1      34.586  27.057  26.536  1.00  0.00    -0.449 OA
ATOM     28  C   UNL A   1      34.837  28.440  26.253  1.00  0.00     0.468 C 
BRANCH  21  29
ATOM     29  O   UNL A   1      30.958  29.275  24.470  1.00  0.00    -0.493 OA
ATOM     30  C   UNL A   1      29.997  29.010  23.455  1.00  0.00     0.278 C 
ENDBRANCH  21  29
BRANCH  26  31
ATOM     31  O   UNL A   1      32.982  24.504  26.502  1.00  0.00    -0.492 OA
ATOM     32  C   UNL A   1      34.339  24.118  26.366  1.00  0.00     0.278 C 
ENDBRANCH  26  31
ENDBRANCH  10  20
BRANCH  15  33
ATOM     33  C   UNL A   1      32.395  23.883  22.506  1.00  0.00     0.046 A 
ATOM     34  C   UNL A   1      31.739  25.111  22.419  1.00  0.00     0.029 A 
ATOM     35  C   UNL A   1      33.201  23.426  21.461  1.00  0.00     0.029 A 
ATOM     36  C   UNL A   1      31.789  25.835  21.233  1.00  0.00     0.041 A 
ATOM     37  C   UNL A   1      33.257  24.163  20.277  1.00  0.00     0.041 A 
ATOM     38  C   UNL A   1      32.531  25.346  20.165  1.00  0.00     0.123 A 
ATOM     39  F   UNL A   1      32.550  26.032  19.015  1.00  0.00    -0.207 F 
ENDBRANCH  15  33
ENDBRANCH   6   9
ENDBRANCH   4   5
ENDBRANCH   3   4
ENDBRANCH   2   3
ENDBRANCH   1   2
BRANCH   1  40
ATOM     40  C   UNL A   1      39.258  23.071  26.172  1.00  0.00     0.021 C 
BRANCH  40  41
ATOM     41  C   UNL A   1      40.371  22.286  26.843  1.00  0.00     0.116 C 
BRANCH  41  42
ATOM     42  N   UNL A   1      41.583  22.270  26.015  1.00  0.00    -0.352 N 
ATOM     43  C   UNL A   1      42.363  23.324  25.573  1.00  0.00     0.251 C 
ATOM     44  H   UNL A   1      41.886  21.377  25.732  1.00  0.00     0.163 HD
ATOM     45  O   UNL A   1      43.125  23.190  24.633  1.00  0.00    -0.269 OA
BRANCH  43  46
ATOM     46  C   UNL A   1      42.259  24.607  26.286  1.00  0.00     0.039 A 
ATOM     47  C   UNL A   1      41.552  25.700  25.774  1.00  0.00     0.014 A 
ATOM     48  C   UNL A   1      42.885  24.677  27.523  1.00  0.00     0.014 A 
ATOM     49  C   UNL A   1      41.450  26.848  26.555  1.00  0.00     0.010 A 
ATOM     50  C   UNL A   1      42.562  25.683  28.379  1.00  0.00     0.010 A 
ATOM     51  C   UNL A   1      41.964  26.819  27.856  1.00  0.00    -0.014 A 
BRANCH  51  52
ATOM     52  C   UNL A   1      41.907  27.950  28.760  1.00  0.00     0.031 A 
ATOM     53  C   UNL A   1      43.002  28.933  28.592  1.00  0.00     0.074 A 
ATOM     54  C   UNL A   1      40.766  28.211  29.438  1.00  0.00     0.049 A 
ATOM     55  N   UNL A   1      43.959  29.187  29.419  1.00  0.00    -0.248 NA
ATOM     56  C   UNL A   1      43.164  29.583  27.281  1.00  0.00     0.031 C 
ATOM     57  C   UNL A   1      39.487  27.483  29.396  1.00  0.00     0.029 A 
ATOM     58  N   UNL A   1      40.464  29.295  30.195  1.00  0.00    -0.354 N 
ATOM     59  C   UNL A   1      44.699  30.213  28.837  1.00  0.00     0.074 A 
ATOM     60  C   UNL A   1      44.320  30.230  27.451  1.00  0.00     0.031 C 
ATOM     61  C   UNL A   1      38.504  28.270  29.883  1.00  0.00     0.029 A 
ATOM     62  C   UNL A   1      39.099  29.481  30.409  1.00  0.00     0.049 A 
ATOM     63  H   UNL A   1      41.149  29.898  30.561  1.00  0.00     0.167 HD
ATOM     64  C   UNL A   1      45.362  31.126  29.604  1.00  0.00     0.037 A 
ATOM     65  C   UNL A   1      38.532  30.612  30.902  1.00  0.00     0.037 A 
ATOM     66  C   UNL A   1      45.396  30.699  30.985  1.00  0.00     0.049 A 
ATOM     67  C   UNL A   1      39.619  31.330  31.638  1.00  0.00     0.074 A 
ATOM     68  C   UNL A   1      45.876  29.577  31.636  1.00  0.00     0.029 A 
ATOM     69  N   UNL A   1      44.499  31.280  31.854  1.00  0.00    -0.354 N 
ATOM     70  N   UNL A   1      40.212  30.838  32.699  1.00  0.00    -0.248 NA
ATOM     71  C   UNL A   1      40.403  32.309  30.895  1.00  0.00     0.031 C 
ATOM     72  C   UNL A   1      44.880  29.268  32.609  1.00  0.00     0.029 A 
ATOM     73  C   UNL A   1      43.905  30.267  32.564  1.00  0.00     0.049 A 
ATOM     74  H   UNL A   1      44.319  32.243  31.949  1.00  0.00     0.167 HD
ATOM     75  C   UNL A   1      41.564  31.113  32.522  1.00  0.00     0.074 A 
ATOM     76  C   UNL A   1      41.611  32.075  31.420  1.00  0.00     0.031 C 
ATOM     77  C   UNL A   1      42.541  30.315  33.055  1.00  0.00     0.037 A 
BRANCH  64  78
ATOM     78  C   UNL A   1      45.654  32.559  29.213  1.00  0.00     0.058 A 
ATOM     79  C   UNL A   1      44.591  33.361  28.745  1.00  0.00     0.135 A 
ATOM     80  C   UNL A   1      46.945  33.095  29.016  1.00  0.00     0.135 A 
ATOM     81  F   UNL A   1      43.316  32.966  28.897  1.00  0.00    -0.206 F 
ATOM     82  C   UNL A   1      44.799  34.543  28.036  1.00  0.00     0.059 A 
ATOM     83  C   UNL A   1      47.173  34.301  28.362  1.00  0.00     0.059 A 
ATOM     84  F   UNL A   1      48.060  32.440  29.355  1.00  0.00    -0.206 F 
ATOM     85  C   UNL A   1      46.097  34.992  27.830  1.00  0.00     0.060 A 
BRANCH  85  86
ATOM     86  S   UNL A   1      46.377  36.443  26.803  1.00  0.00     0.124 S 
ATOM     87  O   UNL A   1      45.150  37.197  27.028  1.00  0.00    -0.237 OA
ATOM     88  O   UNL A   1      47.590  37.001  27.392  1.00  0.00    -0.237 OA
ATOM     89  O   UNL A   1      46.537  35.881  25.464  1.00  0.00    -0.744 OA
ENDBRANCH  85  86
ENDBRANCH  64  78
BRANCH  65  90
ATOM     90  C   UNL A   1      37.280  31.253  30.401  1.00  0.00     0.058 A 
ATOM     91  C   UNL A   1      36.264  31.684  31.272  1.00  0.00     0.135 A 
ATOM     92  C   UNL A   1      37.152  31.677  29.059  1.00  0.00     0.135 A 
ATOM     93  F   UNL A   1      36.308  31.354  32.572  1.00  0.00    -0.206 F 
ATOM     94  C   UNL A   1      35.210  32.511  30.848  1.00  0.00     0.059 A 
ATOM     95  C   UNL A   1      36.107  32.484  28.611  1.00  0.00     0.059 A 
ATOM     96  F   UNL A   1      38.091  31.396  28.144  1.00  0.00    -0.206 F 
ATOM     97  C   UNL A   1      35.150  32.919  29.515  1.00  0.00     0.060 A 
BRANCH  97  98
ATOM     98  S   UNL A   1      33.899  34.114  28.983  1.00  0.00     0.124 S 
ATOM     99  O   UNL A   1      33.044  33.300  28.127  1.00  0.00    -0.237 OA
ATOM    100  O   UNL A   1      33.316  34.536  30.252  1.00  0.00    -0.237 OA
ATOM    101  O   UNL A   1      34.680  35.138  28.291  1.00  0.00    -0.744 OA
ENDBRANCH  97  98
ENDBRANCH  65  90
BRANCH  77 102
ATOM    102  C   UNL A   1      42.160  29.238  34.047  1.00  0.00     0.058 A 
ATOM    103  C   UNL A   1      41.836  27.913  33.698  1.00  0.00     0.135 A 
ATOM    104  C   UNL A   1      42.341  29.501  35.414  1.00  0.00     0.135 A 
ATOM    105  F   UNL A   1      41.753  27.539  32.416  1.00  0.00    -0.206 F 
ATOM    106  C   UNL A   1      41.666  26.912  34.657  1.00  0.00     0.059 A 
ATOM    107  C   UNL A   1      42.208  28.512  36.386  1.00  0.00     0.059 A 
ATOM    108  F   UNL A   1      42.719  30.725  35.816  1.00  0.00    -0.206 F 
ATOM    109  C   UNL A   1      41.858  27.220  36.001  1.00  0.00     0.060 A 
BRANCH 109 110
ATOM    110  S   UNL A   1      41.712  25.909  37.234  1.00  0.00     0.124 S 
ATOM    111  O   UNL A   1      41.948  24.711  36.436  1.00  0.00    -0.237 OA
ATOM    112  O   UNL A   1      42.762  26.251  38.190  1.00  0.00    -0.237 OA
ATOM    113  O   UNL A   1      40.349  26.063  37.738  1.00  0.00    -0.744 OA
ENDBRANCH 109 110
ENDBRANCH  77 102
ENDBRANCH  51  52
ENDBRANCH  43  46
ENDBRANCH  41  42
ENDBRANCH  40  41
ENDBRANCH   1  40
TORSDOF 20
ENDMDL
MODEL 3
REMARK VINA RESULT:      -8.8      3.661      8.120
REMARK SMILES COc1cc([C@@H]2CC(=O)Nc3c(C(=O)NCCCCCCNC(=O)c4ccc(-c5c6nc(c(-c7c(F)cc(S(=O)(=O)[O-])cc7F)c7ccc([nH]7)c(-c7c(F)cc(S(=O)(=O)[O-])cc7F)c7nc(c(-c8c(F)cc(S(=O)(=O)[O-])cc8F)c8ccc5[nH]8)C=C7)C=C6)cc4)cn(-c4ccc(F)cc4)c32)c(OC)c2c1OCO2
REMARK SMILES IDX 19 1 18 2 17 3 16 4 15 5 13 6 14 7 12 9 6 10 7 11 100 12
REMARK SMILES IDX 8 13 11 14 92 15 9 16 10 17 91 18 5 20 3 21 4 22 105 23
REMARK SMILES IDX 104 24 106 25 101 26 108 27 107 28 2 29 1 30 102 31 103 32
REMARK SMILES IDX 93 33 94 34 99 35 95 36 98 37 96 38 97 39 20 40 21 41 22 42
REMARK SMILES IDX 23 43 24 45 25 46 26 47 90 48 27 49 89 50 28 51 29 52 30 53
REMARK SMILES IDX 83 54 31 55 88 56 82 57 84 58 32 59 87 60 81 61 80 62 33 64
REMARK SMILES IDX 67 65 46 66 66 67 47 68 50 69 65 70 85 71 48 72 49 73 64 75
REMARK SMILES IDX 86 76 51 77 34 78 35 79 44 80 36 81 37 82 43 83 45 84 38 85
REMARK SMILES IDX 39 86 40 87 41 88 42 89 68 90 69 91 78 92 70 93 71 94 77 95
REMARK SMILES IDX 79 96 72 97 73 98 74 99 75 100 76 101 52 102 53 103 62 104
REMARK SMILES IDX 54 105 55 106 61 107 63 108 56 109 57 110 58 111 59 112
REMARK SMILES IDX 60 113
REMARK H PARENT 15 8 10 19 22 44 84 63 50 74
REMARK Flexibility Score: inf
ROOT
ATOM      1  C   UNL A   1      35.222  32.843  32.861  1.00  0.00     0.002 C 
ENDROOT
BRANCH   1   2
ATOM      2  C   UNL A   1      36.516  32.395  33.559  1.00  0.00     0.002 C 
BRANCH   2   3
ATOM      3  C   UNL A   1      37.736  32.301  32.640  1.00  0.00     0.021 C 
BRANCH   3   4
ATOM      4  C   UNL A   1      38.994  31.802  33.358  1.00  0.00     0.116 C 
BRANCH   4   5
ATOM      5  N   UNL A   1      38.674  31.440  34.711  1.00  0.00    -0.352 N 
ATOM      6  C   UNL A   1      39.281  31.689  35.909  1.00  0.00     0.254 C 
ATOM      7  O   UNL A   1      38.711  31.191  36.885  1.00  0.00    -0.269 OA
ATOM      8  H   UNL A   1      37.852  30.904  34.791  1.00  0.00     0.163 HD
BRANCH   6   9
ATOM      9  C   UNL A   1      40.452  32.558  36.089  1.00  0.00     0.081 A 
ATOM     10  C   UNL A   1      43.820  33.913  37.000  1.00  0.00     0.082 C 
ATOM     11  C   UNL A   1      43.951  33.418  38.440  1.00  0.00     0.115 C 
ATOM     12  C   UNL A   1      42.456  33.601  36.440  1.00  0.00     0.055 A 
ATOM     13  C   UNL A   1      43.134  32.189  38.769  1.00  0.00     0.225 C 
ATOM     14  C   UNL A   1      41.582  32.667  36.960  1.00  0.00     0.076 A 
ATOM     15  N   UNL A   1      41.823  34.234  35.396  1.00  0.00    -0.317 N 
ATOM     16  O   UNL A   1      43.448  31.418  39.677  1.00  0.00    -0.275 OA
ATOM     17  N   UNL A   1      41.946  32.014  38.115  1.00  0.00    -0.324 N 
ATOM     18  C   UNL A   1      40.611  33.627  35.207  1.00  0.00     0.107 A 
ATOM     19  H   UNL A   1      41.302  31.374  38.499  1.00  0.00     0.170 HD
BRANCH  10  20
ATOM     20  C   UNL A   1      44.974  33.439  36.107  1.00  0.00     0.012 A 
ATOM     21  C   UNL A   1      46.113  31.452  35.220  1.00  0.00     0.165 A 
ATOM     22  C   UNL A   1      44.976  32.067  35.744  1.00  0.00     0.059 A 
ATOM     23  C   UNL A   1      47.213  32.250  34.976  1.00  0.00     0.211 A 
ATOM     24  C   UNL A   1      47.191  33.613  35.219  1.00  0.00     0.211 A 
ATOM     25  O   UNL A   1      48.420  31.833  34.494  1.00  0.00    -0.449 OA
ATOM     26  C   UNL A   1      46.081  34.249  35.767  1.00  0.00     0.168 A 
ATOM     27  O   UNL A   1      48.387  34.192  34.903  1.00  0.00    -0.449 OA
ATOM     28  C   UNL A   1      49.155  33.063  34.464  1.00  0.00     0.468 C 
BRANCH  21  29
ATOM     29  O   UNL A   1      46.018  30.103  35.035  1.00  0.00    -0.493 OA
ATOM     30  C   UNL A   1      46.113  29.321  36.220  1.00  0.00     0.278 C 
ENDBRANCH  21  29
BRANCH  26  31
ATOM     31  O   UNL A   1      45.960  35.580  36.031  1.00  0.00    -0.492 OA
ATOM     32  C   UNL A   1      46.279  36.517  35.016  1.00  0.00     0.278 C 
ENDBRANCH  26  31
ENDBRANCH  10  20
BRANCH  15  33
ATOM     33  C   UNL A   1      42.276  35.337  34.646  1.00  0.00     0.046 A 
ATOM     34  C   UNL A   1      42.795  35.144  33.366  1.00  0.00     0.029 A 
ATOM     35  C   UNL A   1      42.222  36.614  35.212  1.00  0.00     0.029 A 
ATOM     36  C   UNL A   1      43.376  36.211  32.690  1.00  0.00     0.041 A 
ATOM     37  C   UNL A   1      42.797  37.684  34.524  1.00  0.00     0.041 A 
ATOM     38  C   UNL A   1      43.390  37.468  33.283  1.00  0.00     0.123 A 
ATOM     39  F   UNL A   1      43.978  38.486  32.641  1.00  0.00    -0.207 F 
ENDBRANCH  15  33
ENDBRANCH   6   9
ENDBRANCH   4   5
ENDBRANCH   3   4
ENDBRANCH   2   3
ENDBRANCH   1   2
BRANCH   1  40
ATOM     40  C   UNL A   1      34.822  32.047  31.606  1.00  0.00     0.021 C 
BRANCH  40  41
ATOM     41  C   UNL A   1      34.973  32.856  30.330  1.00  0.00     0.116 C 
BRANCH  41  42
ATOM     42  N   UNL A   1      34.361  32.165  29.189  1.00  0.00    -0.352 N 
ATOM     43  C   UNL A   1      34.939  31.331  28.249  1.00  0.00     0.251 C 
ATOM     44  H   UNL A   1      33.395  32.318  29.076  1.00  0.00     0.163 HD
ATOM     45  O   UNL A   1      34.391  31.109  27.185  1.00  0.00    -0.269 OA
BRANCH  43  46
ATOM     46  C   UNL A   1      36.229  30.706  28.581  1.00  0.00     0.039 A 
ATOM     47  C   UNL A   1      36.448  29.328  28.478  1.00  0.00     0.014 A 
ATOM     48  C   UNL A   1      37.244  31.562  28.985  1.00  0.00     0.014 A 
ATOM     49  C   UNL A   1      37.723  28.837  28.747  1.00  0.00     0.010 A 
ATOM     50  C   UNL A   1      38.529  31.121  28.984  1.00  0.00     0.010 A 
ATOM     51  C   UNL A   1      38.751  29.753  28.999  1.00  0.00    -0.014 A 
BRANCH  51  52
ATOM     52  C   UNL A   1      40.116  29.358  29.281  1.00  0.00     0.031 A 
ATOM     53  C   UNL A   1      40.403  29.097  30.710  1.00  0.00     0.074 A 
ATOM     54  C   UNL A   1      40.921  28.954  28.272  1.00  0.00     0.049 A 
ATOM     55  N   UNL A   1      41.158  29.787  31.497  1.00  0.00    -0.248 NA
ATOM     56  C   UNL A   1      39.623  28.057  31.402  1.00  0.00     0.031 C 
ATOM     57  C   UNL A   1      40.607  28.837  26.839  1.00  0.00     0.029 A 
ATOM     58  N   UNL A   1      42.157  28.401  28.348  1.00  0.00    -0.354 N 
ATOM     59  C   UNL A   1      41.146  29.118  32.717  1.00  0.00     0.074 A 
ATOM     60  C   UNL A   1      40.013  28.235  32.667  1.00  0.00     0.031 C 
ATOM     61  C   UNL A   1      41.514  28.036  26.241  1.00  0.00     0.029 A 
ATOM     62  C   UNL A   1      42.549  27.712  27.202  1.00  0.00     0.049 A 
ATOM     63  H   UNL A   1      42.729  28.480  29.146  1.00  0.00     0.167 HD
ATOM     64  C   UNL A   1      42.221  29.162  33.555  1.00  0.00     0.037 A 
ATOM     65  C   UNL A   1      43.608  26.866  27.120  1.00  0.00     0.037 A 
ATOM     66  C   UNL A   1      43.161  30.171  33.122  1.00  0.00     0.049 A 
ATOM     67  C   UNL A   1      44.520  27.240  28.247  1.00  0.00     0.074 A 
ATOM     68  C   UNL A   1      43.082  31.535  32.907  1.00  0.00     0.029 A 
ATOM     69  N   UNL A   1      44.277  29.748  32.432  1.00  0.00    -0.354 N 
ATOM     70  N   UNL A   1      45.110  28.408  28.333  1.00  0.00    -0.248 NA
ATOM     71  C   UNL A   1      44.343  26.546  29.516  1.00  0.00     0.031 C 
ATOM     72  C   UNL A   1      43.824  31.757  31.709  1.00  0.00     0.029 A 
ATOM     73  C   UNL A   1      44.392  30.543  31.318  1.00  0.00     0.049 A 
ATOM     74  H   UNL A   1      44.879  29.014  32.690  1.00  0.00     0.167 HD
ATOM     75  C   UNL A   1      44.994  28.778  29.670  1.00  0.00     0.074 A 
ATOM     76  C   UNL A   1      44.565  27.561  30.359  1.00  0.00     0.031 C 
ATOM     77  C   UNL A   1      44.944  30.091  30.056  1.00  0.00     0.037 A 
BRANCH  64  78
ATOM     78  C   UNL A   1      42.622  28.077  34.532  1.00  0.00     0.058 A 
ATOM     79  C   UNL A   1      42.497  28.333  35.914  1.00  0.00     0.135 A 
ATOM     80  C   UNL A   1      43.367  26.925  34.197  1.00  0.00     0.135 A 
ATOM     81  F   UNL A   1      41.791  29.388  36.355  1.00  0.00    -0.206 F 
ATOM     82  C   UNL A   1      43.153  27.572  36.880  1.00  0.00     0.059 A 
ATOM     83  C   UNL A   1      43.983  26.119  35.148  1.00  0.00     0.059 A 
ATOM     84  F   UNL A   1      43.623  26.569  32.934  1.00  0.00    -0.206 F 
ATOM     85  C   UNL A   1      43.914  26.479  36.483  1.00  0.00     0.060 A 
BRANCH  85  86
ATOM     86  S   UNL A   1      44.870  25.576  37.712  1.00  0.00     0.124 S 
ATOM     87  O   UNL A   1      44.222  25.997  38.949  1.00  0.00    -0.237 OA
ATOM     88  O   UNL A   1      44.648  24.191  37.310  1.00  0.00    -0.237 OA
ATOM     89  O   UNL A   1      46.229  26.072  37.511  1.00  0.00    -0.744 OA
ENDBRANCH  85  86
ENDBRANCH  64  78
BRANCH  65  90
ATOM     90  C   UNL A   1      43.625  25.550  26.417  1.00  0.00     0.058 A 
ATOM     91  C   UNL A   1      44.547  25.262  25.395  1.00  0.00     0.135 A 
ATOM     92  C   UNL A   1      42.884  24.445  26.897  1.00  0.00     0.135 A 
ATOM     93  F   UNL A   1      45.315  26.239  24.890  1.00  0.00    -0.206 F 
ATOM     94  C   UNL A   1      44.746  23.960  24.906  1.00  0.00     0.059 A 
ATOM     95  C   UNL A   1      43.053  23.148  26.416  1.00  0.00     0.059 A 
ATOM     96  F   UNL A   1      42.026  24.570  27.919  1.00  0.00    -0.206 F 
ATOM     97  C   UNL A   1      44.003  22.905  25.436  1.00  0.00     0.060 A 
BRANCH  97  98
ATOM     98  S   UNL A   1      44.359  21.201  24.941  1.00  0.00     0.124 S 
ATOM     99  O   UNL A   1      43.150  20.503  25.363  1.00  0.00    -0.237 OA
ATOM    100  O   UNL A   1      44.553  21.332  23.501  1.00  0.00    -0.237 OA
ATOM    101  O   UNL A   1      45.565  20.871  25.699  1.00  0.00    -0.744 OA
ENDBRANCH  97  98
ENDBRANCH  65  90
BRANCH  77 102
ATOM    102  C   UNL A   1      45.247  31.175  29.044  1.00  0.00     0.058 A 
ATOM    103  C   UNL A   1      44.278  31.811  28.246  1.00  0.00     0.135 A 
ATOM    104  C   UNL A   1      46.533  31.737  29.040  1.00  0.00     0.135 A 
ATOM    105  F   UNL A   1      43.000  31.418  28.270  1.00  0.00    -0.206 F 
ATOM    106  C   UNL A   1      44.578  32.925  27.459  1.00  0.00     0.059 A 
ATOM    107  C   UNL A   1      46.848  32.867  28.288  1.00  0.00     0.059 A 
ATOM    108  F   UNL A   1      47.491  31.225  29.830  1.00  0.00    -0.206 F 
ATOM    109  C   UNL A   1      45.868  33.449  27.489  1.00  0.00     0.060 A 
BRANCH 109 110
ATOM    110  S   UNL A   1      46.236  34.934  26.530  1.00  0.00     0.124 S 
ATOM    111  O   UNL A   1      47.487  35.384  27.131  1.00  0.00    -0.237 OA
ATOM    112  O   UNL A   1      46.338  34.418  25.167  1.00  0.00    -0.237 OA
ATOM    113  O   UNL A   1      45.082  35.796  26.776  1.00  0.00    -0.744 OA
ENDBRANCH 109 110
ENDBRANCH  77 102
ENDBRANCH  51  52
ENDBRANCH  43  46
ENDBRANCH  41  42
ENDBRANCH  40  41
ENDBRANCH   1  40
TORSDOF 20
ENDMDL
