MODEL 1
REMARK VINA RESULT:     -11.0      0.000      0.000
REMARK SMILES COc1ccc(/C=C2\SC(=S)[NH+]=C2NCCCCCCNC(=O)c2ccc(-c3c4nc(c(-c5c(F)cc(S(=O)(=O)[O-])cc5F)c5ccc([nH]5)c(-c5c(F)cc(S(=O)(=O)[O-])cc5F)c5nc(c(-c6c(F)cc(S(=O)(=O)[O-])cc6F)c6ccc3[nH]6)C=C5)C=C4)cc2)c(C(=O)[O-])c1OC
REMARK SMILES IDX 18 1 17 2 16 3 15 4 14 5 7 6 8 7 9 8 13 9 10 10 12 11 11 12
REMARK SMILES IDX 6 15 3 16 4 17 94 18 5 19 90 20 2 21 1 22 95 23 96 24 91 25
REMARK SMILES IDX 92 26 93 27 19 28 20 29 21 30 22 31 23 33 24 34 25 35 89 36
REMARK SMILES IDX 26 37 88 38 27 39 28 40 29 41 82 42 30 43 87 44 81 45 83 46
REMARK SMILES IDX 31 47 86 48 80 49 79 50 32 52 66 53 45 54 65 55 46 56 49 57
REMARK SMILES IDX 64 58 84 59 47 60 48 61 63 63 85 64 50 65 33 66 34 67 43 68
REMARK SMILES IDX 35 69 36 70 42 71 44 72 37 73 38 74 39 75 40 76 41 77 67 78
REMARK SMILES IDX 68 79 77 80 69 81 70 82 76 83 78 84 71 85 72 86 73 87 74 88
REMARK SMILES IDX 75 89 51 90 52 91 61 92 53 93 54 94 60 95 62 96 55 97 56 98
REMARK SMILES IDX 57 99 58 100 59 101
REMARK H PARENT 12 13 14 14 21 32 83 51 49 62
REMARK Flexibility Score: inf
ROOT
ATOM      1  C   UNL A   1      41.000  21.329  27.637  1.00  0.00     0.002 C 
ENDROOT
BRANCH   1   2
ATOM      2  C   UNL A   1      40.039  21.114  26.462  1.00  0.00     0.004 C 
BRANCH   2   3
ATOM      3  C   UNL A   1      39.111  22.294  26.157  1.00  0.00     0.046 C 
BRANCH   3   4
ATOM      4  C   UNL A   1      37.956  21.963  25.211  1.00  0.00     0.234 C 
BRANCH   4   5
ATOM      5  N   UNL A   1      36.979  23.044  25.205  1.00  0.00    -0.273 N 
ATOM      6  C   UNL A   1      34.825  25.257  25.070  1.00  0.00     0.033 C 
ATOM      7  C   UNL A   1      34.572  23.940  25.219  1.00  0.00     0.106 C 
ATOM      8  S   UNL A   1      33.040  23.153  25.380  1.00  0.00    -0.027 SA
ATOM      9  C   UNL A   1      35.622  22.844  25.299  1.00  0.00     0.288 C 
ATOM     10  C   UNL A   1      33.801  21.581  25.576  1.00  0.00     0.230 C 
ATOM     11  N   UNL A   1      35.166  21.627  25.470  1.00  0.00    -0.225 N 
ATOM     12  S   UNL A   1      32.904  20.203  25.886  1.00  0.00    -0.026 S 
ATOM     13  H   UNL A   1      35.743  20.831  25.517  1.00  0.00     0.314 HD
ATOM     14  H   UNL A   1      37.309  23.969  25.129  1.00  0.00     0.305 HD
BRANCH   6  15
ATOM     15  C   UNL A   1      33.913  26.451  24.990  1.00  0.00    -0.011 A 
ATOM     16  C   UNL A   1      32.185  28.726  24.955  1.00  0.00     0.161 A 
ATOM     17  C   UNL A   1      33.002  28.470  26.051  1.00  0.00     0.051 A 
ATOM     18  C   UNL A   1      32.211  27.867  23.848  1.00  0.00     0.170 A 
ATOM     19  C   UNL A   1      33.823  27.342  26.073  1.00  0.00     0.013 A 
ATOM     20  C   UNL A   1      33.058  26.719  23.877  1.00  0.00     0.050 A 
BRANCH  16  21
ATOM     21  O   UNL A   1      31.442  29.876  24.952  1.00  0.00    -0.493 OA
ATOM     22  C   UNL A   1      31.433  30.509  26.234  1.00  0.00     0.278 C 
ENDBRANCH  16  21
BRANCH  18  23
ATOM     23  O   UNL A   1      31.536  28.123  22.675  1.00  0.00    -0.492 OA
ATOM     24  C   UNL A   1      30.142  27.833  22.644  1.00  0.00     0.278 C 
ENDBRANCH  18  23
BRANCH  20  25
ATOM     25  C   UNL A   1      33.046  25.807  22.702  1.00  0.00     0.076 C 
ATOM     26  O   UNL A   1      32.292  24.863  22.522  1.00  0.00    -0.545 OA
ATOM     27  O   UNL A   1      33.928  26.170  21.751  1.00  0.00    -0.545 OA
ENDBRANCH  20  25
ENDBRANCH   6  15
ENDBRANCH   4   5
ENDBRANCH   3   4
ENDBRANCH   2   3
ENDBRANCH   1   2
BRANCH   1  28
ATOM     28  C   UNL A   1      42.442  21.664  27.248  1.00  0.00     0.021 C 
BRANCH  28  29
ATOM     29  C   UNL A   1      42.811  23.140  27.361  1.00  0.00     0.116 C 
BRANCH  29  30
ATOM     30  N   UNL A   1      42.434  23.894  26.174  1.00  0.00    -0.352 N 
ATOM     31  C   UNL A   1      41.852  25.134  26.075  1.00  0.00     0.251 C 
ATOM     32  H   UNL A   1      42.624  23.450  25.316  1.00  0.00     0.163 HD
ATOM     33  O   UNL A   1      41.434  25.527  24.989  1.00  0.00    -0.269 OA
BRANCH  31  34
ATOM     34  C   UNL A   1      41.709  25.984  27.278  1.00  0.00     0.039 A 
ATOM     35  C   UNL A   1      42.627  27.015  27.493  1.00  0.00     0.014 A 
ATOM     36  C   UNL A   1      40.677  25.763  28.194  1.00  0.00     0.014 A 
ATOM     37  C   UNL A   1      42.470  27.864  28.592  1.00  0.00     0.010 A 
ATOM     38  C   UNL A   1      40.478  26.657  29.243  1.00  0.00     0.010 A 
ATOM     39  C   UNL A   1      41.373  27.716  29.456  1.00  0.00    -0.014 A 
BRANCH  39  40
ATOM     40  C   UNL A   1      41.142  28.661  30.580  1.00  0.00     0.031 A 
ATOM     41  C   UNL A   1      41.970  28.568  31.834  1.00  0.00     0.074 A 
ATOM     42  C   UNL A   1      40.146  29.566  30.496  1.00  0.00     0.049 A 
ATOM     43  N   UNL A   1      41.881  29.265  32.937  1.00  0.00    -0.248 NA
ATOM     44  C   UNL A   1      43.021  27.539  31.860  1.00  0.00     0.031 C 
ATOM     45  C   UNL A   1      39.246  29.728  29.351  1.00  0.00     0.029 A 
ATOM     46  N   UNL A   1      39.716  30.515  31.390  1.00  0.00    -0.354 N 
ATOM     47  C   UNL A   1      42.852  28.753  33.791  1.00  0.00     0.074 A 
ATOM     48  C   UNL A   1      43.480  27.649  33.098  1.00  0.00     0.031 C 
ATOM     49  C   UNL A   1      38.394  30.735  29.600  1.00  0.00     0.029 A 
ATOM     50  C   UNL A   1      38.652  31.260  30.938  1.00  0.00     0.049 A 
ATOM     51  H   UNL A   1      40.131  30.650  32.272  1.00  0.00     0.167 HD
ATOM     52  C   UNL A   1      43.206  29.180  35.028  1.00  0.00     0.037 A 
ATOM     53  C   UNL A   1      37.957  32.248  31.534  1.00  0.00     0.037 A 
ATOM     54  C   UNL A   1      42.583  30.288  35.706  1.00  0.00     0.049 A 
ATOM     55  C   UNL A   1      38.350  32.685  32.921  1.00  0.00     0.074 A 
ATOM     56  C   UNL A   1      42.901  30.832  36.937  1.00  0.00     0.029 A 
ATOM     57  N   UNL A   1      41.508  31.016  35.215  1.00  0.00    -0.354 N 
ATOM     58  N   UNL A   1      39.317  32.236  33.686  1.00  0.00    -0.248 NA
ATOM     59  C   UNL A   1      37.559  33.767  33.525  1.00  0.00     0.031 C 
ATOM     60  C   UNL A   1      41.985  31.851  37.217  1.00  0.00     0.029 A 
ATOM     61  C   UNL A   1      41.134  31.986  36.131  1.00  0.00     0.049 A 
ATOM     62  H   UNL A   1      41.076  30.867  34.343  1.00  0.00     0.167 HD
ATOM     63  C   UNL A   1      39.272  33.003  34.846  1.00  0.00     0.074 A 
ATOM     64  C   UNL A   1      38.189  33.950  34.676  1.00  0.00     0.031 C 
ATOM     65  C   UNL A   1      40.058  32.930  35.948  1.00  0.00     0.037 A 
BRANCH  52  66
ATOM     66  C   UNL A   1      44.314  28.439  35.730  1.00  0.00     0.058 A 
ATOM     67  C   UNL A   1      45.664  28.778  35.543  1.00  0.00     0.135 A 
ATOM     68  C   UNL A   1      44.022  27.394  36.621  1.00  0.00     0.135 A 
ATOM     69  F   UNL A   1      46.005  29.761  34.694  1.00  0.00    -0.206 F 
ATOM     70  C   UNL A   1      46.685  28.080  36.180  1.00  0.00     0.059 A 
ATOM     71  C   UNL A   1      45.026  26.704  37.296  1.00  0.00     0.059 A 
ATOM     72  F   UNL A   1      42.750  27.028  36.842  1.00  0.00    -0.206 F 
ATOM     73  C   UNL A   1      46.356  27.043  37.053  1.00  0.00     0.060 A 
BRANCH  73  74
ATOM     74  S   UNL A   1      47.695  26.142  37.862  1.00  0.00     0.124 S 
ATOM     75  O   UNL A   1      48.551  25.811  36.727  1.00  0.00    -0.237 OA
ATOM     76  O   UNL A   1      48.227  27.136  38.787  1.00  0.00    -0.237 OA
ATOM     77  O   UNL A   1      47.016  25.009  38.484  1.00  0.00    -0.744 OA
ENDBRANCH  73  74
ENDBRANCH  52  66
BRANCH  53  78
ATOM     78  C   UNL A   1      36.835  32.911  30.815  1.00  0.00     0.058 A 
ATOM     79  C   UNL A   1      35.506  32.517  31.036  1.00  0.00     0.135 A 
ATOM     80  C   UNL A   1      37.063  33.951  29.901  1.00  0.00     0.135 A 
ATOM     81  F   UNL A   1      35.236  31.521  31.895  1.00  0.00    -0.206 F 
ATOM     82  C   UNL A   1      34.446  33.116  30.366  1.00  0.00     0.059 A 
ATOM     83  C   UNL A   1      36.016  34.587  29.240  1.00  0.00     0.059 A 
ATOM     84  F   UNL A   1      38.313  34.377  29.664  1.00  0.00    -0.206 F 
ATOM     85  C   UNL A   1      34.711  34.155  29.471  1.00  0.00     0.060 A 
BRANCH  85  86
ATOM     86  S   UNL A   1      33.322  34.956  28.641  1.00  0.00     0.124 S 
ATOM     87  O   UNL A   1      32.551  35.456  29.773  1.00  0.00    -0.237 OA
ATOM     88  O   UNL A   1      33.995  35.966  27.829  1.00  0.00    -0.237 OA
ATOM     89  O   UNL A   1      32.707  33.867  27.888  1.00  0.00    -0.744 OA
ENDBRANCH  85  86
ENDBRANCH  53  78
BRANCH  65  90
ATOM     90  C   UNL A   1      39.808  33.928  37.047  1.00  0.00     0.058 A 
ATOM     91  C   UNL A   1      39.001  33.626  38.156  1.00  0.00     0.135 A 
ATOM     92  C   UNL A   1      40.427  35.190  37.013  1.00  0.00     0.135 A 
ATOM     93  F   UNL A   1      38.380  32.440  38.236  1.00  0.00    -0.206 F 
ATOM     94  C   UNL A   1      38.798  34.548  39.179  1.00  0.00     0.059 A 
ATOM     95  C   UNL A   1      40.263  36.113  38.040  1.00  0.00     0.059 A 
ATOM     96  F   UNL A   1      41.217  35.527  35.981  1.00  0.00    -0.206 F 
ATOM     97  C   UNL A   1      39.436  35.787  39.114  1.00  0.00     0.060 A 
BRANCH  97  98
ATOM     98  S   UNL A   1      39.191  36.958  40.465  1.00  0.00     0.124 S 
ATOM     99  O   UNL A   1      40.567  37.290  40.821  1.00  0.00    -0.237 OA
ATOM    100  O   UNL A   1      38.429  38.023  39.821  1.00  0.00    -0.237 OA
ATOM    101  O   UNL A   1      38.456  36.182  41.460  1.00  0.00    -0.744 OA
ENDBRANCH  97  98
ENDBRANCH  65  90
ENDBRANCH  39  40
ENDBRANCH  31  34
ENDBRANCH  29  30
ENDBRANCH  28  29
ENDBRANCH   1  28
TORSDOF 19
ENDMDL
MODEL 2
REMARK VINA RESULT:     -10.3      1.269      8.233
REMARK SMILES COc1ccc(/C=C2\SC(=S)[NH+]=C2NCCCCCCNC(=O)c2ccc(-c3c4nc(c(-c5c(F)cc(S(=O)(=O)[O-])cc5F)c5ccc([nH]5)c(-c5c(F)cc(S(=O)(=O)[O-])cc5F)c5nc(c(-c6c(F)cc(S(=O)(=O)[O-])cc6F)c6ccc3[nH]6)C=C5)C=C4)cc2)c(C(=O)[O-])c1OC
REMARK SMILES IDX 18 1 17 2 16 3 15 4 14 5 7 6 8 7 9 8 13 9 10 10 12 11 11 12
REMARK SMILES IDX 6 15 3 16 4 17 94 18 5 19 90 20 2 21 1 22 95 23 96 24 91 25
REMARK SMILES IDX 92 26 93 27 19 28 20 29 21 30 22 31 23 33 24 34 25 35 89 36
REMARK SMILES IDX 26 37 88 38 27 39 28 40 29 41 82 42 30 43 87 44 81 45 83 46
REMARK SMILES IDX 31 47 86 48 80 49 79 50 32 52 66 53 45 54 65 55 46 56 49 57
REMARK SMILES IDX 64 58 84 59 47 60 48 61 63 63 85 64 50 65 33 66 34 67 43 68
REMARK SMILES IDX 35 69 36 70 42 71 44 72 37 73 38 74 39 75 40 76 41 77 67 78
REMARK SMILES IDX 68 79 77 80 69 81 70 82 76 83 78 84 71 85 72 86 73 87 74 88
REMARK SMILES IDX 75 89 51 90 52 91 61 92 53 93 54 94 60 95 62 96 55 97 56 98
REMARK SMILES IDX 57 99 58 100 59 101
REMARK H PARENT 12 13 14 14 21 32 83 51 49 62
REMARK Flexibility Score: inf
ROOT
ATOM      1  C   UNL A   1      40.851  21.122  27.145  1.00  0.00     0.002 C 
ENDROOT
BRANCH   1   2
ATOM      2  C   UNL A   1      39.894  20.458  26.148  1.00  0.00     0.004 C 
BRANCH   2   3
ATOM      3  C   UNL A   1      38.563  21.187  25.942  1.00  0.00     0.046 C 
BRANCH   3   4
ATOM      4  C   UNL A   1      37.767  20.719  24.723  1.00  0.00     0.234 C 
BRANCH   4   5
ATOM      5  N   UNL A   1      36.697  21.661  24.423  1.00  0.00    -0.273 N 
ATOM      6  C   UNL A   1      34.361  23.545  23.684  1.00  0.00     0.033 C 
ATOM      7  C   UNL A   1      34.222  22.273  24.109  1.00  0.00     0.106 C 
ATOM      8  S   UNL A   1      32.763  21.378  24.360  1.00  0.00    -0.027 SA
ATOM      9  C   UNL A   1      35.362  21.340  24.488  1.00  0.00     0.288 C 
ATOM     10  C   UNL A   1      33.652  19.976  24.941  1.00  0.00     0.230 C 
ATOM     11  N   UNL A   1      35.010  20.146  24.900  1.00  0.00    -0.225 N 
ATOM     12  S   UNL A   1      32.867  18.610  25.502  1.00  0.00    -0.026 S 
ATOM     13  H   UNL A   1      35.654  19.447  25.154  1.00  0.00     0.314 HD
ATOM     14  H   UNL A   1      36.943  22.578  24.161  1.00  0.00     0.305 HD
BRANCH   6  15
ATOM     15  C   UNL A   1      33.349  24.587  23.291  1.00  0.00    -0.011 A 
ATOM     16  C   UNL A   1      31.482  26.576  22.441  1.00  0.00     0.161 A 
ATOM     17  C   UNL A   1      32.234  25.863  21.513  1.00  0.00     0.051 A 
ATOM     18  C   UNL A   1      31.630  26.315  23.810  1.00  0.00     0.170 A 
ATOM     19  C   UNL A   1      33.164  24.913  21.937  1.00  0.00     0.013 A 
ATOM     20  C   UNL A   1      32.580  25.337  24.233  1.00  0.00     0.050 A 
BRANCH  16  21
ATOM     21  O   UNL A   1      30.540  27.454  21.977  1.00  0.00    -0.493 OA
ATOM     22  C   UNL A   1      30.908  28.813  22.225  1.00  0.00     0.278 C 
ENDBRANCH  16  21
BRANCH  18  23
ATOM     23  O   UNL A   1      30.832  26.879  24.779  1.00  0.00    -0.492 OA
ATOM     24  C   UNL A   1      29.580  26.254  25.044  1.00  0.00     0.278 C 
ENDBRANCH  18  23
BRANCH  20  25
ATOM     25  C   UNL A   1      32.740  25.099  25.693  1.00  0.00     0.076 C 
ATOM     26  O   UNL A   1      32.179  24.238  26.354  1.00  0.00    -0.545 OA
ATOM     27  O   UNL A   1      33.666  25.898  26.254  1.00  0.00    -0.545 OA
ENDBRANCH  20  25
ENDBRANCH   6  15
ENDBRANCH   4   5
ENDBRANCH   3   4
ENDBRANCH   2   3
ENDBRANCH   1   2
BRANCH   1  28
ATOM     28  C   UNL A   1      41.737  22.226  26.563  1.00  0.00     0.021 C 
BRANCH  28  29
ATOM     29  C   UNL A   1      41.145  23.630  26.638  1.00  0.00     0.116 C 
BRANCH  29  30
ATOM     30  N   UNL A   1      41.737  24.530  25.659  1.00  0.00    -0.352 N 
ATOM     31  C   UNL A   1      41.986  25.877  25.749  1.00  0.00     0.251 C 
ATOM     32  H   UNL A   1      41.998  24.110  24.807  1.00  0.00     0.163 HD
ATOM     33  O   UNL A   1      42.318  26.505  24.746  1.00  0.00    -0.269 OA
BRANCH  31  34
ATOM     34  C   UNL A   1      41.831  26.575  27.044  1.00  0.00     0.039 A 
ATOM     35  C   UNL A   1      42.680  27.643  27.345  1.00  0.00     0.014 A 
ATOM     36  C   UNL A   1      40.856  26.175  27.963  1.00  0.00     0.014 A 
ATOM     37  C   UNL A   1      42.507  28.351  28.538  1.00  0.00     0.010 A 
ATOM     38  C   UNL A   1      40.636  26.929  29.113  1.00  0.00     0.010 A 
ATOM     39  C   UNL A   1      41.460  28.024  29.415  1.00  0.00    -0.014 A 
BRANCH  39  40
ATOM     40  C   UNL A   1      41.208  28.819  30.646  1.00  0.00     0.031 A 
ATOM     41  C   UNL A   1      40.083  29.818  30.688  1.00  0.00     0.074 A 
ATOM     42  C   UNL A   1      42.029  28.683  31.707  1.00  0.00     0.049 A 
ATOM     43  N   UNL A   1      39.741  30.639  31.647  1.00  0.00    -0.248 NA
ATOM     44  C   UNL A   1      39.245  29.926  29.483  1.00  0.00     0.031 C 
ATOM     45  C   UNL A   1      43.180  27.779  31.775  1.00  0.00     0.029 A 
ATOM     46  N   UNL A   1      42.029  29.309  32.928  1.00  0.00    -0.354 N 
ATOM     47  C   UNL A   1      38.662  31.367  31.161  1.00  0.00     0.074 A 
ATOM     48  C   UNL A   1      38.441  30.931  29.799  1.00  0.00     0.031 C 
ATOM     49  C   UNL A   1      43.754  27.887  32.983  1.00  0.00     0.029 A 
ATOM     50  C   UNL A   1      43.045  28.899  33.760  1.00  0.00     0.049 A 
ATOM     51  H   UNL A   1      41.364  29.988  33.186  1.00  0.00     0.167 HD
ATOM     52  C   UNL A   1      37.907  32.295  31.797  1.00  0.00     0.037 A 
ATOM     53  C   UNL A   1      43.374  29.298  35.005  1.00  0.00     0.037 A 
ATOM     54  C   UNL A   1      38.126  32.716  33.157  1.00  0.00     0.049 A 
ATOM     55  C   UNL A   1      42.538  30.353  35.680  1.00  0.00     0.074 A 
ATOM     56  C   UNL A   1      37.387  33.611  33.910  1.00  0.00     0.029 A 
ATOM     57  N   UNL A   1      39.165  32.278  33.966  1.00  0.00    -0.354 N 
ATOM     58  N   UNL A   1      41.478  30.981  35.229  1.00  0.00    -0.248 NA
ATOM     59  C   UNL A   1      42.941  30.750  37.037  1.00  0.00     0.031 C 
ATOM     60  C   UNL A   1      38.011  33.758  35.154  1.00  0.00     0.029 A 
ATOM     61  C   UNL A   1      39.103  32.906  35.200  1.00  0.00     0.049 A 
ATOM     62  H   UNL A   1      39.846  31.617  33.702  1.00  0.00     0.167 HD
ATOM     63  C   UNL A   1      41.067  31.822  36.259  1.00  0.00     0.074 A 
ATOM     64  C   UNL A   1      41.988  31.614  37.358  1.00  0.00     0.031 C 
ATOM     65  C   UNL A   1      40.022  32.685  36.290  1.00  0.00     0.037 A 
BRANCH  52  66
ATOM     66  C   UNL A   1      36.777  32.925  31.023  1.00  0.00     0.058 A 
ATOM     67  C   UNL A   1      37.003  33.938  30.078  1.00  0.00     0.135 A 
ATOM     68  C   UNL A   1      35.454  32.493  31.212  1.00  0.00     0.135 A 
ATOM     69  F   UNL A   1      38.245  34.400  29.863  1.00  0.00    -0.206 F 
ATOM     70  C   UNL A   1      35.956  34.529  29.378  1.00  0.00     0.059 A 
ATOM     71  C   UNL A   1      34.394  33.046  30.498  1.00  0.00     0.059 A 
ATOM     72  F   UNL A   1      35.178  31.525  32.100  1.00  0.00    -0.206 F 
ATOM     73  C   UNL A   1      34.654  34.077  29.597  1.00  0.00     0.060 A 
BRANCH  73  74
ATOM     74  S   UNL A   1      33.306  34.864  28.689  1.00  0.00     0.124 S 
ATOM     75  O   UNL A   1      32.438  35.301  29.777  1.00  0.00    -0.237 OA
ATOM     76  O   UNL A   1      33.996  35.925  27.964  1.00  0.00    -0.237 OA
ATOM     77  O   UNL A   1      32.777  33.783  27.862  1.00  0.00    -0.744 OA
ENDBRANCH  73  74
ENDBRANCH  52  66
BRANCH  53  78
ATOM     78  C   UNL A   1      44.534  28.681  35.703  1.00  0.00     0.058 A 
ATOM     79  C   UNL A   1      45.828  29.202  35.548  1.00  0.00     0.135 A 
ATOM     80  C   UNL A   1      44.376  27.568  36.543  1.00  0.00     0.135 A 
ATOM     81  F   UNL A   1      46.033  30.261  34.750  1.00  0.00    -0.206 F 
ATOM     82  C   UNL A   1      46.926  28.633  36.184  1.00  0.00     0.059 A 
ATOM     83  C   UNL A   1      45.454  26.999  37.215  1.00  0.00     0.059 A 
ATOM     84  F   UNL A   1      43.158  27.040  36.739  1.00  0.00    -0.206 F 
ATOM     85  C   UNL A   1      46.728  27.531  37.020  1.00  0.00     0.060 A 
BRANCH  85  86
ATOM     86  S   UNL A   1      48.153  26.828  37.876  1.00  0.00     0.124 S 
ATOM     87  O   UNL A   1      47.588  26.517  39.183  1.00  0.00    -0.237 OA
ATOM     88  O   UNL A   1      48.480  25.683  37.032  1.00  0.00    -0.237 OA
ATOM     89  O   UNL A   1      49.130  27.913  37.851  1.00  0.00    -0.744 OA
ENDBRANCH  85  86
ENDBRANCH  53  78
BRANCH  65  90
ATOM     90  C   UNL A   1      39.786  33.444  37.569  1.00  0.00     0.058 A 
ATOM     91  C   UNL A   1      40.521  34.595  37.896  1.00  0.00     0.135 A 
ATOM     92  C   UNL A   1      38.774  33.040  38.457  1.00  0.00     0.135 A 
ATOM     93  F   UNL A   1      41.504  35.021  37.089  1.00  0.00    -0.206 F 
ATOM     94  C   UNL A   1      40.276  35.304  39.069  1.00  0.00     0.059 A 
ATOM     95  C   UNL A   1      38.491  33.751  39.618  1.00  0.00     0.059 A 
ATOM     96  F   UNL A   1      38.034  31.952  38.188  1.00  0.00    -0.206 F 
ATOM     97  C   UNL A   1      39.257  34.876  39.922  1.00  0.00     0.060 A 
BRANCH  97  98
ATOM     98  S   UNL A   1      38.928  35.826  41.421  1.00  0.00     0.124 S 
ATOM     99  O   UNL A   1      40.067  35.462  42.257  1.00  0.00    -0.237 OA
ATOM    100  O   UNL A   1      38.919  37.198  40.924  1.00  0.00    -0.237 OA
ATOM    101  O   UNL A   1      37.634  35.319  41.869  1.00  0.00    -0.744 OA
ENDBRANCH  97  98
ENDBRANCH  65  90
ENDBRANCH  39  40
ENDBRANCH  31  34
ENDBRANCH  29  30
ENDBRANCH  28  29
ENDBRANCH   1  28
TORSDOF 19
ENDMDL
MODEL 3
REMARK VINA RESULT:     -10.2      2.506      3.552
REMARK SMILES COc1ccc(/C=C2\SC(=S)[NH+]=C2NCCCCCCNC(=O)c2ccc(-c3c4nc(c(-c5c(F)cc(S(=O)(=O)[O-])cc5F)c5ccc([nH]5)c(-c5c(F)cc(S(=O)(=O)[O-])cc5F)c5nc(c(-c6c(F)cc(S(=O)(=O)[O-])cc6F)c6ccc3[nH]6)C=C5)C=C4)cc2)c(C(=O)[O-])c1OC
REMARK SMILES IDX 18 1 17 2 16 3 15 4 14 5 7 6 8 7 9 8 13 9 10 10 12 11 11 12
REMARK SMILES IDX 6 15 3 16 4 17 94 18 5 19 90 20 2 21 1 22 95 23 96 24 91 25
REMARK SMILES IDX 92 26 93 27 19 28 20 29 21 30 22 31 23 33 24 34 25 35 89 36
REMARK SMILES IDX 26 37 88 38 27 39 28 40 29 41 82 42 30 43 87 44 81 45 83 46
REMARK SMILES IDX 31 47 86 48 80 49 79 50 32 52 66 53 45 54 65 55 46 56 49 57
REMARK SMILES IDX 64 58 84 59 47 60 48 61 63 63 85 64 50 65 33 66 34 67 43 68
REMARK SMILES IDX 35 69 36 70 42 71 44 72 37 73 38 74 39 75 40 76 41 77 67 78
REMARK SMILES IDX 68 79 77 80 69 81 70 82 76 83 78 84 71 85 72 86 73 87 74 88
REMARK SMILES IDX 75 89 51 90 52 91 61 92 53 93 54 94 60 95 62 96 55 97 56 98
REMARK SMILES IDX 57 99 58 100 59 101
REMARK H PARENT 12 13 14 14 21 32 83 51 49 62
REMARK Flexibility Score: inf
ROOT
ATOM      1  C   UNL A   1      41.207  26.641  25.705  1.00  0.00     0.002 C 
ENDROOT
BRANCH   1   2
ATOM      2  C   UNL A   1      41.145  27.252  27.109  1.00  0.00     0.004 C 
BRANCH   2   3
ATOM      3  C   UNL A   1      39.980  26.767  27.978  1.00  0.00     0.046 C 
BRANCH   3   4
ATOM      4  C   UNL A   1      39.886  25.247  28.119  1.00  0.00     0.234 C 
BRANCH   4   5
ATOM      5  N   UNL A   1      38.729  24.741  27.393  1.00  0.00    -0.273 N 
ATOM      6  C   UNL A   1      36.376  23.631  25.724  1.00  0.00     0.033 C 
ATOM      7  C   UNL A   1      37.533  22.978  25.958  1.00  0.00     0.106 C 
ATOM      8  S   UNL A   1      38.003  21.402  25.423  1.00  0.00    -0.027 SA
ATOM      9  C   UNL A   1      38.692  23.507  26.787  1.00  0.00     0.288 C 
ATOM     10  C   UNL A   1      39.534  21.501  26.282  1.00  0.00     0.230 C 
ATOM     11  N   UNL A   1      39.720  22.702  26.912  1.00  0.00    -0.225 N 
ATOM     12  S   UNL A   1      40.606  20.217  26.318  1.00  0.00    -0.026 S 
ATOM     13  H   UNL A   1      40.538  22.938  27.406  1.00  0.00     0.314 HD
ATOM     14  H   UNL A   1      37.929  25.313  27.334  1.00  0.00     0.305 HD
BRANCH   6  15
ATOM     15  C   UNL A   1      35.145  23.244  24.950  1.00  0.00    -0.011 A 
ATOM     16  C   UNL A   1      32.842  22.583  23.394  1.00  0.00     0.161 A 
ATOM     17  C   UNL A   1      33.971  23.130  22.796  1.00  0.00     0.051 A 
ATOM     18  C   UNL A   1      32.830  22.341  24.774  1.00  0.00     0.170 A 
ATOM     19  C   UNL A   1      35.082  23.477  23.566  1.00  0.00     0.013 A 
ATOM     20  C   UNL A   1      33.973  22.694  25.553  1.00  0.00     0.050 A 
BRANCH  16  21
ATOM     21  O   UNL A   1      31.800  22.202  22.591  1.00  0.00    -0.493 OA
ATOM     22  C   UNL A   1      31.989  20.890  22.057  1.00  0.00     0.278 C 
ENDBRANCH  16  21
BRANCH  18  23
ATOM     23  O   UNL A   1      31.808  21.681  25.419  1.00  0.00    -0.492 OA
ATOM     24  C   UNL A   1      30.669  22.447  25.800  1.00  0.00     0.278 C 
ENDBRANCH  18  23
BRANCH  20  25
ATOM     25  C   UNL A   1      33.924  22.454  27.020  1.00  0.00     0.076 C 
ATOM     26  O   UNL A   1      34.383  21.491  27.615  1.00  0.00    -0.545 OA
ATOM     27  O   UNL A   1      33.376  23.480  27.699  1.00  0.00    -0.545 OA
ENDBRANCH  20  25
ENDBRANCH   6  15
ENDBRANCH   4   5
ENDBRANCH   3   4
ENDBRANCH   2   3
ENDBRANCH   1   2
BRANCH   1  28
ATOM     28  C   UNL A   1      42.520  25.937  25.357  1.00  0.00     0.021 C 
BRANCH  28  29
ATOM     29  C   UNL A   1      42.816  24.687  26.179  1.00  0.00     0.116 C 
BRANCH  29  30
ATOM     30  N   UNL A   1      44.238  24.527  26.447  1.00  0.00    -0.352 N 
ATOM     31  C   UNL A   1      45.054  25.241  27.290  1.00  0.00     0.251 C 
ATOM     32  H   UNL A   1      44.680  23.800  25.951  1.00  0.00     0.163 HD
ATOM     33  O   UNL A   1      46.271  25.082  27.240  1.00  0.00    -0.269 OA
BRANCH  31  34
ATOM     34  C   UNL A   1      44.470  26.216  28.237  1.00  0.00     0.039 A 
ATOM     35  C   UNL A   1      43.705  25.746  29.308  1.00  0.00     0.014 A 
ATOM     36  C   UNL A   1      44.670  27.589  28.069  1.00  0.00     0.014 A 
ATOM     37  C   UNL A   1      43.197  26.650  30.245  1.00  0.00     0.010 A 
ATOM     38  C   UNL A   1      44.230  28.479  29.045  1.00  0.00     0.010 A 
ATOM     39  C   UNL A   1      43.486  28.020  30.143  1.00  0.00    -0.014 A 
BRANCH  39  40
ATOM     40  C   UNL A   1      43.027  28.985  31.177  1.00  0.00     0.031 A 
ATOM     41  C   UNL A   1      43.798  29.150  32.459  1.00  0.00     0.074 A 
ATOM     42  C   UNL A   1      41.881  29.671  30.986  1.00  0.00     0.049 A 
ATOM     43  N   UNL A   1      43.527  29.898  33.497  1.00  0.00    -0.248 NA
ATOM     44  C   UNL A   1      45.024  28.349  32.603  1.00  0.00     0.031 C 
ATOM     45  C   UNL A   1      41.022  29.568  29.804  1.00  0.00     0.029 A 
ATOM     46  N   UNL A   1      41.238  30.584  31.784  1.00  0.00    -0.354 N 
ATOM     47  C   UNL A   1      44.537  29.651  34.420  1.00  0.00     0.074 A 
ATOM     48  C   UNL A   1      45.395  28.641  33.842  1.00  0.00     0.031 C 
ATOM     49  C   UNL A   1      39.982  30.406  29.942  1.00  0.00     0.029 A 
ATOM     50  C   UNL A   1      40.074  31.072  31.238  1.00  0.00     0.049 A 
ATOM     51  H   UNL A   1      41.578  30.863  32.664  1.00  0.00     0.167 HD
ATOM     52  C   UNL A   1      44.745  30.231  35.627  1.00  0.00     0.037 A 
ATOM     53  C   UNL A   1      39.176  31.949  31.728  1.00  0.00     0.037 A 
ATOM     54  C   UNL A   1      43.891  31.245  36.190  1.00  0.00     0.049 A 
ATOM     55  C   UNL A   1      39.413  32.558  33.085  1.00  0.00     0.074 A 
ATOM     56  C   UNL A   1      44.042  31.933  37.382  1.00  0.00     0.029 A 
ATOM     57  N   UNL A   1      42.721  31.712  35.607  1.00  0.00    -0.354 N 
ATOM     58  N   UNL A   1      40.411  32.364  33.914  1.00  0.00    -0.248 NA
ATOM     59  C   UNL A   1      38.403  33.509  33.571  1.00  0.00     0.031 C 
ATOM     60  C   UNL A   1      42.937  32.773  37.546  1.00  0.00     0.029 A 
ATOM     61  C   UNL A   1      42.127  32.658  36.427  1.00  0.00     0.049 A 
ATOM     62  H   UNL A   1      42.367  31.416  34.738  1.00  0.00     0.167 HD
ATOM     63  C   UNL A   1      40.167  33.194  35.004  1.00  0.00     0.074 A 
ATOM     64  C   UNL A   1      38.932  33.898  34.722  1.00  0.00     0.031 C 
ATOM     65  C   UNL A   1      40.900  33.359  36.133  1.00  0.00     0.037 A 
BRANCH  52  66
ATOM     66  C   UNL A   1      45.940  29.775  36.423  1.00  0.00     0.058 A 
ATOM     67  C   UNL A   1      47.186  30.413  36.316  1.00  0.00     0.135 A 
ATOM     68  C   UNL A   1      45.832  28.702  37.323  1.00  0.00     0.135 A 
ATOM     69  F   UNL A   1      47.353  31.437  35.464  1.00  0.00    -0.206 F 
ATOM     70  C   UNL A   1      48.292  29.978  37.040  1.00  0.00     0.059 A 
ATOM     71  C   UNL A   1      46.917  28.271  38.082  1.00  0.00     0.059 A 
ATOM     72  F   UNL A   1      44.665  28.056  37.469  1.00  0.00    -0.206 F 
ATOM     73  C   UNL A   1      48.148  28.904  37.919  1.00  0.00     0.060 A 
BRANCH  73  74
ATOM     74  S   UNL A   1      49.596  28.346  38.841  1.00  0.00     0.124 S 
ATOM     75  O   UNL A   1      49.086  27.138  39.481  1.00  0.00    -0.237 OA
ATOM     76  O   UNL A   1      50.578  28.136  37.782  1.00  0.00    -0.237 OA
ATOM     77  O   UNL A   1      49.877  29.461  39.742  1.00  0.00    -0.744 OA
ENDBRANCH  73  74
ENDBRANCH  52  66
BRANCH  53  78
ATOM     78  C   UNL A   1      37.983  32.325  30.922  1.00  0.00     0.058 A 
ATOM     79  C   UNL A   1      36.754  31.671  31.106  1.00  0.00     0.135 A 
ATOM     80  C   UNL A   1      38.040  33.344  29.959  1.00  0.00     0.135 A 
ATOM     81  F   UNL A   1      36.649  30.685  32.010  1.00  0.00    -0.206 F 
ATOM     82  C   UNL A   1      35.632  32.001  30.355  1.00  0.00     0.059 A 
ATOM     83  C   UNL A   1      36.923  33.713  29.215  1.00  0.00     0.059 A 
ATOM     84  F   UNL A   1      39.186  34.011  29.753  1.00  0.00    -0.206 F 
ATOM     85  C   UNL A   1      35.725  33.028  29.413  1.00  0.00     0.060 A 
BRANCH  85  86
ATOM     86  S   UNL A   1      34.249  33.477  28.475  1.00  0.00     0.124 S 
ATOM     87  O   UNL A   1      33.793  32.174  28.003  1.00  0.00    -0.237 OA
ATOM     88  O   UNL A   1      33.422  34.112  29.496  1.00  0.00    -0.237 OA
ATOM     89  O   UNL A   1      34.764  34.377  27.448  1.00  0.00    -0.744 OA
ENDBRANCH  85  86
ENDBRANCH  53  78
BRANCH  65  90
ATOM     90  C   UNL A   1      40.413  34.370  37.136  1.00  0.00     0.058 A 
ATOM     91  C   UNL A   1      39.547  34.020  38.184  1.00  0.00     0.135 A 
ATOM     92  C   UNL A   1      40.862  35.701  37.076  1.00  0.00     0.135 A 
ATOM     93  F   UNL A   1      39.082  32.766  38.285  1.00  0.00    -0.206 F 
ATOM     94  C   UNL A   1      39.124  34.958  39.121  1.00  0.00     0.059 A 
ATOM     95  C   UNL A   1      40.477  36.647  38.020  1.00  0.00     0.059 A 
ATOM     96  F   UNL A   1      41.700  36.088  36.100  1.00  0.00    -0.206 F 
ATOM     97  C   UNL A   1      39.597  36.268  39.033  1.00  0.00     0.060 A 
BRANCH  97  98
ATOM     98  S   UNL A   1      39.068  37.465  40.277  1.00  0.00     0.124 S 
ATOM     99  O   UNL A   1      38.361  36.611  41.226  1.00  0.00    -0.237 OA
ATOM    100  O   UNL A   1      40.338  38.013  40.741  1.00  0.00    -0.237 OA
ATOM    101  O   UNL A   1      38.230  38.392  39.522  1.00  0.00    -0.744 OA
ENDBRANCH  97  98
ENDBRANCH  65  90
ENDBRANCH  39  40
ENDBRANCH  31  34
ENDBRANCH  29  30
ENDBRANCH  28  29
ENDBRANCH   1  28
TORSDOF 19
ENDMDL
