MODEL 1
REMARK VINA RESULT:     -11.3      0.000      0.000
REMARK SMILES Cc1ccc(S(=O)(=O)n2cc(C(=O)C(=O)NCC(=O)NCC(=O)NCCCCCCNC(=O)c3ccc(-c4c5nc(c(-c6c(F)cc(S(=O)(=O)[O-])cc6F)c6ccc([nH]6)c(-c6c(F)cc(S(=O)(=O)[O-])cc6F)c6nc(c(-c7c(F)cc(S(=O)(=O)[O-])cc7F)c7ccc4[nH]7)C=C6)C=C5)cc3)c3ccccc32)cc1
REMARK SMILES IDX 25 1 24 2 22 3 23 4 21 6 20 7 18 8 19 9 17 11 16 12 14 13
REMARK SMILES IDX 15 14 12 16 13 17 11 18 9 19 10 20 105 21 100 22 104 23
REMARK SMILES IDX 101 24 103 25 102 26 6 27 7 28 8 29 5 30 1 31 2 32 3 33
REMARK SMILES IDX 107 34 4 35 106 36 26 37 27 38 28 39 29 40 30 41 31 42 32 43
REMARK SMILES IDX 33 45 34 46 35 47 99 48 36 49 98 50 37 51 38 52 39 53 92 54
REMARK SMILES IDX 40 55 97 56 91 57 93 58 41 59 96 60 90 61 89 62 42 64 76 65
REMARK SMILES IDX 55 66 75 67 56 68 59 69 74 70 94 71 57 72 58 73 73 75 95 76
REMARK SMILES IDX 60 77 43 78 44 79 53 80 45 81 46 82 52 83 54 84 47 85 48 86
REMARK SMILES IDX 49 87 50 88 51 89 77 90 78 91 87 92 79 93 80 94 86 95 88 96
REMARK SMILES IDX 81 97 82 98 83 99 84 100 85 101 61 102 62 103 71 104 63 105
REMARK SMILES IDX 64 106 70 107 72 108 65 109 66 110 67 111 68 112 69 113
REMARK H PARENT 24 5 20 10 16 15 31 44 93 63 59 74
REMARK Flexibility Score: inf
ROOT
ATOM      1  C   UNL A   1      39.662  28.653  27.275  1.00  0.00     0.116 C 
ENDROOT
BRANCH   1   2
ATOM      2  N   UNL A   1      39.334  29.484  28.410  1.00  0.00    -0.355 N 
ATOM      3  C   UNL A   1      38.158  30.110  28.704  1.00  0.00     0.239 C 
ATOM      4  O   UNL A   1      38.007  30.551  29.847  1.00  0.00    -0.273 OA
ATOM      5  H   UNL A   1      40.061  29.616  29.062  1.00  0.00     0.163 HD
BRANCH   3   6
ATOM      6  C   UNL A   1      36.982  30.113  27.711  1.00  0.00     0.216 C 
BRANCH   6   7
ATOM      7  N   UNL A   1      35.963  31.120  27.952  1.00  0.00    -0.346 N 
ATOM      8  C   UNL A   1      34.636  31.142  27.645  1.00  0.00     0.239 C 
ATOM      9  O   UNL A   1      33.983  32.120  28.016  1.00  0.00    -0.273 OA
ATOM     10  H   UNL A   1      36.287  31.925  28.418  1.00  0.00     0.164 HD
BRANCH   8  11
ATOM     11  C   UNL A   1      33.938  29.966  26.939  1.00  0.00     0.216 C 
BRANCH  11  12
ATOM     12  N   UNL A   1      32.848  29.322  27.676  1.00  0.00    -0.340 N 
ATOM     13  C   UNL A   1      31.875  28.424  27.289  1.00  0.00     0.292 C 
ATOM     14  O   UNL A   1      31.043  28.059  28.112  1.00  0.00    -0.265 OA
ATOM     15  H   UNL A   1      32.801  29.580  28.626  1.00  0.00     0.164 HD
BRANCH  13  16
ATOM     16  C   UNL A   1      31.831  27.880  25.846  1.00  0.00     0.252 C 
ATOM     17  O   UNL A   1      31.671  28.694  24.940  1.00  0.00    -0.283 OA
BRANCH  16  18
ATOM     18  C   UNL A   1      31.975  26.455  25.518  1.00  0.00     0.054 A 
ATOM     19  N   UNL A   1      32.114  24.227  25.604  1.00  0.00    -0.240 N 
ATOM     20  C   UNL A   1      31.882  25.355  26.354  1.00  0.00     0.117 A 
ATOM     21  C   UNL A   1      32.353  24.543  24.283  1.00  0.00     0.065 A 
ATOM     22  C   UNL A   1      32.273  25.938  24.205  1.00  0.00     0.012 A 
ATOM     23  C   UNL A   1      32.663  23.757  23.157  1.00  0.00     0.028 A 
ATOM     24  C   UNL A   1      32.499  26.554  22.954  1.00  0.00     0.011 A 
ATOM     25  C   UNL A   1      32.909  24.402  21.942  1.00  0.00     0.002 A 
ATOM     26  C   UNL A   1      32.823  25.784  21.837  1.00  0.00     0.001 A 
BRANCH  19  27
ATOM     27  S   UNL A   1      32.214  22.652  26.252  1.00  0.00     0.268 S 
ATOM     28  O   UNL A   1      31.282  21.859  25.476  1.00  0.00    -0.201 OA
ATOM     29  O   UNL A   1      32.087  22.802  27.691  1.00  0.00    -0.201 OA
BRANCH  27  30
ATOM     30  C   UNL A   1      33.844  22.026  25.930  1.00  0.00     0.088 A 
ATOM     31  C   UNL A   1      37.669  20.413  24.792  1.00  0.00     0.044 C 
ATOM     32  C   UNL A   1      36.339  20.973  25.207  1.00  0.00    -0.051 A 
ATOM     33  C   UNL A   1      35.173  20.229  24.997  1.00  0.00     0.005 A 
ATOM     34  C   UNL A   1      36.247  22.234  25.809  1.00  0.00     0.005 A 
ATOM     35  C   UNL A   1      33.928  20.754  25.351  1.00  0.00     0.022 A 
ATOM     36  C   UNL A   1      35.006  22.758  26.182  1.00  0.00     0.022 A 
ENDBRANCH  27  30
ENDBRANCH  19  27
ENDBRANCH  16  18
ENDBRANCH  13  16
ENDBRANCH  11  12
ENDBRANCH   8  11
ENDBRANCH   6   7
ENDBRANCH   3   6
ENDBRANCH   1   2
BRANCH   1  37
ATOM     37  C   UNL A   1      41.036  28.006  27.360  1.00  0.00     0.021 C 
BRANCH  37  38
ATOM     38  C   UNL A   1      41.752  28.210  28.696  1.00  0.00     0.002 C 
BRANCH  38  39
ATOM     39  C   UNL A   1      43.160  28.829  28.628  1.00  0.00     0.002 C 
BRANCH  39  40
ATOM     40  C   UNL A   1      44.106  28.258  27.569  1.00  0.00     0.021 C 
BRANCH  40  41
ATOM     41  C   UNL A   1      45.459  27.837  28.111  1.00  0.00     0.116 C 
BRANCH  41  42
ATOM     42  N   UNL A   1      46.084  26.758  27.359  1.00  0.00    -0.352 N 
ATOM     43  C   UNL A   1      46.920  25.781  27.883  1.00  0.00     0.251 C 
ATOM     44  H   UNL A   1      45.895  26.718  26.394  1.00  0.00     0.163 HD
ATOM     45  O   UNL A   1      47.870  25.302  27.278  1.00  0.00    -0.269 OA
BRANCH  43  46
ATOM     46  C   UNL A   1      46.496  25.205  29.174  1.00  0.00     0.039 A 
ATOM     47  C   UNL A   1      45.235  24.593  29.227  1.00  0.00     0.014 A 
ATOM     48  C   UNL A   1      47.162  25.598  30.328  1.00  0.00     0.014 A 
ATOM     49  C   UNL A   1      44.541  24.581  30.427  1.00  0.00     0.010 A 
ATOM     50  C   UNL A   1      46.424  25.730  31.471  1.00  0.00     0.010 A 
ATOM     51  C   UNL A   1      45.111  25.250  31.502  1.00  0.00    -0.014 A 
BRANCH  51  52
ATOM     52  C   UNL A   1      44.465  25.458  32.775  1.00  0.00     0.031 A 
ATOM     53  C   UNL A   1      44.020  26.830  33.066  1.00  0.00     0.074 A 
ATOM     54  C   UNL A   1      44.111  24.365  33.481  1.00  0.00     0.049 A 
ATOM     55  N   UNL A   1      43.775  27.284  34.239  1.00  0.00    -0.248 NA
ATOM     56  C   UNL A   1      43.868  27.845  32.022  1.00  0.00     0.031 C 
ATOM     57  C   UNL A   1      43.128  24.250  34.548  1.00  0.00     0.029 A 
ATOM     58  N   UNL A   1      44.731  23.114  33.450  1.00  0.00    -0.354 N 
ATOM     59  C   UNL A   1      43.124  28.492  34.081  1.00  0.00     0.074 A 
ATOM     60  C   UNL A   1      43.325  28.855  32.704  1.00  0.00     0.031 C 
ATOM     61  C   UNL A   1      43.369  23.121  35.240  1.00  0.00     0.029 A 
ATOM     62  C   UNL A   1      44.616  22.562  34.737  1.00  0.00     0.049 A 
ATOM     63  H   UNL A   1      45.167  22.697  32.672  1.00  0.00     0.167 HD
ATOM     64  C   UNL A   1      42.333  28.933  35.100  1.00  0.00     0.037 A 
ATOM     65  C   UNL A   1      45.743  22.391  35.494  1.00  0.00     0.037 A 
ATOM     66  C   UNL A   1      42.408  27.981  36.208  1.00  0.00     0.049 A 
ATOM     67  C   UNL A   1      45.766  23.308  36.697  1.00  0.00     0.074 A 
ATOM     68  C   UNL A   1      41.606  26.903  36.542  1.00  0.00     0.029 A 
ATOM     69  N   UNL A   1      43.607  27.812  36.886  1.00  0.00    -0.354 N 
ATOM     70  N   UNL A   1      45.139  24.452  36.759  1.00  0.00    -0.248 NA
ATOM     71  C   UNL A   1      46.445  22.973  37.946  1.00  0.00     0.031 C 
ATOM     72  C   UNL A   1      42.358  26.045  37.381  1.00  0.00     0.029 A 
ATOM     73  C   UNL A   1      43.610  26.609  37.566  1.00  0.00     0.049 A 
ATOM     74  H   UNL A   1      44.351  28.458  36.885  1.00  0.00     0.167 HD
ATOM     75  C   UNL A   1      45.312  25.003  38.003  1.00  0.00     0.074 A 
ATOM     76  C   UNL A   1      46.128  24.033  38.711  1.00  0.00     0.031 C 
ATOM     77  C   UNL A   1      44.760  26.202  38.359  1.00  0.00     0.037 A 
BRANCH  64  78
ATOM     78  C   UNL A   1      41.257  29.997  34.998  1.00  0.00     0.058 A 
ATOM     79  C   UNL A   1      41.390  31.197  35.734  1.00  0.00     0.135 A 
ATOM     80  C   UNL A   1      40.073  29.909  34.240  1.00  0.00     0.135 A 
ATOM     81  F   UNL A   1      42.490  31.467  36.449  1.00  0.00    -0.206 F 
ATOM     82  C   UNL A   1      40.406  32.183  35.779  1.00  0.00     0.059 A 
ATOM     83  C   UNL A   1      39.053  30.868  34.295  1.00  0.00     0.059 A 
ATOM     84  F   UNL A   1      39.865  28.916  33.368  1.00  0.00    -0.206 F 
ATOM     85  C   UNL A   1      39.229  32.004  35.071  1.00  0.00     0.060 A 
BRANCH  85  86
ATOM     86  S   UNL A   1      37.975  33.294  35.150  1.00  0.00     0.124 S 
ATOM     87  O   UNL A   1      38.491  34.280  34.204  1.00  0.00    -0.237 OA
ATOM     88  O   UNL A   1      36.776  32.577  34.731  1.00  0.00    -0.237 OA
ATOM     89  O   UNL A   1      37.998  33.707  36.550  1.00  0.00    -0.744 OA
ENDBRANCH  85  86
ENDBRANCH  64  78
BRANCH  65  90
ATOM     90  C   UNL A   1      46.928  21.999  34.670  1.00  0.00     0.058 A 
ATOM     91  C   UNL A   1      47.973  22.940  34.554  1.00  0.00     0.135 A 
ATOM     92  C   UNL A   1      47.249  20.653  34.436  1.00  0.00     0.135 A 
ATOM     93  F   UNL A   1      47.720  24.247  34.742  1.00  0.00    -0.206 F 
ATOM     94  C   UNL A   1      49.300  22.551  34.402  1.00  0.00     0.059 A 
ATOM     95  C   UNL A   1      48.576  20.242  34.270  1.00  0.00     0.059 A 
ATOM     96  F   UNL A   1      46.303  19.707  34.516  1.00  0.00    -0.206 F 
ATOM     97  C   UNL A   1      49.597  21.193  34.330  1.00  0.00     0.060 A 
BRANCH  97  98
ATOM     98  S   UNL A   1      51.333  20.696  34.489  1.00  0.00     0.124 S 
ATOM     99  O   UNL A   1      51.745  21.425  35.682  1.00  0.00    -0.237 OA
ATOM    100  O   UNL A   1      51.224  19.243  34.639  1.00  0.00    -0.237 OA
ATOM    101  O   UNL A   1      51.926  21.149  33.238  1.00  0.00    -0.744 OA
ENDBRANCH  97  98
ENDBRANCH  65  90
BRANCH  77 102
ATOM    102  C   UNL A   1      45.159  27.049  39.550  1.00  0.00     0.058 A 
ATOM    103  C   UNL A   1      44.813  26.748  40.877  1.00  0.00     0.135 A 
ATOM    104  C   UNL A   1      46.048  28.146  39.394  1.00  0.00     0.135 A 
ATOM    105  F   UNL A   1      44.105  25.655  41.192  1.00  0.00    -0.206 F 
ATOM    106  C   UNL A   1      45.219  27.536  41.953  1.00  0.00     0.059 A 
ATOM    107  C   UNL A   1      46.528  28.896  40.461  1.00  0.00     0.059 A 
ATOM    108  F   UNL A   1      46.500  28.529  38.192  1.00  0.00    -0.206 F 
ATOM    109  C   UNL A   1      46.070  28.613  41.736  1.00  0.00     0.060 A 
BRANCH 109 110
ATOM    110  S   UNL A   1      46.589  29.625  43.127  1.00  0.00     0.124 S 
ATOM    111  O   UNL A   1      45.360  30.354  43.426  1.00  0.00    -0.237 OA
ATOM    112  O   UNL A   1      46.988  28.627  44.115  1.00  0.00    -0.237 OA
ATOM    113  O   UNL A   1      47.680  30.424  42.578  1.00  0.00    -0.744 OA
ENDBRANCH 109 110
ENDBRANCH  77 102
ENDBRANCH  51  52
ENDBRANCH  43  46
ENDBRANCH  41  42
ENDBRANCH  40  41
ENDBRANCH  39  40
ENDBRANCH  38  39
ENDBRANCH  37  38
ENDBRANCH   1  37
TORSDOF 23
ENDMDL
MODEL 2
REMARK VINA RESULT:     -10.8      6.610      9.998
REMARK SMILES Cc1ccc(S(=O)(=O)n2cc(C(=O)C(=O)NCC(=O)NCC(=O)NCCCCCCNC(=O)c3ccc(-c4c5nc(c(-c6c(F)cc(S(=O)(=O)[O-])cc6F)c6ccc([nH]6)c(-c6c(F)cc(S(=O)(=O)[O-])cc6F)c6nc(c(-c7c(F)cc(S(=O)(=O)[O-])cc7F)c7ccc4[nH]7)C=C6)C=C5)cc3)c3ccccc32)cc1
REMARK SMILES IDX 25 1 24 2 22 3 23 4 21 6 20 7 18 8 19 9 17 11 16 12 14 13
REMARK SMILES IDX 15 14 12 16 13 17 11 18 9 19 10 20 105 21 100 22 104 23
REMARK SMILES IDX 101 24 103 25 102 26 6 27 7 28 8 29 5 30 1 31 2 32 3 33
REMARK SMILES IDX 107 34 4 35 106 36 26 37 27 38 28 39 29 40 30 41 31 42 32 43
REMARK SMILES IDX 33 45 34 46 35 47 99 48 36 49 98 50 37 51 38 52 39 53 92 54
REMARK SMILES IDX 40 55 97 56 91 57 93 58 41 59 96 60 90 61 89 62 42 64 76 65
REMARK SMILES IDX 55 66 75 67 56 68 59 69 74 70 94 71 57 72 58 73 73 75 95 76
REMARK SMILES IDX 60 77 43 78 44 79 53 80 45 81 46 82 52 83 54 84 47 85 48 86
REMARK SMILES IDX 49 87 50 88 51 89 77 90 78 91 87 92 79 93 80 94 86 95 88 96
REMARK SMILES IDX 81 97 82 98 83 99 84 100 85 101 61 102 62 103 71 104 63 105
REMARK SMILES IDX 64 106 70 107 72 108 65 109 66 110 67 111 68 112 69 113
REMARK H PARENT 24 5 20 10 16 15 31 44 93 63 59 74
REMARK Flexibility Score: inf
ROOT
ATOM      1  C   UNL A   1      39.288  24.853  27.638  1.00  0.00     0.116 C 
ENDROOT
BRANCH   1   2
ATOM      2  N   UNL A   1      40.397  24.008  27.261  1.00  0.00    -0.355 N 
ATOM      3  C   UNL A   1      40.380  22.819  26.592  1.00  0.00     0.239 C 
ATOM      4  O   UNL A   1      41.448  22.393  26.142  1.00  0.00    -0.273 OA
ATOM      5  H   UNL A   1      41.287  24.335  27.524  1.00  0.00     0.163 HD
BRANCH   3   6
ATOM      6  C   UNL A   1      39.057  22.113  26.244  1.00  0.00     0.216 C 
BRANCH   6   7
ATOM      7  N   UNL A   1      38.291  22.714  25.166  1.00  0.00    -0.346 N 
ATOM      8  C   UNL A   1      37.138  22.319  24.559  1.00  0.00     0.239 C 
ATOM      9  O   UNL A   1      36.674  23.058  23.688  1.00  0.00    -0.273 OA
ATOM     10  H   UNL A   1      38.671  23.552  24.814  1.00  0.00     0.164 HD
BRANCH   8  11
ATOM     11  C   UNL A   1      36.379  21.050  24.986  1.00  0.00     0.216 C 
BRANCH  11  12
ATOM     12  N   UNL A   1      35.642  21.129  26.249  1.00  0.00    -0.340 N 
ATOM     13  C   UNL A   1      34.360  21.544  26.545  1.00  0.00     0.292 C 
ATOM     14  O   UNL A   1      33.991  21.543  27.715  1.00  0.00    -0.265 OA
ATOM     15  H   UNL A   1      36.158  20.831  27.033  1.00  0.00     0.164 HD
BRANCH  13  16
ATOM     16  C   UNL A   1      33.399  22.002  25.428  1.00  0.00     0.252 C 
ATOM     17  O   UNL A   1      32.808  21.129  24.797  1.00  0.00    -0.283 OA
BRANCH  16  18
ATOM     18  C   UNL A   1      33.162  23.415  25.099  1.00  0.00     0.054 A 
ATOM     19  N   UNL A   1      32.722  25.603  25.184  1.00  0.00    -0.240 N 
ATOM     20  C   UNL A   1      32.896  24.475  25.949  1.00  0.00     0.117 A 
ATOM     21  C   UNL A   1      32.872  25.327  23.841  1.00  0.00     0.065 A 
ATOM     22  C   UNL A   1      33.147  23.957  23.762  1.00  0.00     0.012 A 
ATOM     23  C   UNL A   1      32.763  26.126  22.687  1.00  0.00     0.028 A 
ATOM     24  C   UNL A   1      33.330  23.381  22.485  1.00  0.00     0.011 A 
ATOM     25  C   UNL A   1      32.922  25.517  21.438  1.00  0.00     0.002 A 
ATOM     26  C   UNL A   1      33.207  24.162  21.336  1.00  0.00     0.001 A 
BRANCH  19  27
ATOM     27  S   UNL A   1      32.258  27.121  25.810  1.00  0.00     0.268 S 
ATOM     28  O   UNL A   1      33.414  27.976  25.634  1.00  0.00    -0.201 OA
ATOM     29  O   UNL A   1      31.687  26.856  27.119  1.00  0.00    -0.201 OA
BRANCH  27  30
ATOM     30  C   UNL A   1      30.957  27.764  24.788  1.00  0.00     0.088 A 
ATOM     31  C   UNL A   1      28.081  29.470  22.078  1.00  0.00     0.044 C 
ATOM     32  C   UNL A   1      29.072  28.875  23.037  1.00  0.00    -0.051 A 
ATOM     33  C   UNL A   1      30.127  29.656  23.523  1.00  0.00     0.005 A 
ATOM     34  C   UNL A   1      28.952  27.546  23.460  1.00  0.00     0.005 A 
ATOM     35  C   UNL A   1      31.071  29.102  24.390  1.00  0.00     0.022 A 
ATOM     36  C   UNL A   1      29.883  26.992  24.343  1.00  0.00     0.022 A 
ENDBRANCH  27  30
ENDBRANCH  19  27
ENDBRANCH  16  18
ENDBRANCH  13  16
ENDBRANCH  11  12
ENDBRANCH   8  11
ENDBRANCH   6   7
ENDBRANCH   3   6
ENDBRANCH   1   2
BRANCH   1  37
ATOM     37  C   UNL A   1      39.654  25.943  28.634  1.00  0.00     0.021 C 
BRANCH  37  38
ATOM     38  C   UNL A   1      40.573  27.031  28.075  1.00  0.00     0.002 C 
BRANCH  38  39
ATOM     39  C   UNL A   1      39.896  28.133  27.241  1.00  0.00     0.002 C 
BRANCH  39  40
ATOM     40  C   UNL A   1      39.171  29.232  28.022  1.00  0.00     0.021 C 
BRANCH  40  41
ATOM     41  C   UNL A   1      37.739  28.888  28.389  1.00  0.00     0.116 C 
BRANCH  41  42
ATOM     42  N   UNL A   1      36.954  30.030  28.833  1.00  0.00    -0.352 N 
ATOM     43  C   UNL A   1      37.012  30.615  30.091  1.00  0.00     0.251 C 
ATOM     44  H   UNL A   1      36.329  30.424  28.183  1.00  0.00     0.163 HD
ATOM     45  O   UNL A   1      36.043  31.097  30.663  1.00  0.00    -0.269 OA
BRANCH  43  46
ATOM     46  C   UNL A   1      38.367  30.790  30.651  1.00  0.00     0.039 A 
ATOM     47  C   UNL A   1      38.728  29.980  31.737  1.00  0.00     0.014 A 
ATOM     48  C   UNL A   1      39.067  31.949  30.344  1.00  0.00     0.014 A 
ATOM     49  C   UNL A   1      39.655  30.453  32.652  1.00  0.00     0.010 A 
ATOM     50  C   UNL A   1      39.860  32.487  31.319  1.00  0.00     0.010 A 
ATOM     51  C   UNL A   1      40.121  31.749  32.478  1.00  0.00    -0.014 A 
BRANCH  51  52
ATOM     52  C   UNL A   1      40.974  32.448  33.410  1.00  0.00     0.031 A 
ATOM     53  C   UNL A   1      40.298  33.206  34.474  1.00  0.00     0.074 A 
ATOM     54  C   UNL A   1      42.292  32.165  33.381  1.00  0.00     0.049 A 
ATOM     55  N   UNL A   1      40.834  34.156  35.146  1.00  0.00    -0.248 NA
ATOM     56  C   UNL A   1      38.896  32.977  34.832  1.00  0.00     0.031 C 
ATOM     57  C   UNL A   1      43.293  32.385  34.414  1.00  0.00     0.029 A 
ATOM     58  N   UNL A   1      43.030  31.735  32.276  1.00  0.00    -0.354 N 
ATOM     59  C   UNL A   1      40.002  34.417  36.218  1.00  0.00     0.074 A 
ATOM     60  C   UNL A   1      38.761  33.759  35.905  1.00  0.00     0.031 C 
ATOM     61  C   UNL A   1      44.514  32.349  33.851  1.00  0.00     0.029 A 
ATOM     62  C   UNL A   1      44.324  32.266  32.409  1.00  0.00     0.049 A 
ATOM     63  H   UNL A   1      42.704  31.166  31.541  1.00  0.00     0.167 HD
ATOM     64  C   UNL A   1      40.543  35.002  37.324  1.00  0.00     0.037 A 
ATOM     65  C   UNL A   1      44.752  33.215  31.521  1.00  0.00     0.037 A 
ATOM     66  C   UNL A   1      41.958  35.274  37.073  1.00  0.00     0.049 A 
ATOM     67  C   UNL A   1      44.934  34.566  32.175  1.00  0.00     0.074 A 
ATOM     68  C   UNL A   1      43.095  34.536  37.358  1.00  0.00     0.029 A 
ATOM     69  N   UNL A   1      42.318  36.203  36.106  1.00  0.00    -0.354 N 
ATOM     70  N   UNL A   1      44.294  34.955  33.244  1.00  0.00    -0.248 NA
ATOM     71  C   UNL A   1      45.900  35.558  31.709  1.00  0.00     0.031 C 
ATOM     72  C   UNL A   1      44.131  34.987  36.505  1.00  0.00     0.029 A 
ATOM     73  C   UNL A   1      43.627  36.006  35.713  1.00  0.00     0.049 A 
ATOM     74  H   UNL A   1      41.724  36.904  35.751  1.00  0.00     0.167 HD
ATOM     75  C   UNL A   1      44.732  36.201  33.613  1.00  0.00     0.074 A 
ATOM     76  C   UNL A   1      45.744  36.529  32.626  1.00  0.00     0.031 C 
ATOM     77  C   UNL A   1      44.241  36.859  34.708  1.00  0.00     0.037 A 
BRANCH  64  78
ATOM     78  C   UNL A   1      39.931  35.026  38.710  1.00  0.00     0.058 A 
ATOM     79  C   UNL A   1      39.980  33.864  39.516  1.00  0.00     0.135 A 
ATOM     80  C   UNL A   1      39.261  36.115  39.303  1.00  0.00     0.135 A 
ATOM     81  F   UNL A   1      40.641  32.765  39.128  1.00  0.00    -0.206 F 
ATOM     82  C   UNL A   1      39.357  33.765  40.758  1.00  0.00     0.059 A 
ATOM     83  C   UNL A   1      38.597  36.030  40.534  1.00  0.00     0.059 A 
ATOM     84  F   UNL A   1      39.261  37.331  38.746  1.00  0.00    -0.206 F 
ATOM     85  C   UNL A   1      38.649  34.846  41.255  1.00  0.00     0.060 A 
BRANCH  85  86
ATOM     86  S   UNL A   1      37.852  34.687  42.862  1.00  0.00     0.124 S 
ATOM     87  O   UNL A   1      36.437  34.665  42.500  1.00  0.00    -0.237 OA
ATOM     88  O   UNL A   1      38.403  33.428  43.350  1.00  0.00    -0.237 OA
ATOM     89  O   UNL A   1      38.290  35.881  43.579  1.00  0.00    -0.744 OA
ENDBRANCH  85  86
ENDBRANCH  64  78
BRANCH  65  90
ATOM     90  C   UNL A   1      44.236  32.973  30.138  1.00  0.00     0.058 A 
ATOM     91  C   UNL A   1      43.249  33.858  29.655  1.00  0.00     0.135 A 
ATOM     92  C   UNL A   1      44.987  32.269  29.184  1.00  0.00     0.135 A 
ATOM     93  F   UNL A   1      42.482  34.541  30.522  1.00  0.00    -0.206 F 
ATOM     94  C   UNL A   1      43.138  34.171  28.304  1.00  0.00     0.059 A 
ATOM     95  C   UNL A   1      44.883  32.560  27.820  1.00  0.00     0.059 A 
ATOM     96  F   UNL A   1      45.932  31.402  29.573  1.00  0.00    -0.206 F 
ATOM     97  C   UNL A   1      44.008  33.565  27.402  1.00  0.00     0.060 A 
BRANCH  97  98
ATOM     98  S   UNL A   1      44.089  34.238  25.721  1.00  0.00     0.124 S 
ATOM     99  O   UNL A   1      45.405  34.866  25.713  1.00  0.00    -0.237 OA
ATOM    100  O   UNL A   1      43.956  33.032  24.900  1.00  0.00    -0.237 OA
ATOM    101  O   UNL A   1      42.956  35.152  25.672  1.00  0.00    -0.744 OA
ENDBRANCH  97  98
ENDBRANCH  65  90
BRANCH  77 102
ATOM    102  C   UNL A   1      44.393  38.337  35.001  1.00  0.00     0.058 A 
ATOM    103  C   UNL A   1      45.206  38.855  36.021  1.00  0.00     0.135 A 
ATOM    104  C   UNL A   1      43.811  39.310  34.144  1.00  0.00     0.135 A 
ATOM    105  F   UNL A   1      45.937  38.059  36.814  1.00  0.00    -0.206 F 
ATOM    106  C   UNL A   1      45.342  40.224  36.249  1.00  0.00     0.059 A 
ATOM    107  C   UNL A   1      43.999  40.677  34.305  1.00  0.00     0.059 A 
ATOM    108  F   UNL A   1      43.043  38.969  33.100  1.00  0.00    -0.206 F 
ATOM    109  C   UNL A   1      44.729  41.129  35.390  1.00  0.00     0.060 A 
BRANCH 109 110
ATOM    110  S   UNL A   1      44.908  42.892  35.688  1.00  0.00     0.124 S 
ATOM    111  O   UNL A   1      44.944  42.933  37.147  1.00  0.00    -0.237 OA
ATOM    112  O   UNL A   1      46.166  43.202  35.016  1.00  0.00    -0.237 OA
ATOM    113  O   UNL A   1      43.717  43.463  35.069  1.00  0.00    -0.744 OA
ENDBRANCH 109 110
ENDBRANCH  77 102
ENDBRANCH  51  52
ENDBRANCH  43  46
ENDBRANCH  41  42
ENDBRANCH  40  41
ENDBRANCH  39  40
ENDBRANCH  38  39
ENDBRANCH  37  38
ENDBRANCH   1  37
TORSDOF 23
ENDMDL
MODEL 3
REMARK VINA RESULT:     -10.7      1.898      3.882
REMARK SMILES Cc1ccc(S(=O)(=O)n2cc(C(=O)C(=O)NCC(=O)NCC(=O)NCCCCCCNC(=O)c3ccc(-c4c5nc(c(-c6c(F)cc(S(=O)(=O)[O-])cc6F)c6ccc([nH]6)c(-c6c(F)cc(S(=O)(=O)[O-])cc6F)c6nc(c(-c7c(F)cc(S(=O)(=O)[O-])cc7F)c7ccc4[nH]7)C=C6)C=C5)cc3)c3ccccc32)cc1
REMARK SMILES IDX 25 1 24 2 22 3 23 4 21 6 20 7 18 8 19 9 17 11 16 12 14 13
REMARK SMILES IDX 15 14 12 16 13 17 11 18 9 19 10 20 105 21 100 22 104 23
REMARK SMILES IDX 101 24 103 25 102 26 6 27 7 28 8 29 5 30 1 31 2 32 3 33
REMARK SMILES IDX 107 34 4 35 106 36 26 37 27 38 28 39 29 40 30 41 31 42 32 43
REMARK SMILES IDX 33 45 34 46 35 47 99 48 36 49 98 50 37 51 38 52 39 53 92 54
REMARK SMILES IDX 40 55 97 56 91 57 93 58 41 59 96 60 90 61 89 62 42 64 76 65
REMARK SMILES IDX 55 66 75 67 56 68 59 69 74 70 94 71 57 72 58 73 73 75 95 76
REMARK SMILES IDX 60 77 43 78 44 79 53 80 45 81 46 82 52 83 54 84 47 85 48 86
REMARK SMILES IDX 49 87 50 88 51 89 77 90 78 91 87 92 79 93 80 94 86 95 88 96
REMARK SMILES IDX 81 97 82 98 83 99 84 100 85 101 61 102 62 103 71 104 63 105
REMARK SMILES IDX 64 106 70 107 72 108 65 109 66 110 67 111 68 112 69 113
REMARK H PARENT 24 5 20 10 16 15 31 44 93 63 59 74
REMARK Flexibility Score: inf
ROOT
ATOM      1  C   UNL A   1      41.879  27.395  26.380  1.00  0.00     0.116 C 
ENDROOT
BRANCH   1   2
ATOM      2  N   UNL A   1      41.001  27.042  27.472  1.00  0.00    -0.355 N 
ATOM      3  C   UNL A   1      40.154  25.978  27.582  1.00  0.00     0.239 C 
ATOM      4  O   UNL A   1      39.693  25.718  28.697  1.00  0.00    -0.273 OA
ATOM      5  H   UNL A   1      41.017  27.654  28.243  1.00  0.00     0.163 HD
BRANCH   3   6
ATOM      6  C   UNL A   1      39.915  25.018  26.402  1.00  0.00     0.216 C 
BRANCH   6   7
ATOM      7  N   UNL A   1      40.523  23.705  26.531  1.00  0.00    -0.346 N 
ATOM      8  C   UNL A   1      39.983  22.458  26.453  1.00  0.00     0.239 C 
ATOM      9  O   UNL A   1      40.751  21.498  26.555  1.00  0.00    -0.273 OA
ATOM     10  H   UNL A   1      41.493  23.719  26.704  1.00  0.00     0.164 HD
BRANCH   8  11
ATOM     11  C   UNL A   1      38.489  22.227  26.162  1.00  0.00     0.216 C 
BRANCH  11  12
ATOM     12  N   UNL A   1      38.048  22.483  24.789  1.00  0.00    -0.340 N 
ATOM     13  C   UNL A   1      36.981  23.193  24.279  1.00  0.00     0.292 C 
ATOM     14  O   UNL A   1      36.815  23.226  23.065  1.00  0.00    -0.265 OA
ATOM     15  H   UNL A   1      38.621  22.071  24.102  1.00  0.00     0.164 HD
BRANCH  13  16
ATOM     16  C   UNL A   1      36.008  23.939  25.216  1.00  0.00     0.252 C 
ATOM     17  O   UNL A   1      36.493  24.713  26.036  1.00  0.00    -0.283 OA
BRANCH  16  18
ATOM     18  C   UNL A   1      34.549  23.767  25.163  1.00  0.00     0.054 A 
ATOM     19  N   UNL A   1      32.339  24.095  25.154  1.00  0.00    -0.240 N 
ATOM     20  C   UNL A   1      33.556  24.731  25.212  1.00  0.00     0.117 A 
ATOM     21  C   UNL A   1      32.491  22.728  25.061  1.00  0.00     0.065 A 
ATOM     22  C   UNL A   1      33.872  22.498  25.067  1.00  0.00     0.012 A 
ATOM     23  C   UNL A   1      31.566  21.668  25.006  1.00  0.00     0.028 A 
ATOM     24  C   UNL A   1      34.330  21.163  25.001  1.00  0.00     0.011 A 
ATOM     25  C   UNL A   1      32.055  20.359  24.970  1.00  0.00     0.002 A 
ATOM     26  C   UNL A   1      33.420  20.106  24.963  1.00  0.00     0.001 A 
BRANCH  19  27
ATOM     27  S   UNL A   1      30.837  24.890  25.304  1.00  0.00     0.268 S 
ATOM     28  O   UNL A   1      30.221  24.323  26.487  1.00  0.00    -0.201 OA
ATOM     29  O   UNL A   1      30.210  24.812  23.996  1.00  0.00    -0.201 OA
BRANCH  27  30
ATOM     30  C   UNL A   1      31.152  26.605  25.637  1.00  0.00     0.088 A 
ATOM     31  C   UNL A   1      32.221  30.647  26.656  1.00  0.00     0.044 C 
ATOM     32  C   UNL A   1      31.831  29.243  26.297  1.00  0.00    -0.051 A 
ATOM     33  C   UNL A   1      31.725  28.271  27.299  1.00  0.00     0.005 A 
ATOM     34  C   UNL A   1      31.563  28.889  24.969  1.00  0.00     0.005 A 
ATOM     35  C   UNL A   1      31.393  26.954  26.971  1.00  0.00     0.022 A 
ATOM     36  C   UNL A   1      31.212  27.578  24.637  1.00  0.00     0.022 A 
ENDBRANCH  27  30
ENDBRANCH  19  27
ENDBRANCH  16  18
ENDBRANCH  13  16
ENDBRANCH  11  12
ENDBRANCH   8  11
ENDBRANCH   6   7
ENDBRANCH   3   6
ENDBRANCH   1   2
BRANCH   1  37
ATOM     37  C   UNL A   1      43.335  27.021  26.615  1.00  0.00     0.021 C 
BRANCH  37  38
ATOM     38  C   UNL A   1      44.253  28.206  26.921  1.00  0.00     0.002 C 
BRANCH  38  39
ATOM     39  C   UNL A   1      44.508  28.503  28.410  1.00  0.00     0.002 C 
BRANCH  39  40
ATOM     40  C   UNL A   1      45.766  29.309  28.740  1.00  0.00     0.021 C 
BRANCH  40  41
ATOM     41  C   UNL A   1      47.015  28.464  28.909  1.00  0.00     0.116 C 
BRANCH  41  42
ATOM     42  N   UNL A   1      47.159  27.419  27.906  1.00  0.00    -0.352 N 
ATOM     43  C   UNL A   1      47.537  26.105  28.151  1.00  0.00     0.251 C 
ATOM     44  H   UNL A   1      46.970  27.665  26.973  1.00  0.00     0.163 HD
ATOM     45  O   UNL A   1      48.217  25.439  27.382  1.00  0.00    -0.269 OA
BRANCH  43  46
ATOM     46  C   UNL A   1      46.918  25.474  29.333  1.00  0.00     0.039 A 
ATOM     47  C   UNL A   1      45.561  25.131  29.248  1.00  0.00     0.014 A 
ATOM     48  C   UNL A   1      47.567  25.577  30.557  1.00  0.00     0.014 A 
ATOM     49  C   UNL A   1      44.796  25.114  30.404  1.00  0.00     0.010 A 
ATOM     50  C   UNL A   1      46.792  25.715  31.674  1.00  0.00     0.010 A 
ATOM     51  C   UNL A   1      45.410  25.514  31.583  1.00  0.00    -0.014 A 
BRANCH  51  52
ATOM     52  C   UNL A   1      44.731  25.692  32.844  1.00  0.00     0.031 A 
ATOM     53  C   UNL A   1      44.337  27.067  33.186  1.00  0.00     0.074 A 
ATOM     54  C   UNL A   1      44.308  24.584  33.485  1.00  0.00     0.049 A 
ATOM     55  N   UNL A   1      44.071  27.477  34.371  1.00  0.00    -0.248 NA
ATOM     56  C   UNL A   1      44.263  28.135  32.186  1.00  0.00     0.031 C 
ATOM     57  C   UNL A   1      43.285  24.464  34.514  1.00  0.00     0.029 A 
ATOM     58  N   UNL A   1      44.874  23.310  33.415  1.00  0.00    -0.354 N 
ATOM     59  C   UNL A   1      43.478  28.719  34.250  1.00  0.00     0.074 A 
ATOM     60  C   UNL A   1      43.741  29.136  32.898  1.00  0.00     0.031 C 
ATOM     61  C   UNL A   1      43.454  23.295  35.159  1.00  0.00     0.029 A 
ATOM     62  C   UNL A   1      44.693  22.705  34.669  1.00  0.00     0.049 A 
ATOM     63  H   UNL A   1      45.318  22.910  32.632  1.00  0.00     0.167 HD
ATOM     64  C   UNL A   1      42.673  29.147  35.263  1.00  0.00     0.037 A 
ATOM     65  C   UNL A   1      45.785  22.450  35.453  1.00  0.00     0.037 A 
ATOM     66  C   UNL A   1      42.670  28.143  36.326  1.00  0.00     0.049 A 
ATOM     67  C   UNL A   1      45.806  23.308  36.699  1.00  0.00     0.074 A 
ATOM     68  C   UNL A   1      41.811  27.087  36.583  1.00  0.00     0.029 A 
ATOM     69  N   UNL A   1      43.837  27.889  37.033  1.00  0.00    -0.354 N 
ATOM     70  N   UNL A   1      45.227  24.474  36.795  1.00  0.00    -0.248 NA
ATOM     71  C   UNL A   1      46.428  22.886  37.951  1.00  0.00     0.031 C 
ATOM     72  C   UNL A   1      42.497  26.159  37.403  1.00  0.00     0.029 A 
ATOM     73  C   UNL A   1      43.766  26.658  37.655  1.00  0.00     0.049 A 
ATOM     74  H   UNL A   1      44.607  28.501  37.086  1.00  0.00     0.167 HD
ATOM     75  C   UNL A   1      45.381  24.959  38.068  1.00  0.00     0.074 A 
ATOM     76  C   UNL A   1      46.131  23.923  38.755  1.00  0.00     0.031 C 
ATOM     77  C   UNL A   1      44.869  26.164  38.464  1.00  0.00     0.037 A 
BRANCH  64  78
ATOM     78  C   UNL A   1      41.648  30.261  35.177  1.00  0.00     0.058 A 
ATOM     79  C   UNL A   1      41.667  31.303  36.134  1.00  0.00     0.135 A 
ATOM     80  C   UNL A   1      40.613  30.365  34.226  1.00  0.00     0.135 A 
ATOM     81  F   UNL A   1      42.628  31.389  37.063  1.00  0.00    -0.206 F 
ATOM     82  C   UNL A   1      40.704  32.309  36.192  1.00  0.00     0.059 A 
ATOM     83  C   UNL A   1      39.614  31.346  34.283  1.00  0.00     0.059 A 
ATOM     84  F   UNL A   1      40.548  29.556  33.163  1.00  0.00    -0.206 F 
ATOM     85  C   UNL A   1      39.667  32.315  35.273  1.00  0.00     0.060 A 
BRANCH  85  86
ATOM     86  S   UNL A   1      38.438  33.627  35.375  1.00  0.00     0.124 S 
ATOM     87  O   UNL A   1      38.356  33.857  36.815  1.00  0.00    -0.237 OA
ATOM     88  O   UNL A   1      39.064  34.690  34.596  1.00  0.00    -0.237 OA
ATOM     89  O   UNL A   1      37.250  33.028  34.774  1.00  0.00    -0.744 OA
ENDBRANCH  85  86
ENDBRANCH  64  78
BRANCH  65  90
ATOM     90  C   UNL A   1      46.979  22.044  34.649  1.00  0.00     0.058 A 
ATOM     91  C   UNL A   1      48.039  22.970  34.557  1.00  0.00     0.135 A 
ATOM     92  C   UNL A   1      47.285  20.694  34.416  1.00  0.00     0.135 A 
ATOM     93  F   UNL A   1      47.801  24.279  34.746  1.00  0.00    -0.206 F 
ATOM     94  C   UNL A   1      49.364  22.563  34.428  1.00  0.00     0.059 A 
ATOM     95  C   UNL A   1      48.609  20.265  34.273  1.00  0.00     0.059 A 
ATOM     96  F   UNL A   1      46.324  19.762  34.474  1.00  0.00    -0.206 F 
ATOM     97  C   UNL A   1      49.642  21.201  34.355  1.00  0.00     0.060 A 
BRANCH  97  98
ATOM     98  S   UNL A   1      51.367  20.678  34.544  1.00  0.00     0.124 S 
ATOM     99  O   UNL A   1      51.940  21.063  33.260  1.00  0.00    -0.237 OA
ATOM    100  O   UNL A   1      51.804  21.470  35.697  1.00  0.00    -0.237 OA
ATOM    101  O   UNL A   1      51.258  19.245  34.781  1.00  0.00    -0.744 OA
ENDBRANCH  97  98
ENDBRANCH  65  90
BRANCH  77 102
ATOM    102  C   UNL A   1      45.264  26.936  39.705  1.00  0.00     0.058 A 
ATOM    103  C   UNL A   1      44.702  26.722  40.974  1.00  0.00     0.135 A 
ATOM    104  C   UNL A   1      46.353  27.847  39.677  1.00  0.00     0.135 A 
ATOM    105  F   UNL A   1      43.769  25.783  41.183  1.00  0.00    -0.206 F 
ATOM    106  C   UNL A   1      45.107  27.434  42.102  1.00  0.00     0.059 A 
ATOM    107  C   UNL A   1      46.825  28.508  40.805  1.00  0.00     0.059 A 
ATOM    108  F   UNL A   1      47.019  28.124  38.546  1.00  0.00    -0.206 F 
ATOM    109  C   UNL A   1      46.164  28.331  42.008  1.00  0.00     0.060 A 
BRANCH 109 110
ATOM    110  S   UNL A   1      46.680  29.246  43.465  1.00  0.00     0.124 S 
ATOM    111  O   UNL A   1      48.085  29.503  43.160  1.00  0.00    -0.237 OA
ATOM    112  O   UNL A   1      45.804  30.414  43.435  1.00  0.00    -0.237 OA
ATOM    113  O   UNL A   1      46.431  28.313  44.558  1.00  0.00    -0.744 OA
ENDBRANCH 109 110
ENDBRANCH  77 102
ENDBRANCH  51  52
ENDBRANCH  43  46
ENDBRANCH  41  42
ENDBRANCH  40  41
ENDBRANCH  39  40
ENDBRANCH  38  39
ENDBRANCH  37  38
ENDBRANCH   1  37
TORSDOF 23
ENDMDL
