MODEL 1
REMARK VINA RESULT:     -10.8      0.000      0.000
REMARK SMILES CCOC(=O)[C@H](C)NC(=O)N1CC[C@H](C(=O)NCCCCCCNC(=O)c2ccc(-c3c4nc(c(-c5c(F)cc(S(=O)(=O)[O-])cc5F)c5ccc([nH]5)c(-c5c(F)cc(S(=O)(=O)[O-])cc5F)c5nc(c(-c6c(F)cc(S(=O)(=O)[O-])cc6F)c6ccc3[nH]6)C=C5)C=C4)cc2)[C@@H]1C
REMARK SMILES IDX 19 1 18 2 17 3 15 4 16 5 14 7 11 8 12 9 93 10 13 11 94 12
REMARK SMILES IDX 9 13 8 14 10 16 6 17 7 18 4 19 5 20 3 21 2 22 1 23 20 24
REMARK SMILES IDX 21 25 22 26 23 27 24 28 25 29 26 31 27 32 28 33 92 34 29 35
REMARK SMILES IDX 91 36 30 37 31 38 32 39 85 40 33 41 90 42 84 43 86 44 34 45
REMARK SMILES IDX 89 46 83 47 82 48 35 50 69 51 48 52 68 53 49 54 52 55 67 56
REMARK SMILES IDX 87 57 50 58 51 59 66 61 88 62 53 63 36 64 37 65 46 66 38 67
REMARK SMILES IDX 39 68 45 69 47 70 40 71 41 72 42 73 43 74 44 75 70 76 71 77
REMARK SMILES IDX 80 78 72 79 73 80 79 81 81 82 74 83 75 84 76 85 77 86 78 87
REMARK SMILES IDX 54 88 55 89 64 90 56 91 57 92 63 93 65 94 58 95 59 96 60 97
REMARK SMILES IDX 61 98 62 99
REMARK H PARENT 17 6 8 15 24 30 86 49 52 60
REMARK Flexibility Score: inf
ROOT
ATOM      1  C   UNL A   1      32.726  28.600  27.247  1.00  0.00     0.021 C 
ENDROOT
BRANCH   1   2
ATOM      2  C   UNL A   1      31.512  27.726  26.945  1.00  0.00     0.116 C 
BRANCH   2   3
ATOM      3  N   UNL A   1      31.048  27.934  25.586  1.00  0.00    -0.356 N 
ATOM      4  C   UNL A   1      30.976  27.082  24.528  1.00  0.00     0.225 C 
ATOM      5  O   UNL A   1      30.562  27.523  23.457  1.00  0.00    -0.275 OA
ATOM      6  H   UNL A   1      30.731  28.847  25.397  1.00  0.00     0.163 HD
BRANCH   4   7
ATOM      7  C   UNL A   1      31.317  25.619  24.724  1.00  0.00     0.102 C 
ATOM      8  N   UNL A   1      32.857  24.218  23.586  1.00  0.00    -0.321 N 
ATOM      9  C   UNL A   1      31.741  24.416  22.686  1.00  0.00     0.122 C 
ATOM     10  C   UNL A   1      32.811  25.237  24.642  1.00  0.00     0.096 C 
ATOM     11  C   UNL A   1      30.620  24.797  23.626  1.00  0.00     0.037 C 
ATOM     12  C   UNL A   1      33.805  26.368  24.383  1.00  0.00     0.032 C 
BRANCH   8  13
ATOM     13  C   UNL A   1      33.868  23.390  23.222  1.00  0.00     0.318 C 
ATOM     14  N   UNL A   1      33.798  22.071  23.470  1.00  0.00    -0.325 N 
ATOM     15  H   UNL A   1      34.673  21.620  23.480  1.00  0.00     0.166 HD
ATOM     16  O   UNL A   1      34.856  23.797  22.609  1.00  0.00    -0.249 OA
BRANCH  14  17
ATOM     17  C   UNL A   1      32.668  21.180  23.728  1.00  0.00     0.190 C 
ATOM     18  C   UNL A   1      32.035  20.715  22.423  1.00  0.00     0.043 C 
BRANCH  17  19
ATOM     19  C   UNL A   1      33.193  19.988  24.526  1.00  0.00     0.328 C 
ATOM     20  O   UNL A   1      34.374  19.795  24.794  1.00  0.00    -0.250 OA
BRANCH  19  21
ATOM     21  O   UNL A   1      32.175  19.138  24.844  1.00  0.00    -0.464 OA
BRANCH  21  22
ATOM     22  C   UNL A   1      32.484  17.742  24.710  1.00  0.00     0.229 C 
ATOM     23  C   UNL A   1      33.089  17.453  23.346  1.00  0.00     0.049 C 
ENDBRANCH  21  22
ENDBRANCH  19  21
ENDBRANCH  17  19
ENDBRANCH  14  17
ENDBRANCH   8  13
ENDBRANCH   4   7
ENDBRANCH   2   3
ENDBRANCH   1   2
BRANCH   1  24
ATOM     24  C   UNL A   1      32.477  30.100  27.050  1.00  0.00     0.002 C 
BRANCH  24  25
ATOM     25  C   UNL A   1      33.716  30.987  27.211  1.00  0.00     0.002 C 
BRANCH  25  26
ATOM     26  C   UNL A   1      34.844  30.373  28.043  1.00  0.00     0.021 C 
BRANCH  26  27
ATOM     27  C   UNL A   1      35.705  31.389  28.785  1.00  0.00     0.116 C 
BRANCH  27  28
ATOM     28  N   UNL A   1      35.627  31.217  30.227  1.00  0.00    -0.352 N 
ATOM     29  C   UNL A   1      36.474  30.535  31.063  1.00  0.00     0.251 C 
ATOM     30  H   UNL A   1      34.858  31.650  30.664  1.00  0.00     0.163 HD
ATOM     31  O   UNL A   1      36.143  30.317  32.226  1.00  0.00    -0.269 OA
BRANCH  29  32
ATOM     32  C   UNL A   1      37.773  30.047  30.553  1.00  0.00     0.039 A 
ATOM     33  C   UNL A   1      38.097  30.257  29.212  1.00  0.00     0.014 A 
ATOM     34  C   UNL A   1      38.669  29.386  31.400  1.00  0.00     0.014 A 
ATOM     35  C   UNL A   1      39.346  29.855  28.733  1.00  0.00     0.010 A 
ATOM     36  C   UNL A   1      39.941  29.058  30.940  1.00  0.00     0.010 A 
ATOM     37  C   UNL A   1      40.292  29.284  29.601  1.00  0.00    -0.014 A 
BRANCH  37  38
ATOM     38  C   UNL A   1      41.652  28.922  29.125  1.00  0.00     0.031 A 
ATOM     39  C   UNL A   1      42.728  29.971  29.041  1.00  0.00     0.074 A 
ATOM     40  C   UNL A   1      41.899  27.664  28.709  1.00  0.00     0.049 A 
ATOM     41  N   UNL A   1      43.953  29.862  28.592  1.00  0.00    -0.248 NA
ATOM     42  C   UNL A   1      42.375  31.327  29.493  1.00  0.00     0.031 C 
ATOM     43  C   UNL A   1      40.924  26.572  28.693  1.00  0.00     0.029 A 
ATOM     44  N   UNL A   1      43.042  27.091  28.208  1.00  0.00    -0.354 N 
ATOM     45  C   UNL A   1      44.509  31.133  28.693  1.00  0.00     0.074 A 
ATOM     46  C   UNL A   1      43.473  32.008  29.198  1.00  0.00     0.031 C 
ATOM     47  C   UNL A   1      41.513  25.461  28.224  1.00  0.00     0.029 A 
ATOM     48  C   UNL A   1      42.894  25.767  27.867  1.00  0.00     0.049 A 
ATOM     49  H   UNL A   1      43.889  27.583  28.103  1.00  0.00     0.167 HD
ATOM     50  C   UNL A   1      45.773  31.528  28.412  1.00  0.00     0.037 A 
ATOM     51  C   UNL A   1      43.765  24.901  27.314  1.00  0.00     0.037 A 
ATOM     52  C   UNL A   1      46.806  30.643  27.936  1.00  0.00     0.049 A 
ATOM     53  C   UNL A   1      45.166  25.364  27.013  1.00  0.00     0.074 A 
ATOM     54  C   UNL A   1      48.136  30.931  27.689  1.00  0.00     0.029 A 
ATOM     55  N   UNL A   1      46.623  29.303  27.627  1.00  0.00    -0.354 N 
ATOM     56  N   UNL A   1      45.696  26.551  27.189  1.00  0.00    -0.248 NA
ATOM     57  C   UNL A   1      46.089  24.371  26.446  1.00  0.00     0.031 C 
ATOM     58  C   UNL A   1      48.745  29.782  27.176  1.00  0.00     0.029 A 
ATOM     59  C   UNL A   1      47.811  28.760  27.164  1.00  0.00     0.049 A 
ATOM     60  H   UNL A   1      45.777  28.811  27.723  1.00  0.00     0.167 HD
ATOM     61  C   UNL A   1      47.022  26.439  26.783  1.00  0.00     0.074 A 
ATOM     62  C   UNL A   1      47.215  25.065  26.365  1.00  0.00     0.031 C 
ATOM     63  C   UNL A   1      47.991  27.387  26.758  1.00  0.00     0.037 A 
BRANCH  50  64
ATOM     64  C   UNL A   1      46.118  32.980  28.606  1.00  0.00     0.058 A 
ATOM     65  C   UNL A   1      45.971  33.922  27.576  1.00  0.00     0.135 A 
ATOM     66  C   UNL A   1      46.549  33.446  29.859  1.00  0.00     0.135 A 
ATOM     67  F   UNL A   1      45.578  33.532  26.353  1.00  0.00    -0.206 F 
ATOM     68  C   UNL A   1      46.262  35.269  27.773  1.00  0.00     0.059 A 
ATOM     69  C   UNL A   1      46.815  34.793  30.088  1.00  0.00     0.059 A 
ATOM     70  F   UNL A   1      46.709  32.590  30.881  1.00  0.00    -0.206 F 
ATOM     71  C   UNL A   1      46.681  35.695  29.034  1.00  0.00     0.060 A 
BRANCH  71  72
ATOM     72  S   UNL A   1      47.035  37.448  29.277  1.00  0.00     0.124 S 
ATOM     73  O   UNL A   1      47.436  37.853  27.934  1.00  0.00    -0.237 OA
ATOM     74  O   UNL A   1      45.749  37.964  29.737  1.00  0.00    -0.237 OA
ATOM     75  O   UNL A   1      48.099  37.446  30.275  1.00  0.00    -0.744 OA
ENDBRANCH  71  72
ENDBRANCH  50  64
BRANCH  51  76
ATOM     76  C   UNL A   1      43.340  23.506  27.015  1.00  0.00     0.058 A 
ATOM     77  C   UNL A   1      43.191  22.556  28.036  1.00  0.00     0.135 A 
ATOM     78  C   UNL A   1      43.072  23.097  25.699  1.00  0.00     0.135 A 
ATOM     79  F   UNL A   1      43.442  22.896  29.310  1.00  0.00    -0.206 F 
ATOM     80  C   UNL A   1      42.813  21.245  27.764  1.00  0.00     0.059 A 
ATOM     81  C   UNL A   1      42.662  21.800  25.405  1.00  0.00     0.059 A 
ATOM     82  F   UNL A   1      43.180  23.970  24.686  1.00  0.00    -0.206 F 
ATOM     83  C   UNL A   1      42.548  20.877  26.444  1.00  0.00     0.060 A 
BRANCH  83  84
ATOM     84  S   UNL A   1      42.019  19.185  26.105  1.00  0.00     0.124 S 
ATOM     85  O   UNL A   1      42.829  18.852  24.938  1.00  0.00    -0.237 OA
ATOM     86  O   UNL A   1      42.371  18.500  27.344  1.00  0.00    -0.237 OA
ATOM     87  O   UNL A   1      40.586  19.325  25.859  1.00  0.00    -0.744 OA
ENDBRANCH  83  84
ENDBRANCH  51  76
BRANCH  63  88
ATOM     88  C   UNL A   1      49.364  26.969  26.302  1.00  0.00     0.058 A 
ATOM     89  C   UNL A   1      50.296  26.400  27.182  1.00  0.00     0.135 A 
ATOM     90  C   UNL A   1      49.728  27.092  24.951  1.00  0.00     0.135 A 
ATOM     91  F   UNL A   1      50.001  26.266  28.485  1.00  0.00    -0.206 F 
ATOM     92  C   UNL A   1      51.551  25.988  26.745  1.00  0.00     0.059 A 
ATOM     93  C   UNL A   1      50.965  26.657  24.485  1.00  0.00     0.059 A 
ATOM     94  F   UNL A   1      48.870  27.619  24.063  1.00  0.00    -0.206 F 
ATOM     95  C   UNL A   1      51.874  26.116  25.393  1.00  0.00     0.060 A 
BRANCH  95  96
ATOM     96  S   UNL A   1      53.492  25.544  24.833  1.00  0.00     0.124 S 
ATOM     97  O   UNL A   1      53.435  24.125  25.167  1.00  0.00    -0.237 OA
ATOM     98  O   UNL A   1      53.458  25.862  23.409  1.00  0.00    -0.237 OA
ATOM     99  O   UNL A   1      54.427  26.339  25.624  1.00  0.00    -0.744 OA
ENDBRANCH  95  96
ENDBRANCH  63  88
ENDBRANCH  37  38
ENDBRANCH  29  32
ENDBRANCH  27  28
ENDBRANCH  26  27
ENDBRANCH  25  26
ENDBRANCH  24  25
ENDBRANCH   1  24
TORSDOF 21
ENDMDL
MODEL 2
REMARK VINA RESULT:     -10.1      6.474     10.796
REMARK SMILES CCOC(=O)[C@H](C)NC(=O)N1CC[C@H](C(=O)NCCCCCCNC(=O)c2ccc(-c3c4nc(c(-c5c(F)cc(S(=O)(=O)[O-])cc5F)c5ccc([nH]5)c(-c5c(F)cc(S(=O)(=O)[O-])cc5F)c5nc(c(-c6c(F)cc(S(=O)(=O)[O-])cc6F)c6ccc3[nH]6)C=C5)C=C4)cc2)[C@@H]1C
REMARK SMILES IDX 19 1 18 2 17 3 15 4 16 5 14 7 11 8 12 9 93 10 13 11 94 12
REMARK SMILES IDX 9 13 8 14 10 16 6 17 7 18 4 19 5 20 3 21 2 22 1 23 20 24
REMARK SMILES IDX 21 25 22 26 23 27 24 28 25 29 26 31 27 32 28 33 92 34 29 35
REMARK SMILES IDX 91 36 30 37 31 38 32 39 85 40 33 41 90 42 84 43 86 44 34 45
REMARK SMILES IDX 89 46 83 47 82 48 35 50 69 51 48 52 68 53 49 54 52 55 67 56
REMARK SMILES IDX 87 57 50 58 51 59 66 61 88 62 53 63 36 64 37 65 46 66 38 67
REMARK SMILES IDX 39 68 45 69 47 70 40 71 41 72 42 73 43 74 44 75 70 76 71 77
REMARK SMILES IDX 80 78 72 79 73 80 79 81 81 82 74 83 75 84 76 85 77 86 78 87
REMARK SMILES IDX 54 88 55 89 64 90 56 91 57 92 63 93 65 94 58 95 59 96 60 97
REMARK SMILES IDX 61 98 62 99
REMARK H PARENT 17 6 8 15 24 30 86 49 52 60
REMARK Flexibility Score: inf
ROOT
ATOM      1  C   UNL A   1      33.884  29.750  27.597  1.00  0.00     0.021 C 
ENDROOT
BRANCH   1   2
ATOM      2  C   UNL A   1      32.841  28.748  27.108  1.00  0.00     0.116 C 
BRANCH   2   3
ATOM      3  N   UNL A   1      32.002  29.335  26.079  1.00  0.00    -0.356 N 
ATOM      4  C   UNL A   1      31.438  28.787  24.969  1.00  0.00     0.225 C 
ATOM      5  O   UNL A   1      30.781  29.521  24.232  1.00  0.00    -0.275 OA
ATOM      6  H   UNL A   1      31.807  30.292  26.205  1.00  0.00     0.163 HD
BRANCH   4   7
ATOM      7  C   UNL A   1      31.559  27.297  24.728  1.00  0.00     0.102 C 
ATOM      8  N   UNL A   1      32.256  26.085  22.811  1.00  0.00    -0.321 N 
ATOM      9  C   UNL A   1      30.934  26.593  22.516  1.00  0.00     0.122 C 
ATOM     10  C   UNL A   1      32.808  26.817  23.958  1.00  0.00     0.096 C 
ATOM     11  C   UNL A   1      30.354  26.830  23.893  1.00  0.00     0.037 C 
ATOM     12  C   UNL A   1      33.810  27.886  23.521  1.00  0.00     0.032 C 
BRANCH   8  13
ATOM     13  C   UNL A   1      32.879  25.285  21.910  1.00  0.00     0.318 C 
ATOM     14  N   UNL A   1      33.091  23.985  22.177  1.00  0.00    -0.325 N 
ATOM     15  H   UNL A   1      33.813  23.581  21.643  1.00  0.00     0.166 HD
ATOM     16  O   UNL A   1      33.226  25.697  20.802  1.00  0.00    -0.249 OA
BRANCH  14  17
ATOM     17  C   UNL A   1      32.454  23.059  23.111  1.00  0.00     0.190 C 
ATOM     18  C   UNL A   1      32.166  21.723  22.439  1.00  0.00     0.043 C 
BRANCH  17  19
ATOM     19  C   UNL A   1      33.400  22.872  24.295  1.00  0.00     0.328 C 
ATOM     20  O   UNL A   1      33.445  23.611  25.274  1.00  0.00    -0.250 OA
BRANCH  19  21
ATOM     21  O   UNL A   1      34.227  21.810  24.085  1.00  0.00    -0.464 OA
BRANCH  21  22
ATOM     22  C   UNL A   1      35.605  22.034  24.428  1.00  0.00     0.229 C 
ATOM     23  C   UNL A   1      36.263  22.969  23.428  1.00  0.00     0.049 C 
ENDBRANCH  21  22
ENDBRANCH  19  21
ENDBRANCH  17  19
ENDBRANCH  14  17
ENDBRANCH   8  13
ENDBRANCH   4   7
ENDBRANCH   2   3
ENDBRANCH   1   2
BRANCH   1  24
ATOM     24  C   UNL A   1      33.547  31.208  27.269  1.00  0.00     0.002 C 
BRANCH  24  25
ATOM     25  C   UNL A   1      34.436  32.248  27.959  1.00  0.00     0.002 C 
BRANCH  25  26
ATOM     26  C   UNL A   1      33.768  33.005  29.109  1.00  0.00     0.021 C 
BRANCH  26  27
ATOM     27  C   UNL A   1      33.741  34.519  28.936  1.00  0.00     0.116 C 
BRANCH  27  28
ATOM     28  N   UNL A   1      32.934  35.168  29.958  1.00  0.00    -0.352 N 
ATOM     29  C   UNL A   1      33.078  35.137  31.321  1.00  0.00     0.251 C 
ATOM     30  H   UNL A   1      32.179  35.704  29.623  1.00  0.00     0.163 HD
ATOM     31  O   UNL A   1      32.184  35.572  32.042  1.00  0.00    -0.269 OA
BRANCH  29  32
ATOM     32  C   UNL A   1      34.302  34.559  31.918  1.00  0.00     0.039 A 
ATOM     33  C   UNL A   1      34.212  33.350  32.610  1.00  0.00     0.014 A 
ATOM     34  C   UNL A   1      35.533  35.209  31.790  1.00  0.00     0.014 A 
ATOM     35  C   UNL A   1      35.369  32.763  33.125  1.00  0.00     0.010 A 
ATOM     36  C   UNL A   1      36.694  34.583  32.236  1.00  0.00     0.010 A 
ATOM     37  C   UNL A   1      36.625  33.356  32.913  1.00  0.00    -0.014 A 
BRANCH  37  38
ATOM     38  C   UNL A   1      37.873  32.705  33.388  1.00  0.00     0.031 A 
ATOM     39  C   UNL A   1      38.499  31.594  32.587  1.00  0.00     0.074 A 
ATOM     40  C   UNL A   1      38.407  33.071  34.570  1.00  0.00     0.049 A 
ATOM     41  N   UNL A   1      39.548  30.865  32.869  1.00  0.00    -0.248 NA
ATOM     42  C   UNL A   1      37.845  31.237  31.317  1.00  0.00     0.031 C 
ATOM     43  C   UNL A   1      37.863  34.098  35.462  1.00  0.00     0.029 A 
ATOM     44  N   UNL A   1      39.518  32.614  35.234  1.00  0.00    -0.354 N 
ATOM     45  C   UNL A   1      39.670  29.955  31.825  1.00  0.00     0.074 A 
ATOM     46  C   UNL A   1      38.559  30.191  30.927  1.00  0.00     0.031 C 
ATOM     47  C   UNL A   1      38.649  34.204  36.544  1.00  0.00     0.029 A 
ATOM     48  C   UNL A   1      39.729  33.228  36.448  1.00  0.00     0.049 A 
ATOM     49  H   UNL A   1      40.109  31.913  34.875  1.00  0.00     0.167 HD
ATOM     50  C   UNL A   1      40.632  29.025  31.622  1.00  0.00     0.037 A 
ATOM     51  C   UNL A   1      40.675  33.018  37.384  1.00  0.00     0.037 A 
ATOM     52  C   UNL A   1      41.750  28.816  32.506  1.00  0.00     0.049 A 
ATOM     53  C   UNL A   1      41.735  31.978  37.133  1.00  0.00     0.074 A 
ATOM     54  C   UNL A   1      42.816  27.947  32.352  1.00  0.00     0.029 A 
ATOM     55  N   UNL A   1      41.942  29.474  33.712  1.00  0.00    -0.354 N 
ATOM     56  N   UNL A   1      41.878  31.182  36.101  1.00  0.00    -0.248 NA
ATOM     57  C   UNL A   1      42.766  31.814  38.167  1.00  0.00     0.031 C 
ATOM     58  C   UNL A   1      43.622  28.038  33.491  1.00  0.00     0.029 A 
ATOM     59  C   UNL A   1      43.094  29.009  34.325  1.00  0.00     0.049 A 
ATOM     60  H   UNL A   1      41.349  30.170  34.077  1.00  0.00     0.167 HD
ATOM     61  C   UNL A   1      43.032  30.443  36.348  1.00  0.00     0.074 A 
ATOM     62  C   UNL A   1      43.553  30.899  37.621  1.00  0.00     0.031 C 
ATOM     63  C   UNL A   1      43.606  29.477  35.590  1.00  0.00     0.037 A 
BRANCH  50  64
ATOM     64  C   UNL A   1      40.525  28.155  30.397  1.00  0.00     0.058 A 
ATOM     65  C   UNL A   1      41.393  28.303  29.304  1.00  0.00     0.135 A 
ATOM     66  C   UNL A   1      39.576  27.121  30.341  1.00  0.00     0.135 A 
ATOM     67  F   UNL A   1      42.310  29.284  29.295  1.00  0.00    -0.206 F 
ATOM     68  C   UNL A   1      41.309  27.474  28.189  1.00  0.00     0.059 A 
ATOM     69  C   UNL A   1      39.494  26.260  29.250  1.00  0.00     0.059 A 
ATOM     70  F   UNL A   1      38.719  26.934  31.358  1.00  0.00    -0.206 F 
ATOM     71  C   UNL A   1      40.357  26.454  28.173  1.00  0.00     0.060 A 
BRANCH  71  72
ATOM     72  S   UNL A   1      40.274  25.376  26.728  1.00  0.00     0.124 S 
ATOM     73  O   UNL A   1      40.782  26.255  25.680  1.00  0.00    -0.237 OA
ATOM     74  O   UNL A   1      41.151  24.274  27.110  1.00  0.00    -0.237 OA
ATOM     75  O   UNL A   1      38.857  25.042  26.632  1.00  0.00    -0.744 OA
ENDBRANCH  71  72
ENDBRANCH  50  64
BRANCH  51  76
ATOM     76  C   UNL A   1      40.665  33.812  38.643  1.00  0.00     0.058 A 
ATOM     77  C   UNL A   1      39.881  33.426  39.740  1.00  0.00     0.135 A 
ATOM     78  C   UNL A   1      41.444  34.972  38.774  1.00  0.00     0.135 A 
ATOM     79  F   UNL A   1      39.113  32.328  39.662  1.00  0.00    -0.206 F 
ATOM     80  C   UNL A   1      39.850  34.172  40.914  1.00  0.00     0.059 A 
ATOM     81  C   UNL A   1      41.455  35.718  39.949  1.00  0.00     0.059 A 
ATOM     82  F   UNL A   1      42.227  35.376  37.763  1.00  0.00    -0.206 F 
ATOM     83  C   UNL A   1      40.644  35.316  41.009  1.00  0.00     0.060 A 
BRANCH  83  84
ATOM     84  S   UNL A   1      40.629  36.255  42.551  1.00  0.00     0.124 S 
ATOM     85  O   UNL A   1      41.853  37.040  42.429  1.00  0.00    -0.237 OA
ATOM     86  O   UNL A   1      39.379  36.999  42.445  1.00  0.00    -0.237 OA
ATOM     87  O   UNL A   1      40.647  35.216  43.577  1.00  0.00    -0.744 OA
ENDBRANCH  83  84
ENDBRANCH  51  76
BRANCH  63  88
ATOM     88  C   UNL A   1      44.889  28.869  36.092  1.00  0.00     0.058 A 
ATOM     89  C   UNL A   1      44.900  27.713  36.887  1.00  0.00     0.135 A 
ATOM     90  C   UNL A   1      46.126  29.422  35.723  1.00  0.00     0.135 A 
ATOM     91  F   UNL A   1      43.745  27.147  37.274  1.00  0.00    -0.206 F 
ATOM     92  C   UNL A   1      46.092  27.140  37.320  1.00  0.00     0.059 A 
ATOM     93  C   UNL A   1      47.330  28.848  36.116  1.00  0.00     0.059 A 
ATOM     94  F   UNL A   1      46.174  30.521  34.953  1.00  0.00    -0.206 F 
ATOM     95  C   UNL A   1      47.302  27.713  36.925  1.00  0.00     0.060 A 
BRANCH  95  96
ATOM     96  S   UNL A   1      48.841  26.938  37.464  1.00  0.00     0.124 S 
ATOM     97  O   UNL A   1      48.498  25.522  37.394  1.00  0.00    -0.237 OA
ATOM     98  O   UNL A   1      49.793  27.410  36.464  1.00  0.00    -0.237 OA
ATOM     99  O   UNL A   1      49.038  27.470  38.809  1.00  0.00    -0.744 OA
ENDBRANCH  95  96
ENDBRANCH  63  88
ENDBRANCH  37  38
ENDBRANCH  29  32
ENDBRANCH  27  28
ENDBRANCH  26  27
ENDBRANCH  25  26
ENDBRANCH  24  25
ENDBRANCH   1  24
TORSDOF 21
ENDMDL
MODEL 3
REMARK VINA RESULT:      -9.9      1.451      8.239
REMARK SMILES CCOC(=O)[C@H](C)NC(=O)N1CC[C@H](C(=O)NCCCCCCNC(=O)c2ccc(-c3c4nc(c(-c5c(F)cc(S(=O)(=O)[O-])cc5F)c5ccc([nH]5)c(-c5c(F)cc(S(=O)(=O)[O-])cc5F)c5nc(c(-c6c(F)cc(S(=O)(=O)[O-])cc6F)c6ccc3[nH]6)C=C5)C=C4)cc2)[C@@H]1C
REMARK SMILES IDX 19 1 18 2 17 3 15 4 16 5 14 7 11 8 12 9 93 10 13 11 94 12
REMARK SMILES IDX 9 13 8 14 10 16 6 17 7 18 4 19 5 20 3 21 2 22 1 23 20 24
REMARK SMILES IDX 21 25 22 26 23 27 24 28 25 29 26 31 27 32 28 33 92 34 29 35
REMARK SMILES IDX 91 36 30 37 31 38 32 39 85 40 33 41 90 42 84 43 86 44 34 45
REMARK SMILES IDX 89 46 83 47 82 48 35 50 69 51 48 52 68 53 49 54 52 55 67 56
REMARK SMILES IDX 87 57 50 58 51 59 66 61 88 62 53 63 36 64 37 65 46 66 38 67
REMARK SMILES IDX 39 68 45 69 47 70 40 71 41 72 42 73 43 74 44 75 70 76 71 77
REMARK SMILES IDX 80 78 72 79 73 80 79 81 81 82 74 83 75 84 76 85 77 86 78 87
REMARK SMILES IDX 54 88 55 89 64 90 56 91 57 92 63 93 65 94 58 95 59 96 60 97
REMARK SMILES IDX 61 98 62 99
REMARK H PARENT 17 6 8 15 24 30 86 49 52 60
REMARK Flexibility Score: inf
ROOT
ATOM      1  C   UNL A   1      34.009  28.796  26.425  1.00  0.00     0.021 C 
ENDROOT
BRANCH   1   2
ATOM      2  C   UNL A   1      32.559  28.723  26.896  1.00  0.00     0.116 C 
BRANCH   2   3
ATOM      3  N   UNL A   1      31.643  28.866  25.779  1.00  0.00    -0.356 N 
ATOM      4  C   UNL A   1      31.285  27.990  24.802  1.00  0.00     0.225 C 
ATOM      5  O   UNL A   1      30.495  28.375  23.941  1.00  0.00    -0.275 OA
ATOM      6  H   UNL A   1      31.205  29.746  25.718  1.00  0.00     0.163 HD
BRANCH   4   7
ATOM      7  C   UNL A   1      31.792  26.564  24.855  1.00  0.00     0.102 C 
ATOM      8  N   UNL A   1      32.404  25.068  23.119  1.00  0.00    -0.321 N 
ATOM      9  C   UNL A   1      30.960  25.146  23.101  1.00  0.00     0.122 C 
ATOM     10  C   UNL A   1      32.939  26.198  23.888  1.00  0.00     0.096 C 
ATOM     11  C   UNL A   1      30.636  25.613  24.502  1.00  0.00     0.037 C 
ATOM     12  C   UNL A   1      33.462  27.309  22.977  1.00  0.00     0.032 C 
BRANCH   8  13
ATOM     13  C   UNL A   1      33.036  24.220  22.268  1.00  0.00     0.318 C 
ATOM     14  N   UNL A   1      33.498  23.033  22.700  1.00  0.00    -0.325 N 
ATOM     15  H   UNL A   1      34.204  22.650  22.132  1.00  0.00     0.166 HD
ATOM     16  O   UNL A   1      33.166  24.474  21.070  1.00  0.00    -0.249 OA
BRANCH  14  17
ATOM     17  C   UNL A   1      33.149  22.206  23.853  1.00  0.00     0.190 C 
ATOM     18  C   UNL A   1      32.456  20.923  23.410  1.00  0.00     0.043 C 
BRANCH  17  19
ATOM     19  C   UNL A   1      34.442  21.887  24.601  1.00  0.00     0.328 C 
ATOM     20  O   UNL A   1      34.980  20.785  24.622  1.00  0.00    -0.250 OA
BRANCH  19  21
ATOM     21  O   UNL A   1      34.879  22.980  25.290  1.00  0.00    -0.464 OA
BRANCH  21  22
ATOM     22  C   UNL A   1      36.099  23.559  24.799  1.00  0.00     0.229 C 
ATOM     23  C   UNL A   1      36.798  22.610  23.840  1.00  0.00     0.049 C 
ENDBRANCH  21  22
ENDBRANCH  19  21
ENDBRANCH  17  19
ENDBRANCH  14  17
ENDBRANCH   8  13
ENDBRANCH   4   7
ENDBRANCH   2   3
ENDBRANCH   1   2
BRANCH   1  24
ATOM     24  C   UNL A   1      34.991  29.257  27.508  1.00  0.00     0.002 C 
BRANCH  24  25
ATOM     25  C   UNL A   1      35.174  30.775  27.611  1.00  0.00     0.002 C 
BRANCH  25  26
ATOM     26  C   UNL A   1      35.880  31.254  28.881  1.00  0.00     0.021 C 
BRANCH  26  27
ATOM     27  C   UNL A   1      36.087  30.172  29.934  1.00  0.00     0.116 C 
BRANCH  27  28
ATOM     28  N   UNL A   1      36.196  30.730  31.273  1.00  0.00    -0.352 N 
ATOM     29  C   UNL A   1      37.295  30.808  32.089  1.00  0.00     0.251 C 
ATOM     30  H   UNL A   1      35.365  31.105  31.644  1.00  0.00     0.163 HD
ATOM     31  O   UNL A   1      37.160  31.123  33.269  1.00  0.00    -0.269 OA
BRANCH  29  32
ATOM     32  C   UNL A   1      38.635  30.491  31.551  1.00  0.00     0.039 A 
ATOM     33  C   UNL A   1      39.429  29.556  32.218  1.00  0.00     0.014 A 
ATOM     34  C   UNL A   1      39.103  31.113  30.389  1.00  0.00     0.014 A 
ATOM     35  C   UNL A   1      40.671  29.202  31.686  1.00  0.00     0.010 A 
ATOM     36  C   UNL A   1      40.305  30.701  29.820  1.00  0.00     0.010 A 
ATOM     37  C   UNL A   1      41.105  29.745  30.465  1.00  0.00    -0.014 A 
BRANCH  37  38
ATOM     38  C   UNL A   1      42.388  29.321  29.847  1.00  0.00     0.031 A 
ATOM     39  C   UNL A   1      42.508  27.963  29.210  1.00  0.00     0.074 A 
ATOM     40  C   UNL A   1      43.460  30.134  29.916  1.00  0.00     0.049 A 
ATOM     41  N   UNL A   1      43.559  27.391  28.679  1.00  0.00    -0.248 NA
ATOM     42  C   UNL A   1      41.299  27.124  29.193  1.00  0.00     0.031 C 
ATOM     43  C   UNL A   1      43.483  31.452  30.554  1.00  0.00     0.029 A 
ATOM     44  N   UNL A   1      44.744  29.969  29.458  1.00  0.00    -0.354 N 
ATOM     45  C   UNL A   1      43.142  26.126  28.280  1.00  0.00     0.074 A 
ATOM     46  C   UNL A   1      41.757  25.993  28.676  1.00  0.00     0.031 C 
ATOM     47  C   UNL A   1      44.710  31.982  30.431  1.00  0.00     0.029 A 
ATOM     48  C   UNL A   1      45.575  31.028  29.744  1.00  0.00     0.049 A 
ATOM     49  H   UNL A   1      45.042  29.168  28.969  1.00  0.00     0.167 HD
ATOM     50  C   UNL A   1      43.845  25.172  27.624  1.00  0.00     0.037 A 
ATOM     51  C   UNL A   1      46.887  31.205  29.497  1.00  0.00     0.037 A 
ATOM     52  C   UNL A   1      45.216  25.325  27.209  1.00  0.00     0.049 A 
ATOM     53  C   UNL A   1      47.645  30.129  28.765  1.00  0.00     0.074 A 
ATOM     54  C   UNL A   1      45.994  24.445  26.477  1.00  0.00     0.029 A 
ATOM     55  N   UNL A   1      46.015  26.421  27.495  1.00  0.00    -0.354 N 
ATOM     56  N   UNL A   1      47.213  28.971  28.326  1.00  0.00    -0.248 NA
ATOM     57  C   UNL A   1      49.065  30.387  28.485  1.00  0.00     0.031 C 
ATOM     58  C   UNL A   1      47.280  24.983  26.370  1.00  0.00     0.029 A 
ATOM     59  C   UNL A   1      47.286  26.226  26.980  1.00  0.00     0.049 A 
ATOM     60  H   UNL A   1      45.723  27.220  27.990  1.00  0.00     0.167 HD
ATOM     61  C   UNL A   1      48.299  28.375  27.693  1.00  0.00     0.074 A 
ATOM     62  C   UNL A   1      49.404  29.308  27.795  1.00  0.00     0.031 C 
ATOM     63  C   UNL A   1      48.376  27.167  27.083  1.00  0.00     0.037 A 
BRANCH  50  64
ATOM     64  C   UNL A   1      43.150  23.874  27.312  1.00  0.00     0.058 A 
ATOM     65  C   UNL A   1      43.132  22.805  28.222  1.00  0.00     0.135 A 
ATOM     66  C   UNL A   1      42.444  23.717  26.108  1.00  0.00     0.135 A 
ATOM     67  F   UNL A   1      43.802  22.892  29.383  1.00  0.00    -0.206 F 
ATOM     68  C   UNL A   1      42.459  21.619  27.941  1.00  0.00     0.059 A 
ATOM     69  C   UNL A   1      41.739  22.552  25.818  1.00  0.00     0.059 A 
ATOM     70  F   UNL A   1      42.429  24.705  25.199  1.00  0.00    -0.206 F 
ATOM     71  C   UNL A   1      41.764  21.504  26.736  1.00  0.00     0.060 A 
BRANCH  71  72
ATOM     72  S   UNL A   1      40.882  19.966  26.395  1.00  0.00     0.124 S 
ATOM     73  O   UNL A   1      39.634  20.466  25.827  1.00  0.00    -0.237 OA
ATOM     74  O   UNL A   1      41.779  19.294  25.461  1.00  0.00    -0.237 OA
ATOM     75  O   UNL A   1      40.766  19.341  27.709  1.00  0.00    -0.744 OA
ENDBRANCH  71  72
ENDBRANCH  50  64
BRANCH  51  76
ATOM     76  C   UNL A   1      47.567  32.452  29.942  1.00  0.00     0.058 A 
ATOM     77  C   UNL A   1      48.210  32.525  31.187  1.00  0.00     0.135 A 
ATOM     78  C   UNL A   1      47.590  33.595  29.128  1.00  0.00     0.135 A 
ATOM     79  F   UNL A   1      48.211  31.461  32.005  1.00  0.00    -0.206 F 
ATOM     80  C   UNL A   1      48.831  33.692  31.620  1.00  0.00     0.059 A 
ATOM     81  C   UNL A   1      48.232  34.764  29.525  1.00  0.00     0.059 A 
ATOM     82  F   UNL A   1      47.007  33.574  27.920  1.00  0.00    -0.206 F 
ATOM     83  C   UNL A   1      48.839  34.807  30.779  1.00  0.00     0.060 A 
BRANCH  83  84
ATOM     84  S   UNL A   1      49.683  36.304  31.332  1.00  0.00     0.124 S 
ATOM     85  O   UNL A   1      50.214  36.823  30.076  1.00  0.00    -0.237 OA
ATOM     86  O   UNL A   1      48.592  37.067  31.929  1.00  0.00    -0.237 OA
ATOM     87  O   UNL A   1      50.676  35.799  32.276  1.00  0.00    -0.744 OA
ENDBRANCH  83  84
ENDBRANCH  51  76
BRANCH  63  88
ATOM     88  C   UNL A   1      49.684  26.792  26.439  1.00  0.00     0.058 A 
ATOM     89  C   UNL A   1      50.628  25.986  27.094  1.00  0.00     0.135 A 
ATOM     90  C   UNL A   1      49.971  27.203  25.127  1.00  0.00     0.135 A 
ATOM     91  F   UNL A   1      50.407  25.572  28.352  1.00  0.00    -0.206 F 
ATOM     92  C   UNL A   1      51.821  25.619  26.479  1.00  0.00     0.059 A 
ATOM     93  C   UNL A   1      51.142  26.821  24.481  1.00  0.00     0.059 A 
ATOM     94  F   UNL A   1      49.097  27.966  24.450  1.00  0.00    -0.206 F 
ATOM     95  C   UNL A   1      52.067  26.038  25.170  1.00  0.00     0.060 A 
BRANCH  95  96
ATOM     96  S   UNL A   1      53.602  25.524  24.372  1.00  0.00     0.124 S 
ATOM     97  O   UNL A   1      53.674  24.117  24.751  1.00  0.00    -0.237 OA
ATOM     98  O   UNL A   1      53.324  25.788  22.964  1.00  0.00    -0.237 OA
ATOM     99  O   UNL A   1      54.609  26.390  24.980  1.00  0.00    -0.744 OA
ENDBRANCH  95  96
ENDBRANCH  63  88
ENDBRANCH  37  38
ENDBRANCH  29  32
ENDBRANCH  27  28
ENDBRANCH  26  27
ENDBRANCH  25  26
ENDBRANCH  24  25
ENDBRANCH   1  24
TORSDOF 21
ENDMDL
