MODEL 1
REMARK VINA RESULT:     -10.9      0.000      0.000
REMARK SMILES CC(C)(C)[NH2+]Cc1ccn(CC(C)(C)C(=O)NCCCCCCNC(=O)c2ccc(-c3c4nc(c(-c5c(F)cc(S(=O)(=O)[O-])cc5F)c5ccc([nH]5)c(-c5c(F)cc(S(=O)(=O)[O-])cc5F)c5nc(c(-c6c(F)cc(S(=O)(=O)[O-])cc6F)c6ccc3[nH]6)C=C5)C=C4)cc2)c1
REMARK SMILES IDX 19 1 18 2 17 3 15 4 16 5 12 7 13 8 14 9 11 10 10 11 7 12
REMARK SMILES IDX 8 13 93 14 9 15 6 16 5 17 2 20 1 21 3 22 4 23 20 24 21 25
REMARK SMILES IDX 22 26 23 27 24 28 25 29 26 31 27 32 28 33 92 34 29 35 91 36
REMARK SMILES IDX 30 37 31 38 32 39 85 40 33 41 90 42 84 43 86 44 34 45 89 46
REMARK SMILES IDX 83 47 82 48 35 50 69 51 48 52 68 53 49 54 52 55 67 56 87 57
REMARK SMILES IDX 50 58 51 59 66 61 88 62 53 63 36 64 37 65 46 66 38 67 39 68
REMARK SMILES IDX 45 69 47 70 40 71 41 72 42 73 43 74 44 75 70 76 71 77 80 78
REMARK SMILES IDX 72 79 73 80 79 81 81 82 74 83 75 84 76 85 77 86 78 87 54 88
REMARK SMILES IDX 55 89 64 90 56 91 57 92 63 93 65 94 58 95 59 96 60 97 61 98
REMARK SMILES IDX 62 99
REMARK H PARENT 17 6 5 18 5 19 24 30 86 49 52 60
REMARK Flexibility Score: inf
ROOT
ATOM      1  C   UNL A   1      35.014  24.515  24.691  1.00  0.00     0.021 C 
ENDROOT
BRANCH   1   2
ATOM      2  C   UNL A   1      33.751  25.359  24.505  1.00  0.00     0.116 C 
BRANCH   2   3
ATOM      3  N   UNL A   1      33.210  25.756  25.788  1.00  0.00    -0.356 N 
ATOM      4  C   UNL A   1      31.927  25.742  26.239  1.00  0.00     0.227 C 
ATOM      5  O   UNL A   1      31.627  26.653  27.011  1.00  0.00    -0.274 OA
ATOM      6  H   UNL A   1      33.874  26.090  26.434  1.00  0.00     0.163 HD
BRANCH   4   7
ATOM      7  C   UNL A   1      30.870  24.747  25.743  1.00  0.00     0.061 C 
ATOM      8  C   UNL A   1      30.953  24.462  24.237  1.00  0.00     0.023 C 
ATOM      9  C   UNL A   1      29.496  25.351  26.097  1.00  0.00     0.023 C 
BRANCH   7  10
ATOM     10  C   UNL A   1      30.992  23.401  26.545  1.00  0.00     0.137 C 
BRANCH  10  11
ATOM     11  N   UNL A   1      32.237  22.646  26.470  1.00  0.00    -0.353 N 
ATOM     12  C   UNL A   1      33.634  21.067  25.739  1.00  0.00     0.024 A 
ATOM     13  C   UNL A   1      34.061  21.513  27.020  1.00  0.00     0.029 A 
ATOM     14  C   UNL A   1      32.646  21.955  25.354  1.00  0.00     0.095 A 
ATOM     15  C   UNL A   1      33.233  22.547  27.404  1.00  0.00     0.086 A 
BRANCH  12  16
ATOM     16  C   UNL A   1      34.168  19.913  24.954  1.00  0.00     0.299 C 
BRANCH  16  17
ATOM     17  N   UNL A   1      33.131  18.904  24.714  1.00  0.00    -0.338 N 
ATOM     18  H   UNL A   1      32.579  18.836  25.569  1.00  0.00     0.347 HD
ATOM     19  H   UNL A   1      32.652  19.245  23.881  1.00  0.00     0.347 HD
BRANCH  17  20
ATOM     20  C   UNL A   1      33.527  17.528  24.346  1.00  0.00     0.088 C 
ATOM     21  C   UNL A   1      33.305  17.185  22.864  1.00  0.00     0.078 C 
ATOM     22  C   UNL A   1      32.856  16.468  25.221  1.00  0.00     0.078 C 
ATOM     23  C   UNL A   1      35.035  17.421  24.650  1.00  0.00     0.078 C 
ENDBRANCH  17  20
ENDBRANCH  16  17
ENDBRANCH  12  16
ENDBRANCH  10  11
ENDBRANCH   7  10
ENDBRANCH   4   7
ENDBRANCH   2   3
ENDBRANCH   1   2
BRANCH   1  24
ATOM     24  C   UNL A   1      35.273  23.500  23.573  1.00  0.00     0.002 C 
BRANCH  24  25
ATOM     25  C   UNL A   1      36.704  22.954  23.508  1.00  0.00     0.002 C 
BRANCH  25  26
ATOM     26  C   UNL A   1      37.136  22.109  24.716  1.00  0.00     0.021 C 
BRANCH  26  27
ATOM     27  C   UNL A   1      37.957  22.884  25.749  1.00  0.00     0.116 C 
BRANCH  27  28
ATOM     28  N   UNL A   1      39.281  22.304  25.876  1.00  0.00    -0.352 N 
ATOM     29  C   UNL A   1      40.477  22.896  26.185  1.00  0.00     0.251 C 
ATOM     30  H   UNL A   1      39.327  21.334  25.717  1.00  0.00     0.163 HD
ATOM     31  O   UNL A   1      41.513  22.319  25.873  1.00  0.00    -0.269 OA
BRANCH  29  32
ATOM     32  C   UNL A   1      40.547  24.205  26.872  1.00  0.00     0.039 A 
ATOM     33  C   UNL A   1      39.813  24.348  28.057  1.00  0.00     0.014 A 
ATOM     34  C   UNL A   1      41.212  25.307  26.322  1.00  0.00     0.014 A 
ATOM     35  C   UNL A   1      39.783  25.574  28.713  1.00  0.00     0.010 A 
ATOM     36  C   UNL A   1      41.193  26.535  26.982  1.00  0.00     0.010 A 
ATOM     37  C   UNL A   1      40.494  26.662  28.188  1.00  0.00    -0.014 A 
BRANCH  37  38
ATOM     38  C   UNL A   1      40.671  27.856  29.050  1.00  0.00     0.031 A 
ATOM     39  C   UNL A   1      41.940  27.705  29.936  1.00  0.00     0.074 A 
ATOM     40  C   UNL A   1      39.708  28.832  28.973  1.00  0.00     0.049 A 
ATOM     41  N   UNL A   1      42.221  28.207  31.099  1.00  0.00    -0.248 NA
ATOM     42  C   UNL A   1      43.036  26.788  29.494  1.00  0.00     0.031 C 
ATOM     43  C   UNL A   1      38.580  28.833  28.010  1.00  0.00     0.029 A 
ATOM     44  N   UNL A   1      39.461  30.007  29.660  1.00  0.00    -0.354 N 
ATOM     45  C   UNL A   1      43.565  27.871  31.411  1.00  0.00     0.074 A 
ATOM     46  C   UNL A   1      43.965  26.895  30.448  1.00  0.00     0.031 C 
ATOM     47  C   UNL A   1      37.744  29.873  28.232  1.00  0.00     0.029 A 
ATOM     48  C   UNL A   1      38.237  30.672  29.336  1.00  0.00     0.049 A 
ATOM     49  H   UNL A   1      40.089  30.364  30.330  1.00  0.00     0.167 HD
ATOM     50  C   UNL A   1      44.298  28.523  32.366  1.00  0.00     0.037 A 
ATOM     51  C   UNL A   1      37.652  31.760  29.944  1.00  0.00     0.037 A 
ATOM     52  C   UNL A   1      43.484  29.519  32.974  1.00  0.00     0.049 A 
ATOM     53  C   UNL A   1      38.671  32.249  30.878  1.00  0.00     0.074 A 
ATOM     54  C   UNL A   1      42.433  29.427  33.844  1.00  0.00     0.029 A 
ATOM     55  N   UNL A   1      43.495  30.762  32.387  1.00  0.00    -0.354 N 
ATOM     56  N   UNL A   1      39.753  32.875  30.526  1.00  0.00    -0.248 NA
ATOM     57  C   UNL A   1      38.517  31.949  32.308  1.00  0.00     0.031 C 
ATOM     58  C   UNL A   1      41.555  30.421  33.375  1.00  0.00     0.029 A 
ATOM     59  C   UNL A   1      42.210  31.235  32.442  1.00  0.00     0.049 A 
ATOM     60  H   UNL A   1      44.275  31.222  32.002  1.00  0.00     0.167 HD
ATOM     61  C   UNL A   1      40.546  32.718  31.633  1.00  0.00     0.074 A 
ATOM     62  C   UNL A   1      39.658  32.469  32.751  1.00  0.00     0.031 C 
ATOM     63  C   UNL A   1      41.804  32.233  31.480  1.00  0.00     0.037 A 
BRANCH  50  64
ATOM     64  C   UNL A   1      45.766  28.572  32.713  1.00  0.00     0.058 A 
ATOM     65  C   UNL A   1      46.678  28.915  31.678  1.00  0.00     0.135 A 
ATOM     66  C   UNL A   1      46.327  27.960  33.841  1.00  0.00     0.135 A 
ATOM     67  F   UNL A   1      46.261  29.582  30.587  1.00  0.00    -0.206 F 
ATOM     68  C   UNL A   1      48.011  28.523  31.684  1.00  0.00     0.059 A 
ATOM     69  C   UNL A   1      47.680  27.598  33.890  1.00  0.00     0.059 A 
ATOM     70  F   UNL A   1      45.567  27.628  34.893  1.00  0.00    -0.206 F 
ATOM     71  C   UNL A   1      48.495  27.826  32.781  1.00  0.00     0.060 A 
BRANCH  71  72
ATOM     72  S   UNL A   1      50.186  27.196  32.708  1.00  0.00     0.124 S 
ATOM     73  O   UNL A   1      50.001  25.801  33.093  1.00  0.00    -0.237 OA
ATOM     74  O   UNL A   1      50.541  27.423  31.310  1.00  0.00    -0.237 OA
ATOM     75  O   UNL A   1      50.896  28.031  33.670  1.00  0.00    -0.744 OA
ENDBRANCH  71  72
ENDBRANCH  50  64
BRANCH  51  76
ATOM     76  C   UNL A   1      36.318  32.498  30.000  1.00  0.00     0.058 A 
ATOM     77  C   UNL A   1      35.356  32.415  31.013  1.00  0.00     0.135 A 
ATOM     78  C   UNL A   1      36.031  33.503  29.024  1.00  0.00     0.135 A 
ATOM     79  F   UNL A   1      35.392  31.427  31.916  1.00  0.00    -0.206 F 
ATOM     80  C   UNL A   1      34.314  33.361  31.147  1.00  0.00     0.059 A 
ATOM     81  C   UNL A   1      35.053  34.484  29.165  1.00  0.00     0.059 A 
ATOM     82  F   UNL A   1      36.729  33.607  27.884  1.00  0.00    -0.206 F 
ATOM     83  C   UNL A   1      34.216  34.433  30.258  1.00  0.00     0.060 A 
BRANCH  83  84
ATOM     84  S   UNL A   1      33.117  35.831  30.586  1.00  0.00     0.124 S 
ATOM     85  O   UNL A   1      32.195  35.276  31.569  1.00  0.00    -0.237 OA
ATOM     86  O   UNL A   1      34.041  36.847  31.080  1.00  0.00    -0.237 OA
ATOM     87  O   UNL A   1      32.540  36.118  29.274  1.00  0.00    -0.744 OA
ENDBRANCH  83  84
ENDBRANCH  51  76
BRANCH  63  88
ATOM     88  C   UNL A   1      42.444  32.518  30.130  1.00  0.00     0.058 A 
ATOM     89  C   UNL A   1      42.846  31.448  29.312  1.00  0.00     0.135 A 
ATOM     90  C   UNL A   1      42.753  33.802  29.647  1.00  0.00     0.135 A 
ATOM     91  F   UNL A   1      42.588  30.186  29.688  1.00  0.00    -0.206 F 
ATOM     92  C   UNL A   1      43.510  31.641  28.095  1.00  0.00     0.059 A 
ATOM     93  C   UNL A   1      43.410  34.026  28.431  1.00  0.00     0.059 A 
ATOM     94  F   UNL A   1      42.428  34.888  30.348  1.00  0.00    -0.206 F 
ATOM     95  C   UNL A   1      43.785  32.934  27.658  1.00  0.00     0.060 A 
BRANCH  95  96
ATOM     96  S   UNL A   1      44.601  33.165  26.060  1.00  0.00     0.124 S 
ATOM     97  O   UNL A   1      44.855  31.793  25.634  1.00  0.00    -0.237 OA
ATOM     98  O   UNL A   1      43.583  33.884  25.299  1.00  0.00    -0.237 OA
ATOM     99  O   UNL A   1      45.794  33.942  26.388  1.00  0.00    -0.744 OA
ENDBRANCH  95  96
ENDBRANCH  63  88
ENDBRANCH  37  38
ENDBRANCH  29  32
ENDBRANCH  27  28
ENDBRANCH  26  27
ENDBRANCH  25  26
ENDBRANCH  24  25
ENDBRANCH   1  24
TORSDOF 21
ENDMDL
MODEL 2
REMARK VINA RESULT:     -10.8      1.658      2.388
REMARK SMILES CC(C)(C)[NH2+]Cc1ccn(CC(C)(C)C(=O)NCCCCCCNC(=O)c2ccc(-c3c4nc(c(-c5c(F)cc(S(=O)(=O)[O-])cc5F)c5ccc([nH]5)c(-c5c(F)cc(S(=O)(=O)[O-])cc5F)c5nc(c(-c6c(F)cc(S(=O)(=O)[O-])cc6F)c6ccc3[nH]6)C=C5)C=C4)cc2)c1
REMARK SMILES IDX 19 1 18 2 17 3 15 4 16 5 12 7 13 8 14 9 11 10 10 11 7 12
REMARK SMILES IDX 8 13 93 14 9 15 6 16 5 17 2 20 1 21 3 22 4 23 20 24 21 25
REMARK SMILES IDX 22 26 23 27 24 28 25 29 26 31 27 32 28 33 92 34 29 35 91 36
REMARK SMILES IDX 30 37 31 38 32 39 85 40 33 41 90 42 84 43 86 44 34 45 89 46
REMARK SMILES IDX 83 47 82 48 35 50 69 51 48 52 68 53 49 54 52 55 67 56 87 57
REMARK SMILES IDX 50 58 51 59 66 61 88 62 53 63 36 64 37 65 46 66 38 67 39 68
REMARK SMILES IDX 45 69 47 70 40 71 41 72 42 73 43 74 44 75 70 76 71 77 80 78
REMARK SMILES IDX 72 79 73 80 79 81 81 82 74 83 75 84 76 85 77 86 78 87 54 88
REMARK SMILES IDX 55 89 64 90 56 91 57 92 63 93 65 94 58 95 59 96 60 97 61 98
REMARK SMILES IDX 62 99
REMARK H PARENT 17 6 5 18 5 19 24 30 86 49 52 60
REMARK Flexibility Score: inf
ROOT
ATOM      1  C   UNL A   1      35.366  23.892  25.107  1.00  0.00     0.021 C 
ENDROOT
BRANCH   1   2
ATOM      2  C   UNL A   1      34.526  25.163  24.968  1.00  0.00     0.116 C 
BRANCH   2   3
ATOM      3  N   UNL A   1      33.491  25.204  25.980  1.00  0.00    -0.356 N 
ATOM      4  C   UNL A   1      32.176  25.534  25.874  1.00  0.00     0.227 C 
ATOM      5  O   UNL A   1      31.693  26.102  26.854  1.00  0.00    -0.274 OA
ATOM      6  H   UNL A   1      33.786  24.955  26.886  1.00  0.00     0.163 HD
BRANCH   4   7
ATOM      7  C   UNL A   1      31.357  25.338  24.592  1.00  0.00     0.061 C 
ATOM      8  C   UNL A   1      32.185  25.482  23.307  1.00  0.00     0.023 C 
ATOM      9  C   UNL A   1      30.232  26.391  24.623  1.00  0.00     0.023 C 
BRANCH   7  10
ATOM     10  C   UNL A   1      30.660  23.931  24.620  1.00  0.00     0.137 C 
BRANCH  10  11
ATOM     11  N   UNL A   1      31.457  22.743  24.336  1.00  0.00    -0.353 N 
ATOM     12  C   UNL A   1      32.823  21.037  24.786  1.00  0.00     0.024 A 
ATOM     13  C   UNL A   1      32.869  21.319  23.392  1.00  0.00     0.029 A 
ATOM     14  C   UNL A   1      31.772  21.791  25.276  1.00  0.00     0.095 A 
ATOM     15  C   UNL A   1      31.950  22.314  23.134  1.00  0.00     0.086 A 
BRANCH  12  16
ATOM     16  C   UNL A   1      33.694  20.095  25.552  1.00  0.00     0.299 C 
BRANCH  16  17
ATOM     17  N   UNL A   1      34.377  19.153  24.660  1.00  0.00    -0.338 N 
ATOM     18  H   UNL A   1      34.327  19.544  23.719  1.00  0.00     0.347 HD
ATOM     19  H   UNL A   1      35.306  19.062  25.073  1.00  0.00     0.347 HD
BRANCH  17  20
ATOM     20  C   UNL A   1      33.899  17.757  24.572  1.00  0.00     0.088 C 
ATOM     21  C   UNL A   1      34.931  16.710  25.021  1.00  0.00     0.078 C 
ATOM     22  C   UNL A   1      33.381  17.398  23.178  1.00  0.00     0.078 C 
ATOM     23  C   UNL A   1      32.674  17.666  25.504  1.00  0.00     0.078 C 
ENDBRANCH  17  20
ENDBRANCH  16  17
ENDBRANCH  12  16
ENDBRANCH  10  11
ENDBRANCH   7  10
ENDBRANCH   4   7
ENDBRANCH   2   3
ENDBRANCH   1   2
BRANCH   1  24
ATOM     24  C   UNL A   1      35.639  23.160  23.788  1.00  0.00     0.002 C 
BRANCH  24  25
ATOM     25  C   UNL A   1      37.047  22.570  23.651  1.00  0.00     0.002 C 
BRANCH  25  26
ATOM     26  C   UNL A   1      37.403  21.483  24.677  1.00  0.00     0.021 C 
BRANCH  26  27
ATOM     27  C   UNL A   1      38.306  21.975  25.810  1.00  0.00     0.116 C 
BRANCH  27  28
ATOM     28  N   UNL A   1      39.584  21.289  25.767  1.00  0.00    -0.352 N 
ATOM     29  C   UNL A   1      40.852  21.775  25.948  1.00  0.00     0.251 C 
ATOM     30  H   UNL A   1      39.532  20.324  25.579  1.00  0.00     0.163 HD
ATOM     31  O   UNL A   1      41.794  21.130  25.502  1.00  0.00    -0.269 OA
BRANCH  29  32
ATOM     32  C   UNL A   1      41.107  23.050  26.655  1.00  0.00     0.039 A 
ATOM     33  C   UNL A   1      40.304  23.340  27.767  1.00  0.00     0.014 A 
ATOM     34  C   UNL A   1      42.022  24.000  26.184  1.00  0.00     0.014 A 
ATOM     35  C   UNL A   1      40.449  24.552  28.432  1.00  0.00     0.010 A 
ATOM     36  C   UNL A   1      42.177  25.213  26.854  1.00  0.00     0.010 A 
ATOM     37  C   UNL A   1      41.403  25.479  27.990  1.00  0.00    -0.014 A 
BRANCH  37  38
ATOM     38  C   UNL A   1      41.724  26.622  28.879  1.00  0.00     0.031 A 
ATOM     39  C   UNL A   1      42.934  26.278  29.794  1.00  0.00     0.074 A 
ATOM     40  C   UNL A   1      40.912  27.726  28.797  1.00  0.00     0.049 A 
ATOM     41  N   UNL A   1      43.251  26.716  30.973  1.00  0.00    -0.248 NA
ATOM     42  C   UNL A   1      43.900  25.222  29.362  1.00  0.00     0.031 C 
ATOM     43  C   UNL A   1      39.823  27.903  27.807  1.00  0.00     0.029 A 
ATOM     44  N   UNL A   1      40.815  28.914  29.500  1.00  0.00    -0.354 N 
ATOM     45  C   UNL A   1      44.524  26.187  31.312  1.00  0.00     0.074 A 
ATOM     46  C   UNL A   1      44.809  25.180  30.341  1.00  0.00     0.031 C 
ATOM     47  C   UNL A   1      39.137  29.049  28.028  1.00  0.00     0.029 A 
ATOM     48  C   UNL A   1      39.708  29.751  29.159  1.00  0.00     0.049 A 
ATOM     49  H   UNL A   1      41.469  29.167  30.193  1.00  0.00     0.167 HD
ATOM     50  C   UNL A   1      45.316  26.713  32.298  1.00  0.00     0.037 A 
ATOM     51  C   UNL A   1      39.266  30.902  29.773  1.00  0.00     0.037 A 
ATOM     52  C   UNL A   1      44.635  27.805  32.905  1.00  0.00     0.049 A 
ATOM     53  C   UNL A   1      40.319  31.225  30.742  1.00  0.00     0.074 A 
ATOM     54  C   UNL A   1      43.558  27.850  33.746  1.00  0.00     0.029 A 
ATOM     55  N   UNL A   1      44.839  29.042  32.343  1.00  0.00    -0.354 N 
ATOM     56  N   UNL A   1      41.488  31.697  30.430  1.00  0.00    -0.248 NA
ATOM     57  C   UNL A   1      40.084  30.928  32.161  1.00  0.00     0.031 C 
ATOM     58  C   UNL A   1      42.844  28.966  33.275  1.00  0.00     0.029 A 
ATOM     59  C   UNL A   1      43.633  29.693  32.374  1.00  0.00     0.049 A 
ATOM     60  H   UNL A   1      45.686  29.393  31.987  1.00  0.00     0.167 HD
ATOM     61  C   UNL A   1      42.219  31.411  31.553  1.00  0.00     0.074 A 
ATOM     62  C   UNL A   1      41.274  31.274  32.643  1.00  0.00     0.031 C 
ATOM     63  C   UNL A   1      43.400  30.754  31.423  1.00  0.00     0.037 A 
BRANCH  50  64
ATOM     64  C   UNL A   1      46.766  26.546  32.683  1.00  0.00     0.058 A 
ATOM     65  C   UNL A   1      47.749  26.912  31.723  1.00  0.00     0.135 A 
ATOM     66  C   UNL A   1      47.211  25.735  33.734  1.00  0.00     0.135 A 
ATOM     67  F   UNL A   1      47.451  27.756  30.720  1.00  0.00    -0.206 F 
ATOM     68  C   UNL A   1      49.029  26.369  31.709  1.00  0.00     0.059 A 
ATOM     69  C   UNL A   1      48.512  25.215  33.767  1.00  0.00     0.059 A 
ATOM     70  F   UNL A   1      46.378  25.361  34.715  1.00  0.00    -0.206 F 
ATOM     71  C   UNL A   1      49.390  25.487  32.717  1.00  0.00     0.060 A 
BRANCH  71  72
ATOM     72  S   UNL A   1      51.001  24.679  32.601  1.00  0.00     0.124 S 
ATOM     73  O   UNL A   1      51.550  25.281  31.392  1.00  0.00    -0.237 OA
ATOM     74  O   UNL A   1      51.639  25.079  33.852  1.00  0.00    -0.237 OA
ATOM     75  O   UNL A   1      50.659  23.264  32.507  1.00  0.00    -0.744 OA
ENDBRANCH  71  72
ENDBRANCH  50  64
BRANCH  51  76
ATOM     76  C   UNL A   1      38.050  31.821  29.811  1.00  0.00     0.058 A 
ATOM     77  C   UNL A   1      38.022  33.188  29.513  1.00  0.00     0.135 A 
ATOM     78  C   UNL A   1      36.751  31.257  30.018  1.00  0.00     0.135 A 
ATOM     79  F   UNL A   1      39.154  33.900  29.443  1.00  0.00    -0.206 F 
ATOM     80  C   UNL A   1      36.817  33.883  29.260  1.00  0.00     0.059 A 
ATOM     81  C   UNL A   1      35.554  31.900  29.715  1.00  0.00     0.059 A 
ATOM     82  F   UNL A   1      36.584  30.016  30.495  1.00  0.00    -0.206 F 
ATOM     83  C   UNL A   1      35.594  33.211  29.294  1.00  0.00     0.060 A 
BRANCH  83  84
ATOM     84  S   UNL A   1      34.082  33.973  28.659  1.00  0.00     0.124 S 
ATOM     85  O   UNL A   1      33.393  34.360  29.884  1.00  0.00    -0.237 OA
ATOM     86  O   UNL A   1      34.602  35.069  27.847  1.00  0.00    -0.237 OA
ATOM     87  O   UNL A   1      33.457  32.894  27.899  1.00  0.00    -0.744 OA
ENDBRANCH  83  84
ENDBRANCH  51  76
BRANCH  63  88
ATOM     88  C   UNL A   1      44.111  30.966  30.095  1.00  0.00     0.058 A 
ATOM     89  C   UNL A   1      44.578  32.248  29.754  1.00  0.00     0.135 A 
ATOM     90  C   UNL A   1      44.277  29.977  29.110  1.00  0.00     0.135 A 
ATOM     91  F   UNL A   1      44.468  33.254  30.635  1.00  0.00    -0.206 F 
ATOM     92  C   UNL A   1      45.171  32.527  28.518  1.00  0.00     0.059 A 
ATOM     93  C   UNL A   1      44.873  30.225  27.867  1.00  0.00     0.059 A 
ATOM     94  F   UNL A   1      43.860  28.729  29.323  1.00  0.00    -0.206 F 
ATOM     95  C   UNL A   1      45.319  31.509  27.579  1.00  0.00     0.060 A 
BRANCH  95  96
ATOM     96  S   UNL A   1      46.131  31.878  26.005  1.00  0.00     0.124 S 
ATOM     97  O   UNL A   1      46.130  30.581  25.338  1.00  0.00    -0.237 OA
ATOM     98  O   UNL A   1      45.241  32.883  25.432  1.00  0.00    -0.237 OA
ATOM     99  O   UNL A   1      47.449  32.371  26.401  1.00  0.00    -0.744 OA
ENDBRANCH  95  96
ENDBRANCH  63  88
ENDBRANCH  37  38
ENDBRANCH  29  32
ENDBRANCH  27  28
ENDBRANCH  26  27
ENDBRANCH  25  26
ENDBRANCH  24  25
ENDBRANCH   1  24
TORSDOF 21
ENDMDL
MODEL 3
REMARK VINA RESULT:     -10.4      3.059      9.276
REMARK SMILES CC(C)(C)[NH2+]Cc1ccn(CC(C)(C)C(=O)NCCCCCCNC(=O)c2ccc(-c3c4nc(c(-c5c(F)cc(S(=O)(=O)[O-])cc5F)c5ccc([nH]5)c(-c5c(F)cc(S(=O)(=O)[O-])cc5F)c5nc(c(-c6c(F)cc(S(=O)(=O)[O-])cc6F)c6ccc3[nH]6)C=C5)C=C4)cc2)c1
REMARK SMILES IDX 19 1 18 2 17 3 15 4 16 5 12 7 13 8 14 9 11 10 10 11 7 12
REMARK SMILES IDX 8 13 93 14 9 15 6 16 5 17 2 20 1 21 3 22 4 23 20 24 21 25
REMARK SMILES IDX 22 26 23 27 24 28 25 29 26 31 27 32 28 33 92 34 29 35 91 36
REMARK SMILES IDX 30 37 31 38 32 39 85 40 33 41 90 42 84 43 86 44 34 45 89 46
REMARK SMILES IDX 83 47 82 48 35 50 69 51 48 52 68 53 49 54 52 55 67 56 87 57
REMARK SMILES IDX 50 58 51 59 66 61 88 62 53 63 36 64 37 65 46 66 38 67 39 68
REMARK SMILES IDX 45 69 47 70 40 71 41 72 42 73 43 74 44 75 70 76 71 77 80 78
REMARK SMILES IDX 72 79 73 80 79 81 81 82 74 83 75 84 76 85 77 86 78 87 54 88
REMARK SMILES IDX 55 89 64 90 56 91 57 92 63 93 65 94 58 95 59 96 60 97 61 98
REMARK SMILES IDX 62 99
REMARK H PARENT 17 6 5 18 5 19 24 30 86 49 52 60
REMARK Flexibility Score: inf
ROOT
ATOM      1  C   UNL A   1      35.470  23.659  25.718  1.00  0.00     0.021 C 
ENDROOT
BRANCH   1   2
ATOM      2  C   UNL A   1      34.666  24.920  25.390  1.00  0.00     0.116 C 
BRANCH   2   3
ATOM      3  N   UNL A   1      33.393  24.906  26.080  1.00  0.00    -0.356 N 
ATOM      4  C   UNL A   1      32.284  25.668  25.884  1.00  0.00     0.227 C 
ATOM      5  O   UNL A   1      31.642  25.937  26.899  1.00  0.00    -0.274 OA
ATOM      6  H   UNL A   1      33.321  24.244  26.805  1.00  0.00     0.163 HD
BRANCH   4   7
ATOM      7  C   UNL A   1      31.902  26.267  24.525  1.00  0.00     0.061 C 
ATOM      8  C   UNL A   1      33.107  26.730  23.697  1.00  0.00     0.023 C 
ATOM      9  C   UNL A   1      30.965  27.456  24.816  1.00  0.00     0.023 C 
BRANCH   7  10
ATOM     10  C   UNL A   1      31.063  25.222  23.704  1.00  0.00     0.137 C 
BRANCH  10  11
ATOM     11  N   UNL A   1      31.578  23.866  23.553  1.00  0.00    -0.353 N 
ATOM     12  C   UNL A   1      32.156  21.810  24.200  1.00  0.00     0.024 A 
ATOM     13  C   UNL A   1      32.847  22.134  23.000  1.00  0.00     0.029 A 
ATOM     14  C   UNL A   1      31.223  22.818  24.368  1.00  0.00     0.095 A 
ATOM     15  C   UNL A   1      32.402  23.371  22.579  1.00  0.00     0.086 A 
BRANCH  12  16
ATOM     16  C   UNL A   1      32.361  20.615  25.072  1.00  0.00     0.299 C 
BRANCH  16  17
ATOM     17  N   UNL A   1      33.509  19.819  24.628  1.00  0.00    -0.338 N 
ATOM     18  H   UNL A   1      33.809  20.204  23.732  1.00  0.00     0.347 HD
ATOM     19  H   UNL A   1      34.166  19.891  25.405  1.00  0.00     0.347 HD
BRANCH  17  20
ATOM     20  C   UNL A   1      33.355  18.361  24.440  1.00  0.00     0.088 C 
ATOM     21  C   UNL A   1      32.540  17.667  25.544  1.00  0.00     0.078 C 
ATOM     22  C   UNL A   1      34.696  17.644  24.269  1.00  0.00     0.078 C 
ATOM     23  C   UNL A   1      32.615  18.179  23.100  1.00  0.00     0.078 C 
ENDBRANCH  17  20
ENDBRANCH  16  17
ENDBRANCH  12  16
ENDBRANCH  10  11
ENDBRANCH   7  10
ENDBRANCH   4   7
ENDBRANCH   2   3
ENDBRANCH   1   2
BRANCH   1  24
ATOM     24  C   UNL A   1      35.757  22.755  24.514  1.00  0.00     0.002 C 
BRANCH  24  25
ATOM     25  C   UNL A   1      37.203  22.258  24.405  1.00  0.00     0.002 C 
BRANCH  25  26
ATOM     26  C   UNL A   1      37.807  21.713  25.708  1.00  0.00     0.021 C 
BRANCH  26  27
ATOM     27  C   UNL A   1      39.011  22.512  26.211  1.00  0.00     0.116 C 
BRANCH  27  28
ATOM     28  N   UNL A   1      40.242  21.801  25.922  1.00  0.00    -0.352 N 
ATOM     29  C   UNL A   1      41.545  22.187  26.095  1.00  0.00     0.251 C 
ATOM     30  H   UNL A   1      40.123  20.900  25.543  1.00  0.00     0.163 HD
ATOM     31  O   UNL A   1      42.415  21.614  25.449  1.00  0.00    -0.269 OA
BRANCH  29  32
ATOM     32  C   UNL A   1      41.921  23.273  27.027  1.00  0.00     0.039 A 
ATOM     33  C   UNL A   1      42.321  24.493  26.466  1.00  0.00     0.014 A 
ATOM     34  C   UNL A   1      41.998  23.080  28.412  1.00  0.00     0.014 A 
ATOM     35  C   UNL A   1      42.751  25.529  27.287  1.00  0.00     0.010 A 
ATOM     36  C   UNL A   1      42.420  24.119  29.240  1.00  0.00     0.010 A 
ATOM     37  C   UNL A   1      42.777  25.350  28.678  1.00  0.00    -0.014 A 
BRANCH  37  38
ATOM     38  C   UNL A   1      42.967  26.551  29.528  1.00  0.00     0.031 A 
ATOM     39  C   UNL A   1      41.684  27.431  29.520  1.00  0.00     0.074 A 
ATOM     40  C   UNL A   1      44.197  26.715  30.115  1.00  0.00     0.049 A 
ATOM     41  N   UNL A   1      41.538  28.709  29.691  1.00  0.00    -0.248 NA
ATOM     42  C   UNL A   1      40.367  26.803  29.193  1.00  0.00     0.031 C 
ATOM     43  C   UNL A   1      45.300  25.725  30.058  1.00  0.00     0.029 A 
ATOM     44  N   UNL A   1      44.787  27.715  30.867  1.00  0.00    -0.354 N 
ATOM     45  C   UNL A   1      40.147  28.993  29.723  1.00  0.00     0.074 A 
ATOM     46  C   UNL A   1      39.487  27.804  29.285  1.00  0.00     0.031 C 
ATOM     47  C   UNL A   1      46.420  26.202  30.649  1.00  0.00     0.029 A 
ATOM     48  C   UNL A   1      46.172  27.531  31.171  1.00  0.00     0.049 A 
ATOM     49  H   UNL A   1      44.284  28.504  31.176  1.00  0.00     0.167 HD
ATOM     50  C   UNL A   1      39.630  30.151  30.239  1.00  0.00     0.037 A 
ATOM     51  C   UNL A   1      47.056  28.405  31.762  1.00  0.00     0.037 A 
ATOM     52  C   UNL A   1      40.700  30.981  30.674  1.00  0.00     0.049 A 
ATOM     53  C   UNL A   1      46.217  29.512  32.230  1.00  0.00     0.074 A 
ATOM     54  C   UNL A   1      41.630  31.706  29.980  1.00  0.00     0.029 A 
ATOM     55  N   UNL A   1      41.117  30.813  31.972  1.00  0.00    -0.354 N 
ATOM     56  N   UNL A   1      45.413  29.448  33.247  1.00  0.00    -0.248 NA
ATOM     57  C   UNL A   1      46.209  30.764  31.461  1.00  0.00     0.031 C 
ATOM     58  C   UNL A   1      42.801  31.509  30.733  1.00  0.00     0.029 A 
ATOM     59  C   UNL A   1      42.483  30.923  31.966  1.00  0.00     0.049 A 
ATOM     60  H   UNL A   1      40.546  30.645  32.755  1.00  0.00     0.167 HD
ATOM     61  C   UNL A   1      44.570  30.503  33.012  1.00  0.00     0.074 A 
ATOM     62  C   UNL A   1      45.285  31.424  32.151  1.00  0.00     0.031 C 
ATOM     63  C   UNL A   1      43.229  30.294  33.030  1.00  0.00     0.037 A 
BRANCH  50  64
ATOM     64  C   UNL A   1      38.246  30.596  30.643  1.00  0.00     0.058 A 
ATOM     65  C   UNL A   1      37.758  31.814  30.095  1.00  0.00     0.135 A 
ATOM     66  C   UNL A   1      37.564  30.118  31.770  1.00  0.00     0.135 A 
ATOM     67  F   UNL A   1      38.283  32.319  28.965  1.00  0.00    -0.206 F 
ATOM     68  C   UNL A   1      36.788  32.588  30.720  1.00  0.00     0.059 A 
ATOM     69  C   UNL A   1      36.550  30.859  32.389  1.00  0.00     0.059 A 
ATOM     70  F   UNL A   1      37.914  28.960  32.345  1.00  0.00    -0.206 F 
ATOM     71  C   UNL A   1      36.215  32.120  31.894  1.00  0.00     0.060 A 
BRANCH  71  72
ATOM     72  S   UNL A   1      35.067  33.204  32.770  1.00  0.00     0.124 S 
ATOM     73  O   UNL A   1      33.779  32.617  32.423  1.00  0.00    -0.237 OA
ATOM     74  O   UNL A   1      35.483  33.038  34.159  1.00  0.00    -0.237 OA
ATOM     75  O   UNL A   1      35.342  34.517  32.195  1.00  0.00    -0.744 OA
ENDBRANCH  71  72
ENDBRANCH  50  64
BRANCH  51  76
ATOM     76  C   UNL A   1      48.555  28.596  31.975  1.00  0.00     0.058 A 
ATOM     77  C   UNL A   1      49.261  28.419  33.169  1.00  0.00     0.135 A 
ATOM     78  C   UNL A   1      49.398  28.835  30.844  1.00  0.00     0.135 A 
ATOM     79  F   UNL A   1      48.621  28.341  34.342  1.00  0.00    -0.206 F 
ATOM     80  C   UNL A   1      50.669  28.302  33.205  1.00  0.00     0.059 A 
ATOM     81  C   UNL A   1      50.780  28.663  30.840  1.00  0.00     0.059 A 
ATOM     82  F   UNL A   1      48.905  29.213  29.657  1.00  0.00    -0.206 F 
ATOM     83  C   UNL A   1      51.412  28.354  32.024  1.00  0.00     0.060 A 
BRANCH  83  84
ATOM     84  S   UNL A   1      53.158  27.881  31.987  1.00  0.00     0.124 S 
ATOM     85  O   UNL A   1      53.650  28.607  30.823  1.00  0.00    -0.237 OA
ATOM     86  O   UNL A   1      53.637  28.353  33.283  1.00  0.00    -0.237 OA
ATOM     87  O   UNL A   1      53.108  26.427  31.848  1.00  0.00    -0.744 OA
ENDBRANCH  83  84
ENDBRANCH  51  76
BRANCH  63  88
ATOM     88  C   UNL A   1      42.769  29.147  33.917  1.00  0.00     0.058 A 
ATOM     89  C   UNL A   1      43.035  29.186  35.297  1.00  0.00     0.135 A 
ATOM     90  C   UNL A   1      42.151  27.973  33.450  1.00  0.00     0.135 A 
ATOM     91  F   UNL A   1      43.617  30.269  35.835  1.00  0.00    -0.206 F 
ATOM     92  C   UNL A   1      42.708  28.130  36.156  1.00  0.00     0.059 A 
ATOM     93  C   UNL A   1      41.806  26.905  34.287  1.00  0.00     0.059 A 
ATOM     94  F   UNL A   1      41.863  27.826  32.157  1.00  0.00    -0.206 F 
ATOM     95  C   UNL A   1      42.089  26.993  35.644  1.00  0.00     0.060 A 
BRANCH  95  96
ATOM     96  S   UNL A   1      41.631  25.658  36.776  1.00  0.00     0.124 S 
ATOM     97  O   UNL A   1      40.455  26.202  37.445  1.00  0.00    -0.237 OA
ATOM     98  O   UNL A   1      41.379  24.552  35.857  1.00  0.00    -0.237 OA
ATOM     99  O   UNL A   1      42.810  25.503  37.625  1.00  0.00    -0.744 OA
ENDBRANCH  95  96
ENDBRANCH  63  88
ENDBRANCH  37  38
ENDBRANCH  29  32
ENDBRANCH  27  28
ENDBRANCH  26  27
ENDBRANCH  25  26
ENDBRANCH  24  25
ENDBRANCH   1  24
TORSDOF 21
ENDMDL
