MODEL 1
REMARK VINA RESULT:     -11.3      0.000      0.000
REMARK SMILES COCc1ccccc1C(=O)N1CCC[C@@H](C(=O)NCCCCCCNC(=O)c2ccc(-c3c4nc(c(-c5c(F)cc(S(=O)(=O)[O-])cc5F)c5ccc([nH]5)c(-c5c(F)cc(S(=O)(=O)[O-])cc5F)c5nc(c(-c6c(F)cc(S(=O)(=O)[O-])cc6F)c6ccc3[nH]6)C=C5)C=C4)cc2)C1
REMARK SMILES IDX 22 1 21 2 20 3 19 4 17 5 18 6 16 8 12 9 13 10 95 11 14 12
REMARK SMILES IDX 15 13 10 14 11 15 9 16 4 17 5 18 6 19 8 20 7 21 3 22 2 23
REMARK SMILES IDX 1 24 23 25 24 26 25 27 26 28 27 29 28 31 29 32 30 33 94 34
REMARK SMILES IDX 31 35 93 36 32 37 33 38 34 39 87 40 35 41 92 42 86 43 88 44
REMARK SMILES IDX 36 45 91 46 85 47 84 48 37 50 71 51 50 52 70 53 51 54 54 55
REMARK SMILES IDX 69 56 89 57 52 58 53 59 68 61 90 62 55 63 38 64 39 65 48 66
REMARK SMILES IDX 40 67 41 68 47 69 49 70 42 71 43 72 44 73 45 74 46 75 72 76
REMARK SMILES IDX 73 77 82 78 74 79 75 80 81 81 83 82 76 83 77 84 78 85 79 86
REMARK SMILES IDX 80 87 56 88 57 89 66 90 58 91 59 92 65 93 67 94 60 95 61 96
REMARK SMILES IDX 62 97 63 98 64 99
REMARK H PARENT 19 7 26 30 88 49 54 60
REMARK Flexibility Score: inf
ROOT
ATOM      1  C   UNL A   1      31.622  29.134  25.044  1.00  0.00     0.002 C 
ENDROOT
BRANCH   1   2
ATOM      2  C   UNL A   1      31.787  28.824  23.553  1.00  0.00     0.021 C 
BRANCH   2   3
ATOM      3  C   UNL A   1      33.209  28.517  23.100  1.00  0.00     0.116 C 
BRANCH   3   4
ATOM      4  N   UNL A   1      33.262  27.665  21.929  1.00  0.00    -0.356 N 
ATOM      5  C   UNL A   1      33.179  26.307  21.853  1.00  0.00     0.224 C 
ATOM      6  O   UNL A   1      33.180  25.798  20.730  1.00  0.00    -0.275 OA
ATOM      7  H   UNL A   1      33.376  28.132  21.070  1.00  0.00     0.163 HD
BRANCH   5   8
ATOM      8  C   UNL A   1      33.129  25.470  23.129  1.00  0.00     0.098 C 
ATOM      9  N   UNL A   1      33.605  23.216  24.066  1.00  0.00    -0.338 N 
ATOM     10  C   UNL A   1      34.454  23.760  25.121  1.00  0.00     0.120 C 
ATOM     11  C   UNL A   1      33.517  24.012  22.845  1.00  0.00     0.133 C 
ATOM     12  C   UNL A   1      34.102  25.204  25.448  1.00  0.00     0.022 C 
ATOM     13  C   UNL A   1      34.083  26.059  24.186  1.00  0.00     0.017 C 
BRANCH   9  14
ATOM     14  C   UNL A   1      32.817  22.108  24.364  1.00  0.00     0.254 C 
ATOM     15  O   UNL A   1      31.758  22.268  24.981  1.00  0.00    -0.269 OA
BRANCH  14  16
ATOM     16  C   UNL A   1      33.215  20.684  24.055  1.00  0.00     0.045 A 
ATOM     17  C   UNL A   1      34.279  19.945  24.620  1.00  0.00    -0.010 A 
ATOM     18  C   UNL A   1      34.299  18.537  24.442  1.00  0.00     0.007 A 
ATOM     19  C   UNL A   1      33.323  17.866  23.713  1.00  0.00     0.000 A 
ATOM     20  C   UNL A   1      32.248  19.977  23.297  1.00  0.00     0.014 A 
ATOM     21  C   UNL A   1      32.300  18.590  23.127  1.00  0.00     0.001 A 
BRANCH  17  22
ATOM     22  C   UNL A   1      35.421  20.499  25.433  1.00  0.00     0.196 C 
BRANCH  22  23
ATOM     23  O   UNL A   1      36.384  21.186  24.621  1.00  0.00    -0.380 OA
ATOM     24  C   UNL A   1      37.738  20.962  24.992  1.00  0.00     0.195 C 
ENDBRANCH  22  23
ENDBRANCH  17  22
ENDBRANCH  14  16
ENDBRANCH   9  14
ENDBRANCH   5   8
ENDBRANCH   3   4
ENDBRANCH   2   3
ENDBRANCH   1   2
BRANCH   1  25
ATOM     25  C   UNL A   1      31.367  27.932  25.958  1.00  0.00     0.002 C 
BRANCH  25  26
ATOM     26  C   UNL A   1      32.333  27.767  27.133  1.00  0.00     0.021 C 
BRANCH  26  27
ATOM     27  C   UNL A   1      33.644  28.537  27.020  1.00  0.00     0.116 C 
BRANCH  27  28
ATOM     28  N   UNL A   1      33.533  29.912  27.473  1.00  0.00    -0.352 N 
ATOM     29  C   UNL A   1      34.447  30.687  28.146  1.00  0.00     0.251 C 
ATOM     30  H   UNL A   1      32.677  30.353  27.269  1.00  0.00     0.163 HD
ATOM     31  O   UNL A   1      34.118  31.788  28.569  1.00  0.00    -0.269 OA
BRANCH  29  32
ATOM     32  C   UNL A   1      35.818  30.178  28.386  1.00  0.00     0.039 A 
ATOM     33  C   UNL A   1      36.750  30.249  27.349  1.00  0.00     0.014 A 
ATOM     34  C   UNL A   1      36.184  29.633  29.620  1.00  0.00     0.014 A 
ATOM     35  C   UNL A   1      38.066  29.833  27.569  1.00  0.00     0.010 A 
ATOM     36  C   UNL A   1      37.513  29.290  29.861  1.00  0.00     0.010 A 
ATOM     37  C   UNL A   1      38.469  29.384  28.838  1.00  0.00    -0.014 A 
BRANCH  37  38
ATOM     38  C   UNL A   1      39.885  29.018  29.111  1.00  0.00     0.031 A 
ATOM     39  C   UNL A   1      40.835  30.036  29.685  1.00  0.00     0.074 A 
ATOM     40  C   UNL A   1      40.328  27.787  28.784  1.00  0.00     0.049 A 
ATOM     41  N   UNL A   1      42.114  29.920  29.936  1.00  0.00    -0.248 NA
ATOM     42  C   UNL A   1      40.284  31.365  29.995  1.00  0.00     0.031 C 
ATOM     43  C   UNL A   1      39.516  26.728  28.178  1.00  0.00     0.029 A 
ATOM     44  N   UNL A   1      41.573  27.218  28.904  1.00  0.00    -0.354 N 
ATOM     45  C   UNL A   1      42.524  31.161  30.411  1.00  0.00     0.074 A 
ATOM     46  C   UNL A   1      41.368  32.029  30.374  1.00  0.00     0.031 C 
ATOM     47  C   UNL A   1      40.277  25.636  27.999  1.00  0.00     0.029 A 
ATOM     48  C   UNL A   1      41.640  25.926  28.434  1.00  0.00     0.049 A 
ATOM     49  H   UNL A   1      42.345  27.691  29.290  1.00  0.00     0.167 HD
ATOM     50  C   UNL A   1      43.748  31.536  30.851  1.00  0.00     0.037 A 
ATOM     51  C   UNL A   1      42.682  25.076  28.351  1.00  0.00     0.037 A 
ATOM     52  C   UNL A   1      44.885  30.654  30.918  1.00  0.00     0.049 A 
ATOM     53  C   UNL A   1      44.032  25.521  28.850  1.00  0.00     0.074 A 
ATOM     54  C   UNL A   1      46.144  30.917  31.431  1.00  0.00     0.029 A 
ATOM     55  N   UNL A   1      44.908  29.348  30.453  1.00  0.00    -0.354 N 
ATOM     56  N   UNL A   1      44.377  26.671  29.379  1.00  0.00    -0.248 NA
ATOM     57  C   UNL A   1      45.133  24.553  28.748  1.00  0.00     0.031 C 
ATOM     58  C   UNL A   1      46.945  29.791  31.218  1.00  0.00     0.029 A 
ATOM     59  C   UNL A   1      46.169  28.805  30.635  1.00  0.00     0.049 A 
ATOM     60  H   UNL A   1      44.141  28.877  30.054  1.00  0.00     0.167 HD
ATOM     61  C   UNL A   1      45.724  26.551  29.703  1.00  0.00     0.074 A 
ATOM     62  C   UNL A   1      46.128  25.213  29.324  1.00  0.00     0.031 C 
ATOM     63  C   UNL A   1      46.553  27.465  30.266  1.00  0.00     0.037 A 
BRANCH  50  64
ATOM     64  C   UNL A   1      43.938  32.962  31.295  1.00  0.00     0.058 A 
ATOM     65  C   UNL A   1      43.773  33.350  32.634  1.00  0.00     0.135 A 
ATOM     66  C   UNL A   1      44.370  33.936  30.379  1.00  0.00     0.135 A 
ATOM     67  F   UNL A   1      43.346  32.465  33.549  1.00  0.00    -0.206 F 
ATOM     68  C   UNL A   1      44.014  34.657  33.046  1.00  0.00     0.059 A 
ATOM     69  C   UNL A   1      44.646  35.241  30.774  1.00  0.00     0.059 A 
ATOM     70  F   UNL A   1      44.542  33.618  29.087  1.00  0.00    -0.206 F 
ATOM     71  C   UNL A   1      44.457  35.594  32.110  1.00  0.00     0.060 A 
BRANCH  71  72
ATOM     72  S   UNL A   1      44.802  37.276  32.670  1.00  0.00     0.124 S 
ATOM     73  O   UNL A   1      43.940  37.373  33.844  1.00  0.00    -0.237 OA
ATOM     74  O   UNL A   1      46.235  37.225  32.939  1.00  0.00    -0.237 OA
ATOM     75  O   UNL A   1      44.409  38.101  31.533  1.00  0.00    -0.744 OA
ENDBRANCH  71  72
ENDBRANCH  50  64
BRANCH  51  76
ATOM     76  C   UNL A   1      42.500  23.715  27.774  1.00  0.00     0.058 A 
ATOM     77  C   UNL A   1      42.358  22.589  28.600  1.00  0.00     0.135 A 
ATOM     78  C   UNL A   1      42.491  23.508  26.385  1.00  0.00     0.135 A 
ATOM     79  F   UNL A   1      42.364  22.732  29.934  1.00  0.00    -0.206 F 
ATOM     80  C   UNL A   1      42.250  21.306  28.073  1.00  0.00     0.059 A 
ATOM     81  C   UNL A   1      42.352  22.239  25.835  1.00  0.00     0.059 A 
ATOM     82  F   UNL A   1      42.603  24.551  25.547  1.00  0.00    -0.206 F 
ATOM     83  C   UNL A   1      42.251  21.140  26.688  1.00  0.00     0.060 A 
BRANCH  83  84
ATOM     84  S   UNL A   1      42.095  19.473  26.012  1.00  0.00     0.124 S 
ATOM     85  O   UNL A   1      42.634  18.665  27.099  1.00  0.00    -0.237 OA
ATOM     86  O   UNL A   1      40.657  19.367  25.787  1.00  0.00    -0.237 OA
ATOM     87  O   UNL A   1      42.909  19.528  24.801  1.00  0.00    -0.744 OA
ENDBRANCH  83  84
ENDBRANCH  51  76
BRANCH  63  88
ATOM     88  C   UNL A   1      47.968  27.040  30.551  1.00  0.00     0.058 A 
ATOM     89  C   UNL A   1      49.014  27.285  29.647  1.00  0.00     0.135 A 
ATOM     90  C   UNL A   1      48.290  26.427  31.774  1.00  0.00     0.135 A 
ATOM     91  F   UNL A   1      48.762  27.861  28.461  1.00  0.00    -0.206 F 
ATOM     92  C   UNL A   1      50.323  26.912  29.933  1.00  0.00     0.059 A 
ATOM     93  C   UNL A   1      49.597  26.077  32.095  1.00  0.00     0.059 A 
ATOM     94  F   UNL A   1      47.331  26.180  32.680  1.00  0.00    -0.206 F 
ATOM     95  C   UNL A   1      50.605  26.312  31.162  1.00  0.00     0.060 A 
BRANCH  95  96
ATOM     96  S   UNL A   1      52.315  25.865  31.534  1.00  0.00     0.124 S 
ATOM     97  O   UNL A   1      52.947  26.007  30.227  1.00  0.00    -0.237 OA
ATOM     98  O   UNL A   1      52.688  26.865  32.531  1.00  0.00    -0.237 OA
ATOM     99  O   UNL A   1      52.209  24.498  32.035  1.00  0.00    -0.744 OA
ENDBRANCH  95  96
ENDBRANCH  63  88
ENDBRANCH  37  38
ENDBRANCH  29  32
ENDBRANCH  27  28
ENDBRANCH  26  27
ENDBRANCH  25  26
ENDBRANCH   1  25
TORSDOF 20
ENDMDL
MODEL 2
REMARK VINA RESULT:     -11.2      4.760     10.498
REMARK SMILES COCc1ccccc1C(=O)N1CCC[C@@H](C(=O)NCCCCCCNC(=O)c2ccc(-c3c4nc(c(-c5c(F)cc(S(=O)(=O)[O-])cc5F)c5ccc([nH]5)c(-c5c(F)cc(S(=O)(=O)[O-])cc5F)c5nc(c(-c6c(F)cc(S(=O)(=O)[O-])cc6F)c6ccc3[nH]6)C=C5)C=C4)cc2)C1
REMARK SMILES IDX 22 1 21 2 20 3 19 4 17 5 18 6 16 8 12 9 13 10 95 11 14 12
REMARK SMILES IDX 15 13 10 14 11 15 9 16 4 17 5 18 6 19 8 20 7 21 3 22 2 23
REMARK SMILES IDX 1 24 23 25 24 26 25 27 26 28 27 29 28 31 29 32 30 33 94 34
REMARK SMILES IDX 31 35 93 36 32 37 33 38 34 39 87 40 35 41 92 42 86 43 88 44
REMARK SMILES IDX 36 45 91 46 85 47 84 48 37 50 71 51 50 52 70 53 51 54 54 55
REMARK SMILES IDX 69 56 89 57 52 58 53 59 68 61 90 62 55 63 38 64 39 65 48 66
REMARK SMILES IDX 40 67 41 68 47 69 49 70 42 71 43 72 44 73 45 74 46 75 72 76
REMARK SMILES IDX 73 77 82 78 74 79 75 80 81 81 83 82 76 83 77 84 78 85 79 86
REMARK SMILES IDX 80 87 56 88 57 89 66 90 58 91 59 92 65 93 67 94 60 95 61 96
REMARK SMILES IDX 62 97 63 98 64 99
REMARK H PARENT 19 7 26 30 88 49 54 60
REMARK Flexibility Score: inf
ROOT
ATOM      1  C   UNL A   1      39.005  23.071  26.482  1.00  0.00     0.002 C 
ENDROOT
BRANCH   1   2
ATOM      2  C   UNL A   1      37.869  22.681  25.532  1.00  0.00     0.021 C 
BRANCH   2   3
ATOM      3  C   UNL A   1      36.723  23.681  25.436  1.00  0.00     0.116 C 
BRANCH   3   4
ATOM      4  N   UNL A   1      36.030  23.632  24.165  1.00  0.00    -0.356 N 
ATOM      5  C   UNL A   1      34.704  23.811  23.904  1.00  0.00     0.224 C 
ATOM      6  O   UNL A   1      34.348  23.793  22.723  1.00  0.00    -0.275 OA
ATOM      7  H   UNL A   1      36.594  23.441  23.380  1.00  0.00     0.163 HD
BRANCH   5   8
ATOM      8  C   UNL A   1      33.715  23.987  25.054  1.00  0.00     0.098 C 
ATOM      9  N   UNL A   1      31.347  24.526  25.593  1.00  0.00    -0.338 N 
ATOM     10  C   UNL A   1      31.176  23.303  26.371  1.00  0.00     0.120 C 
ATOM     11  C   UNL A   1      32.353  24.473  24.536  1.00  0.00     0.133 C 
ATOM     12  C   UNL A   1      32.498  22.784  26.916  1.00  0.00     0.022 C 
ATOM     13  C   UNL A   1      33.532  22.654  25.803  1.00  0.00     0.017 C 
BRANCH   9  14
ATOM     14  C   UNL A   1      30.694  25.676  26.028  1.00  0.00     0.254 C 
ATOM     15  O   UNL A   1      29.553  25.584  26.494  1.00  0.00    -0.269 OA
BRANCH  14  16
ATOM     16  C   UNL A   1      31.260  27.070  25.887  1.00  0.00     0.045 A 
ATOM     17  C   UNL A   1      31.052  27.981  24.828  1.00  0.00    -0.010 A 
ATOM     18  C   UNL A   1      31.402  29.343  25.023  1.00  0.00     0.007 A 
ATOM     19  C   UNL A   1      31.963  29.803  26.210  1.00  0.00     0.000 A 
ATOM     20  C   UNL A   1      31.856  27.562  27.075  1.00  0.00     0.014 A 
ATOM     21  C   UNL A   1      32.203  28.907  27.236  1.00  0.00     0.001 A 
BRANCH  17  22
ATOM     22  C   UNL A   1      30.463  27.665  23.477  1.00  0.00     0.196 C 
BRANCH  22  23
ATOM     23  O   UNL A   1      29.043  27.865  23.443  1.00  0.00    -0.380 OA
ATOM     24  C   UNL A   1      28.616  28.937  22.611  1.00  0.00     0.195 C 
ENDBRANCH  22  23
ENDBRANCH  17  22
ENDBRANCH  14  16
ENDBRANCH   9  14
ENDBRANCH   5   8
ENDBRANCH   3   4
ENDBRANCH   2   3
ENDBRANCH   1   2
BRANCH   1  25
ATOM     25  C   UNL A   1      40.091  22.014  26.703  1.00  0.00     0.002 C 
BRANCH  25  26
ATOM     26  C   UNL A   1      40.896  22.141  27.998  1.00  0.00     0.021 C 
BRANCH  26  27
ATOM     27  C   UNL A   1      42.188  22.945  27.895  1.00  0.00     0.116 C 
BRANCH  27  28
ATOM     28  N   UNL A   1      42.354  23.584  26.602  1.00  0.00    -0.352 N 
ATOM     29  C   UNL A   1      42.185  24.902  26.251  1.00  0.00     0.251 C 
ATOM     30  H   UNL A   1      42.627  22.985  25.870  1.00  0.00     0.163 HD
ATOM     31  O   UNL A   1      42.236  25.229  25.071  1.00  0.00    -0.269 OA
BRANCH  29  32
ATOM     32  C   UNL A   1      41.910  25.919  27.293  1.00  0.00     0.039 A 
ATOM     33  C   UNL A   1      40.766  25.776  28.082  1.00  0.00     0.014 A 
ATOM     34  C   UNL A   1      42.766  27.005  27.492  1.00  0.00     0.014 A 
ATOM     35  C   UNL A   1      40.516  26.687  29.112  1.00  0.00     0.010 A 
ATOM     36  C   UNL A   1      42.557  27.867  28.567  1.00  0.00     0.010 A 
ATOM     37  C   UNL A   1      41.429  27.719  29.388  1.00  0.00    -0.014 A 
BRANCH  37  38
ATOM     38  C   UNL A   1      41.220  28.644  30.534  1.00  0.00     0.031 A 
ATOM     39  C   UNL A   1      42.053  28.508  31.781  1.00  0.00     0.074 A 
ATOM     40  C   UNL A   1      40.239  29.568  30.473  1.00  0.00     0.049 A 
ATOM     41  N   UNL A   1      41.978  29.182  32.900  1.00  0.00    -0.248 NA
ATOM     42  C   UNL A   1      43.089  27.462  31.783  1.00  0.00     0.031 C 
ATOM     43  C   UNL A   1      39.333  29.768  29.338  1.00  0.00     0.029 A 
ATOM     44  N   UNL A   1      39.829  30.506  31.389  1.00  0.00    -0.354 N 
ATOM     45  C   UNL A   1      42.936  28.630  33.744  1.00  0.00     0.074 A 
ATOM     46  C   UNL A   1      43.553  27.539  33.023  1.00  0.00     0.031 C 
ATOM     47  C   UNL A   1      38.491  30.775  29.617  1.00  0.00     0.029 A 
ATOM     48  C   UNL A   1      38.763  31.266  30.964  1.00  0.00     0.049 A 
ATOM     49  H   UNL A   1      40.257  30.623  32.267  1.00  0.00     0.167 HD
ATOM     50  C   UNL A   1      43.281  29.011  34.997  1.00  0.00     0.037 A 
ATOM     51  C   UNL A   1      38.075  32.240  31.592  1.00  0.00     0.037 A 
ATOM     52  C   UNL A   1      42.686  30.122  35.693  1.00  0.00     0.049 A 
ATOM     53  C   UNL A   1      38.481  32.642  32.987  1.00  0.00     0.074 A 
ATOM     54  C   UNL A   1      43.027  30.639  36.931  1.00  0.00     0.029 A 
ATOM     55  N   UNL A   1      41.625  30.881  35.222  1.00  0.00    -0.354 N 
ATOM     56  N   UNL A   1      39.451  32.167  33.731  1.00  0.00    -0.248 NA
ATOM     57  C   UNL A   1      37.706  33.716  33.623  1.00  0.00     0.031 C 
ATOM     58  C   UNL A   1      42.132  31.669  37.236  1.00  0.00     0.029 A 
ATOM     59  C   UNL A   1      41.276  31.838  36.161  1.00  0.00     0.049 A 
ATOM     60  H   UNL A   1      41.185  30.757  34.350  1.00  0.00     0.167 HD
ATOM     61  C   UNL A   1      39.423  32.908  34.909  1.00  0.00     0.074 A 
ATOM     62  C   UNL A   1      38.350  33.871  34.771  1.00  0.00     0.031 C 
ATOM     63  C   UNL A   1      40.215  32.801  36.004  1.00  0.00     0.037 A 
BRANCH  50  64
ATOM     64  C   UNL A   1      44.347  28.224  35.711  1.00  0.00     0.058 A 
ATOM     65  C   UNL A   1      44.036  27.126  36.529  1.00  0.00     0.135 A 
ATOM     66  C   UNL A   1      45.704  28.525  35.508  1.00  0.00     0.135 A 
ATOM     67  F   UNL A   1      42.755  26.802  36.770  1.00  0.00    -0.206 F 
ATOM     68  C   UNL A   1      45.032  26.365  37.133  1.00  0.00     0.059 A 
ATOM     69  C   UNL A   1      46.717  27.760  36.078  1.00  0.00     0.059 A 
ATOM     70  F   UNL A   1      46.056  29.566  34.738  1.00  0.00    -0.206 F 
ATOM     71  C   UNL A   1      46.370  26.686  36.896  1.00  0.00     0.060 A 
BRANCH  71  72
ATOM     72  S   UNL A   1      47.649  25.663  37.656  1.00  0.00     0.124 S 
ATOM     73  O   UNL A   1      47.370  25.857  39.076  1.00  0.00    -0.237 OA
ATOM     74  O   UNL A   1      47.344  24.338  37.126  1.00  0.00    -0.237 OA
ATOM     75  O   UNL A   1      48.892  26.258  37.174  1.00  0.00    -0.744 OA
ENDBRANCH  71  72
ENDBRANCH  50  64
BRANCH  51  76
ATOM     76  C   UNL A   1      36.928  32.908  30.917  1.00  0.00     0.058 A 
ATOM     77  C   UNL A   1      35.602  32.584  31.248  1.00  0.00     0.135 A 
ATOM     78  C   UNL A   1      37.132  33.865  29.911  1.00  0.00     0.135 A 
ATOM     79  F   UNL A   1      35.353  31.672  32.200  1.00  0.00    -0.206 F 
ATOM     80  C   UNL A   1      34.523  33.155  30.582  1.00  0.00     0.059 A 
ATOM     81  C   UNL A   1      36.068  34.474  29.253  1.00  0.00     0.059 A 
ATOM     82  F   UNL A   1      38.378  34.229  29.568  1.00  0.00    -0.206 F 
ATOM     83  C   UNL A   1      34.766  34.099  29.583  1.00  0.00     0.060 A 
BRANCH  83  84
ATOM     84  S   UNL A   1      33.360  34.848  28.733  1.00  0.00     0.124 S 
ATOM     85  O   UNL A   1      32.968  33.782  27.819  1.00  0.00    -0.237 OA
ATOM     86  O   UNL A   1      32.443  35.114  29.837  1.00  0.00    -0.237 OA
ATOM     87  O   UNL A   1      33.940  36.034  28.110  1.00  0.00    -0.744 OA
ENDBRANCH  83  84
ENDBRANCH  51  76
BRANCH  63  88
ATOM     88  C   UNL A   1      39.987  33.778  37.126  1.00  0.00     0.058 A 
ATOM     89  C   UNL A   1      40.638  35.021  37.172  1.00  0.00     0.135 A 
ATOM     90  C   UNL A   1      39.062  33.486  38.142  1.00  0.00     0.135 A 
ATOM     91  F   UNL A   1      41.538  35.349  36.230  1.00  0.00    -0.206 F 
ATOM     92  C   UNL A   1      40.399  35.928  38.199  1.00  0.00     0.059 A 
ATOM     93  C   UNL A   1      38.783  34.392  39.160  1.00  0.00     0.059 A 
ATOM     94  F   UNL A   1      38.403  32.316  38.141  1.00  0.00    -0.206 F 
ATOM     95  C   UNL A   1      39.466  35.606  39.187  1.00  0.00     0.060 A 
BRANCH  95  96
ATOM     96  S   UNL A   1      39.141  36.807  40.495  1.00  0.00     0.124 S 
ATOM     97  O   UNL A   1      38.507  37.889  39.749  1.00  0.00    -0.237 OA
ATOM     98  O   UNL A   1      38.266  36.060  41.394  1.00  0.00    -0.237 OA
ATOM     99  O   UNL A   1      40.469  37.103  41.024  1.00  0.00    -0.744 OA
ENDBRANCH  95  96
ENDBRANCH  63  88
ENDBRANCH  37  38
ENDBRANCH  29  32
ENDBRANCH  27  28
ENDBRANCH  26  27
ENDBRANCH  25  26
ENDBRANCH   1  25
TORSDOF 20
ENDMDL
MODEL 3
REMARK VINA RESULT:     -11.1      4.822     10.543
REMARK SMILES COCc1ccccc1C(=O)N1CCC[C@@H](C(=O)NCCCCCCNC(=O)c2ccc(-c3c4nc(c(-c5c(F)cc(S(=O)(=O)[O-])cc5F)c5ccc([nH]5)c(-c5c(F)cc(S(=O)(=O)[O-])cc5F)c5nc(c(-c6c(F)cc(S(=O)(=O)[O-])cc6F)c6ccc3[nH]6)C=C5)C=C4)cc2)C1
REMARK SMILES IDX 22 1 21 2 20 3 19 4 17 5 18 6 16 8 12 9 13 10 95 11 14 12
REMARK SMILES IDX 15 13 10 14 11 15 9 16 4 17 5 18 6 19 8 20 7 21 3 22 2 23
REMARK SMILES IDX 1 24 23 25 24 26 25 27 26 28 27 29 28 31 29 32 30 33 94 34
REMARK SMILES IDX 31 35 93 36 32 37 33 38 34 39 87 40 35 41 92 42 86 43 88 44
REMARK SMILES IDX 36 45 91 46 85 47 84 48 37 50 71 51 50 52 70 53 51 54 54 55
REMARK SMILES IDX 69 56 89 57 52 58 53 59 68 61 90 62 55 63 38 64 39 65 48 66
REMARK SMILES IDX 40 67 41 68 47 69 49 70 42 71 43 72 44 73 45 74 46 75 72 76
REMARK SMILES IDX 73 77 82 78 74 79 75 80 81 81 83 82 76 83 77 84 78 85 79 86
REMARK SMILES IDX 80 87 56 88 57 89 66 90 58 91 59 92 65 93 67 94 60 95 61 96
REMARK SMILES IDX 62 97 63 98 64 99
REMARK H PARENT 19 7 26 30 88 49 54 60
REMARK Flexibility Score: inf
ROOT
ATOM      1  C   UNL A   1      36.942  22.231  24.578  1.00  0.00     0.002 C 
ENDROOT
BRANCH   1   2
ATOM      2  C   UNL A   1      36.235  20.936  24.989  1.00  0.00     0.021 C 
BRANCH   2   3
ATOM      3  C   UNL A   1      34.795  21.096  25.459  1.00  0.00     0.116 C 
BRANCH   3   4
ATOM      4  N   UNL A   1      33.832  20.502  24.555  1.00  0.00    -0.356 N 
ATOM      5  C   UNL A   1      32.824  21.103  23.861  1.00  0.00     0.224 C 
ATOM      6  O   UNL A   1      32.166  20.401  23.090  1.00  0.00    -0.275 OA
ATOM      7  H   UNL A   1      33.915  19.529  24.425  1.00  0.00     0.163 HD
BRANCH   5   8
ATOM      8  C   UNL A   1      32.519  22.583  24.081  1.00  0.00     0.098 C 
ATOM      9  N   UNL A   1      32.150  24.746  22.911  1.00  0.00    -0.338 N 
ATOM     10  C   UNL A   1      30.863  24.958  23.566  1.00  0.00     0.120 C 
ATOM     11  C   UNL A   1      32.564  23.355  22.755  1.00  0.00     0.133 C 
ATOM     12  C   UNL A   1      30.771  24.220  24.894  1.00  0.00     0.022 C 
ATOM     13  C   UNL A   1      31.129  22.747  24.724  1.00  0.00     0.017 C 
BRANCH   9  14
ATOM     14  C   UNL A   1      32.950  25.858  22.662  1.00  0.00     0.254 C 
ATOM     15  O   UNL A   1      33.659  25.879  21.651  1.00  0.00    -0.269 OA
BRANCH  14  16
ATOM     16  C   UNL A   1      33.078  27.030  23.607  1.00  0.00     0.045 A 
ATOM     17  C   UNL A   1      32.397  28.267  23.542  1.00  0.00    -0.010 A 
ATOM     18  C   UNL A   1      32.409  29.111  24.683  1.00  0.00     0.007 A 
ATOM     19  C   UNL A   1      33.086  28.773  25.850  1.00  0.00     0.000 A 
ATOM     20  C   UNL A   1      33.780  26.724  24.799  1.00  0.00     0.014 A 
ATOM     21  C   UNL A   1      33.786  27.580  25.904  1.00  0.00     0.001 A 
BRANCH  17  22
ATOM     22  C   UNL A   1      31.617  28.799  22.367  1.00  0.00     0.196 C 
BRANCH  22  23
ATOM     23  O   UNL A   1      30.287  28.267  22.311  1.00  0.00    -0.380 OA
ATOM     24  C   UNL A   1      29.255  29.246  22.351  1.00  0.00     0.195 C 
ENDBRANCH  22  23
ENDBRANCH  17  22
ENDBRANCH  14  16
ENDBRANCH   9  14
ENDBRANCH   5   8
ENDBRANCH   3   4
ENDBRANCH   2   3
ENDBRANCH   1   2
BRANCH   1  25
ATOM     25  C   UNL A   1      37.030  23.321  25.650  1.00  0.00     0.002 C 
BRANCH  25  26
ATOM     26  C   UNL A   1      38.330  23.364  26.456  1.00  0.00     0.021 C 
BRANCH  26  27
ATOM     27  C   UNL A   1      39.314  24.460  26.061  1.00  0.00     0.116 C 
BRANCH  27  28
ATOM     28  N   UNL A   1      40.699  24.027  26.127  1.00  0.00    -0.352 N 
ATOM     29  C   UNL A   1      41.746  24.558  26.842  1.00  0.00     0.251 C 
ATOM     30  H   UNL A   1      40.919  23.240  25.580  1.00  0.00     0.163 HD
ATOM     31  O   UNL A   1      42.882  24.137  26.660  1.00  0.00    -0.269 OA
BRANCH  29  32
ATOM     32  C   UNL A   1      41.506  25.658  27.805  1.00  0.00     0.039 A 
ATOM     33  C   UNL A   1      40.376  25.598  28.623  1.00  0.00     0.014 A 
ATOM     34  C   UNL A   1      42.383  26.742  27.902  1.00  0.00     0.014 A 
ATOM     35  C   UNL A   1      40.160  26.590  29.583  1.00  0.00     0.010 A 
ATOM     36  C   UNL A   1      42.207  27.690  28.908  1.00  0.00     0.010 A 
ATOM     37  C   UNL A   1      41.093  27.626  29.760  1.00  0.00    -0.014 A 
BRANCH  37  38
ATOM     38  C   UNL A   1      40.921  28.642  30.832  1.00  0.00     0.031 A 
ATOM     39  C   UNL A   1      41.748  28.568  32.088  1.00  0.00     0.074 A 
ATOM     40  C   UNL A   1      39.976  29.595  30.699  1.00  0.00     0.049 A 
ATOM     41  N   UNL A   1      41.699  29.327  33.153  1.00  0.00    -0.248 NA
ATOM     42  C   UNL A   1      42.743  27.487  32.171  1.00  0.00     0.031 C 
ATOM     43  C   UNL A   1      39.078  29.744  29.550  1.00  0.00     0.029 A 
ATOM     44  N   UNL A   1      39.602  30.615  31.541  1.00  0.00    -0.354 N 
ATOM     45  C   UNL A   1      42.637  28.804  34.038  1.00  0.00     0.074 A 
ATOM     46  C   UNL A   1      43.211  27.639  33.402  1.00  0.00     0.031 C 
ATOM     47  C   UNL A   1      38.275  30.801  29.750  1.00  0.00     0.029 A 
ATOM     48  C   UNL A   1      38.566  31.381  31.058  1.00  0.00     0.049 A 
ATOM     49  H   UNL A   1      40.035  30.781  32.409  1.00  0.00     0.167 HD
ATOM     50  C   UNL A   1      42.996  29.265  35.259  1.00  0.00     0.037 A 
ATOM     51  C   UNL A   1      37.916  32.425  31.609  1.00  0.00     0.037 A 
ATOM     52  C   UNL A   1      42.444  30.447  35.869  1.00  0.00     0.049 A 
ATOM     53  C   UNL A   1      38.338  32.915  32.970  1.00  0.00     0.074 A 
ATOM     54  C   UNL A   1      42.806  31.042  37.065  1.00  0.00     0.029 A 
ATOM     55  N   UNL A   1      41.413  31.208  35.339  1.00  0.00    -0.354 N 
ATOM     56  N   UNL A   1      39.289  32.461  33.751  1.00  0.00    -0.248 NA
ATOM     57  C   UNL A   1      37.605  34.062  33.522  1.00  0.00     0.031 C 
ATOM     58  C   UNL A   1      41.951  32.126  37.289  1.00  0.00     0.029 A 
ATOM     59  C   UNL A   1      41.102  32.246  36.202  1.00  0.00     0.049 A 
ATOM     60  H   UNL A   1      40.968  31.036  34.478  1.00  0.00     0.167 HD
ATOM     61  C   UNL A   1      39.290  33.289  34.869  1.00  0.00     0.074 A 
ATOM     62  C   UNL A   1      38.255  34.279  34.657  1.00  0.00     0.031 C 
ATOM     63  C   UNL A   1      40.078  33.235  35.971  1.00  0.00     0.037 A 
BRANCH  50  64
ATOM     64  C   UNL A   1      44.031  28.493  36.033  1.00  0.00     0.058 A 
ATOM     65  C   UNL A   1      45.394  28.830  35.989  1.00  0.00     0.135 A 
ATOM     66  C   UNL A   1      43.642  27.453  36.893  1.00  0.00     0.135 A 
ATOM     67  F   UNL A   1      45.825  29.805  35.173  1.00  0.00    -0.206 F 
ATOM     68  C   UNL A   1      46.334  28.152  36.758  1.00  0.00     0.059 A 
ATOM     69  C   UNL A   1      44.561  26.782  37.694  1.00  0.00     0.059 A 
ATOM     70  F   UNL A   1      42.352  27.089  36.972  1.00  0.00    -0.206 F 
ATOM     71  C   UNL A   1      45.907  27.134  37.613  1.00  0.00     0.060 A 
BRANCH  71  72
ATOM     72  S   UNL A   1      47.137  26.293  38.633  1.00  0.00     0.124 S 
ATOM     73  O   UNL A   1      47.322  25.046  37.896  1.00  0.00    -0.237 OA
ATOM     74  O   UNL A   1      48.261  27.223  38.595  1.00  0.00    -0.237 OA
ATOM     75  O   UNL A   1      46.476  26.164  39.927  1.00  0.00    -0.744 OA
ENDBRANCH  71  72
ENDBRANCH  50  64
BRANCH  51  76
ATOM     76  C   UNL A   1      36.795  33.084  30.883  1.00  0.00     0.058 A 
ATOM     77  C   UNL A   1      35.459  32.848  31.243  1.00  0.00     0.135 A 
ATOM     78  C   UNL A   1      37.034  33.943  29.798  1.00  0.00     0.135 A 
ATOM     79  F   UNL A   1      35.176  32.031  32.269  1.00  0.00    -0.206 F 
ATOM     80  C   UNL A   1      34.401  33.408  30.534  1.00  0.00     0.059 A 
ATOM     81  C   UNL A   1      35.994  34.541  29.094  1.00  0.00     0.059 A 
ATOM     82  F   UNL A   1      38.293  34.221  29.423  1.00  0.00    -0.206 F 
ATOM     83  C   UNL A   1      34.679  34.252  29.458  1.00  0.00     0.060 A 
BRANCH  83  84
ATOM     84  S   UNL A   1      33.302  34.988  28.552  1.00  0.00     0.124 S 
ATOM     85  O   UNL A   1      32.514  35.564  29.634  1.00  0.00    -0.237 OA
ATOM     86  O   UNL A   1      33.983  35.939  27.679  1.00  0.00    -0.237 OA
ATOM     87  O   UNL A   1      32.701  33.844  27.872  1.00  0.00    -0.744 OA
ENDBRANCH  83  84
ENDBRANCH  51  76
BRANCH  63  88
ATOM     88  C   UNL A   1      39.889  34.301  37.016  1.00  0.00     0.058 A 
ATOM     89  C   UNL A   1      39.109  34.086  38.164  1.00  0.00     0.135 A 
ATOM     90  C   UNL A   1      40.542  35.539  36.890  1.00  0.00     0.135 A 
ATOM     91  F   UNL A   1      38.457  32.925  38.331  1.00  0.00    -0.206 F 
ATOM     92  C   UNL A   1      38.963  35.070  39.136  1.00  0.00     0.059 A 
ATOM     93  C   UNL A   1      40.437  36.524  37.867  1.00  0.00     0.059 A 
ATOM     94  F   UNL A   1      41.309  35.793  35.818  1.00  0.00    -0.206 F 
ATOM     95  C   UNL A   1      39.634  36.284  38.981  1.00  0.00     0.060 A 
BRANCH  95  96
ATOM     96  S   UNL A   1      39.463  37.539  40.268  1.00  0.00     0.124 S 
ATOM     97  O   UNL A   1      38.487  38.443  39.669  1.00  0.00    -0.237 OA
ATOM     98  O   UNL A   1      38.988  36.756  41.405  1.00  0.00    -0.237 OA
ATOM     99  O   UNL A   1      40.814  38.074  40.404  1.00  0.00    -0.744 OA
ENDBRANCH  95  96
ENDBRANCH  63  88
ENDBRANCH  37  38
ENDBRANCH  29  32
ENDBRANCH  27  28
ENDBRANCH  26  27
ENDBRANCH  25  26
ENDBRANCH   1  25
TORSDOF 20
ENDMDL
