MODEL 1
REMARK VINA RESULT:     -10.6      0.000      0.000
REMARK SMILES COCc1cc(OCC(=O)NCCCCCCNC(=O)c2ccc(-c3c4nc(c(-c5c(F)cc(S(=O)(=O)[O-])cc5F)c5ccc([nH]5)c(-c5c(F)cc(S(=O)(=O)[O-])cc5F)c5nc(c(-c6c(F)cc(S(=O)(=O)[O-])cc6F)c6ccc3[nH]6)C=C5)C=C4)cc2)nc(Nc2cccc(C)c2C)n1
REMARK SMILES IDX 14 1 13 2 12 3 11 4 9 5 10 6 8 8 7 9 6 10 4 11 5 12 98 13
REMARK SMILES IDX 88 14 87 15 3 16 2 17 1 18 89 19 90 21 91 22 96 23 92 24
REMARK SMILES IDX 94 25 97 26 93 27 95 28 15 29 16 30 17 31 18 32 19 33 20 35
REMARK SMILES IDX 21 36 22 37 86 38 23 39 85 40 24 41 25 42 26 43 79 44 27 45
REMARK SMILES IDX 84 46 78 47 80 48 28 49 83 50 77 51 76 52 29 54 63 55 42 56
REMARK SMILES IDX 62 57 43 58 46 59 61 60 81 61 44 62 45 63 60 65 82 66 47 67
REMARK SMILES IDX 30 68 31 69 40 70 32 71 33 72 39 73 41 74 34 75 35 76 36 77
REMARK SMILES IDX 37 78 38 79 64 80 65 81 74 82 66 83 67 84 73 85 75 86 68 87
REMARK SMILES IDX 69 88 70 89 71 90 72 91 48 92 49 93 58 94 50 95 51 96 57 97
REMARK SMILES IDX 59 98 52 99 53 100 54 101 55 102 56 103
REMARK H PARENT 11 7 89 20 18 34 80 53 46 64
REMARK Flexibility Score: inf
ROOT
ATOM      1  C   UNL A   1      36.414  33.111  28.082  1.00  0.00     0.002 C 
ENDROOT
BRANCH   1   2
ATOM      2  C   UNL A   1      34.954  32.845  28.473  1.00  0.00     0.021 C 
BRANCH   2   3
ATOM      3  C   UNL A   1      34.491  31.404  28.266  1.00  0.00     0.116 C 
BRANCH   3   4
ATOM      4  N   UNL A   1      33.315  31.335  27.421  1.00  0.00    -0.353 N 
ATOM      5  C   UNL A   1      32.715  30.234  26.892  1.00  0.00     0.258 C 
ATOM      6  O   UNL A   1      31.721  30.381  26.178  1.00  0.00    -0.271 OA
ATOM      7  H   UNL A   1      32.895  32.199  27.201  1.00  0.00     0.163 HD
BRANCH   5   8
ATOM      8  C   UNL A   1      33.268  28.838  27.210  1.00  0.00     0.331 C 
BRANCH   8   9
ATOM      9  O   UNL A   1      34.109  28.236  26.243  1.00  0.00    -0.467 OA
BRANCH   9  10
ATOM     10  C   UNL A   1      33.632  27.165  25.545  1.00  0.00     0.218 A 
ATOM     11  C   UNL A   1      33.356  24.917  24.987  1.00  0.00     0.076 A 
ATOM     12  C   UNL A   1      33.984  25.856  25.770  1.00  0.00     0.095 A 
ATOM     13  N   UNL A   1      32.465  25.256  24.042  1.00  0.00    -0.215 NA
ATOM     14  C   UNL A   1      32.190  26.555  23.866  1.00  0.00     0.230 A 
ATOM     15  N   UNL A   1      32.760  27.527  24.586  1.00  0.00    -0.177 NA
BRANCH  11  16
ATOM     16  C   UNL A   1      33.713  23.457  25.098  1.00  0.00     0.216 C 
BRANCH  16  17
ATOM     17  O   UNL A   1      33.514  22.761  23.862  1.00  0.00    -0.378 OA
ATOM     18  C   UNL A   1      33.279  21.370  24.059  1.00  0.00     0.195 C 
ENDBRANCH  16  17
ENDBRANCH  11  16
BRANCH  14  19
ATOM     19  N   UNL A   1      31.293  26.930  22.870  1.00  0.00    -0.324 N 
ATOM     20  H   UNL A   1      31.636  26.901  21.948  1.00  0.00     0.170 HD
BRANCH  19  21
ATOM     21  C   UNL A   1      29.959  27.345  23.016  1.00  0.00     0.044 A 
ATOM     22  C   UNL A   1      29.051  26.442  23.589  1.00  0.00     0.026 A 
ATOM     23  C   UNL A   1      29.524  28.659  22.703  1.00  0.00    -0.025 A 
ATOM     24  C   UNL A   1      27.747  26.830  23.894  1.00  0.00     0.002 A 
ATOM     25  C   UNL A   1      28.209  29.059  23.044  1.00  0.00    -0.046 A 
ATOM     26  C   UNL A   1      30.437  29.627  21.989  1.00  0.00     0.047 C 
ATOM     27  C   UNL A   1      27.335  28.132  23.634  1.00  0.00     0.004 A 
ATOM     28  C   UNL A   1      27.679  30.448  22.798  1.00  0.00     0.044 C 
ENDBRANCH  19  21
ENDBRANCH  14  19
ENDBRANCH   9  10
ENDBRANCH   8   9
ENDBRANCH   5   8
ENDBRANCH   3   4
ENDBRANCH   2   3
ENDBRANCH   1   2
BRANCH   1  29
ATOM     29  C   UNL A   1      37.305  33.668  29.199  1.00  0.00     0.002 C 
BRANCH  29  30
ATOM     30  C   UNL A   1      36.617  33.842  30.555  1.00  0.00     0.021 C 
BRANCH  30  31
ATOM     31  C   UNL A   1      37.102  32.890  31.642  1.00  0.00     0.116 C 
BRANCH  31  32
ATOM     32  N   UNL A   1      36.352  31.643  31.658  1.00  0.00    -0.352 N 
ATOM     33  C   UNL A   1      36.691  30.419  31.137  1.00  0.00     0.251 C 
ATOM     34  H   UNL A   1      35.476  31.684  32.106  1.00  0.00     0.163 HD
ATOM     35  O   UNL A   1      35.852  29.522  31.079  1.00  0.00    -0.269 OA
BRANCH  33  36
ATOM     36  C   UNL A   1      38.060  30.191  30.623  1.00  0.00     0.039 A 
ATOM     37  C   UNL A   1      39.091  29.940  31.530  1.00  0.00     0.014 A 
ATOM     38  C   UNL A   1      38.322  30.217  29.250  1.00  0.00     0.014 A 
ATOM     39  C   UNL A   1      40.374  29.650  31.056  1.00  0.00     0.010 A 
ATOM     40  C   UNL A   1      39.580  29.852  28.778  1.00  0.00     0.010 A 
ATOM     41  C   UNL A   1      40.620  29.564  29.675  1.00  0.00    -0.014 A 
BRANCH  41  42
ATOM     42  C   UNL A   1      41.954  29.166  29.154  1.00  0.00     0.031 A 
ATOM     43  C   UNL A   1      43.059  30.182  29.038  1.00  0.00     0.074 A 
ATOM     44  C   UNL A   1      42.151  27.903  28.725  1.00  0.00     0.049 A 
ATOM     45  N   UNL A   1      44.266  30.039  28.552  1.00  0.00    -0.248 NA
ATOM     46  C   UNL A   1      42.761  31.545  29.507  1.00  0.00     0.031 C 
ATOM     47  C   UNL A   1      41.144  26.839  28.738  1.00  0.00     0.029 A 
ATOM     48  N   UNL A   1      43.260  27.300  28.184  1.00  0.00    -0.354 N 
ATOM     49  C   UNL A   1      44.865  31.289  28.648  1.00  0.00     0.074 A 
ATOM     50  C   UNL A   1      43.871  32.192  29.183  1.00  0.00     0.031 C 
ATOM     51  C   UNL A   1      41.688  25.711  28.254  1.00  0.00     0.029 A 
ATOM     52  C   UNL A   1      43.065  25.978  27.854  1.00  0.00     0.049 A 
ATOM     53  H   UNL A   1      44.114  27.770  28.045  1.00  0.00     0.167 HD
ATOM     54  C   UNL A   1      46.134  31.646  28.338  1.00  0.00     0.037 A 
ATOM     55  C   UNL A   1      43.898  25.085  27.283  1.00  0.00     0.037 A 
ATOM     56  C   UNL A   1      47.123  30.735  27.820  1.00  0.00     0.049 A 
ATOM     57  C   UNL A   1      45.299  25.510  26.934  1.00  0.00     0.074 A 
ATOM     58  C   UNL A   1      48.452  30.986  27.526  1.00  0.00     0.029 A 
ATOM     59  N   UNL A   1      46.893  29.402  27.513  1.00  0.00    -0.354 N 
ATOM     60  N   UNL A   1      45.870  26.680  27.094  1.00  0.00    -0.248 NA
ATOM     61  C   UNL A   1      46.174  24.492  26.336  1.00  0.00     0.031 C 
ATOM     62  C   UNL A   1      49.009  29.821  26.989  1.00  0.00     0.029 A 
ATOM     63  C   UNL A   1      48.046  28.825  27.008  1.00  0.00     0.049 A 
ATOM     64  H   UNL A   1      46.034  28.935  27.634  1.00  0.00     0.167 HD
ATOM     65  C   UNL A   1      47.178  26.530  26.645  1.00  0.00     0.074 A 
ATOM     66  C   UNL A   1      47.316  25.153  26.218  1.00  0.00     0.031 C 
ATOM     67  C   UNL A   1      48.175  27.449  26.595  1.00  0.00     0.037 A 
BRANCH  54  68
ATOM     68  C   UNL A   1      46.531  33.083  28.552  1.00  0.00     0.058 A 
ATOM     69  C   UNL A   1      47.188  33.503  29.719  1.00  0.00     0.135 A 
ATOM     70  C   UNL A   1      46.286  34.046  27.559  1.00  0.00     0.135 A 
ATOM     71  F   UNL A   1      47.435  32.629  30.708  1.00  0.00    -0.206 F 
ATOM     72  C   UNL A   1      47.562  34.829  29.909  1.00  0.00     0.059 A 
ATOM     73  C   UNL A   1      46.680  35.373  27.713  1.00  0.00     0.059 A 
ATOM     74  F   UNL A   1      45.662  33.703  26.421  1.00  0.00    -0.206 F 
ATOM     75  C   UNL A   1      47.305  35.757  28.899  1.00  0.00     0.060 A 
BRANCH  75  76
ATOM     76  S   UNL A   1      47.805  37.472  29.158  1.00  0.00     0.124 S 
ATOM     77  O   UNL A   1      49.233  37.322  29.420  1.00  0.00    -0.237 OA
ATOM     78  O   UNL A   1      47.458  38.094  27.884  1.00  0.00    -0.237 OA
ATOM     79  O   UNL A   1      47.000  37.894  30.299  1.00  0.00    -0.744 OA
ENDBRANCH  75  76
ENDBRANCH  54  68
BRANCH  55  80
ATOM     80  C   UNL A   1      43.433  23.695  27.022  1.00  0.00     0.058 A 
ATOM     81  C   UNL A   1      43.077  23.282  25.730  1.00  0.00     0.135 A 
ATOM     82  C   UNL A   1      43.346  22.750  28.056  1.00  0.00     0.135 A 
ATOM     83  F   UNL A   1      43.137  24.150  24.708  1.00  0.00    -0.206 F 
ATOM     84  C   UNL A   1      42.634  21.988  25.473  1.00  0.00     0.059 A 
ATOM     85  C   UNL A   1      42.934  21.442  27.820  1.00  0.00     0.059 A 
ATOM     86  F   UNL A   1      43.691  23.088  29.308  1.00  0.00    -0.206 F 
ATOM     87  C   UNL A   1      42.569  21.074  26.525  1.00  0.00     0.060 A 
BRANCH  87  88
ATOM     88  S   UNL A   1      42.037  19.384  26.173  1.00  0.00     0.124 S 
ATOM     89  O   UNL A   1      42.912  19.025  25.064  1.00  0.00    -0.237 OA
ATOM     90  O   UNL A   1      42.302  18.711  27.441  1.00  0.00    -0.237 OA
ATOM     91  O   UNL A   1      40.624  19.541  25.839  1.00  0.00    -0.744 OA
ENDBRANCH  87  88
ENDBRANCH  55  80
BRANCH  67  92
ATOM     92  C   UNL A   1      49.520  26.992  26.100  1.00  0.00     0.058 A 
ATOM     93  C   UNL A   1      50.454  26.377  26.949  1.00  0.00     0.135 A 
ATOM     94  C   UNL A   1      49.854  27.120  24.742  1.00  0.00     0.135 A 
ATOM     95  F   UNL A   1      50.189  26.236  28.257  1.00  0.00    -0.206 F 
ATOM     96  C   UNL A   1      51.680  25.924  26.473  1.00  0.00     0.059 A 
ATOM     97  C   UNL A   1      51.061  26.646  24.238  1.00  0.00     0.059 A 
ATOM     98  F   UNL A   1      48.995  27.691  23.884  1.00  0.00    -0.206 F 
ATOM     99  C   UNL A   1      51.973  26.059  25.114  1.00  0.00     0.060 A 
BRANCH  99 100
ATOM    100  S   UNL A   1      53.551  25.430  24.503  1.00  0.00     0.124 S 
ATOM    101  O   UNL A   1      53.478  25.779  23.088  1.00  0.00    -0.237 OA
ATOM    102  O   UNL A   1      54.516  26.186  25.293  1.00  0.00    -0.237 OA
ATOM    103  O   UNL A   1      53.487  24.002  24.800  1.00  0.00    -0.744 OA
ENDBRANCH  99 100
ENDBRANCH  67  92
ENDBRANCH  41  42
ENDBRANCH  33  36
ENDBRANCH  31  32
ENDBRANCH  30  31
ENDBRANCH  29  30
ENDBRANCH   1  29
TORSDOF 22
ENDMDL
MODEL 2
REMARK VINA RESULT:     -10.5      0.678      8.062
REMARK SMILES COCc1cc(OCC(=O)NCCCCCCNC(=O)c2ccc(-c3c4nc(c(-c5c(F)cc(S(=O)(=O)[O-])cc5F)c5ccc([nH]5)c(-c5c(F)cc(S(=O)(=O)[O-])cc5F)c5nc(c(-c6c(F)cc(S(=O)(=O)[O-])cc6F)c6ccc3[nH]6)C=C5)C=C4)cc2)nc(Nc2cccc(C)c2C)n1
REMARK SMILES IDX 14 1 13 2 12 3 11 4 9 5 10 6 8 8 7 9 6 10 4 11 5 12 98 13
REMARK SMILES IDX 88 14 87 15 3 16 2 17 1 18 89 19 90 21 91 22 96 23 92 24
REMARK SMILES IDX 94 25 97 26 93 27 95 28 15 29 16 30 17 31 18 32 19 33 20 35
REMARK SMILES IDX 21 36 22 37 86 38 23 39 85 40 24 41 25 42 26 43 79 44 27 45
REMARK SMILES IDX 84 46 78 47 80 48 28 49 83 50 77 51 76 52 29 54 63 55 42 56
REMARK SMILES IDX 62 57 43 58 46 59 61 60 81 61 44 62 45 63 60 65 82 66 47 67
REMARK SMILES IDX 30 68 31 69 40 70 32 71 33 72 39 73 41 74 34 75 35 76 36 77
REMARK SMILES IDX 37 78 38 79 64 80 65 81 74 82 66 83 67 84 73 85 75 86 68 87
REMARK SMILES IDX 69 88 70 89 71 90 72 91 48 92 49 93 58 94 50 95 51 96 57 97
REMARK SMILES IDX 59 98 52 99 53 100 54 101 55 102 56 103
REMARK H PARENT 11 7 89 20 18 34 80 53 46 64
REMARK Flexibility Score: inf
ROOT
ATOM      1  C   UNL A   1      36.678  33.241  28.363  1.00  0.00     0.002 C 
ENDROOT
BRANCH   1   2
ATOM      2  C   UNL A   1      35.375  32.562  28.805  1.00  0.00     0.021 C 
BRANCH   2   3
ATOM      3  C   UNL A   1      35.064  31.249  28.087  1.00  0.00     0.116 C 
BRANCH   3   4
ATOM      4  N   UNL A   1      33.652  31.127  27.782  1.00  0.00    -0.353 N 
ATOM      5  C   UNL A   1      32.972  30.034  27.340  1.00  0.00     0.258 C 
ATOM      6  O   UNL A   1      31.763  30.132  27.120  1.00  0.00    -0.271 OA
ATOM      7  H   UNL A   1      33.114  31.942  27.912  1.00  0.00     0.163 HD
BRANCH   5   8
ATOM      8  C   UNL A   1      33.712  28.704  27.146  1.00  0.00     0.331 C 
BRANCH   8   9
ATOM      9  O   UNL A   1      34.254  28.442  25.864  1.00  0.00    -0.467 OA
BRANCH   9  10
ATOM     10  C   UNL A   1      33.698  27.445  25.116  1.00  0.00     0.218 A 
ATOM     11  C   UNL A   1      33.230  25.254  24.469  1.00  0.00     0.076 A 
ATOM     12  C   UNL A   1      33.922  26.101  25.300  1.00  0.00     0.095 A 
ATOM     13  N   UNL A   1      32.399  25.706  23.518  1.00  0.00    -0.215 NA
ATOM     14  C   UNL A   1      32.250  27.031  23.383  1.00  0.00     0.230 A 
ATOM     15  N   UNL A   1      32.888  27.920  24.152  1.00  0.00    -0.177 NA
BRANCH  11  16
ATOM     16  C   UNL A   1      33.448  23.764  24.534  1.00  0.00     0.216 C 
BRANCH  16  17
ATOM     17  O   UNL A   1      32.213  23.039  24.479  1.00  0.00    -0.378 OA
ATOM     18  C   UNL A   1      31.740  22.683  25.775  1.00  0.00     0.195 C 
ENDBRANCH  16  17
ENDBRANCH  11  16
BRANCH  14  19
ATOM     19  N   UNL A   1      31.417  27.523  22.383  1.00  0.00    -0.324 N 
ATOM     20  H   UNL A   1      31.652  27.264  21.462  1.00  0.00     0.170 HD
BRANCH  19  21
ATOM     21  C   UNL A   1      30.284  28.341  22.521  1.00  0.00     0.044 A 
ATOM     22  C   UNL A   1      30.331  29.625  21.957  1.00  0.00     0.026 A 
ATOM     23  C   UNL A   1      29.076  27.888  23.112  1.00  0.00    -0.025 A 
ATOM     24  C   UNL A   1      29.200  30.440  21.930  1.00  0.00     0.002 A 
ATOM     25  C   UNL A   1      27.921  28.706  23.054  1.00  0.00    -0.046 A 
ATOM     26  C   UNL A   1      29.014  26.558  23.823  1.00  0.00     0.047 C 
ATOM     27  C   UNL A   1      28.003  29.977  22.464  1.00  0.00     0.004 A 
ATOM     28  C   UNL A   1      26.585  28.285  23.607  1.00  0.00     0.044 C 
ENDBRANCH  19  21
ENDBRANCH  14  19
ENDBRANCH   9  10
ENDBRANCH   8   9
ENDBRANCH   5   8
ENDBRANCH   3   4
ENDBRANCH   2   3
ENDBRANCH   1   2
BRANCH   1  29
ATOM     29  C   UNL A   1      37.574  33.751  29.498  1.00  0.00     0.002 C 
BRANCH  29  30
ATOM     30  C   UNL A   1      36.906  33.823  30.873  1.00  0.00     0.021 C 
BRANCH  30  31
ATOM     31  C   UNL A   1      37.476  32.862  31.910  1.00  0.00     0.116 C 
BRANCH  31  32
ATOM     32  N   UNL A   1      36.756  31.599  31.946  1.00  0.00    -0.352 N 
ATOM     33  C   UNL A   1      37.091  30.392  31.384  1.00  0.00     0.251 C 
ATOM     34  H   UNL A   1      35.907  31.611  32.446  1.00  0.00     0.163 HD
ATOM     35  O   UNL A   1      36.271  29.477  31.358  1.00  0.00    -0.269 OA
BRANCH  33  36
ATOM     36  C   UNL A   1      38.433  30.205  30.786  1.00  0.00     0.039 A 
ATOM     37  C   UNL A   1      39.513  29.919  31.623  1.00  0.00     0.014 A 
ATOM     38  C   UNL A   1      38.621  30.304  29.405  1.00  0.00     0.014 A 
ATOM     39  C   UNL A   1      40.771  29.667  31.067  1.00  0.00     0.010 A 
ATOM     40  C   UNL A   1      39.854  29.976  28.848  1.00  0.00     0.010 A 
ATOM     41  C   UNL A   1      40.944  29.655  29.672  1.00  0.00    -0.014 A 
BRANCH  41  42
ATOM     42  C   UNL A   1      42.251  29.297  29.062  1.00  0.00     0.031 A 
ATOM     43  C   UNL A   1      42.497  27.899  28.561  1.00  0.00     0.074 A 
ATOM     44  C   UNL A   1      43.237  30.215  29.017  1.00  0.00     0.049 A 
ATOM     45  N   UNL A   1      43.589  27.384  28.056  1.00  0.00    -0.248 NA
ATOM     46  C   UNL A   1      41.379  26.948  28.664  1.00  0.00     0.031 C 
ATOM     47  C   UNL A   1      43.137  31.589  29.515  1.00  0.00     0.029 A 
ATOM     48  N   UNL A   1      44.522  30.130  28.539  1.00  0.00    -0.354 N 
ATOM     49  C   UNL A   1      43.294  26.052  27.791  1.00  0.00     0.074 A 
ATOM     50  C   UNL A   1      41.940  25.823  28.244  1.00  0.00     0.031 C 
ATOM     51  C   UNL A   1      44.300  32.224  29.294  1.00  0.00     0.029 A 
ATOM     52  C   UNL A   1      45.243  31.294  28.681  1.00  0.00     0.049 A 
ATOM     53  H   UNL A   1      44.893  29.313  28.133  1.00  0.00     0.167 HD
ATOM     54  C   UNL A   1      44.072  25.112  27.203  1.00  0.00     0.037 A 
ATOM     55  C   UNL A   1      46.522  31.577  28.365  1.00  0.00     0.037 A 
ATOM     56  C   UNL A   1      45.414  25.353  26.738  1.00  0.00     0.049 A 
ATOM     57  C   UNL A   1      47.371  30.512  27.725  1.00  0.00     0.074 A 
ATOM     58  C   UNL A   1      46.265  24.482  26.081  1.00  0.00     0.029 A 
ATOM     59  N   UNL A   1      46.104  26.548  26.887  1.00  0.00    -0.354 N 
ATOM     60  N   UNL A   1      47.053  29.276  27.421  1.00  0.00    -0.248 NA
ATOM     61  C   UNL A   1      48.751  30.880  27.378  1.00  0.00     0.031 C 
ATOM     62  C   UNL A   1      47.488  25.132  25.882  1.00  0.00     0.029 A 
ATOM     63  C   UNL A   1      47.378  26.428  26.358  1.00  0.00     0.049 A 
ATOM     64  H   UNL A   1      45.741  27.360  27.309  1.00  0.00     0.167 HD
ATOM     65  C   UNL A   1      48.181  28.730  26.818  1.00  0.00     0.074 A 
ATOM     66  C   UNL A   1      49.186  29.773  26.793  1.00  0.00     0.031 C 
ATOM     67  C   UNL A   1      48.367  27.478  26.329  1.00  0.00     0.037 A 
BRANCH  54  68
ATOM     68  C   UNL A   1      43.492  23.734  27.024  1.00  0.00     0.058 A 
ATOM     69  C   UNL A   1      43.082  23.260  25.767  1.00  0.00     0.135 A 
ATOM     70  C   UNL A   1      43.383  22.858  28.117  1.00  0.00     0.135 A 
ATOM     71  F   UNL A   1      43.149  24.058  24.689  1.00  0.00    -0.206 F 
ATOM     72  C   UNL A   1      42.557  21.982  25.604  1.00  0.00     0.059 A 
ATOM     73  C   UNL A   1      42.891  21.563  27.972  1.00  0.00     0.059 A 
ATOM     74  F   UNL A   1      43.761  23.255  29.343  1.00  0.00    -0.206 F 
ATOM     75  C   UNL A   1      42.467  21.140  26.714  1.00  0.00     0.060 A 
BRANCH  75  76
ATOM     76  S   UNL A   1      41.791  19.483  26.483  1.00  0.00     0.124 S 
ATOM     77  O   UNL A   1      40.357  19.750  26.488  1.00  0.00    -0.237 OA
ATOM     78  O   UNL A   1      42.356  19.093  25.194  1.00  0.00    -0.237 OA
ATOM     79  O   UNL A   1      42.296  18.744  27.635  1.00  0.00    -0.744 OA
ENDBRANCH  75  76
ENDBRANCH  54  68
BRANCH  55  80
ATOM     80  C   UNL A   1      47.071  32.935  28.631  1.00  0.00     0.058 A 
ATOM     81  C   UNL A   1      46.999  33.948  27.664  1.00  0.00     0.135 A 
ATOM     82  C   UNL A   1      47.668  33.251  29.862  1.00  0.00     0.135 A 
ATOM     83  F   UNL A   1      46.444  33.694  26.468  1.00  0.00    -0.206 F 
ATOM     84  C   UNL A   1      47.515  35.219  27.897  1.00  0.00     0.059 A 
ATOM     85  C   UNL A   1      48.164  34.523  30.131  1.00  0.00     0.059 A 
ATOM     86  F   UNL A   1      47.747  32.324  30.830  1.00  0.00    -0.206 F 
ATOM     87  C   UNL A   1      48.092  35.498  29.136  1.00  0.00     0.060 A 
BRANCH  87  88
ATOM     88  S   UNL A   1      48.717  37.164  29.445  1.00  0.00     0.124 S 
ATOM     89  O   UNL A   1      47.891  37.960  28.545  1.00  0.00    -0.237 OA
ATOM     90  O   UNL A   1      48.450  37.329  30.871  1.00  0.00    -0.237 OA
ATOM     91  O   UNL A   1      50.128  37.065  29.086  1.00  0.00    -0.744 OA
ENDBRANCH  87  88
ENDBRANCH  55  80
BRANCH  67  92
ATOM     92  C   UNL A   1      49.691  27.173  25.681  1.00  0.00     0.058 A 
ATOM     93  C   UNL A   1      49.898  27.334  24.303  1.00  0.00     0.135 A 
ATOM     94  C   UNL A   1      50.784  26.768  26.465  1.00  0.00     0.135 A 
ATOM     95  F   UNL A   1      48.885  27.711  23.506  1.00  0.00    -0.206 F 
ATOM     96  C   UNL A   1      51.136  27.084  23.720  1.00  0.00     0.059 A 
ATOM     97  C   UNL A   1      52.039  26.543  25.909  1.00  0.00     0.059 A 
ATOM     98  F   UNL A   1      50.644  26.607  27.790  1.00  0.00    -0.206 F 
ATOM     99  C   UNL A   1      52.203  26.693  24.533  1.00  0.00     0.060 A 
BRANCH  99 100
ATOM    100  S   UNL A   1      53.814  26.412  23.770  1.00  0.00     0.124 S 
ATOM    101  O   UNL A   1      53.439  26.117  22.391  1.00  0.00    -0.237 OA
ATOM    102  O   UNL A   1      54.488  27.689  23.983  1.00  0.00    -0.237 OA
ATOM    103  O   UNL A   1      54.359  25.289  24.526  1.00  0.00    -0.744 OA
ENDBRANCH  99 100
ENDBRANCH  67  92
ENDBRANCH  41  42
ENDBRANCH  33  36
ENDBRANCH  31  32
ENDBRANCH  30  31
ENDBRANCH  29  30
ENDBRANCH   1  29
TORSDOF 22
ENDMDL
MODEL 3
REMARK VINA RESULT:     -10.4      1.034      2.953
REMARK SMILES COCc1cc(OCC(=O)NCCCCCCNC(=O)c2ccc(-c3c4nc(c(-c5c(F)cc(S(=O)(=O)[O-])cc5F)c5ccc([nH]5)c(-c5c(F)cc(S(=O)(=O)[O-])cc5F)c5nc(c(-c6c(F)cc(S(=O)(=O)[O-])cc6F)c6ccc3[nH]6)C=C5)C=C4)cc2)nc(Nc2cccc(C)c2C)n1
REMARK SMILES IDX 14 1 13 2 12 3 11 4 9 5 10 6 8 8 7 9 6 10 4 11 5 12 98 13
REMARK SMILES IDX 88 14 87 15 3 16 2 17 1 18 89 19 90 21 91 22 96 23 92 24
REMARK SMILES IDX 94 25 97 26 93 27 95 28 15 29 16 30 17 31 18 32 19 33 20 35
REMARK SMILES IDX 21 36 22 37 86 38 23 39 85 40 24 41 25 42 26 43 79 44 27 45
REMARK SMILES IDX 84 46 78 47 80 48 28 49 83 50 77 51 76 52 29 54 63 55 42 56
REMARK SMILES IDX 62 57 43 58 46 59 61 60 81 61 44 62 45 63 60 65 82 66 47 67
REMARK SMILES IDX 30 68 31 69 40 70 32 71 33 72 39 73 41 74 34 75 35 76 36 77
REMARK SMILES IDX 37 78 38 79 64 80 65 81 74 82 66 83 67 84 73 85 75 86 68 87
REMARK SMILES IDX 69 88 70 89 71 90 72 91 48 92 49 93 58 94 50 95 51 96 57 97
REMARK SMILES IDX 59 98 52 99 53 100 54 101 55 102 56 103
REMARK H PARENT 11 7 89 20 18 34 80 53 46 64
REMARK Flexibility Score: inf
ROOT
ATOM      1  C   UNL A   1      35.790  33.191  28.020  1.00  0.00     0.002 C 
ENDROOT
BRANCH   1   2
ATOM      2  C   UNL A   1      34.823  32.136  28.573  1.00  0.00     0.021 C 
BRANCH   2   3
ATOM      3  C   UNL A   1      34.721  30.862  27.735  1.00  0.00     0.116 C 
BRANCH   3   4
ATOM      4  N   UNL A   1      33.415  30.244  27.855  1.00  0.00    -0.353 N 
ATOM      5  C   UNL A   1      32.980  29.072  27.318  1.00  0.00     0.258 C 
ATOM      6  O   UNL A   1      31.817  28.717  27.523  1.00  0.00    -0.271 OA
ATOM      7  H   UNL A   1      32.757  30.737  28.397  1.00  0.00     0.163 HD
BRANCH   5   8
ATOM      8  C   UNL A   1      33.942  28.208  26.492  1.00  0.00     0.331 C 
BRANCH   8   9
ATOM      9  O   UNL A   1      34.149  28.575  25.140  1.00  0.00    -0.467 OA
BRANCH   9  10
ATOM     10  C   UNL A   1      33.206  28.220  24.220  1.00  0.00     0.218 A 
ATOM     11  C   UNL A   1      31.343  28.489  22.843  1.00  0.00     0.076 A 
ATOM     12  C   UNL A   1      32.159  29.014  23.815  1.00  0.00     0.095 A 
ATOM     13  N   UNL A   1      31.539  27.265  22.329  1.00  0.00    -0.215 NA
ATOM     14  C   UNL A   1      32.568  26.540  22.791  1.00  0.00     0.230 A 
ATOM     15  N   UNL A   1      33.406  26.980  23.736  1.00  0.00    -0.177 NA
BRANCH  11  16
ATOM     16  C   UNL A   1      30.125  29.240  22.370  1.00  0.00     0.216 C 
BRANCH  16  17
ATOM     17  O   UNL A   1      28.911  28.647  22.845  1.00  0.00    -0.378 OA
ATOM     18  C   UNL A   1      27.808  29.544  22.771  1.00  0.00     0.195 C 
ENDBRANCH  16  17
ENDBRANCH  11  16
BRANCH  14  19
ATOM     19  N   UNL A   1      32.771  25.256  22.294  1.00  0.00    -0.324 N 
ATOM     20  H   UNL A   1      32.617  25.138  21.329  1.00  0.00     0.170 HD
BRANCH  19  21
ATOM     21  C   UNL A   1      33.168  24.107  22.998  1.00  0.00     0.044 A 
ATOM     22  C   UNL A   1      34.539  23.815  23.054  1.00  0.00     0.026 A 
ATOM     23  C   UNL A   1      32.258  23.298  23.726  1.00  0.00    -0.025 A 
ATOM     24  C   UNL A   1      35.020  22.775  23.848  1.00  0.00     0.002 A 
ATOM     25  C   UNL A   1      32.753  22.263  24.556  1.00  0.00    -0.046 A 
ATOM     26  C   UNL A   1      30.767  23.511  23.607  1.00  0.00     0.047 C 
ATOM     27  C   UNL A   1      34.134  22.014  24.601  1.00  0.00     0.004 A 
ATOM     28  C   UNL A   1      31.865  21.390  25.404  1.00  0.00     0.044 C 
ENDBRANCH  19  21
ENDBRANCH  14  19
ENDBRANCH   9  10
ENDBRANCH   8   9
ENDBRANCH   5   8
ENDBRANCH   3   4
ENDBRANCH   2   3
ENDBRANCH   1   2
BRANCH   1  29
ATOM     29  C   UNL A   1      36.854  33.690  29.004  1.00  0.00     0.002 C 
BRANCH  29  30
ATOM     30  C   UNL A   1      36.356  33.945  30.429  1.00  0.00     0.021 C 
BRANCH  30  31
ATOM     31  C   UNL A   1      37.055  33.123  31.506  1.00  0.00     0.116 C 
BRANCH  31  32
ATOM     32  N   UNL A   1      36.382  31.858  31.759  1.00  0.00    -0.352 N 
ATOM     33  C   UNL A   1      36.780  30.584  31.439  1.00  0.00     0.251 C 
ATOM     34  H   UNL A   1      35.518  31.926  32.225  1.00  0.00     0.163 HD
ATOM     35  O   UNL A   1      35.996  29.646  31.563  1.00  0.00    -0.269 OA
BRANCH  33  36
ATOM     36  C   UNL A   1      38.146  30.347  30.920  1.00  0.00     0.039 A 
ATOM     37  C   UNL A   1      39.146  29.939  31.806  1.00  0.00     0.014 A 
ATOM     38  C   UNL A   1      38.436  30.519  29.564  1.00  0.00     0.014 A 
ATOM     39  C   UNL A   1      40.421  29.640  31.319  1.00  0.00     0.010 A 
ATOM     40  C   UNL A   1      39.683  30.146  29.070  1.00  0.00     0.010 A 
ATOM     41  C   UNL A   1      40.691  29.703  29.941  1.00  0.00    -0.014 A 
BRANCH  41  42
ATOM     42  C   UNL A   1      42.013  29.299  29.395  1.00  0.00     0.031 A 
ATOM     43  C   UNL A   1      43.124  30.308  29.275  1.00  0.00     0.074 A 
ATOM     44  C   UNL A   1      42.192  28.040  28.948  1.00  0.00     0.049 A 
ATOM     45  N   UNL A   1      44.322  30.160  28.769  1.00  0.00    -0.248 NA
ATOM     46  C   UNL A   1      42.845  31.667  29.764  1.00  0.00     0.031 C 
ATOM     47  C   UNL A   1      41.176  26.985  28.965  1.00  0.00     0.029 A 
ATOM     48  N   UNL A   1      43.288  27.434  28.384  1.00  0.00    -0.354 N 
ATOM     49  C   UNL A   1      44.934  31.403  28.869  1.00  0.00     0.074 A 
ATOM     50  C   UNL A   1      43.956  32.309  29.430  1.00  0.00     0.031 C 
ATOM     51  C   UNL A   1      41.703  25.858  28.460  1.00  0.00     0.029 A 
ATOM     52  C   UNL A   1      43.077  26.118  28.041  1.00  0.00     0.049 A 
ATOM     53  H   UNL A   1      44.144  27.898  28.237  1.00  0.00     0.167 HD
ATOM     54  C   UNL A   1      46.201  31.754  28.544  1.00  0.00     0.037 A 
ATOM     55  C   UNL A   1      43.893  25.225  27.447  1.00  0.00     0.037 A 
ATOM     56  C   UNL A   1      47.175  30.841  28.001  1.00  0.00     0.049 A 
ATOM     57  C   UNL A   1      45.293  25.641  27.083  1.00  0.00     0.074 A 
ATOM     58  C   UNL A   1      48.501  31.084  27.690  1.00  0.00     0.029 A 
ATOM     59  N   UNL A   1      46.928  29.513  27.682  1.00  0.00    -0.354 N 
ATOM     60  N   UNL A   1      45.876  26.805  27.247  1.00  0.00    -0.248 NA
ATOM     61  C   UNL A   1      46.149  24.623  26.460  1.00  0.00     0.031 C 
ATOM     62  C   UNL A   1      49.040  29.921  27.131  1.00  0.00     0.029 A 
ATOM     63  C   UNL A   1      48.069  28.933  27.154  1.00  0.00     0.049 A 
ATOM     64  H   UNL A   1      46.067  29.053  27.811  1.00  0.00     0.167 HD
ATOM     65  C   UNL A   1      47.176  26.650  26.777  1.00  0.00     0.074 A 
ATOM     66  C   UNL A   1      47.296  25.276  26.332  1.00  0.00     0.031 C 
ATOM     67  C   UNL A   1      48.179  27.560  26.722  1.00  0.00     0.037 A 
BRANCH  54  68
ATOM     68  C   UNL A   1      46.613  33.184  28.769  1.00  0.00     0.058 A 
ATOM     69  C   UNL A   1      46.570  34.138  27.739  1.00  0.00     0.135 A 
ATOM     70  C   UNL A   1      47.018  33.619  30.042  1.00  0.00     0.135 A 
ATOM     71  F   UNL A   1      46.205  33.776  26.498  1.00  0.00    -0.206 F 
ATOM     72  C   UNL A   1      46.941  35.461  27.953  1.00  0.00     0.059 A 
ATOM     73  C   UNL A   1      47.363  34.946  30.288  1.00  0.00     0.059 A 
ATOM     74  F   UNL A   1      47.078  32.753  31.066  1.00  0.00    -0.206 F 
ATOM     75  C   UNL A   1      47.335  35.856  29.232  1.00  0.00     0.060 A 
BRANCH  75  76
ATOM     76  S   UNL A   1      47.805  37.579  29.494  1.00  0.00     0.124 S 
ATOM     77  O   UNL A   1      46.569  38.139  30.031  1.00  0.00    -0.237 OA
ATOM     78  O   UNL A   1      48.909  37.460  30.441  1.00  0.00    -0.237 OA
ATOM     79  O   UNL A   1      48.174  38.040  28.159  1.00  0.00    -0.744 OA
ENDBRANCH  75  76
ENDBRANCH  54  68
BRANCH  55  80
ATOM     80  C   UNL A   1      43.412  23.842  27.178  1.00  0.00     0.058 A 
ATOM     81  C   UNL A   1      42.921  23.480  25.915  1.00  0.00     0.135 A 
ATOM     82  C   UNL A   1      43.445  22.852  28.173  1.00  0.00     0.135 A 
ATOM     83  F   UNL A   1      42.862  24.392  24.932  1.00  0.00    -0.206 F 
ATOM     84  C   UNL A   1      42.461  22.193  25.651  1.00  0.00     0.059 A 
ATOM     85  C   UNL A   1      43.019  21.551  27.925  1.00  0.00     0.059 A 
ATOM     86  F   UNL A   1      43.923  23.140  29.393  1.00  0.00    -0.206 F 
ATOM     87  C   UNL A   1      42.518  21.234  26.663  1.00  0.00     0.060 A 
BRANCH  87  88
ATOM     88  S   UNL A   1      41.962  19.555  26.296  1.00  0.00     0.124 S 
ATOM     89  O   UNL A   1      42.549  18.804  27.400  1.00  0.00    -0.237 OA
ATOM     90  O   UNL A   1      40.511  19.703  26.323  1.00  0.00    -0.237 OA
ATOM     91  O   UNL A   1      42.534  19.293  24.979  1.00  0.00    -0.744 OA
ENDBRANCH  87  88
ENDBRANCH  55  80
BRANCH  67  92
ATOM     92  C   UNL A   1      49.513  27.098  26.202  1.00  0.00     0.058 A 
ATOM     93  C   UNL A   1      50.486  26.540  27.046  1.00  0.00     0.135 A 
ATOM     94  C   UNL A   1      49.796  27.162  24.828  1.00  0.00     0.135 A 
ATOM     95  F   UNL A   1      50.271  26.461  28.368  1.00  0.00    -0.206 F 
ATOM     96  C   UNL A   1      51.701  26.080  26.548  1.00  0.00     0.059 A 
ATOM     97  C   UNL A   1      50.992  26.680  24.304  1.00  0.00     0.059 A 
ATOM     98  F   UNL A   1      48.897  27.677  23.974  1.00  0.00    -0.206 F 
ATOM     99  C   UNL A   1      51.944  26.151  25.174  1.00  0.00     0.060 A 
BRANCH  99 100
ATOM    100  S   UNL A   1      53.508  25.514  24.538  1.00  0.00     0.124 S 
ATOM    101  O   UNL A   1      53.364  25.756  23.106  1.00  0.00    -0.237 OA
ATOM    102  O   UNL A   1      54.488  26.348  25.226  1.00  0.00    -0.237 OA
ATOM    103  O   UNL A   1      53.494  24.111  24.941  1.00  0.00    -0.744 OA
ENDBRANCH  99 100
ENDBRANCH  67  92
ENDBRANCH  41  42
ENDBRANCH  33  36
ENDBRANCH  31  32
ENDBRANCH  30  31
ENDBRANCH  29  30
ENDBRANCH   1  29
TORSDOF 22
ENDMDL
