MODEL 1
REMARK VINA RESULT:     -10.6      0.000      0.000
REMARK SMILES CC(C)N(CC(=O)NCCCCCCNC(=O)c1ccc(-c2c3nc(c(-c4c(F)cc(S(=O)(=O)[O-])cc4F)c4ccc([nH]4)c(-c4c(F)cc(S(=O)(=O)[O-])cc4F)c4nc(c(-c5c(F)cc(S(=O)(=O)[O-])cc5F)c5ccc2[nH]5)C=C4)C=C3)cc1)C(=O)NC1C(C)(C)C1(C)C
REMARK SMILES IDX 11 1 10 2 9 3 8 4 6 5 7 6 5 8 4 9 2 10 1 11 3 12 84 13 85 14
REMARK SMILES IDX 86 15 87 17 88 18 91 19 89 20 90 21 92 22 93 23 12 24 13 25
REMARK SMILES IDX 14 26 15 27 16 28 17 30 18 31 19 32 83 33 20 34 82 35 21 36
REMARK SMILES IDX 22 37 23 38 76 39 24 40 81 41 75 42 77 43 25 44 80 45 74 46
REMARK SMILES IDX 73 47 26 49 60 50 39 51 59 52 40 53 43 54 58 55 78 56 41 57
REMARK SMILES IDX 42 58 57 60 79 61 44 62 27 63 28 64 37 65 29 66 30 67 36 68
REMARK SMILES IDX 38 69 31 70 32 71 33 72 34 73 35 74 61 75 62 76 71 77 63 78
REMARK SMILES IDX 64 79 70 80 72 81 65 82 66 83 67 84 68 85 69 86 45 87 46 88
REMARK SMILES IDX 55 89 47 90 48 91 54 92 56 93 49 94 50 95 51 96 52 97 53 98
REMARK H PARENT 8 7 86 16 15 29 77 48 43 59
REMARK Flexibility Score: inf
ROOT
ATOM      1  C   UNL A   1      32.274  29.948  26.743  1.00  0.00     0.002 C 
ENDROOT
BRANCH   1   2
ATOM      2  C   UNL A   1      31.622  29.470  25.443  1.00  0.00     0.021 C 
BRANCH   2   3
ATOM      3  C   UNL A   1      32.530  29.378  24.226  1.00  0.00     0.116 C 
BRANCH   3   4
ATOM      4  N   UNL A   1      31.838  29.012  23.036  1.00  0.00    -0.355 N 
ATOM      5  C   UNL A   1      31.507  27.767  22.651  1.00  0.00     0.239 C 
ATOM      6  O   UNL A   1      30.588  27.670  21.826  1.00  0.00    -0.273 OA
ATOM      7  H   UNL A   1      31.576  29.745  22.434  1.00  0.00     0.163 HD
BRANCH   5   8
ATOM      8  C   UNL A   1      32.176  26.492  23.204  1.00  0.00     0.221 C 
BRANCH   8   9
ATOM      9  N   UNL A   1      32.151  25.741  24.477  1.00  0.00    -0.313 N 
BRANCH   9  10
ATOM     10  C   UNL A   1      31.032  24.759  24.581  1.00  0.00     0.081 C 
ATOM     11  C   UNL A   1      31.209  23.595  23.594  1.00  0.00     0.031 C 
ATOM     12  C   UNL A   1      30.729  24.207  25.981  1.00  0.00     0.031 C 
ENDBRANCH   9  10
BRANCH   9  13
ATOM     13  C   UNL A   1      33.179  25.610  25.397  1.00  0.00     0.318 C 
ATOM     14  O   UNL A   1      33.295  26.432  26.321  1.00  0.00    -0.249 OA
ATOM     15  N   UNL A   1      34.117  24.623  25.489  1.00  0.00    -0.334 N 
ATOM     16  H   UNL A   1      34.645  24.804  26.302  1.00  0.00     0.165 HD
BRANCH  15  17
ATOM     17  C   UNL A   1      34.668  23.410  24.885  1.00  0.00     0.096 C 
ATOM     18  C   UNL A   1      36.045  22.816  25.101  1.00  0.00    -0.007 C 
ATOM     19  C   UNL A   1      34.645  22.110  25.641  1.00  0.00    -0.007 C 
ATOM     20  C   UNL A   1      36.789  21.919  24.108  1.00  0.00     0.014 C 
ATOM     21  C   UNL A   1      37.073  23.857  25.555  1.00  0.00     0.014 C 
ATOM     22  C   UNL A   1      33.761  22.160  26.879  1.00  0.00     0.014 C 
ATOM     23  C   UNL A   1      34.299  20.790  24.940  1.00  0.00     0.014 C 
ENDBRANCH  15  17
ENDBRANCH   9  13
ENDBRANCH   8   9
ENDBRANCH   5   8
ENDBRANCH   3   4
ENDBRANCH   2   3
ENDBRANCH   1   2
BRANCH   1  24
ATOM     24  C   UNL A   1      33.800  29.842  26.837  1.00  0.00     0.002 C 
BRANCH  24  25
ATOM     25  C   UNL A   1      34.492  30.778  27.826  1.00  0.00     0.021 C 
BRANCH  25  26
ATOM     26  C   UNL A   1      35.510  30.107  28.729  1.00  0.00     0.116 C 
BRANCH  26  27
ATOM     27  N   UNL A   1      35.634  30.813  29.987  1.00  0.00    -0.352 N 
ATOM     28  C   UNL A   1      36.708  30.823  30.843  1.00  0.00     0.251 C 
ATOM     29  H   UNL A   1      34.856  31.351  30.261  1.00  0.00     0.163 HD
ATOM     30  O   UNL A   1      36.575  31.214  31.996  1.00  0.00    -0.269 OA
BRANCH  28  31
ATOM     31  C   UNL A   1      38.018  30.334  30.357  1.00  0.00     0.039 A 
ATOM     32  C   UNL A   1      38.386  30.579  29.035  1.00  0.00     0.014 A 
ATOM     33  C   UNL A   1      38.883  29.649  31.217  1.00  0.00     0.014 A 
ATOM     34  C   UNL A   1      39.642  30.166  28.584  1.00  0.00     0.010 A 
ATOM     35  C   UNL A   1      40.167  29.324  30.793  1.00  0.00     0.010 A 
ATOM     36  C   UNL A   1      40.552  29.556  29.465  1.00  0.00    -0.014 A 
BRANCH  36  37
ATOM     37  C   UNL A   1      41.895  29.121  29.005  1.00  0.00     0.031 A 
ATOM     38  C   UNL A   1      43.031  30.108  28.972  1.00  0.00     0.074 A 
ATOM     39  C   UNL A   1      42.079  27.858  28.575  1.00  0.00     0.049 A 
ATOM     40  N   UNL A   1      44.264  29.936  28.571  1.00  0.00    -0.248 NA
ATOM     41  C   UNL A   1      42.736  31.479  29.422  1.00  0.00     0.031 C 
ATOM     42  C   UNL A   1      41.044  26.823  28.516  1.00  0.00     0.029 A 
ATOM     43  N   UNL A   1      43.202  27.226  28.103  1.00  0.00    -0.354 N 
ATOM     44  C   UNL A   1      44.883  31.173  28.702  1.00  0.00     0.074 A 
ATOM     45  C   UNL A   1      43.876  32.103  29.165  1.00  0.00     0.031 C 
ATOM     46  C   UNL A   1      41.588  25.680  28.069  1.00  0.00     0.029 A 
ATOM     47  C   UNL A   1      42.999  25.908  27.772  1.00  0.00     0.049 A 
ATOM     48  H   UNL A   1      44.074  27.676  28.011  1.00  0.00     0.167 HD
ATOM     49  C   UNL A   1      46.178  31.502  28.481  1.00  0.00     0.037 A 
ATOM     50  C   UNL A   1      43.852  24.987  27.282  1.00  0.00     0.037 A 
ATOM     51  C   UNL A   1      47.180  30.562  28.051  1.00  0.00     0.049 A 
ATOM     52  C   UNL A   1      45.287  25.375  27.042  1.00  0.00     0.074 A 
ATOM     53  C   UNL A   1      48.535  30.773  27.867  1.00  0.00     0.029 A 
ATOM     54  N   UNL A   1      46.935  29.234  27.731  1.00  0.00    -0.354 N 
ATOM     55  N   UNL A   1      45.872  26.533  27.243  1.00  0.00    -0.248 NA
ATOM     56  C   UNL A   1      46.177  24.334  26.514  1.00  0.00     0.031 C 
ATOM     57  C   UNL A   1      49.100  29.589  27.384  1.00  0.00     0.029 A 
ATOM     58  C   UNL A   1      48.108  28.622  27.323  1.00  0.00     0.049 A 
ATOM     59  H   UNL A   1      46.058  28.792  27.787  1.00  0.00     0.167 HD
ATOM     60  C   UNL A   1      47.206  26.349  26.895  1.00  0.00     0.074 A 
ATOM     61  C   UNL A   1      47.341  24.967  26.482  1.00  0.00     0.031 C 
ATOM     62  C   UNL A   1      48.227  27.242  26.919  1.00  0.00     0.037 A 
BRANCH  49  63
ATOM     63  C   UNL A   1      46.584  32.935  28.698  1.00  0.00     0.058 A 
ATOM     64  C   UNL A   1      47.032  33.400  29.945  1.00  0.00     0.135 A 
ATOM     65  C   UNL A   1      46.550  33.852  27.634  1.00  0.00     0.135 A 
ATOM     66  F   UNL A   1      47.071  32.573  31.001  1.00  0.00    -0.206 F 
ATOM     67  C   UNL A   1      47.399  34.728  30.139  1.00  0.00     0.059 A 
ATOM     68  C   UNL A   1      46.943  35.177  27.797  1.00  0.00     0.059 A 
ATOM     69  F   UNL A   1      46.129  33.463  26.420  1.00  0.00    -0.206 F 
ATOM     70  C   UNL A   1      47.350  35.610  29.057  1.00  0.00     0.060 A 
BRANCH  70  71
ATOM     71  S   UNL A   1      47.831  37.328  29.326  1.00  0.00     0.124 S 
ATOM     72  O   UNL A   1      48.778  37.539  28.234  1.00  0.00    -0.237 OA
ATOM     73  O   UNL A   1      46.558  38.031  29.205  1.00  0.00    -0.237 OA
ATOM     74  O   UNL A   1      48.411  37.315  30.665  1.00  0.00    -0.744 OA
ENDBRANCH  70  71
ENDBRANCH  49  63
BRANCH  50  75
ATOM     75  C   UNL A   1      43.380  23.601  27.017  1.00  0.00     0.058 A 
ATOM     76  C   UNL A   1      43.134  23.164  25.707  1.00  0.00     0.135 A 
ATOM     77  C   UNL A   1      43.184  22.683  28.060  1.00  0.00     0.135 A 
ATOM     78  F   UNL A   1      43.301  24.006  24.676  1.00  0.00    -0.206 F 
ATOM     79  C   UNL A   1      42.695  21.871  25.440  1.00  0.00     0.059 A 
ATOM     80  C   UNL A   1      42.771  21.377  27.817  1.00  0.00     0.059 A 
ATOM     81  F   UNL A   1      43.421  23.046  29.331  1.00  0.00    -0.206 F 
ATOM     82  C   UNL A   1      42.521  20.983  26.503  1.00  0.00     0.060 A 
BRANCH  82  83
ATOM     83  S   UNL A   1      42.002  19.291  26.140  1.00  0.00     0.124 S 
ATOM     84  O   UNL A   1      42.797  18.987  24.956  1.00  0.00    -0.237 OA
ATOM     85  O   UNL A   1      42.380  18.588  27.362  1.00  0.00    -0.237 OA
ATOM     86  O   UNL A   1      40.565  19.422  25.920  1.00  0.00    -0.744 OA
ENDBRANCH  82  83
ENDBRANCH  50  75
BRANCH  62  87
ATOM     87  C   UNL A   1      49.591  26.748  26.521  1.00  0.00     0.058 A 
ATOM     88  C   UNL A   1      50.473  26.182  27.455  1.00  0.00     0.135 A 
ATOM     89  C   UNL A   1      49.996  26.790  25.178  1.00  0.00     0.135 A 
ATOM     90  F   UNL A   1      50.137  26.122  28.754  1.00  0.00    -0.206 F 
ATOM     91  C   UNL A   1      51.720  25.697  27.074  1.00  0.00     0.059 A 
ATOM     92  C   UNL A   1      51.225  26.283  24.769  1.00  0.00     0.059 A 
ATOM     93  F   UNL A   1      49.186  27.311  24.243  1.00  0.00    -0.206 F 
ATOM     94  C   UNL A   1      52.086  25.749  25.727  1.00  0.00     0.060 A 
BRANCH  94  95
ATOM     95  S   UNL A   1      53.692  25.085  25.241  1.00  0.00     0.124 S 
ATOM     96  O   UNL A   1      53.423  23.650  25.221  1.00  0.00    -0.237 OA
ATOM     97  O   UNL A   1      53.907  25.709  23.940  1.00  0.00    -0.237 OA
ATOM     98  O   UNL A   1      54.584  25.540  26.304  1.00  0.00    -0.744 OA
ENDBRANCH  94  95
ENDBRANCH  62  87
ENDBRANCH  36  37
ENDBRANCH  28  31
ENDBRANCH  26  27
ENDBRANCH  25  26
ENDBRANCH  24  25
ENDBRANCH   1  24
TORSDOF 20
ENDMDL
MODEL 2
REMARK VINA RESULT:     -10.5      2.247      8.867
REMARK SMILES CC(C)N(CC(=O)NCCCCCCNC(=O)c1ccc(-c2c3nc(c(-c4c(F)cc(S(=O)(=O)[O-])cc4F)c4ccc([nH]4)c(-c4c(F)cc(S(=O)(=O)[O-])cc4F)c4nc(c(-c5c(F)cc(S(=O)(=O)[O-])cc5F)c5ccc2[nH]5)C=C4)C=C3)cc1)C(=O)NC1C(C)(C)C1(C)C
REMARK SMILES IDX 11 1 10 2 9 3 8 4 6 5 7 6 5 8 4 9 2 10 1 11 3 12 84 13 85 14
REMARK SMILES IDX 86 15 87 17 88 18 91 19 89 20 90 21 92 22 93 23 12 24 13 25
REMARK SMILES IDX 14 26 15 27 16 28 17 30 18 31 19 32 83 33 20 34 82 35 21 36
REMARK SMILES IDX 22 37 23 38 76 39 24 40 81 41 75 42 77 43 25 44 80 45 74 46
REMARK SMILES IDX 73 47 26 49 60 50 39 51 59 52 40 53 43 54 58 55 78 56 41 57
REMARK SMILES IDX 42 58 57 60 79 61 44 62 27 63 28 64 37 65 29 66 30 67 36 68
REMARK SMILES IDX 38 69 31 70 32 71 33 72 34 73 35 74 61 75 62 76 71 77 63 78
REMARK SMILES IDX 64 79 70 80 72 81 65 82 66 83 67 84 68 85 69 86 45 87 46 88
REMARK SMILES IDX 55 89 47 90 48 91 54 92 56 93 49 94 50 95 51 96 52 97 53 98
REMARK H PARENT 8 7 86 16 15 29 77 48 43 59
REMARK Flexibility Score: inf
ROOT
ATOM      1  C   UNL A   1      37.665  21.955  24.999  1.00  0.00     0.002 C 
ENDROOT
BRANCH   1   2
ATOM      2  C   UNL A   1      36.540  22.941  24.674  1.00  0.00     0.021 C 
BRANCH   2   3
ATOM      3  C   UNL A   1      35.194  22.334  24.312  1.00  0.00     0.116 C 
BRANCH   3   4
ATOM      4  N   UNL A   1      34.663  22.834  23.089  1.00  0.00    -0.355 N 
ATOM      5  C   UNL A   1      33.464  23.414  22.912  1.00  0.00     0.239 C 
ATOM      6  O   UNL A   1      33.338  24.127  21.906  1.00  0.00    -0.273 OA
ATOM      7  H   UNL A   1      35.232  22.744  22.291  1.00  0.00     0.163 HD
BRANCH   5   8
ATOM      8  C   UNL A   1      32.286  23.267  23.896  1.00  0.00     0.221 C 
BRANCH   8   9
ATOM      9  N   UNL A   1      31.456  24.180  24.710  1.00  0.00    -0.313 N 
BRANCH   9  10
ATOM     10  C   UNL A   1      31.669  24.048  26.182  1.00  0.00     0.081 C 
ATOM     11  C   UNL A   1      30.921  22.833  26.753  1.00  0.00     0.031 C 
ATOM     12  C   UNL A   1      33.124  24.033  26.668  1.00  0.00     0.031 C 
ENDBRANCH   9  10
BRANCH   9  13
ATOM     13  C   UNL A   1      30.782  25.312  24.280  1.00  0.00     0.318 C 
ATOM     14  O   UNL A   1      29.866  25.213  23.446  1.00  0.00    -0.249 OA
ATOM     15  N   UNL A   1      30.937  26.603  24.695  1.00  0.00    -0.334 N 
ATOM     16  H   UNL A   1      30.248  27.137  24.236  1.00  0.00     0.165 HD
BRANCH  15  17
ATOM     17  C   UNL A   1      31.700  27.526  25.537  1.00  0.00     0.096 C 
ATOM     18  C   UNL A   1      33.133  27.976  25.344  1.00  0.00    -0.007 C 
ATOM     19  C   UNL A   1      31.823  28.974  25.153  1.00  0.00    -0.007 C 
ATOM     20  C   UNL A   1      34.065  28.466  26.457  1.00  0.00     0.014 C 
ATOM     21  C   UNL A   1      33.964  26.978  24.532  1.00  0.00     0.014 C 
ATOM     22  C   UNL A   1      30.865  29.377  24.042  1.00  0.00     0.014 C 
ATOM     23  C   UNL A   1      31.723  30.086  26.207  1.00  0.00     0.014 C 
ENDBRANCH  15  17
ENDBRANCH   9  13
ENDBRANCH   8   9
ENDBRANCH   5   8
ENDBRANCH   3   4
ENDBRANCH   2   3
ENDBRANCH   1   2
BRANCH   1  24
ATOM     24  C   UNL A   1      37.346  20.463  24.857  1.00  0.00     0.002 C 
BRANCH  24  25
ATOM     25  C   UNL A   1      38.468  19.487  25.211  1.00  0.00     0.021 C 
BRANCH  25  26
ATOM     26  C   UNL A   1      39.580  20.077  26.055  1.00  0.00     0.116 C 
BRANCH  26  27
ATOM     27  N   UNL A   1      40.709  19.174  26.135  1.00  0.00    -0.352 N 
ATOM     28  C   UNL A   1      42.044  19.494  26.143  1.00  0.00     0.251 C 
ATOM     29  H   UNL A   1      40.493  18.215  26.190  1.00  0.00     0.163 HD
ATOM     30  O   UNL A   1      42.887  18.635  25.918  1.00  0.00    -0.269 OA
BRANCH  28  31
ATOM     31  C   UNL A   1      42.444  20.895  26.405  1.00  0.00     0.039 A 
ATOM     32  C   UNL A   1      42.639  21.312  27.722  1.00  0.00     0.014 A 
ATOM     33  C   UNL A   1      42.641  21.787  25.346  1.00  0.00     0.014 A 
ATOM     34  C   UNL A   1      43.066  22.617  27.974  1.00  0.00     0.010 A 
ATOM     35  C   UNL A   1      43.157  23.055  25.594  1.00  0.00     0.010 A 
ATOM     36  C   UNL A   1      43.351  23.492  26.912  1.00  0.00    -0.014 A 
BRANCH  36  37
ATOM     37  C   UNL A   1      43.817  24.880  27.161  1.00  0.00     0.031 A 
ATOM     38  C   UNL A   1      45.261  25.238  26.931  1.00  0.00     0.074 A 
ATOM     39  C   UNL A   1      42.956  25.801  27.637  1.00  0.00     0.049 A 
ATOM     40  N   UNL A   1      45.871  26.378  27.124  1.00  0.00    -0.248 NA
ATOM     41  C   UNL A   1      46.145  24.163  26.447  1.00  0.00     0.031 C 
ATOM     42  C   UNL A   1      41.544  25.561  27.943  1.00  0.00     0.029 A 
ATOM     43  N   UNL A   1      43.141  27.124  27.949  1.00  0.00    -0.354 N 
ATOM     44  C   UNL A   1      47.205  26.155  26.805  1.00  0.00     0.074 A 
ATOM     45  C   UNL A   1      47.330  24.756  26.461  1.00  0.00     0.031 C 
ATOM     46  C   UNL A   1      40.985  26.707  28.365  1.00  0.00     0.029 A 
ATOM     47  C   UNL A   1      42.003  27.751  28.399  1.00  0.00     0.049 A 
ATOM     48  H   UNL A   1      44.009  27.581  27.859  1.00  0.00     0.167 HD
ATOM     49  C   UNL A   1      48.230  27.040  26.776  1.00  0.00     0.037 A 
ATOM     50  C   UNL A   1      41.805  29.023  28.795  1.00  0.00     0.037 A 
ATOM     51  C   UNL A   1      48.090  28.438  27.089  1.00  0.00     0.049 A 
ATOM     52  C   UNL A   1      42.959  29.989  28.757  1.00  0.00     0.074 A 
ATOM     53  C   UNL A   1      49.046  29.435  27.022  1.00  0.00     0.029 A 
ATOM     54  N   UNL A   1      46.919  29.036  27.536  1.00  0.00    -0.354 N 
ATOM     55  N   UNL A   1      44.199  29.777  28.381  1.00  0.00    -0.248 NA
ATOM     56  C   UNL A   1      42.689  31.365  29.192  1.00  0.00     0.031 C 
ATOM     57  C   UNL A   1      48.470  30.624  27.479  1.00  0.00     0.029 A 
ATOM     58  C   UNL A   1      47.138  30.382  27.776  1.00  0.00     0.049 A 
ATOM     59  H   UNL A   1      46.061  28.573  27.662  1.00  0.00     0.167 HD
ATOM     60  C   UNL A   1      44.847  31.001  28.505  1.00  0.00     0.074 A 
ATOM     61  C   UNL A   1      43.860  31.949  28.981  1.00  0.00     0.031 C 
ATOM     62  C   UNL A   1      46.142  31.314  28.246  1.00  0.00     0.037 A 
BRANCH  49  63
ATOM     63  C   UNL A   1      49.591  26.523  26.397  1.00  0.00     0.058 A 
ATOM     64  C   UNL A   1      50.073  26.593  25.079  1.00  0.00     0.135 A 
ATOM     65  C   UNL A   1      50.440  25.973  27.372  1.00  0.00     0.135 A 
ATOM     66  F   UNL A   1      49.300  27.094  24.103  1.00  0.00    -0.206 F 
ATOM     67  C   UNL A   1      51.330  26.106  24.735  1.00  0.00     0.059 A 
ATOM     68  C   UNL A   1      51.714  25.509  27.057  1.00  0.00     0.059 A 
ATOM     69  F   UNL A   1      50.033  25.880  28.648  1.00  0.00    -0.206 F 
ATOM     70  C   UNL A   1      52.144  25.565  25.732  1.00  0.00     0.060 A 
BRANCH  70  71
ATOM     71  S   UNL A   1      53.772  24.940  25.269  1.00  0.00     0.124 S 
ATOM     72  O   UNL A   1      53.552  23.497  25.313  1.00  0.00    -0.237 OA
ATOM     73  O   UNL A   1      53.960  25.512  23.941  1.00  0.00    -0.237 OA
ATOM     74  O   UNL A   1      54.649  25.473  26.307  1.00  0.00    -0.744 OA
ENDBRANCH  70  71
ENDBRANCH  49  63
BRANCH  50  75
ATOM     75  C   UNL A   1      40.452  29.465  29.230  1.00  0.00     0.058 A 
ATOM     76  C   UNL A   1      40.171  29.689  30.587  1.00  0.00     0.135 A 
ATOM     77  C   UNL A   1      39.422  29.689  28.304  1.00  0.00     0.135 A 
ATOM     78  F   UNL A   1      41.121  29.484  31.512  1.00  0.00    -0.206 F 
ATOM     79  C   UNL A   1      38.913  30.106  31.011  1.00  0.00     0.059 A 
ATOM     80  C   UNL A   1      38.164  30.131  28.701  1.00  0.00     0.059 A 
ATOM     81  F   UNL A   1      39.644  29.505  26.992  1.00  0.00    -0.206 F 
ATOM     82  C   UNL A   1      37.917  30.328  30.059  1.00  0.00     0.060 A 
BRANCH  82  83
ATOM     83  S   UNL A   1      36.303  30.918  30.617  1.00  0.00     0.124 S 
ATOM     84  O   UNL A   1      35.494  30.738  29.418  1.00  0.00    -0.237 OA
ATOM     85  O   UNL A   1      36.015  30.013  31.725  1.00  0.00    -0.237 OA
ATOM     86  O   UNL A   1      36.567  32.301  31.001  1.00  0.00    -0.744 OA
ENDBRANCH  82  83
ENDBRANCH  50  75
BRANCH  62  87
ATOM     87  C   UNL A   1      46.561  32.746  28.434  1.00  0.00     0.058 A 
ATOM     88  C   UNL A   1      47.125  33.199  29.637  1.00  0.00     0.135 A 
ATOM     89  C   UNL A   1      46.447  33.663  27.376  1.00  0.00     0.135 A 
ATOM     90  F   UNL A   1      47.251  32.365  30.682  1.00  0.00    -0.206 F 
ATOM     91  C   UNL A   1      47.540  34.518  29.793  1.00  0.00     0.059 A 
ATOM     92  C   UNL A   1      46.884  34.978  27.500  1.00  0.00     0.059 A 
ATOM     93  F   UNL A   1      45.925  33.278  26.201  1.00  0.00    -0.206 F 
ATOM     94  C   UNL A   1      47.418  35.399  28.716  1.00  0.00     0.060 A 
BRANCH  94  95
ATOM     95  S   UNL A   1      47.993  37.098  28.921  1.00  0.00     0.124 S 
ATOM     96  O   UNL A   1      47.455  37.736  27.724  1.00  0.00    -0.237 OA
ATOM     97  O   UNL A   1      47.371  37.487  30.183  1.00  0.00    -0.237 OA
ATOM     98  O   UNL A   1      49.446  36.964  28.959  1.00  0.00    -0.744 OA
ENDBRANCH  94  95
ENDBRANCH  62  87
ENDBRANCH  36  37
ENDBRANCH  28  31
ENDBRANCH  26  27
ENDBRANCH  25  26
ENDBRANCH  24  25
ENDBRANCH   1  24
TORSDOF 20
ENDMDL
MODEL 3
REMARK VINA RESULT:     -10.5      6.429     11.965
REMARK SMILES CC(C)N(CC(=O)NCCCCCCNC(=O)c1ccc(-c2c3nc(c(-c4c(F)cc(S(=O)(=O)[O-])cc4F)c4ccc([nH]4)c(-c4c(F)cc(S(=O)(=O)[O-])cc4F)c4nc(c(-c5c(F)cc(S(=O)(=O)[O-])cc5F)c5ccc2[nH]5)C=C4)C=C3)cc1)C(=O)NC1C(C)(C)C1(C)C
REMARK SMILES IDX 11 1 10 2 9 3 8 4 6 5 7 6 5 8 4 9 2 10 1 11 3 12 84 13 85 14
REMARK SMILES IDX 86 15 87 17 88 18 91 19 89 20 90 21 92 22 93 23 12 24 13 25
REMARK SMILES IDX 14 26 15 27 16 28 17 30 18 31 19 32 83 33 20 34 82 35 21 36
REMARK SMILES IDX 22 37 23 38 76 39 24 40 81 41 75 42 77 43 25 44 80 45 74 46
REMARK SMILES IDX 73 47 26 49 60 50 39 51 59 52 40 53 43 54 58 55 78 56 41 57
REMARK SMILES IDX 42 58 57 60 79 61 44 62 27 63 28 64 37 65 29 66 30 67 36 68
REMARK SMILES IDX 38 69 31 70 32 71 33 72 34 73 35 74 61 75 62 76 71 77 63 78
REMARK SMILES IDX 64 79 70 80 72 81 65 82 66 83 67 84 68 85 69 86 45 87 46 88
REMARK SMILES IDX 55 89 47 90 48 91 54 92 56 93 49 94 50 95 51 96 52 97 53 98
REMARK H PARENT 8 7 86 16 15 29 77 48 43 59
REMARK Flexibility Score: inf
ROOT
ATOM      1  C   UNL A   1      37.742  21.667  25.334  1.00  0.00     0.002 C 
ENDROOT
BRANCH   1   2
ATOM      2  C   UNL A   1      36.692  20.603  25.002  1.00  0.00     0.021 C 
BRANCH   2   3
ATOM      3  C   UNL A   1      35.339  20.755  25.679  1.00  0.00     0.116 C 
BRANCH   3   4
ATOM      4  N   UNL A   1      34.331  19.926  25.110  1.00  0.00    -0.355 N 
ATOM      5  C   UNL A   1      33.208  20.335  24.495  1.00  0.00     0.239 C 
ATOM      6  O   UNL A   1      32.668  19.521  23.733  1.00  0.00    -0.273 OA
ATOM      7  H   UNL A   1      34.469  18.953  25.175  1.00  0.00     0.163 HD
BRANCH   5   8
ATOM      8  C   UNL A   1      32.603  21.744  24.662  1.00  0.00     0.221 C 
BRANCH   8   9
ATOM      9  N   UNL A   1      33.120  23.128  24.695  1.00  0.00    -0.313 N 
BRANCH   9  10
ATOM     10  C   UNL A   1      33.500  23.668  23.356  1.00  0.00     0.081 C 
ATOM     11  C   UNL A   1      35.004  23.503  23.088  1.00  0.00     0.031 C 
ATOM     12  C   UNL A   1      32.702  23.150  22.153  1.00  0.00     0.031 C 
ENDBRANCH   9  10
BRANCH   9  13
ATOM     13  C   UNL A   1      32.989  24.051  25.721  1.00  0.00     0.318 C 
ATOM     14  O   UNL A   1      33.241  23.718  26.892  1.00  0.00    -0.249 OA
ATOM     15  N   UNL A   1      32.659  25.372  25.640  1.00  0.00    -0.334 N 
ATOM     16  H   UNL A   1      32.732  25.742  26.551  1.00  0.00     0.165 HD
BRANCH  15  17
ATOM     17  C   UNL A   1      32.241  26.469  24.766  1.00  0.00     0.096 C 
ATOM     18  C   UNL A   1      30.898  26.646  24.089  1.00  0.00    -0.007 C 
ATOM     19  C   UNL A   1      31.440  27.615  25.320  1.00  0.00    -0.007 C 
ATOM     20  C   UNL A   1      30.653  27.442  22.803  1.00  0.00     0.014 C 
ATOM     21  C   UNL A   1      30.156  25.321  23.891  1.00  0.00     0.014 C 
ATOM     22  C   UNL A   1      31.403  27.632  26.841  1.00  0.00     0.014 C 
ATOM     23  C   UNL A   1      31.728  29.062  24.898  1.00  0.00     0.014 C 
ENDBRANCH  15  17
ENDBRANCH   9  13
ENDBRANCH   8   9
ENDBRANCH   5   8
ENDBRANCH   3   4
ENDBRANCH   2   3
ENDBRANCH   1   2
BRANCH   1  24
ATOM     24  C   UNL A   1      37.226  23.051  25.741  1.00  0.00     0.002 C 
BRANCH  24  25
ATOM     25  C   UNL A   1      38.279  24.086  26.134  1.00  0.00     0.021 C 
BRANCH  25  26
ATOM     26  C   UNL A   1      39.477  23.522  26.875  1.00  0.00     0.116 C 
BRANCH  26  27
ATOM     27  N   UNL A   1      40.702  23.760  26.141  1.00  0.00    -0.352 N 
ATOM     28  C   UNL A   1      41.535  24.848  26.225  1.00  0.00     0.251 C 
ATOM     29  H   UNL A   1      40.970  23.056  25.506  1.00  0.00     0.163 HD
ATOM     30  O   UNL A   1      42.365  25.059  25.350  1.00  0.00    -0.269 OA
BRANCH  28  31
ATOM     31  C   UNL A   1      41.398  25.770  27.375  1.00  0.00     0.039 A 
ATOM     32  C   UNL A   1      42.211  26.901  27.441  1.00  0.00     0.014 A 
ATOM     33  C   UNL A   1      40.454  25.520  28.376  1.00  0.00     0.014 A 
ATOM     34  C   UNL A   1      42.052  27.802  28.496  1.00  0.00     0.010 A 
ATOM     35  C   UNL A   1      40.232  26.465  29.372  1.00  0.00     0.010 A 
ATOM     36  C   UNL A   1      41.045  27.604  29.457  1.00  0.00    -0.014 A 
BRANCH  36  37
ATOM     37  C   UNL A   1      40.855  28.558  30.580  1.00  0.00     0.031 A 
ATOM     38  C   UNL A   1      41.711  28.443  31.813  1.00  0.00     0.074 A 
ATOM     39  C   UNL A   1      39.886  29.491  30.509  1.00  0.00     0.049 A 
ATOM     40  N   UNL A   1      41.675  29.151  32.911  1.00  0.00    -0.248 NA
ATOM     41  C   UNL A   1      42.721  27.371  31.826  1.00  0.00     0.031 C 
ATOM     42  C   UNL A   1      38.963  29.670  29.386  1.00  0.00     0.029 A 
ATOM     43  N   UNL A   1      39.513  30.464  31.401  1.00  0.00    -0.354 N 
ATOM     44  C   UNL A   1      42.640  28.602  33.749  1.00  0.00     0.074 A 
ATOM     45  C   UNL A   1      43.204  27.465  33.056  1.00  0.00     0.031 C 
ATOM     46  C   UNL A   1      38.156  30.712  29.642  1.00  0.00     0.029 A 
ATOM     47  C   UNL A   1      38.473  31.249  30.961  1.00  0.00     0.049 A 
ATOM     48  H   UNL A   1      39.949  30.589  32.275  1.00  0.00     0.167 HD
ATOM     49  C   UNL A   1      43.038  29.021  34.973  1.00  0.00     0.037 A 
ATOM     50  C   UNL A   1      37.847  32.284  31.554  1.00  0.00     0.037 A 
ATOM     51  C   UNL A   1      42.493  30.173  35.642  1.00  0.00     0.049 A 
ATOM     52  C   UNL A   1      38.305  32.731  32.917  1.00  0.00     0.074 A 
ATOM     53  C   UNL A   1      42.874  30.727  36.851  1.00  0.00     0.029 A 
ATOM     54  N   UNL A   1      41.444  30.946  35.161  1.00  0.00    -0.354 N 
ATOM     55  N   UNL A   1      39.270  32.245  33.663  1.00  0.00    -0.248 NA
ATOM     56  C   UNL A   1      37.594  33.867  33.517  1.00  0.00     0.031 C 
ATOM     57  C   UNL A   1      42.021  31.800  37.128  1.00  0.00     0.029 A 
ATOM     58  C   UNL A   1      41.146  31.953  36.063  1.00  0.00     0.049 A 
ATOM     59  H   UNL A   1      40.982  30.800  34.305  1.00  0.00     0.167 HD
ATOM     60  C   UNL A   1      39.300  33.036  34.806  1.00  0.00     0.074 A 
ATOM     61  C   UNL A   1      38.265  34.038  34.647  1.00  0.00     0.031 C 
ATOM     62  C   UNL A   1      40.115  32.945  35.888  1.00  0.00     0.037 A 
BRANCH  49  63
ATOM     63  C   UNL A   1      44.111  28.228  35.670  1.00  0.00     0.058 A 
ATOM     64  C   UNL A   1      45.477  28.478  35.458  1.00  0.00     0.135 A 
ATOM     65  C   UNL A   1      43.768  27.220  36.586  1.00  0.00     0.135 A 
ATOM     66  F   UNL A   1      45.863  29.419  34.582  1.00  0.00    -0.206 F 
ATOM     67  C   UNL A   1      46.463  27.737  36.100  1.00  0.00     0.059 A 
ATOM     68  C   UNL A   1      44.738  26.487  37.265  1.00  0.00     0.059 A 
ATOM     69  F   UNL A   1      42.479  26.937  36.829  1.00  0.00    -0.206 F 
ATOM     70  C   UNL A   1      46.082  26.741  37.003  1.00  0.00     0.060 A 
BRANCH  70  71
ATOM     71  S   UNL A   1      47.374  25.790  37.829  1.00  0.00     0.124 S 
ATOM     72  O   UNL A   1      47.854  26.749  38.819  1.00  0.00    -0.237 OA
ATOM     73  O   UNL A   1      46.632  24.651  38.360  1.00  0.00    -0.237 OA
ATOM     74  O   UNL A   1      48.308  25.477  36.753  1.00  0.00    -0.744 OA
ENDBRANCH  70  71
ENDBRANCH  49  63
BRANCH  50  75
ATOM     75  C   UNL A   1      36.742  32.988  30.850  1.00  0.00     0.058 A 
ATOM     76  C   UNL A   1      35.407  32.805  31.241  1.00  0.00     0.135 A 
ATOM     77  C   UNL A   1      36.995  33.870  29.787  1.00  0.00     0.135 A 
ATOM     78  F   UNL A   1      35.112  31.968  32.248  1.00  0.00    -0.206 F 
ATOM     79  C   UNL A   1      34.361  33.457  30.597  1.00  0.00     0.059 A 
ATOM     80  C   UNL A   1      35.969  34.554  29.144  1.00  0.00     0.059 A 
ATOM     81  F   UNL A   1      38.256  34.093  29.384  1.00  0.00    -0.206 F 
ATOM     82  C   UNL A   1      34.653  34.334  29.551  1.00  0.00     0.060 A 
BRANCH  82  83
ATOM     83  S   UNL A   1      33.292  35.216  28.755  1.00  0.00     0.124 S 
ATOM     84  O   UNL A   1      32.683  34.158  27.957  1.00  0.00    -0.237 OA
ATOM     85  O   UNL A   1      32.517  35.678  29.901  1.00  0.00    -0.237 OA
ATOM     86  O   UNL A   1      33.969  36.266  28.001  1.00  0.00    -0.744 OA
ENDBRANCH  82  83
ENDBRANCH  50  75
BRANCH  62  87
ATOM     87  C   UNL A   1      39.947  33.975  36.971  1.00  0.00     0.058 A 
ATOM     88  C   UNL A   1      40.615  35.208  36.929  1.00  0.00     0.135 A 
ATOM     89  C   UNL A   1      39.060  33.745  38.036  1.00  0.00     0.135 A 
ATOM     90  F   UNL A   1      41.479  35.476  35.936  1.00  0.00    -0.206 F 
ATOM     91  C   UNL A   1      40.430  36.168  37.919  1.00  0.00     0.059 A 
ATOM     92  C   UNL A   1      38.836  34.703  39.019  1.00  0.00     0.059 A 
ATOM     93  F   UNL A   1      38.387  32.587  38.117  1.00  0.00    -0.206 F 
ATOM     94  C   UNL A   1      39.535  35.908  38.958  1.00  0.00     0.060 A 
BRANCH  94  95
ATOM     95  S   UNL A   1      39.278  37.177  40.216  1.00  0.00     0.124 S 
ATOM     96  O   UNL A   1      38.527  38.182  39.470  1.00  0.00    -0.237 OA
ATOM     97  O   UNL A   1      38.528  36.454  41.239  1.00  0.00    -0.237 OA
ATOM     98  O   UNL A   1      40.635  37.561  40.595  1.00  0.00    -0.744 OA
ENDBRANCH  94  95
ENDBRANCH  62  87
ENDBRANCH  36  37
ENDBRANCH  28  31
ENDBRANCH  26  27
ENDBRANCH  25  26
ENDBRANCH  24  25
ENDBRANCH   1  24
TORSDOF 20
ENDMDL
