MODEL 1
REMARK VINA RESULT:     -11.6      0.000      0.000
REMARK SMILES COc1ccc(-c2cccc(/C=C\C(=O)NCCCCCCNC(=O)c3ccc(-c4c5nc(c(-c6c(F)cc(S(=O)(=O)[O-])cc6F)c6ccc([nH]6)c(-c6c(F)cc(S(=O)(=O)[O-])cc6F)c6nc(c(-c7c(F)cc(S(=O)(=O)[O-])cc7F)c7ccc4[nH]7)C=C6)C=C5)cc3)c2)c(Cl)c1OC
REMARK SMILES IDX 19 1 18 2 17 3 16 4 14 5 15 6 13 8 12 9 11 10 7 11 8 12
REMARK SMILES IDX 92 13 9 14 10 15 6 16 3 17 4 18 95 19 5 20 93 21 94 22 2 23
REMARK SMILES IDX 1 24 96 25 97 26 20 27 21 28 22 29 23 30 24 31 25 33 26 34
REMARK SMILES IDX 27 35 91 36 28 37 90 38 29 39 30 40 31 41 84 42 32 43 89 44
REMARK SMILES IDX 83 45 85 46 33 47 88 48 82 49 81 50 34 52 68 53 47 54 67 55
REMARK SMILES IDX 48 56 51 57 66 58 86 59 49 60 50 61 65 63 87 64 52 65 35 66
REMARK SMILES IDX 36 67 45 68 37 69 38 70 44 71 46 72 39 73 40 74 41 75 42 76
REMARK SMILES IDX 43 77 69 78 70 79 79 80 71 81 72 82 78 83 80 84 73 85 74 86
REMARK SMILES IDX 75 87 76 88 77 89 53 90 54 91 63 92 55 93 56 94 62 95 64 96
REMARK SMILES IDX 57 97 58 98 59 99 60 100 61 101
REMARK H PARENT 16 7 23 32 85 51 51 62
REMARK Flexibility Score: inf
ROOT
ATOM      1  C   UNL A   1      34.257  28.743  26.115  1.00  0.00     0.002 C 
ENDROOT
BRANCH   1   2
ATOM      2  C   UNL A   1      33.365  27.530  26.411  1.00  0.00     0.021 C 
BRANCH   2   3
ATOM      3  C   UNL A   1      31.890  27.808  26.677  1.00  0.00     0.116 C 
BRANCH   3   4
ATOM      4  N   UNL A   1      31.061  26.635  26.855  1.00  0.00    -0.353 N 
ATOM      5  C   UNL A   1      30.153  26.067  26.017  1.00  0.00     0.243 C 
ATOM      6  O   UNL A   1      29.597  25.025  26.372  1.00  0.00    -0.270 OA
ATOM      7  H   UNL A   1      31.173  26.176  27.719  1.00  0.00     0.163 HD
BRANCH   5   8
ATOM      8  C   UNL A   1      29.707  26.684  24.734  1.00  0.00     0.072 C 
ATOM      9  C   UNL A   1      30.121  26.595  23.456  1.00  0.00     0.014 C 
BRANCH   9  10
ATOM     10  C   UNL A   1      31.255  25.834  22.926  1.00  0.00    -0.025 A 
ATOM     11  C   UNL A   1      32.503  23.720  22.854  1.00  0.00    -0.016 A 
ATOM     12  C   UNL A   1      33.105  24.205  21.670  1.00  0.00     0.009 A 
ATOM     13  C   UNL A   1      31.559  24.565  23.464  1.00  0.00     0.017 A 
ATOM     14  C   UNL A   1      32.912  25.508  21.215  1.00  0.00     0.001 A 
ATOM     15  C   UNL A   1      32.010  26.336  21.865  1.00  0.00     0.008 A 
BRANCH  11  16
ATOM     16  C   UNL A   1      32.992  22.433  23.445  1.00  0.00     0.004 A 
ATOM     17  C   UNL A   1      33.698  19.823  24.300  1.00  0.00     0.162 A 
ATOM     18  C   UNL A   1      32.494  20.037  23.649  1.00  0.00     0.051 A 
ATOM     19  C   UNL A   1      34.537  20.908  24.631  1.00  0.00     0.180 A 
ATOM     20  C   UNL A   1      32.175  21.306  23.199  1.00  0.00     0.014 A 
ATOM     21  C   UNL A   1      34.170  22.219  24.218  1.00  0.00     0.094 A 
ATOM     22  Cl  UNL A   1      35.074  23.602  24.766  1.00  0.00    -0.079 Cl
BRANCH  17  23
ATOM     23  O   UNL A   1      34.075  18.554  24.673  1.00  0.00    -0.493 OA
ATOM     24  C   UNL A   1      33.119  17.905  25.515  1.00  0.00     0.278 C 
ENDBRANCH  17  23
BRANCH  19  25
ATOM     25  O   UNL A   1      35.587  20.545  25.439  1.00  0.00    -0.491 OA
ATOM     26  C   UNL A   1      36.921  20.640  24.972  1.00  0.00     0.278 C 
ENDBRANCH  19  25
ENDBRANCH  11  16
ENDBRANCH   9  10
ENDBRANCH   5   8
ENDBRANCH   3   4
ENDBRANCH   2   3
ENDBRANCH   1   2
BRANCH   1  27
ATOM     27  C   UNL A   1      35.063  29.360  27.268  1.00  0.00     0.002 C 
BRANCH  27  28
ATOM     28  C   UNL A   1      34.571  30.678  27.876  1.00  0.00     0.021 C 
BRANCH  28  29
ATOM     29  C   UNL A   1      35.570  31.504  28.683  1.00  0.00     0.116 C 
BRANCH  29  30
ATOM     30  N   UNL A   1      35.487  31.268  30.110  1.00  0.00    -0.352 N 
ATOM     31  C   UNL A   1      36.391  30.683  30.965  1.00  0.00     0.251 C 
ATOM     32  H   UNL A   1      34.653  31.574  30.534  1.00  0.00     0.163 HD
ATOM     33  O   UNL A   1      36.057  30.481  32.131  1.00  0.00    -0.269 OA
BRANCH  31  34
ATOM     34  C   UNL A   1      37.743  30.268  30.511  1.00  0.00     0.039 A 
ATOM     35  C   UNL A   1      38.023  30.319  29.139  1.00  0.00     0.014 A 
ATOM     36  C   UNL A   1      38.712  29.770  31.388  1.00  0.00     0.014 A 
ATOM     37  C   UNL A   1      39.276  29.924  28.658  1.00  0.00     0.010 A 
ATOM     38  C   UNL A   1      39.982  29.419  30.912  1.00  0.00     0.010 A 
ATOM     39  C   UNL A   1      40.277  29.492  29.542  1.00  0.00    -0.014 A 
BRANCH  39  40
ATOM     40  C   UNL A   1      41.633  29.133  29.041  1.00  0.00     0.031 A 
ATOM     41  C   UNL A   1      42.716  30.174  28.929  1.00  0.00     0.074 A 
ATOM     42  C   UNL A   1      41.886  27.866  28.658  1.00  0.00     0.049 A 
ATOM     43  N   UNL A   1      43.939  30.049  28.478  1.00  0.00    -0.248 NA
ATOM     44  C   UNL A   1      42.377  31.533  29.375  1.00  0.00     0.031 C 
ATOM     45  C   UNL A   1      40.919  26.767  28.691  1.00  0.00     0.029 A 
ATOM     46  N   UNL A   1      43.027  27.288  28.157  1.00  0.00    -0.354 N 
ATOM     47  C   UNL A   1      44.513  31.312  28.575  1.00  0.00     0.074 A 
ATOM     48  C   UNL A   1      43.493  32.196  29.098  1.00  0.00     0.031 C 
ATOM     49  C   UNL A   1      41.511  25.647  28.243  1.00  0.00     0.029 A 
ATOM     50  C   UNL A   1      42.885  25.955  27.854  1.00  0.00     0.049 A 
ATOM     51  H   UNL A   1      43.869  27.783  28.029  1.00  0.00     0.167 HD
ATOM     52  C   UNL A   1      45.778  31.695  28.272  1.00  0.00     0.037 A 
ATOM     53  C   UNL A   1      43.751  25.081  27.304  1.00  0.00     0.037 A 
ATOM     54  C   UNL A   1      46.797  30.811  27.762  1.00  0.00     0.049 A 
ATOM     55  C   UNL A   1      45.135  25.540  26.936  1.00  0.00     0.074 A 
ATOM     56  C   UNL A   1      48.122  31.098  27.480  1.00  0.00     0.029 A 
ATOM     57  N   UNL A   1      46.605  29.474  27.449  1.00  0.00    -0.354 N 
ATOM     58  N   UNL A   1      45.675  26.725  27.083  1.00  0.00    -0.248 NA
ATOM     59  C   UNL A   1      46.025  24.544  26.322  1.00  0.00     0.031 C 
ATOM     60  C   UNL A   1      48.721  29.946  26.958  1.00  0.00     0.029 A 
ATOM     61  C   UNL A   1      47.781  28.929  26.955  1.00  0.00     0.049 A 
ATOM     62  H   UNL A   1      45.759  28.984  27.560  1.00  0.00     0.167 HD
ATOM     63  C   UNL A   1      46.974  26.612  26.600  1.00  0.00     0.074 A 
ATOM     64  C   UNL A   1      47.143  25.241  26.166  1.00  0.00     0.031 C 
ATOM     65  C   UNL A   1      47.940  27.561  26.526  1.00  0.00     0.037 A 
BRANCH  52  66
ATOM     66  C   UNL A   1      46.139  33.140  28.482  1.00  0.00     0.058 A 
ATOM     67  C   UNL A   1      46.711  33.588  29.684  1.00  0.00     0.135 A 
ATOM     68  C   UNL A   1      45.959  34.081  27.454  1.00  0.00     0.135 A 
ATOM     69  F   UNL A   1      46.897  32.734  30.703  1.00  0.00    -0.206 F 
ATOM     70  C   UNL A   1      47.064  34.921  29.870  1.00  0.00     0.059 A 
ATOM     71  C   UNL A   1      46.327  35.414  27.610  1.00  0.00     0.059 A 
ATOM     72  F   UNL A   1      45.421  33.707  26.282  1.00  0.00    -0.206 F 
ATOM     73  C   UNL A   1      46.867  35.828  28.827  1.00  0.00     0.060 A 
BRANCH  73  74
ATOM     74  S   UNL A   1      47.335  37.553  29.083  1.00  0.00     0.124 S 
ATOM     75  O   UNL A   1      46.030  38.203  29.137  1.00  0.00    -0.237 OA
ATOM     76  O   UNL A   1      48.067  37.496  30.344  1.00  0.00    -0.237 OA
ATOM     77  O   UNL A   1      48.143  37.864  27.907  1.00  0.00    -0.744 OA
ENDBRANCH  73  74
ENDBRANCH  52  66
BRANCH  53  78
ATOM     78  C   UNL A   1      43.322  23.681  27.041  1.00  0.00     0.058 A 
ATOM     79  C   UNL A   1      43.237  22.731  28.067  1.00  0.00     0.135 A 
ATOM     80  C   UNL A   1      42.976  23.274  25.745  1.00  0.00     0.135 A 
ATOM     81  F   UNL A   1      43.570  23.068  29.322  1.00  0.00    -0.206 F 
ATOM     82  C   UNL A   1      42.828  21.424  27.816  1.00  0.00     0.059 A 
ATOM     83  C   UNL A   1      42.544  21.983  25.470  1.00  0.00     0.059 A 
ATOM     84  F   UNL A   1      43.032  24.154  24.736  1.00  0.00    -0.206 F 
ATOM     85  C   UNL A   1      42.480  21.062  26.512  1.00  0.00     0.060 A 
BRANCH  85  86
ATOM     86  S   UNL A   1      41.888  19.384  26.200  1.00  0.00     0.124 S 
ATOM     87  O   UNL A   1      42.645  19.024  25.006  1.00  0.00    -0.237 OA
ATOM     88  O   UNL A   1      42.260  18.693  27.429  1.00  0.00    -0.237 OA
ATOM     89  O   UNL A   1      40.452  19.571  26.004  1.00  0.00    -0.744 OA
ENDBRANCH  85  86
ENDBRANCH  53  78
BRANCH  65  90
ATOM     90  C   UNL A   1      49.279  27.142  25.984  1.00  0.00     0.058 A 
ATOM     91  C   UNL A   1      50.309  26.700  26.829  1.00  0.00     0.135 A 
ATOM     92  C   UNL A   1      49.523  27.151  24.602  1.00  0.00     0.135 A 
ATOM     93  F   UNL A   1      50.132  26.682  28.159  1.00  0.00    -0.206 F 
ATOM     94  C   UNL A   1      51.543  26.302  26.322  1.00  0.00     0.059 A 
ATOM     95  C   UNL A   1      50.740  26.734  24.072  1.00  0.00     0.059 A 
ATOM     96  F   UNL A   1      48.568  27.558  23.750  1.00  0.00    -0.206 F 
ATOM     97  C   UNL A   1      51.749  26.323  24.941  1.00  0.00     0.060 A 
BRANCH  97  98
ATOM     98  S   UNL A   1      53.344  25.779  24.293  1.00  0.00     0.124 S 
ATOM     99  O   UNL A   1      53.165  25.986  22.860  1.00  0.00    -0.237 OA
ATOM    100  O   UNL A   1      54.278  26.686  24.952  1.00  0.00    -0.237 OA
ATOM    101  O   UNL A   1      53.425  24.385  24.721  1.00  0.00    -0.744 OA
ENDBRANCH  97  98
ENDBRANCH  65  90
ENDBRANCH  39  40
ENDBRANCH  31  34
ENDBRANCH  29  30
ENDBRANCH  28  29
ENDBRANCH  27  28
ENDBRANCH   1  27
TORSDOF 20
ENDMDL
MODEL 2
REMARK VINA RESULT:     -11.3      1.292      2.094
REMARK SMILES COc1ccc(-c2cccc(/C=C\C(=O)NCCCCCCNC(=O)c3ccc(-c4c5nc(c(-c6c(F)cc(S(=O)(=O)[O-])cc6F)c6ccc([nH]6)c(-c6c(F)cc(S(=O)(=O)[O-])cc6F)c6nc(c(-c7c(F)cc(S(=O)(=O)[O-])cc7F)c7ccc4[nH]7)C=C6)C=C5)cc3)c2)c(Cl)c1OC
REMARK SMILES IDX 19 1 18 2 17 3 16 4 14 5 15 6 13 8 12 9 11 10 7 11 8 12
REMARK SMILES IDX 92 13 9 14 10 15 6 16 3 17 4 18 95 19 5 20 93 21 94 22 2 23
REMARK SMILES IDX 1 24 96 25 97 26 20 27 21 28 22 29 23 30 24 31 25 33 26 34
REMARK SMILES IDX 27 35 91 36 28 37 90 38 29 39 30 40 31 41 84 42 32 43 89 44
REMARK SMILES IDX 83 45 85 46 33 47 88 48 82 49 81 50 34 52 68 53 47 54 67 55
REMARK SMILES IDX 48 56 51 57 66 58 86 59 49 60 50 61 65 63 87 64 52 65 35 66
REMARK SMILES IDX 36 67 45 68 37 69 38 70 44 71 46 72 39 73 40 74 41 75 42 76
REMARK SMILES IDX 43 77 69 78 70 79 79 80 71 81 72 82 78 83 80 84 73 85 74 86
REMARK SMILES IDX 75 87 76 88 77 89 53 90 54 91 63 92 55 93 56 94 62 95 64 96
REMARK SMILES IDX 57 97 58 98 59 99 60 100 61 101
REMARK H PARENT 16 7 23 32 85 51 51 62
REMARK Flexibility Score: inf
ROOT
ATOM      1  C   UNL A   1      32.643  29.656  27.252  1.00  0.00     0.002 C 
ENDROOT
BRANCH   1   2
ATOM      2  C   UNL A   1      31.744  28.416  27.331  1.00  0.00     0.021 C 
BRANCH   2   3
ATOM      3  C   UNL A   1      31.515  27.647  26.036  1.00  0.00     0.116 C 
BRANCH   3   4
ATOM      4  N   UNL A   1      30.725  28.336  25.037  1.00  0.00    -0.353 N 
ATOM      5  C   UNL A   1      31.113  28.985  23.907  1.00  0.00     0.243 C 
ATOM      6  O   UNL A   1      30.243  29.460  23.173  1.00  0.00    -0.270 OA
ATOM      7  H   UNL A   1      29.755  28.333  25.202  1.00  0.00     0.163 HD
BRANCH   5   8
ATOM      8  C   UNL A   1      32.537  29.253  23.550  1.00  0.00     0.072 C 
ATOM      9  C   UNL A   1      33.502  28.538  22.940  1.00  0.00     0.014 C 
BRANCH   9  10
ATOM     10  C   UNL A   1      33.432  27.158  22.454  1.00  0.00    -0.025 A 
ATOM     11  C   UNL A   1      33.689  24.761  22.923  1.00  0.00    -0.016 A 
ATOM     12  C   UNL A   1      32.931  24.530  21.752  1.00  0.00     0.009 A 
ATOM     13  C   UNL A   1      33.919  26.107  23.260  1.00  0.00     0.017 A 
ATOM     14  C   UNL A   1      32.569  25.557  20.882  1.00  0.00     0.001 A 
ATOM     15  C   UNL A   1      32.850  26.872  21.218  1.00  0.00     0.008 A 
BRANCH  11  16
ATOM     16  C   UNL A   1      34.301  23.595  23.636  1.00  0.00     0.004 A 
ATOM     17  C   UNL A   1      35.798  21.521  24.862  1.00  0.00     0.162 A 
ATOM     18  C   UNL A   1      36.306  22.182  23.756  1.00  0.00     0.051 A 
ATOM     19  C   UNL A   1      34.497  21.802  25.330  1.00  0.00     0.180 A 
ATOM     20  C   UNL A   1      35.589  23.220  23.189  1.00  0.00     0.014 A 
ATOM     21  C   UNL A   1      33.740  22.829  24.699  1.00  0.00     0.094 A 
ATOM     22  Cl  UNL A   1      32.069  23.078  25.119  1.00  0.00    -0.079 Cl
BRANCH  17  23
ATOM     23  O   UNL A   1      36.537  20.551  25.497  1.00  0.00    -0.493 OA
ATOM     24  C   UNL A   1      37.846  20.387  24.946  1.00  0.00     0.278 C 
ENDBRANCH  17  23
BRANCH  19  25
ATOM     25  O   UNL A   1      34.079  20.929  26.305  1.00  0.00    -0.491 OA
ATOM     26  C   UNL A   1      33.810  21.390  27.617  1.00  0.00     0.278 C 
ENDBRANCH  19  25
ENDBRANCH  11  16
ENDBRANCH   9  10
ENDBRANCH   5   8
ENDBRANCH   3   4
ENDBRANCH   2   3
ENDBRANCH   1   2
BRANCH   1  27
ATOM     27  C   UNL A   1      34.115  29.524  27.671  1.00  0.00     0.002 C 
BRANCH  27  28
ATOM     28  C   UNL A   1      35.100  30.607  27.219  1.00  0.00     0.021 C 
BRANCH  28  29
ATOM     29  C   UNL A   1      35.708  31.507  28.292  1.00  0.00     0.116 C 
BRANCH  29  30
ATOM     30  N   UNL A   1      35.552  30.984  29.635  1.00  0.00    -0.352 N 
ATOM     31  C   UNL A   1      36.408  30.223  30.394  1.00  0.00     0.251 C 
ATOM     32  H   UNL A   1      34.699  31.209  30.072  1.00  0.00     0.163 HD
ATOM     33  O   UNL A   1      36.015  29.790  31.476  1.00  0.00    -0.269 OA
BRANCH  31  34
ATOM     34  C   UNL A   1      37.780  29.889  29.930  1.00  0.00     0.039 A 
ATOM     35  C   UNL A   1      38.760  29.633  30.898  1.00  0.00     0.014 A 
ATOM     36  C   UNL A   1      38.137  29.886  28.578  1.00  0.00     0.014 A 
ATOM     37  C   UNL A   1      40.071  29.329  30.514  1.00  0.00     0.010 A 
ATOM     38  C   UNL A   1      39.437  29.536  28.192  1.00  0.00     0.010 A 
ATOM     39  C   UNL A   1      40.418  29.254  29.156  1.00  0.00    -0.014 A 
BRANCH  39  40
ATOM     40  C   UNL A   1      41.795  28.866  28.742  1.00  0.00     0.031 A 
ATOM     41  C   UNL A   1      42.898  29.889  28.677  1.00  0.00     0.074 A 
ATOM     42  C   UNL A   1      42.050  27.589  28.395  1.00  0.00     0.049 A 
ATOM     43  N   UNL A   1      44.144  29.739  28.301  1.00  0.00    -0.248 NA
ATOM     44  C   UNL A   1      42.555  31.261  29.079  1.00  0.00     0.031 C 
ATOM     45  C   UNL A   1      41.066  26.505  28.390  1.00  0.00     0.029 A 
ATOM     46  N   UNL A   1      43.210  26.986  27.973  1.00  0.00    -0.354 N 
ATOM     47  C   UNL A   1      44.731  30.994  28.410  1.00  0.00     0.074 A 
ATOM     48  C   UNL A   1      43.696  31.902  28.857  1.00  0.00     0.031 C 
ATOM     49  C   UNL A   1      41.666  25.369  27.997  1.00  0.00     0.029 A 
ATOM     50  C   UNL A   1      43.065  25.649  27.684  1.00  0.00     0.049 A 
ATOM     51  H   UNL A   1      44.065  27.466  27.886  1.00  0.00     0.167 HD
ATOM     52  C   UNL A   1      46.017  31.354  28.175  1.00  0.00     0.037 A 
ATOM     53  C   UNL A   1      43.948  24.753  27.201  1.00  0.00     0.037 A 
ATOM     54  C   UNL A   1      47.050  30.446  27.742  1.00  0.00     0.049 A 
ATOM     55  C   UNL A   1      45.358  25.186  26.907  1.00  0.00     0.074 A 
ATOM     56  C   UNL A   1      48.394  30.709  27.533  1.00  0.00     0.029 A 
ATOM     57  N   UNL A   1      46.857  29.107  27.440  1.00  0.00    -0.354 N 
ATOM     58  N   UNL A   1      45.907  26.366  27.066  1.00  0.00    -0.248 NA
ATOM     59  C   UNL A   1      46.267  24.166  26.364  1.00  0.00     0.031 C 
ATOM     60  C   UNL A   1      49.004  29.539  27.067  1.00  0.00     0.029 A 
ATOM     61  C   UNL A   1      48.050  28.536  27.025  1.00  0.00     0.049 A 
ATOM     62  H   UNL A   1      45.998  28.631  27.510  1.00  0.00     0.167 HD
ATOM     63  C   UNL A   1      47.230  26.225  26.662  1.00  0.00     0.074 A 
ATOM     64  C   UNL A   1      47.403  24.844  26.262  1.00  0.00     0.031 C 
ATOM     65  C   UNL A   1      48.213  27.158  26.629  1.00  0.00     0.037 A 
BRANCH  52  66
ATOM     66  C   UNL A   1      46.388  32.797  28.382  1.00  0.00     0.058 A 
ATOM     67  C   UNL A   1      46.886  33.259  29.611  1.00  0.00     0.135 A 
ATOM     68  C   UNL A   1      46.292  33.720  27.327  1.00  0.00     0.135 A 
ATOM     69  F   UNL A   1      46.990  32.423  30.656  1.00  0.00    -0.206 F 
ATOM     70  C   UNL A   1      47.249  34.590  29.796  1.00  0.00     0.059 A 
ATOM     71  C   UNL A   1      46.671  35.050  27.483  1.00  0.00     0.059 A 
ATOM     72  F   UNL A   1      45.827  33.331  26.130  1.00  0.00    -0.206 F 
ATOM     73  C   UNL A   1      47.136  35.479  28.725  1.00  0.00     0.060 A 
BRANCH  73  74
ATOM     74  S   UNL A   1      47.615  37.201  28.980  1.00  0.00     0.124 S 
ATOM     75  O   UNL A   1      48.156  37.155  30.334  1.00  0.00    -0.237 OA
ATOM     76  O   UNL A   1      48.590  37.417  27.915  1.00  0.00    -0.237 OA
ATOM     77  O   UNL A   1      46.358  37.930  28.831  1.00  0.00    -0.744 OA
ENDBRANCH  73  74
ENDBRANCH  52  66
BRANCH  53  78
ATOM     78  C   UNL A   1      43.513  23.356  26.937  1.00  0.00     0.058 A 
ATOM     79  C   UNL A   1      43.261  22.896  25.638  1.00  0.00     0.135 A 
ATOM     80  C   UNL A   1      43.351  22.449  27.993  1.00  0.00     0.135 A 
ATOM     81  F   UNL A   1      43.388  23.730  24.595  1.00  0.00    -0.206 F 
ATOM     82  C   UNL A   1      42.859  21.585  25.396  1.00  0.00     0.059 A 
ATOM     83  C   UNL A   1      42.973  21.129  27.778  1.00  0.00     0.059 A 
ATOM     84  F   UNL A   1      43.592  22.843  29.250  1.00  0.00    -0.206 F 
ATOM     85  C   UNL A   1      42.722  20.708  26.475  1.00  0.00     0.060 A 
BRANCH  85  86
ATOM     86  S   UNL A   1      42.264  18.991  26.153  1.00  0.00     0.124 S 
ATOM     87  O   UNL A   1      43.200  18.631  25.093  1.00  0.00    -0.237 OA
ATOM     88  O   UNL A   1      42.493  18.364  27.450  1.00  0.00    -0.237 OA
ATOM     89  O   UNL A   1      40.864  19.091  25.751  1.00  0.00    -0.744 OA
ENDBRANCH  85  86
ENDBRANCH  53  78
BRANCH  65  90
ATOM     90  C   UNL A   1      49.575  26.711  26.175  1.00  0.00     0.058 A 
ATOM     91  C   UNL A   1      49.994  26.861  24.844  1.00  0.00     0.135 A 
ATOM     92  C   UNL A   1      50.484  26.157  27.090  1.00  0.00     0.135 A 
ATOM     93  F   UNL A   1      49.160  27.377  23.927  1.00  0.00    -0.206 F 
ATOM     94  C   UNL A   1      51.260  26.457  24.431  1.00  0.00     0.059 A 
ATOM     95  C   UNL A   1      51.764  25.769  26.704  1.00  0.00     0.059 A 
ATOM     96  F   UNL A   1      50.136  25.997  28.376  1.00  0.00    -0.206 F 
ATOM     97  C   UNL A   1      52.139  25.911  25.369  1.00  0.00     0.060 A 
BRANCH  97  98
ATOM     98  S   UNL A   1      53.788  25.415  24.828  1.00  0.00     0.124 S 
ATOM     99  O   UNL A   1      53.882  26.076  23.530  1.00  0.00    -0.237 OA
ATOM    100  O   UNL A   1      54.642  25.959  25.879  1.00  0.00    -0.237 OA
ATOM    101  O   UNL A   1      53.707  23.957  24.786  1.00  0.00    -0.744 OA
ENDBRANCH  97  98
ENDBRANCH  65  90
ENDBRANCH  39  40
ENDBRANCH  31  34
ENDBRANCH  29  30
ENDBRANCH  28  29
ENDBRANCH  27  28
ENDBRANCH   1  27
TORSDOF 20
ENDMDL
MODEL 3
REMARK VINA RESULT:     -11.2      2.701      8.898
REMARK SMILES COc1ccc(-c2cccc(/C=C\C(=O)NCCCCCCNC(=O)c3ccc(-c4c5nc(c(-c6c(F)cc(S(=O)(=O)[O-])cc6F)c6ccc([nH]6)c(-c6c(F)cc(S(=O)(=O)[O-])cc6F)c6nc(c(-c7c(F)cc(S(=O)(=O)[O-])cc7F)c7ccc4[nH]7)C=C6)C=C5)cc3)c2)c(Cl)c1OC
REMARK SMILES IDX 19 1 18 2 17 3 16 4 14 5 15 6 13 8 12 9 11 10 7 11 8 12
REMARK SMILES IDX 92 13 9 14 10 15 6 16 3 17 4 18 95 19 5 20 93 21 94 22 2 23
REMARK SMILES IDX 1 24 96 25 97 26 20 27 21 28 22 29 23 30 24 31 25 33 26 34
REMARK SMILES IDX 27 35 91 36 28 37 90 38 29 39 30 40 31 41 84 42 32 43 89 44
REMARK SMILES IDX 83 45 85 46 33 47 88 48 82 49 81 50 34 52 68 53 47 54 67 55
REMARK SMILES IDX 48 56 51 57 66 58 86 59 49 60 50 61 65 63 87 64 52 65 35 66
REMARK SMILES IDX 36 67 45 68 37 69 38 70 44 71 46 72 39 73 40 74 41 75 42 76
REMARK SMILES IDX 43 77 69 78 70 79 79 80 71 81 72 82 78 83 80 84 73 85 74 86
REMARK SMILES IDX 75 87 76 88 77 89 53 90 54 91 63 92 55 93 56 94 62 95 64 96
REMARK SMILES IDX 57 97 58 98 59 99 60 100 61 101
REMARK H PARENT 16 7 23 32 85 51 51 62
REMARK Flexibility Score: inf
ROOT
ATOM      1  C   UNL A   1      39.989  23.743  26.540  1.00  0.00     0.002 C 
ENDROOT
BRANCH   1   2
ATOM      2  C   UNL A   1      38.635  24.454  26.657  1.00  0.00     0.021 C 
BRANCH   2   3
ATOM      3  C   UNL A   1      37.416  23.705  26.131  1.00  0.00     0.116 C 
BRANCH   3   4
ATOM      4  N   UNL A   1      37.316  23.620  24.689  1.00  0.00    -0.353 N 
ATOM      5  C   UNL A   1      36.751  22.664  23.903  1.00  0.00     0.243 C 
ATOM      6  O   UNL A   1      36.743  22.836  22.682  1.00  0.00    -0.270 OA
ATOM      7  H   UNL A   1      37.719  24.374  24.201  1.00  0.00     0.163 HD
BRANCH   5   8
ATOM      8  C   UNL A   1      36.232  21.364  24.420  1.00  0.00     0.072 C 
ATOM      9  C   UNL A   1      35.219  21.017  25.235  1.00  0.00     0.014 C 
BRANCH   9  10
ATOM     10  C   UNL A   1      34.286  21.897  25.942  1.00  0.00    -0.025 A 
ATOM     11  C   UNL A   1      32.601  23.680  25.828  1.00  0.00    -0.016 A 
ATOM     12  C   UNL A   1      32.217  23.295  27.133  1.00  0.00     0.009 A 
ATOM     13  C   UNL A   1      33.648  22.946  25.245  1.00  0.00     0.017 A 
ATOM     14  C   UNL A   1      32.932  22.357  27.876  1.00  0.00     0.001 A 
ATOM     15  C   UNL A   1      33.991  21.680  27.289  1.00  0.00     0.008 A 
BRANCH  11  16
ATOM     16  C   UNL A   1      31.983  24.900  25.218  1.00  0.00     0.004 A 
ATOM     17  C   UNL A   1      30.479  27.016  24.076  1.00  0.00     0.162 A 
ATOM     18  C   UNL A   1      30.035  25.709  23.959  1.00  0.00     0.051 A 
ATOM     19  C   UNL A   1      31.724  27.300  24.675  1.00  0.00     0.180 A 
ATOM     20  C   UNL A   1      30.753  24.687  24.554  1.00  0.00     0.014 A 
ATOM     21  C   UNL A   1      32.486  26.234  25.229  1.00  0.00     0.094 A 
ATOM     22  Cl  UNL A   1      34.105  26.513  25.805  1.00  0.00    -0.079 Cl
BRANCH  17  23
ATOM     23  O   UNL A   1      29.732  28.056  23.572  1.00  0.00    -0.493 OA
ATOM     24  C   UNL A   1      28.367  27.704  23.330  1.00  0.00     0.278 C 
ENDBRANCH  17  23
BRANCH  19  25
ATOM     25  O   UNL A   1      32.097  28.615  24.537  1.00  0.00    -0.491 OA
ATOM     26  C   UNL A   1      33.162  28.975  23.675  1.00  0.00     0.278 C 
ENDBRANCH  19  25
ENDBRANCH  11  16
ENDBRANCH   9  10
ENDBRANCH   5   8
ENDBRANCH   3   4
ENDBRANCH   2   3
ENDBRANCH   1   2
BRANCH   1  27
ATOM     27  C   UNL A   1      40.168  22.385  27.235  1.00  0.00     0.002 C 
BRANCH  27  28
ATOM     28  C   UNL A   1      40.125  21.117  26.376  1.00  0.00     0.021 C 
BRANCH  28  29
ATOM     29  C   UNL A   1      40.729  19.842  26.959  1.00  0.00     0.116 C 
BRANCH  29  30
ATOM     30  N   UNL A   1      41.749  19.254  26.115  1.00  0.00    -0.352 N 
ATOM     31  C   UNL A   1      42.872  19.817  25.557  1.00  0.00     0.251 C 
ATOM     32  H   UNL A   1      41.618  18.300  25.908  1.00  0.00     0.163 HD
ATOM     33  O   UNL A   1      43.541  19.150  24.770  1.00  0.00    -0.269 OA
BRANCH  31  34
ATOM     34  C   UNL A   1      43.279  21.215  25.858  1.00  0.00     0.039 A 
ATOM     35  C   UNL A   1      43.672  21.520  27.167  1.00  0.00     0.014 A 
ATOM     36  C   UNL A   1      43.219  22.237  24.906  1.00  0.00     0.014 A 
ATOM     37  C   UNL A   1      44.049  22.824  27.506  1.00  0.00     0.010 A 
ATOM     38  C   UNL A   1      43.642  23.532  25.233  1.00  0.00     0.010 A 
ATOM     39  C   UNL A   1      44.061  23.839  26.537  1.00  0.00    -0.014 A 
BRANCH  39  40
ATOM     40  C   UNL A   1      44.524  25.213  26.878  1.00  0.00     0.031 A 
ATOM     41  C   UNL A   1      43.566  26.238  27.423  1.00  0.00     0.074 A 
ATOM     42  C   UNL A   1      45.813  25.550  26.670  1.00  0.00     0.049 A 
ATOM     43  N   UNL A   1      43.785  27.491  27.736  1.00  0.00    -0.248 NA
ATOM     44  C   UNL A   1      42.178  25.801  27.636  1.00  0.00     0.031 C 
ATOM     45  C   UNL A   1      46.839  24.660  26.124  1.00  0.00     0.029 A 
ATOM     46  N   UNL A   1      46.479  26.732  26.885  1.00  0.00    -0.354 N 
ATOM     47  C   UNL A   1      42.566  27.996  28.172  1.00  0.00     0.074 A 
ATOM     48  C   UNL A   1      41.602  26.922  28.053  1.00  0.00     0.031 C 
ATOM     49  C   UNL A   1      48.006  25.323  26.059  1.00  0.00     0.029 A 
ATOM     50  C   UNL A   1      47.804  26.694  26.519  1.00  0.00     0.049 A 
ATOM     51  H   UNL A   1      46.048  27.531  27.267  1.00  0.00     0.167 HD
ATOM     52  C   UNL A   1      42.279  29.234  28.645  1.00  0.00     0.037 A 
ATOM     53  C   UNL A   1      48.747  27.657  26.531  1.00  0.00     0.037 A 
ATOM     54  C   UNL A   1      43.242  30.299  28.774  1.00  0.00     0.049 A 
ATOM     55  C   UNL A   1      48.394  29.035  27.018  1.00  0.00     0.074 A 
ATOM     56  C   UNL A   1      43.055  31.569  29.295  1.00  0.00     0.029 A 
ATOM     57  N   UNL A   1      44.567  30.226  28.373  1.00  0.00    -0.354 N 
ATOM     58  N   UNL A   1      47.248  29.478  27.475  1.00  0.00    -0.248 NA
ATOM     59  C   UNL A   1      49.462  30.045  26.987  1.00  0.00     0.031 C 
ATOM     60  C   UNL A   1      44.256  32.277  29.171  1.00  0.00     0.029 A 
ATOM     61  C   UNL A   1      45.203  31.435  28.613  1.00  0.00     0.049 A 
ATOM     62  H   UNL A   1      44.994  29.434  27.976  1.00  0.00     0.167 HD
ATOM     63  C   UNL A   1      47.462  30.812  27.805  1.00  0.00     0.074 A 
ATOM     64  C   UNL A   1      48.849  31.101  27.506  1.00  0.00     0.031 C 
ATOM     65  C   UNL A   1      46.586  31.714  28.312  1.00  0.00     0.037 A 
BRANCH  52  66
ATOM     66  C   UNL A   1      40.860  29.512  29.059  1.00  0.00     0.058 A 
ATOM     67  C   UNL A   1      40.502  29.648  30.410  1.00  0.00     0.135 A 
ATOM     68  C   UNL A   1      39.854  29.695  28.096  1.00  0.00     0.135 A 
ATOM     69  F   UNL A   1      41.421  29.474  31.374  1.00  0.00    -0.206 F 
ATOM     70  C   UNL A   1      39.193  29.926  30.793  1.00  0.00     0.059 A 
ATOM     71  C   UNL A   1      38.543  29.997  28.455  1.00  0.00     0.059 A 
ATOM     72  F   UNL A   1      40.141  29.581  26.789  1.00  0.00    -0.206 F 
ATOM     73  C   UNL A   1      38.219  30.097  29.806  1.00  0.00     0.060 A 
BRANCH  73  74
ATOM     74  S   UNL A   1      36.527  30.462  30.319  1.00  0.00     0.124 S 
ATOM     75  O   UNL A   1      35.767  30.004  29.161  1.00  0.00    -0.237 OA
ATOM     76  O   UNL A   1      36.385  29.659  31.529  1.00  0.00    -0.237 OA
ATOM     77  O   UNL A   1      36.540  31.908  30.528  1.00  0.00    -0.744 OA
ENDBRANCH  73  74
ENDBRANCH  52  66
BRANCH  53  78
ATOM     78  C   UNL A   1      50.117  27.355  26.035  1.00  0.00     0.058 A 
ATOM     79  C   UNL A   1      51.164  27.037  26.909  1.00  0.00     0.135 A 
ATOM     80  C   UNL A   1      50.396  27.372  24.662  1.00  0.00     0.135 A 
ATOM     81  F   UNL A   1      50.949  27.021  28.234  1.00  0.00    -0.206 F 
ATOM     82  C   UNL A   1      52.442  26.749  26.439  1.00  0.00     0.059 A 
ATOM     83  C   UNL A   1      51.657  27.068  24.164  1.00  0.00     0.059 A 
ATOM     84  F   UNL A   1      49.422  27.661  23.789  1.00  0.00    -0.206 F 
ATOM     85  C   UNL A   1      52.677  26.765  25.062  1.00  0.00     0.060 A 
BRANCH  85  86
ATOM     86  S   UNL A   1      54.319  26.328  24.450  1.00  0.00     0.124 S 
ATOM     87  O   UNL A   1      54.231  26.741  23.053  1.00  0.00    -0.237 OA
ATOM     88  O   UNL A   1      55.188  27.132  25.302  1.00  0.00    -0.237 OA
ATOM     89  O   UNL A   1      54.386  24.887  24.679  1.00  0.00    -0.744 OA
ENDBRANCH  85  86
ENDBRANCH  53  78
BRANCH  65  90
ATOM     90  C   UNL A   1      47.109  33.092  28.609  1.00  0.00     0.058 A 
ATOM     91  C   UNL A   1      47.043  34.125  27.660  1.00  0.00     0.135 A 
ATOM     92  C   UNL A   1      47.650  33.393  29.869  1.00  0.00     0.135 A 
ATOM     93  F   UNL A   1      46.544  33.889  26.437  1.00  0.00    -0.206 F 
ATOM     94  C   UNL A   1      47.516  35.403  27.945  1.00  0.00     0.059 A 
ATOM     95  C   UNL A   1      48.106  34.670  30.182  1.00  0.00     0.059 A 
ATOM     96  F   UNL A   1      47.729  32.443  30.814  1.00  0.00    -0.206 F 
ATOM     97  C   UNL A   1      48.047  35.665  29.209  1.00  0.00     0.060 A 
BRANCH  97  98
ATOM     98  S   UNL A   1      48.634  37.334  29.574  1.00  0.00     0.124 S 
ATOM     99  O   UNL A   1      48.975  37.823  28.243  1.00  0.00    -0.237 OA
ATOM    100  O   UNL A   1      47.466  37.949  30.196  1.00  0.00    -0.237 OA
ATOM    101  O   UNL A   1      49.765  37.106  30.469  1.00  0.00    -0.744 OA
ENDBRANCH  97  98
ENDBRANCH  65  90
ENDBRANCH  39  40
ENDBRANCH  31  34
ENDBRANCH  29  30
ENDBRANCH  28  29
ENDBRANCH  27  28
ENDBRANCH   1  27
TORSDOF 20
ENDMDL
