MODEL 1
REMARK VINA RESULT:      -8.7      0.000      0.000
REMARK SMILES COC(=O)c1ccc([C@H]2CC(=O)Nc3c(C(=O)NCCCCCCNC(=O)c4ccc(-c5c6nc(c(-c7c(F)cc(S(=O)(=O)[O-])cc7F)c7ccc([nH]7)c(-c7c(F)cc(S(=O)(=O)[O-])cc7F)c7nc(c(-c8c(F)cc(S(=O)(=O)[O-])cc8F)c8ccc5[nH]8)C=C7)C=C6)cc4)cn(-c4ccccc4)c32)cc1
REMARK SMILES IDX 21 1 20 2 19 3 18 4 16 5 17 6 15 8 9 9 10 10 102 11 11 12
REMARK SMILES IDX 14 13 95 14 12 15 13 16 94 17 8 19 5 20 6 21 104 22 7 23
REMARK SMILES IDX 103 24 3 25 4 26 2 27 1 28 96 29 97 30 101 31 98 32 100 33
REMARK SMILES IDX 99 34 22 35 23 36 24 37 25 38 26 39 27 41 28 42 29 43 93 44
REMARK SMILES IDX 30 45 92 46 31 47 32 48 33 49 86 50 34 51 91 52 85 53 87 54
REMARK SMILES IDX 35 55 90 56 84 57 83 58 36 60 70 61 49 62 69 63 50 64 53 65
REMARK SMILES IDX 68 66 88 67 51 68 52 69 67 71 89 72 54 73 37 74 38 75 47 76
REMARK SMILES IDX 39 77 40 78 46 79 48 80 41 81 42 82 43 83 44 84 45 85 71 86
REMARK SMILES IDX 72 87 81 88 73 89 74 90 80 91 82 92 75 93 76 94 77 95 78 96
REMARK SMILES IDX 79 97 55 98 56 99 65 100 57 101 58 102 64 103 66 104 59 105
REMARK SMILES IDX 60 106 61 107 62 108 63 109
REMARK H PARENT 18 7 13 18 25 40 87 59 53 70
REMARK Flexibility Score: inf
ROOT
ATOM      1  C   UNL A   1      44.604  25.872  32.744  1.00  0.00     0.002 C 
ENDROOT
BRANCH   1   2
ATOM      2  C   UNL A   1      45.869  26.426  32.085  1.00  0.00     0.021 C 
BRANCH   2   3
ATOM      3  C   UNL A   1      46.514  25.443  31.100  1.00  0.00     0.116 C 
BRANCH   3   4
ATOM      4  N   UNL A   1      47.491  26.119  30.290  1.00  0.00    -0.352 N 
ATOM      5  C   UNL A   1      47.405  26.893  29.170  1.00  0.00     0.254 C 
ATOM      6  O   UNL A   1      48.484  27.356  28.785  1.00  0.00    -0.269 OA
ATOM      7  H   UNL A   1      48.414  26.000  30.613  1.00  0.00     0.163 HD
BRANCH   5   8
ATOM      8  C   UNL A   1      46.157  27.232  28.470  1.00  0.00     0.081 A 
ATOM      9  C   UNL A   1      43.361  28.970  26.664  1.00  0.00     0.078 C 
ATOM     10  C   UNL A   1      43.956  30.379  26.552  1.00  0.00     0.115 C 
ATOM     11  C   UNL A   1      44.315  28.013  27.346  1.00  0.00     0.055 A 
ATOM     12  C   UNL A   1      45.457  30.455  26.589  1.00  0.00     0.225 C 
ATOM     13  C   UNL A   1      45.607  28.323  27.728  1.00  0.00     0.076 A 
ATOM     14  N   UNL A   1      44.052  26.716  27.750  1.00  0.00    -0.317 N 
ATOM     15  O   UNL A   1      46.082  31.369  26.052  1.00  0.00    -0.275 OA
ATOM     16  N   UNL A   1      46.116  29.541  27.354  1.00  0.00    -0.324 N 
ATOM     17  C   UNL A   1      45.122  26.299  28.502  1.00  0.00     0.107 A 
ATOM     18  H   UNL A   1      47.023  29.772  27.662  1.00  0.00     0.170 HD
BRANCH   9  19
ATOM     19  C   UNL A   1      41.977  29.123  27.302  1.00  0.00    -0.038 A 
ATOM     20  C   UNL A   1      39.399  29.266  28.441  1.00  0.00     0.060 A 
ATOM     21  C   UNL A   1      39.562  28.853  27.115  1.00  0.00     0.016 A 
ATOM     22  C   UNL A   1      40.517  29.673  29.173  1.00  0.00     0.016 A 
ATOM     23  C   UNL A   1      40.839  28.772  26.555  1.00  0.00     0.005 A 
ATOM     24  C   UNL A   1      41.785  29.642  28.592  1.00  0.00     0.005 A 
BRANCH  20  25
ATOM     25  C   UNL A   1      38.041  29.234  29.035  1.00  0.00     0.337 C 
ATOM     26  O   UNL A   1      37.821  29.408  30.229  1.00  0.00    -0.246 OA
BRANCH  25  27
ATOM     27  O   UNL A   1      37.114  29.016  28.076  1.00  0.00    -0.465 OA
ATOM     28  C   UNL A   1      36.425  30.183  27.635  1.00  0.00     0.282 C 
ENDBRANCH  25  27
ENDBRANCH  20  25
ENDBRANCH   9  19
BRANCH  14  29
ATOM     29  C   UNL A   1      42.862  25.970  27.574  1.00  0.00     0.045 A 
ATOM     30  C   UNL A   1      42.521  25.465  26.318  1.00  0.00     0.026 A 
ATOM     31  C   UNL A   1      41.970  25.861  28.650  1.00  0.00     0.026 A 
ATOM     32  C   UNL A   1      41.254  24.916  26.119  1.00  0.00     0.002 A 
ATOM     33  C   UNL A   1      40.694  25.342  28.433  1.00  0.00     0.002 A 
ATOM     34  C   UNL A   1      40.335  24.881  27.168  1.00  0.00     0.000 A 
ENDBRANCH  14  29
ENDBRANCH   5   8
ENDBRANCH   3   4
ENDBRANCH   2   3
ENDBRANCH   1   2
BRANCH   1  35
ATOM     35  C   UNL A   1      44.316  24.393  32.433  1.00  0.00     0.002 C 
BRANCH  35  36
ATOM     36  C   UNL A   1      43.833  23.533  33.614  1.00  0.00     0.021 C 
BRANCH  36  37
ATOM     37  C   UNL A   1      44.252  24.091  34.964  1.00  0.00     0.116 C 
BRANCH  37  38
ATOM     38  N   UNL A   1      43.144  24.048  35.925  1.00  0.00    -0.352 N 
ATOM     39  C   UNL A   1      42.311  25.058  36.359  1.00  0.00     0.251 C 
ATOM     40  H   UNL A   1      42.970  23.165  36.322  1.00  0.00     0.163 HD
ATOM     41  O   UNL A   1      41.675  24.936  37.400  1.00  0.00    -0.269 OA
BRANCH  39  42
ATOM     42  C   UNL A   1      42.195  26.279  35.547  1.00  0.00     0.039 A 
ATOM     43  C   UNL A   1      41.319  26.372  34.462  1.00  0.00     0.014 A 
ATOM     44  C   UNL A   1      42.984  27.361  35.915  1.00  0.00     0.014 A 
ATOM     45  C   UNL A   1      41.211  27.592  33.798  1.00  0.00     0.010 A 
ATOM     46  C   UNL A   1      42.697  28.602  35.429  1.00  0.00     0.010 A 
ATOM     47  C   UNL A   1      41.902  28.704  34.299  1.00  0.00    -0.014 A 
BRANCH  47  48
ATOM     48  C   UNL A   1      41.776  30.027  33.710  1.00  0.00     0.031 A 
ATOM     49  C   UNL A   1      42.916  30.413  32.842  1.00  0.00     0.074 A 
ATOM     50  C   UNL A   1      40.615  30.718  33.744  1.00  0.00     0.049 A 
ATOM     51  N   UNL A   1      43.826  31.297  33.079  1.00  0.00    -0.248 NA
ATOM     52  C   UNL A   1      43.180  29.595  31.646  1.00  0.00     0.031 C 
ATOM     53  C   UNL A   1      39.308  30.296  34.272  1.00  0.00     0.029 A 
ATOM     54  N   UNL A   1      40.327  31.926  33.198  1.00  0.00    -0.354 N 
ATOM     55  C   UNL A   1      44.624  31.328  31.940  1.00  0.00     0.074 A 
ATOM     56  C   UNL A   1      44.331  30.118  31.218  1.00  0.00     0.031 C 
ATOM     57  C   UNL A   1      38.341  31.116  33.806  1.00  0.00     0.029 A 
ATOM     58  C   UNL A   1      38.969  32.218  33.106  1.00  0.00     0.049 A 
ATOM     59  H   UNL A   1      41.025  32.549  32.892  1.00  0.00     0.167 HD
ATOM     60  C   UNL A   1      45.248  32.474  31.550  1.00  0.00     0.037 A 
ATOM     61  C   UNL A   1      38.413  33.279  32.469  1.00  0.00     0.037 A 
ATOM     62  C   UNL A   1      45.254  33.446  32.620  1.00  0.00     0.049 A 
ATOM     63  C   UNL A   1      39.490  34.297  32.326  1.00  0.00     0.074 A 
ATOM     64  C   UNL A   1      45.730  33.454  33.917  1.00  0.00     0.029 A 
ATOM     65  N   UNL A   1      44.339  34.471  32.554  1.00  0.00    -0.354 N 
ATOM     66  N   UNL A   1      40.054  34.901  33.339  1.00  0.00    -0.248 NA
ATOM     67  C   UNL A   1      40.276  34.275  31.102  1.00  0.00     0.031 C 
ATOM     68  C   UNL A   1      44.727  34.133  34.673  1.00  0.00     0.029 A 
ATOM     69  C   UNL A   1      43.742  34.573  33.786  1.00  0.00     0.049 A 
ATOM     70  H   UNL A   1      44.147  35.031  31.766  1.00  0.00     0.167 HD
ATOM     71  C   UNL A   1      41.404  34.956  33.020  1.00  0.00     0.074 A 
ATOM     72  C   UNL A   1      41.467  34.624  31.597  1.00  0.00     0.031 C 
ATOM     73  C   UNL A   1      42.365  34.976  33.991  1.00  0.00     0.037 A 
BRANCH  60  74
ATOM     74  C   UNL A   1      45.504  32.862  30.111  1.00  0.00     0.058 A 
ATOM     75  C   UNL A   1      46.809  33.234  29.723  1.00  0.00     0.135 A 
ATOM     76  C   UNL A   1      44.488  33.150  29.170  1.00  0.00     0.135 A 
ATOM     77  F   UNL A   1      47.853  33.012  30.537  1.00  0.00    -0.206 F 
ATOM     78  C   UNL A   1      47.071  33.912  28.532  1.00  0.00     0.059 A 
ATOM     79  C   UNL A   1      44.737  33.771  27.951  1.00  0.00     0.059 A 
ATOM     80  F   UNL A   1      43.193  32.936  29.418  1.00  0.00    -0.206 F 
ATOM     81  C   UNL A   1      46.023  34.190  27.661  1.00  0.00     0.060 A 
BRANCH  81  82
ATOM     82  S   UNL A   1      46.336  35.161  26.178  1.00  0.00     0.124 S 
ATOM     83  O   UNL A   1      46.217  36.520  26.692  1.00  0.00    -0.237 OA
ATOM     84  O   UNL A   1      47.683  34.729  25.814  1.00  0.00    -0.237 OA
ATOM     85  O   UNL A   1      45.279  34.733  25.267  1.00  0.00    -0.744 OA
ENDBRANCH  81  82
ENDBRANCH  60  74
BRANCH  61  86
ATOM     86  C   UNL A   1      37.157  33.308  31.668  1.00  0.00     0.058 A 
ATOM     87  C   UNL A   1      36.005  33.964  32.140  1.00  0.00     0.135 A 
ATOM     88  C   UNL A   1      37.144  32.941  30.306  1.00  0.00     0.135 A 
ATOM     89  F   UNL A   1      35.937  34.366  33.418  1.00  0.00    -0.206 F 
ATOM     90  C   UNL A   1      34.928  34.282  31.302  1.00  0.00     0.059 A 
ATOM     91  C   UNL A   1      36.080  33.241  29.454  1.00  0.00     0.059 A 
ATOM     92  F   UNL A   1      38.209  32.358  29.736  1.00  0.00    -0.206 F 
ATOM     93  C   UNL A   1      34.985  33.935  29.953  1.00  0.00     0.060 A 
BRANCH  93  94
ATOM     94  S   UNL A   1      33.682  34.498  28.828  1.00  0.00     0.124 S 
ATOM     95  O   UNL A   1      33.424  33.299  28.039  1.00  0.00    -0.237 OA
ATOM     96  O   UNL A   1      32.625  34.893  29.752  1.00  0.00    -0.237 OA
ATOM     97  O   UNL A   1      34.313  35.598  28.102  1.00  0.00    -0.744 OA
ENDBRANCH  93  94
ENDBRANCH  61  86
BRANCH  73  98
ATOM     98  C   UNL A   1      41.942  35.220  35.420  1.00  0.00     0.058 A 
ATOM     99  C   UNL A   1      41.616  34.210  36.345  1.00  0.00     0.135 A 
ATOM    100  C   UNL A   1      42.036  36.528  35.920  1.00  0.00     0.135 A 
ATOM    101  F   UNL A   1      41.601  32.921  35.982  1.00  0.00    -0.206 F 
ATOM    102  C   UNL A   1      41.360  34.492  37.690  1.00  0.00     0.059 A 
ATOM    103  C   UNL A   1      41.816  36.829  37.262  1.00  0.00     0.059 A 
ATOM    104  F   UNL A   1      42.403  37.532  35.105  1.00  0.00    -0.206 F 
ATOM    105  C   UNL A   1      41.467  35.807  38.140  1.00  0.00     0.060 A 
BRANCH 105 106
ATOM    106  S   UNL A   1      41.212  36.163  39.893  1.00  0.00     0.124 S 
ATOM    107  O   UNL A   1      42.486  35.756  40.477  1.00  0.00    -0.237 OA
ATOM    108  O   UNL A   1      40.943  37.598  39.891  1.00  0.00    -0.237 OA
ATOM    109  O   UNL A   1      40.069  35.324  40.249  1.00  0.00    -0.744 OA
ENDBRANCH 105 106
ENDBRANCH  73  98
ENDBRANCH  47  48
ENDBRANCH  39  42
ENDBRANCH  37  38
ENDBRANCH  36  37
ENDBRANCH  35  36
ENDBRANCH   1  35
TORSDOF 20
ENDMDL
MODEL 2
REMARK VINA RESULT:      -8.4      3.703     11.212
REMARK SMILES COC(=O)c1ccc([C@H]2CC(=O)Nc3c(C(=O)NCCCCCCNC(=O)c4ccc(-c5c6nc(c(-c7c(F)cc(S(=O)(=O)[O-])cc7F)c7ccc([nH]7)c(-c7c(F)cc(S(=O)(=O)[O-])cc7F)c7nc(c(-c8c(F)cc(S(=O)(=O)[O-])cc8F)c8ccc5[nH]8)C=C7)C=C6)cc4)cn(-c4ccccc4)c32)cc1
REMARK SMILES IDX 21 1 20 2 19 3 18 4 16 5 17 6 15 8 9 9 10 10 102 11 11 12
REMARK SMILES IDX 14 13 95 14 12 15 13 16 94 17 8 19 5 20 6 21 104 22 7 23
REMARK SMILES IDX 103 24 3 25 4 26 2 27 1 28 96 29 97 30 101 31 98 32 100 33
REMARK SMILES IDX 99 34 22 35 23 36 24 37 25 38 26 39 27 41 28 42 29 43 93 44
REMARK SMILES IDX 30 45 92 46 31 47 32 48 33 49 86 50 34 51 91 52 85 53 87 54
REMARK SMILES IDX 35 55 90 56 84 57 83 58 36 60 70 61 49 62 69 63 50 64 53 65
REMARK SMILES IDX 68 66 88 67 51 68 52 69 67 71 89 72 54 73 37 74 38 75 47 76
REMARK SMILES IDX 39 77 40 78 46 79 48 80 41 81 42 82 43 83 44 84 45 85 71 86
REMARK SMILES IDX 72 87 81 88 73 89 74 90 80 91 82 92 75 93 76 94 77 95 78 96
REMARK SMILES IDX 79 97 55 98 56 99 65 100 57 101 58 102 64 103 66 104 59 105
REMARK SMILES IDX 60 106 61 107 62 108 63 109
REMARK H PARENT 18 7 13 18 25 40 87 59 53 70
REMARK Flexibility Score: inf
ROOT
ATOM      1  C   UNL A   1      36.416  31.929  33.046  1.00  0.00     0.002 C 
ENDROOT
BRANCH   1   2
ATOM      2  C   UNL A   1      37.724  31.842  32.255  1.00  0.00     0.021 C 
BRANCH   2   3
ATOM      3  C   UNL A   1      38.971  31.894  33.147  1.00  0.00     0.116 C 
BRANCH   3   4
ATOM      4  N   UNL A   1      38.750  31.147  34.355  1.00  0.00    -0.352 N 
ATOM      5  C   UNL A   1      39.348  31.152  35.581  1.00  0.00     0.254 C 
ATOM      6  O   UNL A   1      38.832  30.389  36.404  1.00  0.00    -0.269 OA
ATOM      7  H   UNL A   1      38.014  30.498  34.282  1.00  0.00     0.163 HD
BRANCH   5   8
ATOM      8  C   UNL A   1      40.475  32.013  35.969  1.00  0.00     0.081 A 
ATOM      9  C   UNL A   1      42.835  34.882  36.520  1.00  0.00     0.078 C 
ATOM     10  C   UNL A   1      42.023  36.017  35.880  1.00  0.00     0.115 C 
ATOM     11  C   UNL A   1      42.090  33.566  36.469  1.00  0.00     0.055 A 
ATOM     12  C   UNL A   1      40.536  35.807  35.839  1.00  0.00     0.225 C 
ATOM     13  C   UNL A   1      40.797  33.406  36.008  1.00  0.00     0.076 A 
ATOM     14  N   UNL A   1      42.577  32.316  36.809  1.00  0.00    -0.317 N 
ATOM     15  O   UNL A   1      39.740  36.747  35.823  1.00  0.00    -0.275 OA
ATOM     16  N   UNL A   1      40.081  34.532  35.689  1.00  0.00    -0.324 N 
ATOM     17  C   UNL A   1      41.641  31.393  36.415  1.00  0.00     0.107 A 
ATOM     18  H   UNL A   1      39.174  34.410  35.324  1.00  0.00     0.170 HD
BRANCH   9  19
ATOM     19  C   UNL A   1      44.220  34.907  35.870  1.00  0.00    -0.038 A 
ATOM     20  C   UNL A   1      46.827  34.883  34.788  1.00  0.00     0.060 A 
ATOM     21  C   UNL A   1      46.599  35.399  36.068  1.00  0.00     0.016 A 
ATOM     22  C   UNL A   1      45.743  34.445  34.024  1.00  0.00     0.016 A 
ATOM     23  C   UNL A   1      45.311  35.401  36.607  1.00  0.00     0.005 A 
ATOM     24  C   UNL A   1      44.450  34.499  34.546  1.00  0.00     0.005 A 
BRANCH  20  25
ATOM     25  C   UNL A   1      48.221  34.795  34.294  1.00  0.00     0.337 C 
ATOM     26  O   UNL A   1      48.644  33.859  33.622  1.00  0.00    -0.246 OA
BRANCH  25  27
ATOM     27  O   UNL A   1      48.922  35.889  34.666  1.00  0.00    -0.465 OA
ATOM     28  C   UNL A   1      49.042  36.893  33.662  1.00  0.00     0.282 C 
ENDBRANCH  25  27
ENDBRANCH  20  25
ENDBRANCH   9  19
BRANCH  14  29
ATOM     29  C   UNL A   1      43.852  31.986  37.330  1.00  0.00     0.045 A 
ATOM     30  C   UNL A   1      44.226  32.407  38.607  1.00  0.00     0.026 A 
ATOM     31  C   UNL A   1      44.777  31.348  36.491  1.00  0.00     0.026 A 
ATOM     32  C   UNL A   1      45.550  32.253  39.020  1.00  0.00     0.002 A 
ATOM     33  C   UNL A   1      46.105  31.232  36.900  1.00  0.00     0.002 A 
ATOM     34  C   UNL A   1      46.491  31.693  38.157  1.00  0.00     0.000 A 
ENDBRANCH  14  29
ENDBRANCH   5   8
ENDBRANCH   3   4
ENDBRANCH   2   3
ENDBRANCH   1   2
BRANCH   1  35
ATOM     35  C   UNL A   1      35.146  31.962  32.179  1.00  0.00     0.002 C 
BRANCH  35  36
ATOM     36  C   UNL A   1      34.737  33.337  31.625  1.00  0.00     0.021 C 
BRANCH  36  37
ATOM     37  C   UNL A   1      35.202  33.563  30.196  1.00  0.00     0.116 C 
BRANCH  37  38
ATOM     38  N   UNL A   1      34.486  32.689  29.259  1.00  0.00    -0.352 N 
ATOM     39  C   UNL A   1      34.953  31.634  28.502  1.00  0.00     0.251 C 
ATOM     40  H   UNL A   1      33.528  32.887  29.153  1.00  0.00     0.163 HD
ATOM     41  O   UNL A   1      34.319  31.238  27.530  1.00  0.00    -0.269 OA
BRANCH  39  42
ATOM     42  C   UNL A   1      36.219  30.992  28.886  1.00  0.00     0.039 A 
ATOM     43  C   UNL A   1      36.285  29.655  29.289  1.00  0.00     0.014 A 
ATOM     44  C   UNL A   1      37.370  31.767  28.813  1.00  0.00     0.014 A 
ATOM     45  C   UNL A   1      37.535  29.102  29.556  1.00  0.00     0.010 A 
ATOM     46  C   UNL A   1      38.592  31.164  28.834  1.00  0.00     0.010 A 
ATOM     47  C   UNL A   1      38.684  29.869  29.315  1.00  0.00    -0.014 A 
BRANCH  47  48
ATOM     48  C   UNL A   1      40.025  29.335  29.492  1.00  0.00     0.031 A 
ATOM     49  C   UNL A   1      40.375  29.037  30.902  1.00  0.00     0.074 A 
ATOM     50  C   UNL A   1      40.769  28.909  28.447  1.00  0.00     0.049 A 
ATOM     51  N   UNL A   1      41.210  29.667  31.659  1.00  0.00    -0.248 NA
ATOM     52  C   UNL A   1      39.573  28.027  31.615  1.00  0.00     0.031 C 
ATOM     53  C   UNL A   1      40.398  28.828  27.025  1.00  0.00     0.029 A 
ATOM     54  N   UNL A   1      42.002  28.343  28.455  1.00  0.00    -0.354 N 
ATOM     55  C   UNL A   1      41.228  28.966  32.861  1.00  0.00     0.074 A 
ATOM     56  C   UNL A   1      40.050  28.139  32.856  1.00  0.00     0.031 C 
ATOM     57  C   UNL A   1      41.273  28.034  26.370  1.00  0.00     0.029 A 
ATOM     58  C   UNL A   1      42.360  27.705  27.271  1.00  0.00     0.049 A 
ATOM     59  H   UNL A   1      42.598  28.380  29.237  1.00  0.00     0.167 HD
ATOM     60  C   UNL A   1      42.352  28.918  33.630  1.00  0.00     0.037 A 
ATOM     61  C   UNL A   1      43.461  26.937  27.068  1.00  0.00     0.037 A 
ATOM     62  C   UNL A   1      43.297  29.932  33.220  1.00  0.00     0.049 A 
ATOM     63  C   UNL A   1      44.429  27.298  28.139  1.00  0.00     0.074 A 
ATOM     64  C   UNL A   1      43.254  31.308  33.111  1.00  0.00     0.029 A 
ATOM     65  N   UNL A   1      44.367  29.532  32.453  1.00  0.00    -0.354 N 
ATOM     66  N   UNL A   1      44.983  28.477  28.248  1.00  0.00    -0.248 NA
ATOM     67  C   UNL A   1      44.397  26.512  29.364  1.00  0.00     0.031 C 
ATOM     68  C   UNL A   1      43.963  31.604  31.908  1.00  0.00     0.029 A 
ATOM     69  C   UNL A   1      44.469  30.406  31.399  1.00  0.00     0.049 A 
ATOM     70  H   UNL A   1      44.952  28.759  32.626  1.00  0.00     0.167 HD
ATOM     71  C   UNL A   1      44.980  28.752  29.610  1.00  0.00     0.074 A 
ATOM     72  C   UNL A   1      44.677  27.472  30.251  1.00  0.00     0.031 C 
ATOM     73  C   UNL A   1      44.933  30.035  30.077  1.00  0.00     0.037 A 
BRANCH  60  74
ATOM     74  C   UNL A   1      42.759  27.734  34.476  1.00  0.00     0.058 A 
ATOM     75  C   UNL A   1      42.875  27.897  35.873  1.00  0.00     0.135 A 
ATOM     76  C   UNL A   1      43.303  26.534  33.961  1.00  0.00     0.135 A 
ATOM     77  F   UNL A   1      42.397  28.999  36.474  1.00  0.00    -0.206 F 
ATOM     78  C   UNL A   1      43.551  26.982  36.681  1.00  0.00     0.059 A 
ATOM     79  C   UNL A   1      43.928  25.581  34.757  1.00  0.00     0.059 A 
ATOM     80  F   UNL A   1      43.347  26.265  32.653  1.00  0.00    -0.206 F 
ATOM     81  C   UNL A   1      44.088  25.834  36.108  1.00  0.00     0.060 A 
BRANCH  81  82
ATOM     82  S   UNL A   1      45.056  24.706  37.123  1.00  0.00     0.124 S 
ATOM     83  O   UNL A   1      44.476  24.932  38.441  1.00  0.00    -0.237 OA
ATOM     84  O   UNL A   1      44.760  23.416  36.505  1.00  0.00    -0.237 OA
ATOM     85  O   UNL A   1      46.424  25.182  36.942  1.00  0.00    -0.744 OA
ENDBRANCH  81  82
ENDBRANCH  60  74
BRANCH  61  86
ATOM     86  C   UNL A   1      43.568  25.688  26.263  1.00  0.00     0.058 A 
ATOM     87  C   UNL A   1      44.608  25.504  25.335  1.00  0.00     0.135 A 
ATOM     88  C   UNL A   1      42.822  24.537  26.590  1.00  0.00     0.135 A 
ATOM     89  F   UNL A   1      45.382  26.541  24.978  1.00  0.00    -0.206 F 
ATOM     90  C   UNL A   1      44.923  24.247  24.802  1.00  0.00     0.059 A 
ATOM     91  C   UNL A   1      43.112  23.276  26.066  1.00  0.00     0.059 A 
ATOM     92  F   UNL A   1      41.840  24.583  27.503  1.00  0.00    -0.206 F 
ATOM     93  C   UNL A   1      44.182  23.133  25.192  1.00  0.00     0.060 A 
BRANCH  93  94
ATOM     94  S   UNL A   1      44.692  21.483  24.648  1.00  0.00     0.124 S 
ATOM     95  O   UNL A   1      46.041  21.387  25.195  1.00  0.00    -0.237 OA
ATOM     96  O   UNL A   1      43.689  20.627  25.271  1.00  0.00    -0.237 OA
ATOM     97  O   UNL A   1      44.616  21.568  23.192  1.00  0.00    -0.744 OA
ENDBRANCH  93  94
ENDBRANCH  61  86
BRANCH  73  98
ATOM     98  C   UNL A   1      45.164  31.167  29.104  1.00  0.00     0.058 A 
ATOM     99  C   UNL A   1      46.429  31.602  28.664  1.00  0.00     0.135 A 
ATOM    100  C   UNL A   1      44.046  31.722  28.462  1.00  0.00     0.135 A 
ATOM    101  F   UNL A   1      47.553  31.057  29.148  1.00  0.00    -0.206 F 
ATOM    102  C   UNL A   1      46.573  32.566  27.663  1.00  0.00     0.059 A 
ATOM    103  C   UNL A   1      44.166  32.660  27.440  1.00  0.00     0.059 A 
ATOM    104  F   UNL A   1      42.811  31.306  28.789  1.00  0.00    -0.206 F 
ATOM    105  C   UNL A   1      45.433  33.088  27.053  1.00  0.00     0.060 A 
BRANCH 105 106
ATOM    106  S   UNL A   1      45.618  34.277  25.706  1.00  0.00     0.124 S 
ATOM    107  O   UNL A   1      44.775  33.697  24.666  1.00  0.00    -0.237 OA
ATOM    108  O   UNL A   1      45.127  35.515  26.303  1.00  0.00    -0.237 OA
ATOM    109  O   UNL A   1      47.053  34.256  25.427  1.00  0.00    -0.744 OA
ENDBRANCH 105 106
ENDBRANCH  73  98
ENDBRANCH  47  48
ENDBRANCH  39  42
ENDBRANCH  37  38
ENDBRANCH  36  37
ENDBRANCH  35  36
ENDBRANCH   1  35
TORSDOF 20
ENDMDL
MODEL 3
REMARK VINA RESULT:      -8.4      2.893      7.293
REMARK SMILES COC(=O)c1ccc([C@H]2CC(=O)Nc3c(C(=O)NCCCCCCNC(=O)c4ccc(-c5c6nc(c(-c7c(F)cc(S(=O)(=O)[O-])cc7F)c7ccc([nH]7)c(-c7c(F)cc(S(=O)(=O)[O-])cc7F)c7nc(c(-c8c(F)cc(S(=O)(=O)[O-])cc8F)c8ccc5[nH]8)C=C7)C=C6)cc4)cn(-c4ccccc4)c32)cc1
REMARK SMILES IDX 21 1 20 2 19 3 18 4 16 5 17 6 15 8 9 9 10 10 102 11 11 12
REMARK SMILES IDX 14 13 95 14 12 15 13 16 94 17 8 19 5 20 6 21 104 22 7 23
REMARK SMILES IDX 103 24 3 25 4 26 2 27 1 28 96 29 97 30 101 31 98 32 100 33
REMARK SMILES IDX 99 34 22 35 23 36 24 37 25 38 26 39 27 41 28 42 29 43 93 44
REMARK SMILES IDX 30 45 92 46 31 47 32 48 33 49 86 50 34 51 91 52 85 53 87 54
REMARK SMILES IDX 35 55 90 56 84 57 83 58 36 60 70 61 49 62 69 63 50 64 53 65
REMARK SMILES IDX 68 66 88 67 51 68 52 69 67 71 89 72 54 73 37 74 38 75 47 76
REMARK SMILES IDX 39 77 40 78 46 79 48 80 41 81 42 82 43 83 44 84 45 85 71 86
REMARK SMILES IDX 72 87 81 88 73 89 74 90 80 91 82 92 75 93 76 94 77 95 78 96
REMARK SMILES IDX 79 97 55 98 56 99 65 100 57 101 58 102 64 103 66 104 59 105
REMARK SMILES IDX 60 106 61 107 62 108 63 109
REMARK H PARENT 18 7 13 18 25 40 87 59 53 70
REMARK Flexibility Score: inf
ROOT
ATOM      1  C   UNL A   1      45.388  29.570  35.918  1.00  0.00     0.002 C 
ENDROOT
BRANCH   1   2
ATOM      2  C   UNL A   1      45.994  29.367  34.527  1.00  0.00     0.021 C 
BRANCH   2   3
ATOM      3  C   UNL A   1      45.335  30.240  33.451  1.00  0.00     0.116 C 
BRANCH   3   4
ATOM      4  N   UNL A   1      46.159  30.285  32.274  1.00  0.00    -0.352 N 
ATOM      5  C   UNL A   1      46.201  29.541  31.132  1.00  0.00     0.254 C 
ATOM      6  O   UNL A   1      47.031  29.927  30.302  1.00  0.00    -0.269 OA
ATOM      7  H   UNL A   1      46.831  31.004  32.297  1.00  0.00     0.163 HD
BRANCH   5   8
ATOM      8  C   UNL A   1      45.321  28.403  30.831  1.00  0.00     0.081 A 
ATOM      9  C   UNL A   1      43.731  25.012  30.556  1.00  0.00     0.078 C 
ATOM     10  C   UNL A   1      44.722  24.188  31.390  1.00  0.00     0.115 C 
ATOM     11  C   UNL A   1      44.116  26.475  30.516  1.00  0.00     0.055 A 
ATOM     12  C   UNL A   1      45.501  24.959  32.419  1.00  0.00     0.225 C 
ATOM     13  C   UNL A   1      45.162  27.037  31.224  1.00  0.00     0.076 A 
ATOM     14  N   UNL A   1      43.545  27.468  29.741  1.00  0.00    -0.317 N 
ATOM     15  O   UNL A   1      45.940  24.432  33.441  1.00  0.00    -0.275 OA
ATOM     16  N   UNL A   1      45.827  26.249  32.129  1.00  0.00    -0.324 N 
ATOM     17  C   UNL A   1      44.333  28.585  29.866  1.00  0.00     0.107 A 
ATOM     18  H   UNL A   1      46.595  26.644  32.602  1.00  0.00     0.170 HD
BRANCH   9  19
ATOM     19  C   UNL A   1      43.596  24.305  29.205  1.00  0.00    -0.038 A 
ATOM     20  C   UNL A   1      43.463  22.922  26.749  1.00  0.00     0.060 A 
ATOM     21  C   UNL A   1      44.654  23.538  27.147  1.00  0.00     0.016 A 
ATOM     22  C   UNL A   1      42.323  23.057  27.544  1.00  0.00     0.016 A 
ATOM     23  C   UNL A   1      44.722  24.214  28.368  1.00  0.00     0.005 A 
ATOM     24  C   UNL A   1      42.382  23.779  28.736  1.00  0.00     0.005 A 
BRANCH  20  25
ATOM     25  C   UNL A   1      43.459  22.121  25.501  1.00  0.00     0.337 C 
ATOM     26  O   UNL A   1      43.115  22.568  24.411  1.00  0.00    -0.246 OA
BRANCH  25  27
ATOM     27  O   UNL A   1      43.906  20.869  25.744  1.00  0.00    -0.465 OA
ATOM     28  C   UNL A   1      42.887  19.876  25.821  1.00  0.00     0.282 C 
ENDBRANCH  25  27
ENDBRANCH  20  25
ENDBRANCH   9  19
BRANCH  14  29
ATOM     29  C   UNL A   1      42.445  27.363  28.856  1.00  0.00     0.045 A 
ATOM     30  C   UNL A   1      41.148  27.217  29.352  1.00  0.00     0.026 A 
ATOM     31  C   UNL A   1      42.694  27.274  27.479  1.00  0.00     0.026 A 
ATOM     32  C   UNL A   1      40.108  26.909  28.474  1.00  0.00     0.002 A 
ATOM     33  C   UNL A   1      41.655  26.930  26.615  1.00  0.00     0.002 A 
ATOM     34  C   UNL A   1      40.368  26.738  27.114  1.00  0.00     0.000 A 
ENDBRANCH  14  29
ENDBRANCH   5   8
ENDBRANCH   3   4
ENDBRANCH   2   3
ENDBRANCH   1   2
BRANCH   1  35
ATOM     35  C   UNL A   1      45.468  28.338  36.836  1.00  0.00     0.002 C 
BRANCH  35  36
ATOM     36  C   UNL A   1      45.707  26.988  36.140  1.00  0.00     0.021 C 
BRANCH  36  37
ATOM     37  C   UNL A   1      45.043  25.825  36.860  1.00  0.00     0.116 C 
BRANCH  37  38
ATOM     38  N   UNL A   1      44.414  24.900  35.910  1.00  0.00    -0.352 N 
ATOM     39  C   UNL A   1      43.197  24.988  35.266  1.00  0.00     0.251 C 
ATOM     40  H   UNL A   1      44.939  24.094  35.702  1.00  0.00     0.163 HD
ATOM     41  O   UNL A   1      42.675  23.988  34.784  1.00  0.00    -0.269 OA
BRANCH  39  42
ATOM     42  C   UNL A   1      42.542  26.301  35.164  1.00  0.00     0.039 A 
ATOM     43  C   UNL A   1      41.830  26.863  36.227  1.00  0.00     0.014 A 
ATOM     44  C   UNL A   1      42.675  26.983  33.962  1.00  0.00     0.014 A 
ATOM     45  C   UNL A   1      41.311  28.146  36.075  1.00  0.00     0.010 A 
ATOM     46  C   UNL A   1      42.385  28.313  33.905  1.00  0.00     0.010 A 
ATOM     47  C   UNL A   1      41.604  28.865  34.907  1.00  0.00    -0.014 A 
BRANCH  47  48
ATOM     48  C   UNL A   1      41.167  30.238  34.709  1.00  0.00     0.031 A 
ATOM     49  C   UNL A   1      40.184  30.406  33.611  1.00  0.00     0.074 A 
ATOM     50  C   UNL A   1      41.433  31.210  35.610  1.00  0.00     0.049 A 
ATOM     51  N   UNL A   1      40.370  30.968  32.464  1.00  0.00    -0.248 NA
ATOM     52  C   UNL A   1      38.890  29.712  33.730  1.00  0.00     0.031 C 
ATOM     53  C   UNL A   1      42.102  31.097  36.916  1.00  0.00     0.029 A 
ATOM     54  N   UNL A   1      41.051  32.512  35.594  1.00  0.00    -0.354 N 
ATOM     55  C   UNL A   1      39.136  30.927  31.823  1.00  0.00     0.074 A 
ATOM     56  C   UNL A   1      38.352  29.951  32.532  1.00  0.00     0.031 C 
ATOM     57  C   UNL A   1      41.860  32.205  37.650  1.00  0.00     0.029 A 
ATOM     58  C   UNL A   1      41.183  33.174  36.811  1.00  0.00     0.049 A 
ATOM     59  H   UNL A   1      40.707  32.954  34.785  1.00  0.00     0.167 HD
ATOM     60  C   UNL A   1      38.770  31.900  30.941  1.00  0.00     0.037 A 
ATOM     61  C   UNL A   1      40.736  34.422  37.104  1.00  0.00     0.037 A 
ATOM     62  C   UNL A   1      39.915  32.682  30.536  1.00  0.00     0.049 A 
ATOM     63  C   UNL A   1      40.537  35.115  35.802  1.00  0.00     0.074 A 
ATOM     64  C   UNL A   1      41.125  32.389  29.936  1.00  0.00     0.029 A 
ATOM     65  N   UNL A   1      40.078  33.919  31.115  1.00  0.00    -0.354 N 
ATOM     66  N   UNL A   1      41.511  35.402  34.978  1.00  0.00    -0.248 NA
ATOM     67  C   UNL A   1      39.216  35.039  35.197  1.00  0.00     0.031 C 
ATOM     68  C   UNL A   1      42.078  33.212  30.608  1.00  0.00     0.029 A 
ATOM     69  C   UNL A   1      41.388  34.018  31.516  1.00  0.00     0.049 A 
ATOM     70  H   UNL A   1      39.383  34.608  31.224  1.00  0.00     0.167 HD
ATOM     71  C   UNL A   1      41.006  35.125  33.714  1.00  0.00     0.074 A 
ATOM     72  C   UNL A   1      39.564  34.979  33.908  1.00  0.00     0.031 C 
ATOM     73  C   UNL A   1      41.826  34.753  32.686  1.00  0.00     0.037 A 
BRANCH  60  74
ATOM     74  C   UNL A   1      37.352  32.388  30.746  1.00  0.00     0.058 A 
ATOM     75  C   UNL A   1      36.801  32.390  29.447  1.00  0.00     0.135 A 
ATOM     76  C   UNL A   1      36.615  33.104  31.717  1.00  0.00     0.135 A 
ATOM     77  F   UNL A   1      37.416  31.744  28.442  1.00  0.00    -0.206 F 
ATOM     78  C   UNL A   1      35.654  33.115  29.122  1.00  0.00     0.059 A 
ATOM     79  C   UNL A   1      35.437  33.784  31.426  1.00  0.00     0.059 A 
ATOM     80  F   UNL A   1      37.042  33.267  32.972  1.00  0.00    -0.206 F 
ATOM     81  C   UNL A   1      34.989  33.822  30.118  1.00  0.00     0.060 A 
BRANCH  81  82
ATOM     82  S   UNL A   1      33.575  34.848  29.684  1.00  0.00     0.124 S 
ATOM     83  O   UNL A   1      34.222  35.952  28.987  1.00  0.00    -0.237 OA
ATOM     84  O   UNL A   1      32.787  33.939  28.856  1.00  0.00    -0.237 OA
ATOM     85  O   UNL A   1      32.987  35.173  30.980  1.00  0.00    -0.744 OA
ENDBRANCH  81  82
ENDBRANCH  60  74
BRANCH  61  86
ATOM     86  C   UNL A   1      40.131  34.900  38.379  1.00  0.00     0.058 A 
ATOM     87  C   UNL A   1      38.919  34.370  38.856  1.00  0.00     0.135 A 
ATOM     88  C   UNL A   1      40.869  35.677  39.296  1.00  0.00     0.135 A 
ATOM     89  F   UNL A   1      38.161  33.603  38.058  1.00  0.00    -0.206 F 
ATOM     90  C   UNL A   1      38.488  34.556  40.176  1.00  0.00     0.059 A 
ATOM     91  C   UNL A   1      40.455  35.883  40.614  1.00  0.00     0.059 A 
ATOM     92  F   UNL A   1      42.065  36.189  38.967  1.00  0.00    -0.206 F 
ATOM     93  C   UNL A   1      39.276  35.297  41.055  1.00  0.00     0.060 A 
BRANCH  93  94
ATOM     94  S   UNL A   1      38.817  35.393  42.804  1.00  0.00     0.124 S 
ATOM     95  O   UNL A   1      39.248  36.741  43.157  1.00  0.00    -0.237 OA
ATOM     96  O   UNL A   1      37.376  35.175  42.759  1.00  0.00    -0.237 OA
ATOM     97  O   UNL A   1      39.589  34.314  43.417  1.00  0.00    -0.744 OA
ENDBRANCH  93  94
ENDBRANCH  61  86
BRANCH  73  98
ATOM     98  C   UNL A   1      43.318  34.914  32.858  1.00  0.00     0.058 A 
ATOM     99  C   UNL A   1      44.024  36.117  32.670  1.00  0.00     0.135 A 
ATOM    100  C   UNL A   1      44.037  33.838  33.402  1.00  0.00     0.135 A 
ATOM    101  F   UNL A   1      43.399  37.225  32.250  1.00  0.00    -0.206 F 
ATOM    102  C   UNL A   1      45.383  36.234  32.972  1.00  0.00     0.059 A 
ATOM    103  C   UNL A   1      45.384  33.940  33.741  1.00  0.00     0.059 A 
ATOM    104  F   UNL A   1      43.411  32.679  33.665  1.00  0.00    -0.206 F 
ATOM    105  C   UNL A   1      46.055  35.138  33.512  1.00  0.00     0.060 A 
BRANCH 105 106
ATOM    106  S   UNL A   1      47.793  35.309  33.975  1.00  0.00     0.124 S 
ATOM    107  O   UNL A   1      48.400  34.155  33.321  1.00  0.00    -0.237 OA
ATOM    108  O   UNL A   1      48.145  36.612  33.419  1.00  0.00    -0.237 OA
ATOM    109  O   UNL A   1      47.764  35.252  35.436  1.00  0.00    -0.744 OA
ENDBRANCH 105 106
ENDBRANCH  73  98
ENDBRANCH  47  48
ENDBRANCH  39  42
ENDBRANCH  37  38
ENDBRANCH  36  37
ENDBRANCH  35  36
ENDBRANCH   1  35
TORSDOF 20
ENDMDL
