MODEL 1
REMARK VINA RESULT:     -12.6      0.000      0.000
REMARK SMILES CCc1ccc(-c2cc(Cl)cc3c2O[C@H](C(F)(F)F)C(C(=O)NCCCCCCNC(=O)c2ccc(-c4c5nc(c(-c6c(F)cc(S(=O)(=O)[O-])cc6F)c6ccc([nH]6)c(-c6c(F)cc(S(=O)(=O)[O-])cc6F)c6nc(c(-c7c(F)cc(S(=O)(=O)[O-])cc7F)c7ccc4[nH]7)C=C6)C=C5)cc2)=C3)cc1
REMARK SMILES IDX 27 1 26 2 25 3 24 4 23 5 21 6 22 7 20 9 7 10 8 11 13 12 9 13
REMARK SMILES IDX 12 14 14 15 10 16 11 17 99 18 15 19 6 20 3 21 4 22 101 23
REMARK SMILES IDX 5 24 100 25 2 26 1 27 16 28 17 29 18 30 19 31 28 32 29 33
REMARK SMILES IDX 30 34 31 35 32 37 33 38 34 39 98 40 35 41 97 42 36 43 37 44
REMARK SMILES IDX 38 45 91 46 39 47 96 48 90 49 92 50 40 51 95 52 89 53 88 54
REMARK SMILES IDX 41 56 75 57 54 58 74 59 55 60 58 61 73 62 93 63 56 64 57 65
REMARK SMILES IDX 72 67 94 68 59 69 42 70 43 71 52 72 44 73 45 74 51 75 53 76
REMARK SMILES IDX 46 77 47 78 48 79 49 80 50 81 76 82 77 83 86 84 78 85 79 86
REMARK SMILES IDX 85 87 87 88 80 89 81 90 82 91 83 92 84 93 60 94 61 95 70 96
REMARK SMILES IDX 62 97 63 98 69 99 71 100 64 101 65 102 66 103 67 104 68 105
REMARK H PARENT 23 8 30 36 92 55 58 66
REMARK Flexibility Score: inf
ROOT
ATOM      1  C   UNL A   1      35.136  29.453  27.266  1.00  0.00     0.002 C 
ENDROOT
BRANCH   1   2
ATOM      2  C   UNL A   1      33.938  28.517  27.101  1.00  0.00     0.002 C 
BRANCH   2   3
ATOM      3  C   UNL A   1      33.109  28.745  25.825  1.00  0.00     0.021 C 
BRANCH   3   4
ATOM      4  C   UNL A   1      33.623  28.000  24.585  1.00  0.00     0.116 C 
BRANCH   4   5
ATOM      5  N   UNL A   1      34.273  26.769  24.990  1.00  0.00    -0.352 N 
ATOM      6  C   UNL A   1      33.645  25.575  25.137  1.00  0.00     0.251 C 
ATOM      7  O   UNL A   1      33.785  24.927  26.167  1.00  0.00    -0.270 OA
ATOM      8  H   UNL A   1      35.239  26.801  25.171  1.00  0.00     0.163 HD
BRANCH   6   9
ATOM      9  C   UNL A   1      32.949  25.048  23.926  1.00  0.00     0.067 C 
ATOM     10  C   UNL A   1      33.802  21.113  24.426  1.00  0.00     0.026 A 
ATOM     11  C   UNL A   1      35.181  21.034  24.760  1.00  0.00     0.033 A 
ATOM     12  C   UNL A   1      33.355  22.346  23.919  1.00  0.00     0.135 A 
ATOM     13  C   UNL A   1      36.089  22.044  24.453  1.00  0.00     0.042 A 
ATOM     14  C   UNL A   1      34.312  23.309  23.505  1.00  0.00     0.019 A 
ATOM     15  O   UNL A   1      32.014  22.704  23.856  1.00  0.00    -0.475 OA
ATOM     16  Cl  UNL A   1      37.736  21.882  24.920  1.00  0.00    -0.084 Cl
ATOM     17  C   UNL A   1      35.673  23.159  23.753  1.00  0.00     0.032 A 
ATOM     18  C   UNL A   1      33.810  24.601  22.990  1.00  0.00     0.025 C 
ATOM     19  C   UNL A   1      31.766  24.136  24.214  1.00  0.00     0.314 C 
BRANCH  10  20
ATOM     20  C   UNL A   1      33.086  19.809  24.440  1.00  0.00    -0.015 A 
ATOM     21  C   UNL A   1      32.895  16.968  24.698  1.00  0.00    -0.048 A 
ATOM     22  C   UNL A   1      32.663  17.802  25.794  1.00  0.00     0.004 A 
ATOM     23  C   UNL A   1      33.098  17.575  23.449  1.00  0.00     0.004 A 
ATOM     24  C   UNL A   1      32.729  19.200  25.661  1.00  0.00     0.009 A 
ATOM     25  C   UNL A   1      33.178  18.972  23.317  1.00  0.00     0.009 A 
BRANCH  21  26
ATOM     26  C   UNL A   1      33.077  15.469  24.823  1.00  0.00     0.032 C 
ATOM     27  C   UNL A   1      32.320  14.774  25.949  1.00  0.00     0.009 C 
ENDBRANCH  21  26
ENDBRANCH  10  20
BRANCH  19  28
ATOM     28  C   UNL A   1      30.534  24.717  23.483  1.00  0.00     0.429 C 
ATOM     29  F   UNL A   1      29.765  23.760  22.917  1.00  0.00    -0.167 F 
ATOM     30  F   UNL A   1      29.752  25.427  24.330  1.00  0.00    -0.167 F 
ATOM     31  F   UNL A   1      30.881  25.572  22.484  1.00  0.00    -0.167 F 
ENDBRANCH  19  28
ENDBRANCH   6   9
ENDBRANCH   4   5
ENDBRANCH   3   4
ENDBRANCH   2   3
ENDBRANCH   1   2
BRANCH   1  32
ATOM     32  C   UNL A   1      34.769  30.890  27.634  1.00  0.00     0.021 C 
BRANCH  32  33
ATOM     33  C   UNL A   1      35.778  31.586  28.542  1.00  0.00     0.116 C 
BRANCH  33  34
ATOM     34  N   UNL A   1      35.593  31.243  29.943  1.00  0.00    -0.352 N 
ATOM     35  C   UNL A   1      36.461  30.603  30.791  1.00  0.00     0.251 C 
ATOM     36  H   UNL A   1      34.729  31.504  30.335  1.00  0.00     0.163 HD
ATOM     37  O   UNL A   1      36.081  30.233  31.901  1.00  0.00    -0.269 OA
BRANCH  35  38
ATOM     38  C   UNL A   1      37.845  30.336  30.349  1.00  0.00     0.039 A 
ATOM     39  C   UNL A   1      38.820  30.056  31.307  1.00  0.00     0.014 A 
ATOM     40  C   UNL A   1      38.172  30.343  28.989  1.00  0.00     0.014 A 
ATOM     41  C   UNL A   1      40.113  29.722  30.896  1.00  0.00     0.010 A 
ATOM     42  C   UNL A   1      39.438  29.935  28.580  1.00  0.00     0.010 A 
ATOM     43  C   UNL A   1      40.423  29.625  29.529  1.00  0.00    -0.014 A 
BRANCH  43  44
ATOM     44  C   UNL A   1      41.772  29.199  29.076  1.00  0.00     0.031 A 
ATOM     45  C   UNL A   1      42.895  30.199  29.001  1.00  0.00     0.074 A 
ATOM     46  C   UNL A   1      41.969  27.928  28.676  1.00  0.00     0.049 A 
ATOM     47  N   UNL A   1      44.121  30.034  28.578  1.00  0.00    -0.248 NA
ATOM     48  C   UNL A   1      42.591  31.573  29.434  1.00  0.00     0.031 C 
ATOM     49  C   UNL A   1      40.947  26.879  28.654  1.00  0.00     0.029 A 
ATOM     50  N   UNL A   1      43.094  27.301  28.200  1.00  0.00    -0.354 N 
ATOM     51  C   UNL A   1      44.730  31.278  28.682  1.00  0.00     0.074 A 
ATOM     52  C   UNL A   1      43.723  32.203  29.154  1.00  0.00     0.031 C 
ATOM     53  C   UNL A   1      41.496  25.737  28.213  1.00  0.00     0.029 A 
ATOM     54  C   UNL A   1      42.896  25.978  27.880  1.00  0.00     0.049 A 
ATOM     55  H   UNL A   1      43.961  27.755  28.098  1.00  0.00     0.167 HD
ATOM     56  C   UNL A   1      46.017  31.614  28.428  1.00  0.00     0.037 A 
ATOM     57  C   UNL A   1      43.744  25.064  27.367  1.00  0.00     0.037 A 
ATOM     58  C   UNL A   1      47.018  30.682  27.979  1.00  0.00     0.049 A 
ATOM     59  C   UNL A   1      45.168  25.464  27.088  1.00  0.00     0.074 A 
ATOM     60  C   UNL A   1      48.365  30.910  27.752  1.00  0.00     0.029 A 
ATOM     61  N   UNL A   1      46.784  29.348  27.682  1.00  0.00    -0.354 N 
ATOM     62  N   UNL A   1      45.746  26.630  27.259  1.00  0.00    -0.248 NA
ATOM     63  C   UNL A   1      46.059  24.423  26.555  1.00  0.00     0.031 C 
ATOM     64  C   UNL A   1      48.932  29.728  27.267  1.00  0.00     0.029 A 
ATOM     65  C   UNL A   1      47.954  28.746  27.249  1.00  0.00     0.049 A 
ATOM     66  H   UNL A   1      45.914  28.894  27.767  1.00  0.00     0.167 HD
ATOM     67  C   UNL A   1      47.073  26.455  26.881  1.00  0.00     0.074 A 
ATOM     68  C   UNL A   1      47.215  25.069  26.486  1.00  0.00     0.031 C 
ATOM     69  C   UNL A   1      48.082  27.362  26.863  1.00  0.00     0.037 A 
BRANCH  56  70
ATOM     70  C   UNL A   1      46.418  33.051  28.633  1.00  0.00     0.058 A 
ATOM     71  C   UNL A   1      46.339  33.996  27.597  1.00  0.00     0.135 A 
ATOM     72  C   UNL A   1      46.849  33.499  29.893  1.00  0.00     0.135 A 
ATOM     73  F   UNL A   1      45.949  33.621  26.368  1.00  0.00    -0.206 F 
ATOM     74  C   UNL A   1      46.700  35.325  27.793  1.00  0.00     0.059 A 
ATOM     75  C   UNL A   1      47.185  34.831  30.120  1.00  0.00     0.059 A 
ATOM     76  F   UNL A   1      46.945  32.640  30.919  1.00  0.00    -0.206 F 
ATOM     77  C   UNL A   1      47.121  35.734  29.060  1.00  0.00     0.060 A 
BRANCH  77  78
ATOM     78  S   UNL A   1      47.576  37.463  29.299  1.00  0.00     0.124 S 
ATOM     79  O   UNL A   1      47.046  37.722  30.634  1.00  0.00    -0.237 OA
ATOM     80  O   UNL A   1      49.031  37.419  29.193  1.00  0.00    -0.237 OA
ATOM     81  O   UNL A   1      46.891  38.151  28.209  1.00  0.00    -0.744 OA
ENDBRANCH  77  78
ENDBRANCH  56  70
BRANCH  57  82
ATOM     82  C   UNL A   1      43.271  23.679  27.099  1.00  0.00     0.058 A 
ATOM     83  C   UNL A   1      43.229  22.718  28.120  1.00  0.00     0.135 A 
ATOM     84  C   UNL A   1      42.840  23.291  25.820  1.00  0.00     0.135 A 
ATOM     85  F   UNL A   1      43.637  23.038  29.359  1.00  0.00    -0.206 F 
ATOM     86  C   UNL A   1      42.793  21.419  27.883  1.00  0.00     0.059 A 
ATOM     87  C   UNL A   1      42.373  22.005  25.564  1.00  0.00     0.059 A 
ATOM     88  F   UNL A   1      42.843  24.176  24.812  1.00  0.00    -0.206 F 
ATOM     89  C   UNL A   1      42.364  21.073  26.600  1.00  0.00     0.060 A 
BRANCH  89  90
ATOM     90  S   UNL A   1      41.756  19.397  26.313  1.00  0.00     0.124 S 
ATOM     91  O   UNL A   1      42.067  18.749  27.583  1.00  0.00    -0.237 OA
ATOM     92  O   UNL A   1      40.339  19.627  26.044  1.00  0.00    -0.237 OA
ATOM     93  O   UNL A   1      42.538  18.948  25.166  1.00  0.00    -0.744 OA
ENDBRANCH  89  90
ENDBRANCH  57  82
BRANCH  69  94
ATOM     94  C   UNL A   1      49.441  26.878  26.437  1.00  0.00     0.058 A 
ATOM     95  C   UNL A   1      50.326  26.266  27.338  1.00  0.00     0.135 A 
ATOM     96  C   UNL A   1      49.841  26.981  25.093  1.00  0.00     0.135 A 
ATOM     97  F   UNL A   1      49.998  26.148  28.633  1.00  0.00    -0.206 F 
ATOM     98  C   UNL A   1      51.570  25.795  26.928  1.00  0.00     0.059 A 
ATOM     99  C   UNL A   1      51.066  26.489  24.655  1.00  0.00     0.059 A 
ATOM    100  F   UNL A   1      49.029  27.548  24.187  1.00  0.00    -0.206 F 
ATOM    101  C   UNL A   1      51.929  25.908  25.583  1.00  0.00     0.060 A 
BRANCH 101 102
ATOM    102  S   UNL A   1      53.531  25.262  25.060  1.00  0.00     0.124 S 
ATOM    103  O   UNL A   1      53.339  23.826  25.230  1.00  0.00    -0.237 OA
ATOM    104  O   UNL A   1      53.621  25.731  23.680  1.00  0.00    -0.237 OA
ATOM    105  O   UNL A   1      54.470  25.885  25.989  1.00  0.00    -0.744 OA
ENDBRANCH 101 102
ENDBRANCH  69  94
ENDBRANCH  43  44
ENDBRANCH  35  38
ENDBRANCH  33  34
ENDBRANCH  32  33
ENDBRANCH   1  32
TORSDOF 19
ENDMDL
MODEL 2
REMARK VINA RESULT:     -12.3      1.305      2.102
REMARK SMILES CCc1ccc(-c2cc(Cl)cc3c2O[C@H](C(F)(F)F)C(C(=O)NCCCCCCNC(=O)c2ccc(-c4c5nc(c(-c6c(F)cc(S(=O)(=O)[O-])cc6F)c6ccc([nH]6)c(-c6c(F)cc(S(=O)(=O)[O-])cc6F)c6nc(c(-c7c(F)cc(S(=O)(=O)[O-])cc7F)c7ccc4[nH]7)C=C6)C=C5)cc2)=C3)cc1
REMARK SMILES IDX 27 1 26 2 25 3 24 4 23 5 21 6 22 7 20 9 7 10 8 11 13 12 9 13
REMARK SMILES IDX 12 14 14 15 10 16 11 17 99 18 15 19 6 20 3 21 4 22 101 23
REMARK SMILES IDX 5 24 100 25 2 26 1 27 16 28 17 29 18 30 19 31 28 32 29 33
REMARK SMILES IDX 30 34 31 35 32 37 33 38 34 39 98 40 35 41 97 42 36 43 37 44
REMARK SMILES IDX 38 45 91 46 39 47 96 48 90 49 92 50 40 51 95 52 89 53 88 54
REMARK SMILES IDX 41 56 75 57 54 58 74 59 55 60 58 61 73 62 93 63 56 64 57 65
REMARK SMILES IDX 72 67 94 68 59 69 42 70 43 71 52 72 44 73 45 74 51 75 53 76
REMARK SMILES IDX 46 77 47 78 48 79 49 80 50 81 76 82 77 83 86 84 78 85 79 86
REMARK SMILES IDX 85 87 87 88 80 89 81 90 82 91 83 92 84 93 60 94 61 95 70 96
REMARK SMILES IDX 62 97 63 98 69 99 71 100 64 101 65 102 66 103 67 104 68 105
REMARK H PARENT 23 8 30 36 92 55 58 66
REMARK Flexibility Score: inf
ROOT
ATOM      1  C   UNL A   1      33.371  28.582  27.475  1.00  0.00     0.002 C 
ENDROOT
BRANCH   1   2
ATOM      2  C   UNL A   1      31.924  28.806  27.033  1.00  0.00     0.002 C 
BRANCH   2   3
ATOM      3  C   UNL A   1      31.762  29.346  25.601  1.00  0.00     0.021 C 
BRANCH   3   4
ATOM      4  C   UNL A   1      31.092  28.372  24.621  1.00  0.00     0.116 C 
BRANCH   4   5
ATOM      5  N   UNL A   1      31.040  27.047  25.209  1.00  0.00    -0.352 N 
ATOM      6  C   UNL A   1      31.117  25.887  24.510  1.00  0.00     0.251 C 
ATOM      7  O   UNL A   1      30.281  25.008  24.677  1.00  0.00    -0.270 OA
ATOM      8  H   UNL A   1      30.940  26.985  26.186  1.00  0.00     0.163 HD
BRANCH   6   9
ATOM      9  C   UNL A   1      32.352  25.697  23.693  1.00  0.00     0.067 C 
ATOM     10  C   UNL A   1      33.144  21.851  24.712  1.00  0.00     0.026 A 
ATOM     11  C   UNL A   1      32.994  21.764  26.122  1.00  0.00     0.033 A 
ATOM     12  C   UNL A   1      33.210  23.148  24.173  1.00  0.00     0.135 A 
ATOM     13  C   UNL A   1      33.077  22.874  26.958  1.00  0.00     0.042 A 
ATOM     14  C   UNL A   1      33.413  24.248  25.046  1.00  0.00     0.019 A 
ATOM     15  O   UNL A   1      33.024  23.424  22.824  1.00  0.00    -0.475 OA
ATOM     16  Cl  UNL A   1      32.853  22.686  28.652  1.00  0.00    -0.084 Cl
ATOM     17  C   UNL A   1      33.364  24.117  26.430  1.00  0.00     0.032 A 
ATOM     18  C   UNL A   1      33.463  25.601  24.449  1.00  0.00     0.025 C 
ATOM     19  C   UNL A   1      32.230  24.669  22.578  1.00  0.00     0.314 C 
BRANCH  10  20
ATOM     20  C   UNL A   1      33.448  20.559  24.041  1.00  0.00    -0.015 A 
ATOM     21  C   UNL A   1      33.403  17.712  23.772  1.00  0.00    -0.048 A 
ATOM     22  C   UNL A   1      32.429  18.503  23.159  1.00  0.00     0.004 A 
ATOM     23  C   UNL A   1      34.467  18.368  24.412  1.00  0.00     0.004 A 
ATOM     24  C   UNL A   1      32.467  19.905  23.267  1.00  0.00     0.009 A 
ATOM     25  C   UNL A   1      34.498  19.768  24.533  1.00  0.00     0.009 A 
BRANCH  21  26
ATOM     26  C   UNL A   1      33.289  16.207  23.898  1.00  0.00     0.032 C 
ATOM     27  C   UNL A   1      33.013  15.651  25.291  1.00  0.00     0.009 C 
ENDBRANCH  21  26
ENDBRANCH  10  20
BRANCH  19  28
ATOM     28  C   UNL A   1      32.621  25.360  21.252  1.00  0.00     0.429 C 
ATOM     29  F   UNL A   1      33.588  26.290  21.416  1.00  0.00    -0.167 F 
ATOM     30  F   UNL A   1      33.063  24.461  20.342  1.00  0.00    -0.167 F 
ATOM     31  F   UNL A   1      31.569  25.997  20.671  1.00  0.00    -0.167 F 
ENDBRANCH  19  28
ENDBRANCH   6   9
ENDBRANCH   4   5
ENDBRANCH   3   4
ENDBRANCH   2   3
ENDBRANCH   1   2
BRANCH   1  32
ATOM     32  C   UNL A   1      34.290  29.786  27.267  1.00  0.00     0.021 C 
BRANCH  32  33
ATOM     33  C   UNL A   1      35.612  29.709  28.023  1.00  0.00     0.116 C 
BRANCH  33  34
ATOM     34  N   UNL A   1      35.498  30.196  29.389  1.00  0.00    -0.352 N 
ATOM     35  C   UNL A   1      36.472  30.288  30.351  1.00  0.00     0.251 C 
ATOM     36  H   UNL A   1      34.602  30.500  29.660  1.00  0.00     0.163 HD
ATOM     37  O   UNL A   1      36.170  30.559  31.512  1.00  0.00    -0.269 OA
BRANCH  35  38
ATOM     38  C   UNL A   1      37.880  30.030  29.987  1.00  0.00     0.039 A 
ATOM     39  C   UNL A   1      38.723  29.432  30.923  1.00  0.00     0.014 A 
ATOM     40  C   UNL A   1      38.358  30.360  28.714  1.00  0.00     0.014 A 
ATOM     41  C   UNL A   1      40.034  29.108  30.563  1.00  0.00     0.010 A 
ATOM     42  C   UNL A   1      39.637  29.967  28.333  1.00  0.00     0.010 A 
ATOM     43  C   UNL A   1      40.490  29.342  29.255  1.00  0.00    -0.014 A 
BRANCH  43  44
ATOM     44  C   UNL A   1      41.856  28.936  28.834  1.00  0.00     0.031 A 
ATOM     45  C   UNL A   1      42.963  29.954  28.781  1.00  0.00     0.074 A 
ATOM     46  C   UNL A   1      42.082  27.667  28.443  1.00  0.00     0.049 A 
ATOM     47  N   UNL A   1      44.201  29.807  28.387  1.00  0.00    -0.248 NA
ATOM     48  C   UNL A   1      42.628  31.324  29.202  1.00  0.00     0.031 C 
ATOM     49  C   UNL A   1      41.078  26.602  28.402  1.00  0.00     0.029 A 
ATOM     50  N   UNL A   1      43.228  27.057  27.996  1.00  0.00    -0.354 N 
ATOM     51  C   UNL A   1      44.788  31.062  28.501  1.00  0.00     0.074 A 
ATOM     52  C   UNL A   1      43.756  31.972  28.946  1.00  0.00     0.031 C 
ATOM     53  C   UNL A   1      41.655  25.467  27.977  1.00  0.00     0.029 A 
ATOM     54  C   UNL A   1      43.059  25.730  27.676  1.00  0.00     0.049 A 
ATOM     55  H   UNL A   1      44.090  27.525  27.912  1.00  0.00     0.167 HD
ATOM     56  C   UNL A   1      46.075  31.418  28.275  1.00  0.00     0.037 A 
ATOM     57  C   UNL A   1      43.933  24.828  27.185  1.00  0.00     0.037 A 
ATOM     58  C   UNL A   1      47.101  30.500  27.852  1.00  0.00     0.049 A 
ATOM     59  C   UNL A   1      45.356  25.250  26.938  1.00  0.00     0.074 A 
ATOM     60  C   UNL A   1      48.449  30.749  27.656  1.00  0.00     0.029 A 
ATOM     61  N   UNL A   1      46.896  29.161  27.555  1.00  0.00    -0.354 N 
ATOM     62  N   UNL A   1      45.911  26.426  27.118  1.00  0.00    -0.248 NA
ATOM     63  C   UNL A   1      46.276  24.222  26.430  1.00  0.00     0.031 C 
ATOM     64  C   UNL A   1      49.046  29.575  27.188  1.00  0.00     0.029 A 
ATOM     65  C   UNL A   1      48.085  28.577  27.151  1.00  0.00     0.049 A 
ATOM     66  H   UNL A   1      46.032  28.694  27.622  1.00  0.00     0.167 HD
ATOM     67  C   UNL A   1      47.249  26.272  26.771  1.00  0.00     0.074 A 
ATOM     68  C   UNL A   1      47.423  24.886  26.385  1.00  0.00     0.031 C 
ATOM     69  C   UNL A   1      48.244  27.194  26.773  1.00  0.00     0.037 A 
BRANCH  56  70
ATOM     70  C   UNL A   1      46.448  32.862  28.484  1.00  0.00     0.058 A 
ATOM     71  C   UNL A   1      46.913  33.334  29.721  1.00  0.00     0.135 A 
ATOM     72  C   UNL A   1      46.379  33.777  27.420  1.00  0.00     0.135 A 
ATOM     73  F   UNL A   1      46.986  32.508  30.777  1.00  0.00    -0.206 F 
ATOM     74  C   UNL A   1      47.268  34.666  29.906  1.00  0.00     0.059 A 
ATOM     75  C   UNL A   1      46.759  35.107  27.573  1.00  0.00     0.059 A 
ATOM     76  F   UNL A   1      45.942  33.381  26.214  1.00  0.00    -0.206 F 
ATOM     77  C   UNL A   1      47.189  35.546  28.824  1.00  0.00     0.060 A 
BRANCH  77  78
ATOM     78  S   UNL A   1      47.662  37.269  29.079  1.00  0.00     0.124 S 
ATOM     79  O   UNL A   1      47.889  37.715  27.708  1.00  0.00    -0.237 OA
ATOM     80  O   UNL A   1      46.482  37.821  29.738  1.00  0.00    -0.237 OA
ATOM     81  O   UNL A   1      48.856  37.175  29.914  1.00  0.00    -0.744 OA
ENDBRANCH  77  78
ENDBRANCH  56  70
BRANCH  57  82
ATOM     82  C   UNL A   1      43.488  23.435  26.912  1.00  0.00     0.058 A 
ATOM     83  C   UNL A   1      43.305  22.515  27.955  1.00  0.00     0.135 A 
ATOM     84  C   UNL A   1      43.226  22.998  25.604  1.00  0.00     0.135 A 
ATOM     85  F   UNL A   1      43.550  22.883  29.223  1.00  0.00    -0.206 F 
ATOM     86  C   UNL A   1      42.895  21.208  27.714  1.00  0.00     0.059 A 
ATOM     87  C   UNL A   1      42.787  21.704  25.339  1.00  0.00     0.059 A 
ATOM     88  F   UNL A   1      43.368  23.842  24.571  1.00  0.00    -0.206 F 
ATOM     89  C   UNL A   1      42.635  20.813  26.400  1.00  0.00     0.060 A 
BRANCH  89  90
ATOM     90  S   UNL A   1      42.057  19.129  26.101  1.00  0.00     0.124 S 
ATOM     91  O   UNL A   1      42.820  18.762  24.914  1.00  0.00    -0.237 OA
ATOM     92  O   UNL A   1      42.434  18.452  27.338  1.00  0.00    -0.237 OA
ATOM     93  O   UNL A   1      40.621  19.297  25.902  1.00  0.00    -0.744 OA
ENDBRANCH  89  90
ENDBRANCH  57  82
BRANCH  69  94
ATOM     94  C   UNL A   1      49.620  26.731  26.380  1.00  0.00     0.058 A 
ATOM     95  C   UNL A   1      50.120  26.915  25.082  1.00  0.00     0.135 A 
ATOM     96  C   UNL A   1      50.471  26.145  27.333  1.00  0.00     0.135 A 
ATOM     97  F   UNL A   1      49.349  27.465  24.131  1.00  0.00    -0.206 F 
ATOM     98  C   UNL A   1      51.406  26.511  24.735  1.00  0.00     0.059 A 
ATOM     99  C   UNL A   1      51.770  25.761  27.016  1.00  0.00     0.059 A 
ATOM    100  F   UNL A   1      50.046  25.955  28.592  1.00  0.00    -0.206 F 
ATOM    101  C   UNL A   1      52.225  25.938  25.710  1.00  0.00     0.060 A 
BRANCH 101 102
ATOM    102  S   UNL A   1      53.901  25.451  25.254  1.00  0.00     0.124 S 
ATOM    103  O   UNL A   1      54.701  26.247  26.178  1.00  0.00    -0.237 OA
ATOM    104  O   UNL A   1      53.887  24.012  25.504  1.00  0.00    -0.237 OA
ATOM    105  O   UNL A   1      53.997  25.835  23.848  1.00  0.00    -0.744 OA
ENDBRANCH 101 102
ENDBRANCH  69  94
ENDBRANCH  43  44
ENDBRANCH  35  38
ENDBRANCH  33  34
ENDBRANCH  32  33
ENDBRANCH   1  32
TORSDOF 19
ENDMDL
MODEL 3
REMARK VINA RESULT:     -12.2      5.703      7.837
REMARK SMILES CCc1ccc(-c2cc(Cl)cc3c2O[C@H](C(F)(F)F)C(C(=O)NCCCCCCNC(=O)c2ccc(-c4c5nc(c(-c6c(F)cc(S(=O)(=O)[O-])cc6F)c6ccc([nH]6)c(-c6c(F)cc(S(=O)(=O)[O-])cc6F)c6nc(c(-c7c(F)cc(S(=O)(=O)[O-])cc7F)c7ccc4[nH]7)C=C6)C=C5)cc2)=C3)cc1
REMARK SMILES IDX 27 1 26 2 25 3 24 4 23 5 21 6 22 7 20 9 7 10 8 11 13 12 9 13
REMARK SMILES IDX 12 14 14 15 10 16 11 17 99 18 15 19 6 20 3 21 4 22 101 23
REMARK SMILES IDX 5 24 100 25 2 26 1 27 16 28 17 29 18 30 19 31 28 32 29 33
REMARK SMILES IDX 30 34 31 35 32 37 33 38 34 39 98 40 35 41 97 42 36 43 37 44
REMARK SMILES IDX 38 45 91 46 39 47 96 48 90 49 92 50 40 51 95 52 89 53 88 54
REMARK SMILES IDX 41 56 75 57 54 58 74 59 55 60 58 61 73 62 93 63 56 64 57 65
REMARK SMILES IDX 72 67 94 68 59 69 42 70 43 71 52 72 44 73 45 74 51 75 53 76
REMARK SMILES IDX 46 77 47 78 48 79 49 80 50 81 76 82 77 83 86 84 78 85 79 86
REMARK SMILES IDX 85 87 87 88 80 89 81 90 82 91 83 92 84 93 60 94 61 95 70 96
REMARK SMILES IDX 62 97 63 98 69 99 71 100 64 101 65 102 66 103 67 104 68 105
REMARK H PARENT 23 8 30 36 92 55 58 66
REMARK Flexibility Score: inf
ROOT
ATOM      1  C   UNL A   1      32.852  30.198  27.264  1.00  0.00     0.002 C 
ENDROOT
BRANCH   1   2
ATOM      2  C   UNL A   1      31.780  29.107  27.233  1.00  0.00     0.002 C 
BRANCH   2   3
ATOM      3  C   UNL A   1      31.691  28.325  25.912  1.00  0.00     0.021 C 
BRANCH   3   4
ATOM      4  C   UNL A   1      32.837  28.597  24.927  1.00  0.00     0.116 C 
BRANCH   4   5
ATOM      5  N   UNL A   1      33.819  27.534  25.016  1.00  0.00    -0.352 N 
ATOM      6  C   UNL A   1      33.524  26.212  25.078  1.00  0.00     0.251 C 
ATOM      7  O   UNL A   1      34.014  25.510  25.954  1.00  0.00    -0.270 OA
ATOM      8  H   UNL A   1      34.769  27.791  25.034  1.00  0.00     0.163 HD
BRANCH   6   9
ATOM      9  C   UNL A   1      32.736  25.663  23.935  1.00  0.00     0.067 C 
ATOM     10  C   UNL A   1      33.583  21.732  24.470  1.00  0.00     0.026 A 
ATOM     11  C   UNL A   1      34.982  21.644  24.705  1.00  0.00     0.033 A 
ATOM     12  C   UNL A   1      33.113  22.957  23.967  1.00  0.00     0.135 A 
ATOM     13  C   UNL A   1      35.876  22.636  24.306  1.00  0.00     0.042 A 
ATOM     14  C   UNL A   1      34.046  23.898  23.460  1.00  0.00     0.019 A 
ATOM     15  O   UNL A   1      31.775  23.330  23.993  1.00  0.00    -0.475 OA
ATOM     16  Cl  UNL A   1      37.550  22.466  24.655  1.00  0.00    -0.084 Cl
ATOM     17  C   UNL A   1      35.420  23.738  23.611  1.00  0.00     0.032 A 
ATOM     18  C   UNL A   1      33.521  25.183  22.950  1.00  0.00     0.025 C 
ATOM     19  C   UNL A   1      31.567  24.773  24.331  1.00  0.00     0.314 C 
BRANCH  10  20
ATOM     20  C   UNL A   1      32.858  20.438  24.569  1.00  0.00    -0.015 A 
ATOM     21  C   UNL A   1      32.646  17.585  24.566  1.00  0.00    -0.048 A 
ATOM     22  C   UNL A   1      32.804  18.289  25.762  1.00  0.00     0.004 A 
ATOM     23  C   UNL A   1      32.468  18.332  23.390  1.00  0.00     0.004 A 
ATOM     24  C   UNL A   1      32.880  19.693  25.767  1.00  0.00     0.009 A 
ATOM     25  C   UNL A   1      32.557  19.735  23.392  1.00  0.00     0.009 A 
BRANCH  21  26
ATOM     26  C   UNL A   1      32.798  16.082  24.462  1.00  0.00     0.032 C 
ATOM     27  C   UNL A   1      33.794  15.423  25.410  1.00  0.00     0.009 C 
ENDBRANCH  21  26
ENDBRANCH  10  20
BRANCH  19  28
ATOM     28  C   UNL A   1      30.291  25.350  23.678  1.00  0.00     0.429 C 
ATOM     29  F   UNL A   1      29.625  24.435  22.939  1.00  0.00    -0.167 F 
ATOM     30  F   UNL A   1      29.435  25.827  24.613  1.00  0.00    -0.167 F 
ATOM     31  F   UNL A   1      30.561  26.393  22.848  1.00  0.00    -0.167 F 
ENDBRANCH  19  28
ENDBRANCH   6   9
ENDBRANCH   4   5
ENDBRANCH   3   4
ENDBRANCH   2   3
ENDBRANCH   1   2
BRANCH   1  32
ATOM     32  C   UNL A   1      32.305  31.624  27.207  1.00  0.00     0.021 C 
BRANCH  32  33
ATOM     33  C   UNL A   1      33.374  32.710  27.193  1.00  0.00     0.116 C 
BRANCH  33  34
ATOM     34  N   UNL A   1      32.886  33.975  27.719  1.00  0.00    -0.352 N 
ATOM     35  C   UNL A   1      33.242  34.619  28.877  1.00  0.00     0.251 C 
ATOM     36  H   UNL A   1      32.208  34.432  27.169  1.00  0.00     0.163 HD
ATOM     37  O   UNL A   1      32.605  35.598  29.261  1.00  0.00    -0.269 OA
BRANCH  35  38
ATOM     38  C   UNL A   1      34.377  34.108  29.672  1.00  0.00     0.039 A 
ATOM     39  C   UNL A   1      34.121  33.272  30.760  1.00  0.00     0.014 A 
ATOM     40  C   UNL A   1      35.693  34.438  29.329  1.00  0.00     0.014 A 
ATOM     41  C   UNL A   1      35.189  32.718  31.469  1.00  0.00     0.010 A 
ATOM     42  C   UNL A   1      36.753  33.824  29.987  1.00  0.00     0.010 A 
ATOM     43  C   UNL A   1      36.513  32.961  31.067  1.00  0.00    -0.014 A 
BRANCH  43  44
ATOM     44  C   UNL A   1      37.658  32.320  31.764  1.00  0.00     0.031 A 
ATOM     45  C   UNL A   1      38.124  32.848  33.094  1.00  0.00     0.074 A 
ATOM     46  C   UNL A   1      38.313  31.303  31.171  1.00  0.00     0.049 A 
ATOM     47  N   UNL A   1      39.136  32.462  33.827  1.00  0.00    -0.248 NA
ATOM     48  C   UNL A   1      37.370  33.978  33.663  1.00  0.00     0.031 C 
ATOM     49  C   UNL A   1      37.987  30.736  29.861  1.00  0.00     0.029 A 
ATOM     50  N   UNL A   1      39.395  30.569  31.588  1.00  0.00    -0.354 N 
ATOM     51  C   UNL A   1      39.147  33.303  34.933  1.00  0.00     0.074 A 
ATOM     52  C   UNL A   1      38.077  34.258  34.748  1.00  0.00     0.031 C 
ATOM     53  C   UNL A   1      38.835  29.730  29.592  1.00  0.00     0.029 A 
ATOM     54  C   UNL A   1      39.790  29.606  30.688  1.00  0.00     0.049 A 
ATOM     55  H   UNL A   1      39.848  30.717  32.450  1.00  0.00     0.167 HD
ATOM     56  C   UNL A   1      39.962  33.269  36.014  1.00  0.00     0.037 A 
ATOM     57  C   UNL A   1      40.812  28.728  30.736  1.00  0.00     0.037 A 
ATOM     58  C   UNL A   1      41.012  32.301  36.199  1.00  0.00     0.049 A 
ATOM     59  C   UNL A   1      41.707  28.713  31.946  1.00  0.00     0.074 A 
ATOM     60  C   UNL A   1      41.852  32.143  37.288  1.00  0.00     0.029 A 
ATOM     61  N   UNL A   1      41.370  31.331  35.275  1.00  0.00    -0.354 N 
ATOM     62  N   UNL A   1      41.659  29.471  33.016  1.00  0.00    -0.248 NA
ATOM     63  C   UNL A   1      42.788  27.719  31.961  1.00  0.00     0.031 C 
ATOM     64  C   UNL A   1      42.754  31.113  36.999  1.00  0.00     0.029 A 
ATOM     65  C   UNL A   1      42.435  30.588  35.756  1.00  0.00     0.049 A 
ATOM     66  H   UNL A   1      40.931  31.190  34.405  1.00  0.00     0.167 HD
ATOM     67  C   UNL A   1      42.686  29.028  33.842  1.00  0.00     0.074 A 
ATOM     68  C   UNL A   1      43.328  27.926  33.155  1.00  0.00     0.031 C 
ATOM     69  C   UNL A   1      43.062  29.490  35.061  1.00  0.00     0.037 A 
BRANCH  56  70
ATOM     70  C   UNL A   1      39.750  34.308  37.084  1.00  0.00     0.058 A 
ATOM     71  C   UNL A   1      39.045  34.021  38.264  1.00  0.00     0.135 A 
ATOM     72  C   UNL A   1      40.294  35.595  36.945  1.00  0.00     0.135 A 
ATOM     73  F   UNL A   1      38.491  32.812  38.444  1.00  0.00    -0.206 F 
ATOM     74  C   UNL A   1      38.862  34.980  39.254  1.00  0.00     0.059 A 
ATOM     75  C   UNL A   1      40.150  36.561  37.937  1.00  0.00     0.059 A 
ATOM     76  F   UNL A   1      40.976  35.926  35.837  1.00  0.00    -0.206 F 
ATOM     77  C   UNL A   1      39.420  36.249  39.082  1.00  0.00     0.060 A 
BRANCH  77  78
ATOM     78  S   UNL A   1      39.180  37.478  40.381  1.00  0.00     0.124 S 
ATOM     79  O   UNL A   1      40.534  37.997  40.544  1.00  0.00    -0.237 OA
ATOM     80  O   UNL A   1      38.220  38.393  39.770  1.00  0.00    -0.237 OA
ATOM     81  O   UNL A   1      38.669  36.695  41.502  1.00  0.00    -0.744 OA
ENDBRANCH  77  78
ENDBRANCH  56  70
BRANCH  57  82
ATOM     82  C   UNL A   1      41.032  27.781  29.609  1.00  0.00     0.058 A 
ATOM     83  C   UNL A   1      42.125  27.929  28.743  1.00  0.00     0.135 A 
ATOM     84  C   UNL A   1      40.161  26.704  29.383  1.00  0.00     0.135 A 
ATOM     85  F   UNL A   1      42.983  28.948  28.913  1.00  0.00    -0.206 F 
ATOM     86  C   UNL A   1      42.340  27.055  27.683  1.00  0.00     0.059 A 
ATOM     87  C   UNL A   1      40.371  25.799  28.346  1.00  0.00     0.059 A 
ATOM     88  F   UNL A   1      39.110  26.506  30.192  1.00  0.00    -0.206 F 
ATOM     89  C   UNL A   1      41.458  25.990  27.495  1.00  0.00     0.060 A 
BRANCH  89  90
ATOM     90  S   UNL A   1      41.772  24.832  26.144  1.00  0.00     0.124 S 
ATOM     91  O   UNL A   1      43.151  24.437  26.411  1.00  0.00    -0.237 OA
ATOM     92  O   UNL A   1      40.757  23.809  26.376  1.00  0.00    -0.237 OA
ATOM     93  O   UNL A   1      41.568  25.646  24.951  1.00  0.00    -0.744 OA
ENDBRANCH  89  90
ENDBRANCH  57  82
BRANCH  69  94
ATOM     94  C   UNL A   1      44.199  28.786  35.750  1.00  0.00     0.058 A 
ATOM     95  C   UNL A   1      45.530  29.204  35.598  1.00  0.00     0.135 A 
ATOM     96  C   UNL A   1      43.945  27.710  36.618  1.00  0.00     0.135 A 
ATOM     97  F   UNL A   1      45.830  30.222  34.777  1.00  0.00    -0.206 F 
ATOM     98  C   UNL A   1      46.573  28.565  36.263  1.00  0.00     0.059 A 
ATOM     99  C   UNL A   1      44.968  27.077  37.317  1.00  0.00     0.059 A 
ATOM    100  F   UNL A   1      42.689  27.277  36.808  1.00  0.00    -0.206 F 
ATOM    101  C   UNL A   1      46.281  27.504  37.123  1.00  0.00     0.060 A 
BRANCH 101 102
ATOM    102  S   UNL A   1      47.639  26.708  38.005  1.00  0.00     0.124 S 
ATOM    103  O   UNL A   1      48.780  27.059  37.167  1.00  0.00    -0.237 OA
ATOM    104  O   UNL A   1      47.587  27.358  39.311  1.00  0.00    -0.237 OA
ATOM    105  O   UNL A   1      47.267  25.296  38.000  1.00  0.00    -0.744 OA
ENDBRANCH 101 102
ENDBRANCH  69  94
ENDBRANCH  43  44
ENDBRANCH  35  38
ENDBRANCH  33  34
ENDBRANCH  32  33
ENDBRANCH   1  32
TORSDOF 19
ENDMDL
