MODEL 1
REMARK VINA RESULT:     -11.7      0.000      0.000
REMARK SMILES O=C(NCCCCCCNC(=O)c1noc(-c2ccccc2C(F)(F)F)n1)c1ccc(-c2c3nc(c(-c4c(F)cc(S(=O)(=O)[O-])cc4F)c4ccc([nH]4)c(-c4c(F)cc(S(=O)(=O)[O-])cc4F)c4nc(c(-c5c(F)cc(S(=O)(=O)[O-])cc5F)c5ccc2[nH]5)C=C4)C=C3)cc1
REMARK SMILES IDX 6 1 5 2 4 3 3 4 1 5 2 6 28 8 29 9 93 10 30 11 92 12 31 13
REMARK SMILES IDX 32 14 33 15 86 16 34 17 91 18 85 19 87 20 35 21 90 22 84 23
REMARK SMILES IDX 83 24 36 26 70 27 49 28 69 29 50 30 53 31 68 32 88 33 51 34
REMARK SMILES IDX 52 35 67 37 89 38 54 39 37 40 38 41 47 42 39 43 40 44 46 45
REMARK SMILES IDX 48 46 41 47 42 48 43 49 44 50 45 51 71 52 72 53 81 54 73 55
REMARK SMILES IDX 74 56 80 57 82 58 75 59 76 60 77 61 78 62 79 63 55 64 56 65
REMARK SMILES IDX 65 66 57 67 58 68 64 69 66 70 59 71 60 72 61 73 62 74 63 75
REMARK SMILES IDX 7 76 8 77 9 78 10 79 11 80 12 82 13 83 14 84 27 85 15 86
REMARK SMILES IDX 16 87 17 88 18 89 22 90 19 91 21 92 20 93 23 94 24 95 25 96
REMARK SMILES IDX 26 97
REMARK H PARENT 3 7 87 25 53 36 10 81
REMARK Flexibility Score: inf
ROOT
ATOM      1  C   UNL A   1      31.662  28.295  26.001  1.00  0.00     0.002 C 
ENDROOT
BRANCH   1   2
ATOM      2  C   UNL A   1      32.969  27.505  26.054  1.00  0.00     0.021 C 
BRANCH   2   3
ATOM      3  C   UNL A   1      34.124  28.229  26.730  1.00  0.00     0.116 C 
BRANCH   3   4
ATOM      4  N   UNL A   1      33.760  29.559  27.194  1.00  0.00    -0.352 N 
ATOM      5  O   UNL A   1      33.989  31.461  28.390  1.00  0.00    -0.269 OA
ATOM      6  C   UNL A   1      34.501  30.434  27.952  1.00  0.00     0.251 C 
ATOM      7  H   UNL A   1      32.866  29.875  26.928  1.00  0.00     0.163 HD
BRANCH   6   8
ATOM      8  C   UNL A   1      35.912  30.112  28.257  1.00  0.00     0.039 A 
ATOM      9  C   UNL A   1      36.891  30.259  27.273  1.00  0.00     0.014 A 
ATOM     10  C   UNL A   1      36.257  29.639  29.527  1.00  0.00     0.014 A 
ATOM     11  C   UNL A   1      38.176  29.787  27.506  1.00  0.00     0.010 A 
ATOM     12  C   UNL A   1      37.579  29.263  29.791  1.00  0.00     0.010 A 
ATOM     13  C   UNL A   1      38.544  29.309  28.775  1.00  0.00    -0.014 A 
BRANCH  13  14
ATOM     14  C   UNL A   1      39.970  28.962  29.015  1.00  0.00     0.031 A 
ATOM     15  C   UNL A   1      40.531  27.616  28.649  1.00  0.00     0.074 A 
ATOM     16  C   UNL A   1      40.774  29.922  29.518  1.00  0.00     0.049 A 
ATOM     17  N   UNL A   1      41.766  27.192  28.742  1.00  0.00    -0.248 NA
ATOM     18  C   UNL A   1      39.594  26.613  28.120  1.00  0.00     0.031 C 
ATOM     19  C   UNL A   1      40.329  31.257  29.933  1.00  0.00     0.029 A 
ATOM     20  N   UNL A   1      42.125  29.944  29.739  1.00  0.00    -0.354 N 
ATOM     21  C   UNL A   1      41.758  25.877  28.291  1.00  0.00     0.074 A 
ATOM     22  C   UNL A   1      40.387  25.561  27.953  1.00  0.00     0.031 C 
ATOM     23  C   UNL A   1      41.392  31.983  30.299  1.00  0.00     0.029 A 
ATOM     24  C   UNL A   1      42.584  31.149  30.214  1.00  0.00     0.049 A 
ATOM     25  H   UNL A   1      42.712  29.170  29.573  1.00  0.00     0.167 HD
ATOM     26  C   UNL A   1      42.801  25.021  28.163  1.00  0.00     0.037 A 
ATOM     27  C   UNL A   1      43.822  31.540  30.564  1.00  0.00     0.037 A 
ATOM     28  C   UNL A   1      44.166  25.352  28.500  1.00  0.00     0.049 A 
ATOM     29  C   UNL A   1      44.954  30.565  30.420  1.00  0.00     0.074 A 
ATOM     30  C   UNL A   1      45.295  24.556  28.395  1.00  0.00     0.029 A 
ATOM     31  N   UNL A   1      44.587  26.574  29.004  1.00  0.00    -0.354 N 
ATOM     32  N   UNL A   1      44.926  29.334  29.971  1.00  0.00    -0.248 NA
ATOM     33  C   UNL A   1      46.284  31.031  30.832  1.00  0.00     0.031 C 
ATOM     34  C   UNL A   1      46.392  25.284  28.871  1.00  0.00     0.029 A 
ATOM     35  C   UNL A   1      45.955  26.550  29.228  1.00  0.00     0.049 A 
ATOM     36  H   UNL A   1      44.001  27.346  29.177  1.00  0.00     0.167 HD
ATOM     37  C   UNL A   1      46.236  28.876  30.042  1.00  0.00     0.074 A 
ATOM     38  C   UNL A   1      47.035  29.978  30.541  1.00  0.00     0.031 C 
ATOM     39  C   UNL A   1      46.733  27.653  29.734  1.00  0.00     0.037 A 
BRANCH  26  40
ATOM     40  C   UNL A   1      42.524  23.638  27.637  1.00  0.00     0.058 A 
ATOM     41  C   UNL A   1      42.440  23.380  26.260  1.00  0.00     0.135 A 
ATOM     42  C   UNL A   1      42.424  22.544  28.512  1.00  0.00     0.135 A 
ATOM     43  F   UNL A   1      42.514  24.390  25.377  1.00  0.00    -0.206 F 
ATOM     44  C   UNL A   1      42.261  22.090  25.769  1.00  0.00     0.059 A 
ATOM     45  C   UNL A   1      42.267  21.242  28.044  1.00  0.00     0.059 A 
ATOM     46  F   UNL A   1      42.495  22.733  29.840  1.00  0.00    -0.206 F 
ATOM     47  C   UNL A   1      42.182  21.026  26.670  1.00  0.00     0.060 A 
BRANCH  47  48
ATOM     48  S   UNL A   1      41.988  19.355  26.013  1.00  0.00     0.124 S 
ATOM     49  O   UNL A   1      42.907  19.380  24.878  1.00  0.00    -0.237 OA
ATOM     50  O   UNL A   1      42.400  18.527  27.141  1.00  0.00    -0.237 OA
ATOM     51  O   UNL A   1      40.572  19.285  25.671  1.00  0.00    -0.744 OA
ENDBRANCH  47  48
ENDBRANCH  26  40
BRANCH  27  52
ATOM     52  C   UNL A   1      44.045  32.904  31.111  1.00  0.00     0.058 A 
ATOM     53  C   UNL A   1      44.368  33.982  30.275  1.00  0.00     0.135 A 
ATOM     54  C   UNL A   1      43.932  33.154  32.489  1.00  0.00     0.135 A 
ATOM     55  F   UNL A   1      44.487  33.794  28.952  1.00  0.00    -0.206 F 
ATOM     56  C   UNL A   1      44.601  35.254  30.788  1.00  0.00     0.059 A 
ATOM     57  C   UNL A   1      44.127  34.422  33.020  1.00  0.00     0.059 A 
ATOM     58  F   UNL A   1      43.602  32.160  33.329  1.00  0.00    -0.206 F 
ATOM     59  C   UNL A   1      44.480  35.463  32.163  1.00  0.00     0.060 A 
BRANCH  59  60
ATOM     60  S   UNL A   1      44.762  37.120  32.821  1.00  0.00     0.124 S 
ATOM     61  O   UNL A   1      43.524  37.358  33.552  1.00  0.00    -0.237 OA
ATOM     62  O   UNL A   1      45.960  36.930  33.633  1.00  0.00    -0.237 OA
ATOM     63  O   UNL A   1      44.953  37.928  31.619  1.00  0.00    -0.744 OA
ENDBRANCH  59  60
ENDBRANCH  27  52
BRANCH  39  64
ATOM     64  C   UNL A   1      48.211  27.457  29.919  1.00  0.00     0.058 A 
ATOM     65  C   UNL A   1      48.744  26.985  31.130  1.00  0.00     0.135 A 
ATOM     66  C   UNL A   1      49.105  27.748  28.877  1.00  0.00     0.135 A 
ATOM     67  F   UNL A   1      47.931  26.700  32.159  1.00  0.00    -0.206 F 
ATOM     68  C   UNL A   1      50.115  26.848  31.315  1.00  0.00     0.059 A 
ATOM     69  C   UNL A   1      50.479  27.591  29.030  1.00  0.00     0.059 A 
ATOM     70  F   UNL A   1      48.647  28.194  27.697  1.00  0.00    -0.206 F 
ATOM     71  C   UNL A   1      50.975  27.158  30.260  1.00  0.00     0.060 A 
BRANCH  71  72
ATOM     72  S   UNL A   1      52.754  26.982  30.512  1.00  0.00     0.124 S 
ATOM     73  O   UNL A   1      53.090  28.261  31.128  1.00  0.00    -0.237 OA
ATOM     74  O   UNL A   1      52.832  25.817  31.388  1.00  0.00    -0.237 OA
ATOM     75  O   UNL A   1      53.269  26.779  29.161  1.00  0.00    -0.744 OA
ENDBRANCH  71  72
ENDBRANCH  39  64
ENDBRANCH  13  14
ENDBRANCH   6   8
ENDBRANCH   3   4
ENDBRANCH   2   3
ENDBRANCH   1   2
BRANCH   1  76
ATOM     76  C   UNL A   1      31.313  28.890  24.633  1.00  0.00     0.002 C 
BRANCH  76  77
ATOM     77  C   UNL A   1      30.282  28.105  23.816  1.00  0.00     0.021 C 
BRANCH  77  78
ATOM     78  C   UNL A   1      30.866  27.303  22.652  1.00  0.00     0.116 C 
BRANCH  78  79
ATOM     79  N   UNL A   1      32.105  27.897  22.180  1.00  0.00    -0.349 N 
ATOM     80  C   UNL A   1      33.340  27.301  22.047  1.00  0.00     0.292 C 
ATOM     81  H   UNL A   1      32.055  28.846  21.922  1.00  0.00     0.163 HD
ATOM     82  O   UNL A   1      34.323  28.031  21.881  1.00  0.00    -0.266 OA
BRANCH  80  83
ATOM     83  C   UNL A   1      33.428  25.837  22.094  1.00  0.00     0.260 A 
ATOM     84  N   UNL A   1      33.306  25.062  21.000  1.00  0.00    -0.051 NA
ATOM     85  N   UNL A   1      33.618  25.126  23.267  1.00  0.00    -0.182 NA
ATOM     86  O   UNL A   1      33.454  23.766  21.498  1.00  0.00    -0.333 OA
ATOM     87  C   UNL A   1      33.618  23.886  22.846  1.00  0.00     0.259 A 
BRANCH  87  88
ATOM     88  C   UNL A   1      33.738  22.657  23.606  1.00  0.00     0.052 A 
ATOM     89  C   UNL A   1      32.597  21.851  23.769  1.00  0.00     0.014 A 
ATOM     90  C   UNL A   1      34.971  22.228  24.136  1.00  0.00     0.068 A 
ATOM     91  C   UNL A   1      32.675  20.625  24.431  1.00  0.00     0.001 A 
ATOM     92  C   UNL A   1      35.031  20.983  24.796  1.00  0.00     0.014 A 
ATOM     93  C   UNL A   1      33.893  20.190  24.940  1.00  0.00     0.001 A 
BRANCH  90  94
ATOM     94  C   UNL A   1      36.248  23.030  24.020  1.00  0.00     0.417 C 
ATOM     95  F   UNL A   1      37.317  22.359  24.546  1.00  0.00    -0.166 F 
ATOM     96  F   UNL A   1      36.583  23.292  22.728  1.00  0.00    -0.166 F 
ATOM     97  F   UNL A   1      36.245  24.225  24.667  1.00  0.00    -0.166 F 
ENDBRANCH  90  94
ENDBRANCH  87  88
ENDBRANCH  80  83
ENDBRANCH  78  79
ENDBRANCH  77  78
ENDBRANCH  76  77
ENDBRANCH   1  76
TORSDOF 18
ENDMDL
MODEL 2
REMARK VINA RESULT:     -11.5      6.035     11.335
REMARK SMILES O=C(NCCCCCCNC(=O)c1noc(-c2ccccc2C(F)(F)F)n1)c1ccc(-c2c3nc(c(-c4c(F)cc(S(=O)(=O)[O-])cc4F)c4ccc([nH]4)c(-c4c(F)cc(S(=O)(=O)[O-])cc4F)c4nc(c(-c5c(F)cc(S(=O)(=O)[O-])cc5F)c5ccc2[nH]5)C=C4)C=C3)cc1
REMARK SMILES IDX 6 1 5 2 4 3 3 4 1 5 2 6 28 8 29 9 93 10 30 11 92 12 31 13
REMARK SMILES IDX 32 14 33 15 86 16 34 17 91 18 85 19 87 20 35 21 90 22 84 23
REMARK SMILES IDX 83 24 36 26 70 27 49 28 69 29 50 30 53 31 68 32 88 33 51 34
REMARK SMILES IDX 52 35 67 37 89 38 54 39 37 40 38 41 47 42 39 43 40 44 46 45
REMARK SMILES IDX 48 46 41 47 42 48 43 49 44 50 45 51 71 52 72 53 81 54 73 55
REMARK SMILES IDX 74 56 80 57 82 58 75 59 76 60 77 61 78 62 79 63 55 64 56 65
REMARK SMILES IDX 65 66 57 67 58 68 64 69 66 70 59 71 60 72 61 73 62 74 63 75
REMARK SMILES IDX 7 76 8 77 9 78 10 79 11 80 12 82 13 83 14 84 27 85 15 86
REMARK SMILES IDX 16 87 17 88 18 89 22 90 19 91 21 92 20 93 23 94 24 95 25 96
REMARK SMILES IDX 26 97
REMARK H PARENT 3 7 87 25 53 36 10 81
REMARK Flexibility Score: inf
ROOT
ATOM      1  C   UNL A   1      41.460  20.653  27.258  1.00  0.00     0.002 C 
ENDROOT
BRANCH   1   2
ATOM      2  C   UNL A   1      40.489  21.827  27.145  1.00  0.00     0.021 C 
BRANCH   2   3
ATOM      3  C   UNL A   1      41.090  23.185  27.476  1.00  0.00     0.116 C 
BRANCH   3   4
ATOM      4  N   UNL A   1      41.423  23.958  26.289  1.00  0.00    -0.352 N 
ATOM      5  O   UNL A   1      41.565  25.812  25.007  1.00  0.00    -0.269 OA
ATOM      6  C   UNL A   1      41.403  25.322  26.121  1.00  0.00     0.251 C 
ATOM      7  H   UNL A   1      41.700  23.434  25.502  1.00  0.00     0.163 HD
BRANCH   6   8
ATOM      8  C   UNL A   1      41.159  26.192  27.292  1.00  0.00     0.039 A 
ATOM      9  C   UNL A   1      41.824  27.414  27.407  1.00  0.00     0.014 A 
ATOM     10  C   UNL A   1      40.278  25.775  28.295  1.00  0.00     0.014 A 
ATOM     11  C   UNL A   1      41.730  28.140  28.587  1.00  0.00     0.010 A 
ATOM     12  C   UNL A   1      40.105  26.563  29.439  1.00  0.00     0.010 A 
ATOM     13  C   UNL A   1      40.849  27.740  29.605  1.00  0.00    -0.014 A 
BRANCH  13  14
ATOM     14  C   UNL A   1      40.672  28.634  30.780  1.00  0.00     0.031 A 
ATOM     15  C   UNL A   1      41.557  28.538  31.992  1.00  0.00     0.074 A 
ATOM     16  C   UNL A   1      39.723  29.590  30.704  1.00  0.00     0.049 A 
ATOM     17  N   UNL A   1      41.561  29.289  33.064  1.00  0.00    -0.248 NA
ATOM     18  C   UNL A   1      42.560  27.462  32.013  1.00  0.00     0.031 C 
ATOM     19  C   UNL A   1      38.789  29.758  29.585  1.00  0.00     0.029 A 
ATOM     20  N   UNL A   1      39.402  30.614  31.555  1.00  0.00    -0.354 N 
ATOM     21  C   UNL A   1      42.557  28.779  33.889  1.00  0.00     0.074 A 
ATOM     22  C   UNL A   1      43.117  27.632  33.207  1.00  0.00     0.031 C 
ATOM     23  C   UNL A   1      38.045  30.852  29.790  1.00  0.00     0.029 A 
ATOM     24  C   UNL A   1      38.396  31.424  31.083  1.00  0.00     0.049 A 
ATOM     25  H   UNL A   1      39.849  30.757  32.421  1.00  0.00     0.167 HD
ATOM     26  C   UNL A   1      42.968  29.235  35.097  1.00  0.00     0.037 A 
ATOM     27  C   UNL A   1      37.803  32.497  31.636  1.00  0.00     0.037 A 
ATOM     28  C   UNL A   1      42.403  30.384  35.764  1.00  0.00     0.049 A 
ATOM     29  C   UNL A   1      38.275  32.971  32.980  1.00  0.00     0.074 A 
ATOM     30  C   UNL A   1      42.760  30.931  36.986  1.00  0.00     0.029 A 
ATOM     31  N   UNL A   1      41.368  31.163  35.268  1.00  0.00    -0.354 N 
ATOM     32  N   UNL A   1      39.233  32.486  33.732  1.00  0.00    -0.248 NA
ATOM     33  C   UNL A   1      37.586  34.135  33.550  1.00  0.00     0.031 C 
ATOM     34  C   UNL A   1      41.916  32.017  37.245  1.00  0.00     0.029 A 
ATOM     35  C   UNL A   1      41.064  32.176  36.164  1.00  0.00     0.049 A 
ATOM     36  H   UNL A   1      40.915  31.018  34.406  1.00  0.00     0.167 HD
ATOM     37  C   UNL A   1      39.266  33.288  34.866  1.00  0.00     0.074 A 
ATOM     38  C   UNL A   1      38.256  34.312  34.680  1.00  0.00     0.031 C 
ATOM     39  C   UNL A   1      40.049  33.181  35.967  1.00  0.00     0.037 A 
BRANCH  26  40
ATOM     40  C   UNL A   1      44.084  28.500  35.790  1.00  0.00     0.058 A 
ATOM     41  C   UNL A   1      45.424  28.886  35.637  1.00  0.00     0.135 A 
ATOM     42  C   UNL A   1      43.807  27.450  36.683  1.00  0.00     0.135 A 
ATOM     43  F   UNL A   1      45.750  29.873  34.786  1.00  0.00    -0.206 F 
ATOM     44  C   UNL A   1      46.450  28.257  36.337  1.00  0.00     0.059 A 
ATOM     45  C   UNL A   1      44.813  26.822  37.411  1.00  0.00     0.059 A 
ATOM     46  F   UNL A   1      42.542  27.038  36.867  1.00  0.00    -0.206 F 
ATOM     47  C   UNL A   1      46.134  27.229  37.227  1.00  0.00     0.060 A 
BRANCH  47  48
ATOM     48  S   UNL A   1      47.473  26.451  38.155  1.00  0.00     0.124 S 
ATOM     49  O   UNL A   1      48.060  25.579  37.141  1.00  0.00    -0.237 OA
ATOM     50  O   UNL A   1      48.284  27.597  38.550  1.00  0.00    -0.237 OA
ATOM     51  O   UNL A   1      46.783  25.769  39.244  1.00  0.00    -0.744 OA
ENDBRANCH  47  48
ENDBRANCH  26  40
BRANCH  27  52
ATOM     52  C   UNL A   1      36.682  33.173  30.931  1.00  0.00     0.058 A 
ATOM     53  C   UNL A   1      36.909  33.995  29.818  1.00  0.00     0.135 A 
ATOM     54  C   UNL A   1      35.356  33.001  31.360  1.00  0.00     0.135 A 
ATOM     55  F   UNL A   1      38.158  34.189  29.370  1.00  0.00    -0.206 F 
ATOM     56  C   UNL A   1      35.863  34.647  29.172  1.00  0.00     0.059 A 
ATOM     57  C   UNL A   1      34.292  33.615  30.711  1.00  0.00     0.059 A 
ATOM     58  F   UNL A   1      35.084  32.206  32.407  1.00  0.00    -0.206 F 
ATOM     59  C   UNL A   1      34.558  34.452  29.628  1.00  0.00     0.060 A 
BRANCH  59  60
ATOM     60  S   UNL A   1      33.203  35.284  28.774  1.00  0.00     0.124 S 
ATOM     61  O   UNL A   1      33.924  36.272  27.980  1.00  0.00    -0.237 OA
ATOM     62  O   UNL A   1      32.588  34.190  28.030  1.00  0.00    -0.237 OA
ATOM     63  O   UNL A   1      32.397  35.817  29.868  1.00  0.00    -0.744 OA
ENDBRANCH  59  60
ENDBRANCH  27  52
BRANCH  39  64
ATOM     64  C   UNL A   1      39.848  34.212  37.042  1.00  0.00     0.058 A 
ATOM     65  C   UNL A   1      40.567  35.418  37.047  1.00  0.00     0.135 A 
ATOM     66  C   UNL A   1      38.930  33.990  38.080  1.00  0.00     0.135 A 
ATOM     67  F   UNL A   1      41.463  35.674  36.080  1.00  0.00    -0.206 F 
ATOM     68  C   UNL A   1      40.413  36.350  38.067  1.00  0.00     0.059 A 
ATOM     69  C   UNL A   1      38.738  34.921  39.095  1.00  0.00     0.059 A 
ATOM     70  F   UNL A   1      38.211  32.857  38.117  1.00  0.00    -0.206 F 
ATOM     71  C   UNL A   1      39.500  36.090  39.089  1.00  0.00     0.060 A 
BRANCH  71  72
ATOM     72  S   UNL A   1      39.311  37.304  40.412  1.00  0.00     0.124 S 
ATOM     73  O   UNL A   1      39.001  36.449  41.553  1.00  0.00    -0.237 OA
ATOM     74  O   UNL A   1      40.622  37.945  40.438  1.00  0.00    -0.237 OA
ATOM     75  O   UNL A   1      38.216  38.149  39.943  1.00  0.00    -0.744 OA
ENDBRANCH  71  72
ENDBRANCH  39  64
ENDBRANCH  13  14
ENDBRANCH   6   8
ENDBRANCH   3   4
ENDBRANCH   2   3
ENDBRANCH   1   2
BRANCH   1  76
ATOM     76  C   UNL A   1      41.354  19.609  26.141  1.00  0.00     0.002 C 
BRANCH  76  77
ATOM     77  C   UNL A   1      42.241  18.371  26.311  1.00  0.00     0.021 C 
BRANCH  77  78
ATOM     78  C   UNL A   1      43.739  18.634  26.162  1.00  0.00     0.116 C 
BRANCH  78  79
ATOM     79  N   UNL A   1      44.090  18.880  24.774  1.00  0.00    -0.349 N 
ATOM     80  C   UNL A   1      44.549  20.047  24.204  1.00  0.00     0.292 C 
ATOM     81  H   UNL A   1      43.986  18.115  24.163  1.00  0.00     0.163 HD
ATOM     82  O   UNL A   1      44.540  20.136  22.972  1.00  0.00    -0.266 OA
BRANCH  80  83
ATOM     83  C   UNL A   1      45.036  21.118  25.081  1.00  0.00     0.260 A 
ATOM     84  N   UNL A   1      46.340  21.435  25.192  1.00  0.00    -0.051 NA
ATOM     85  N   UNL A   1      44.203  21.877  25.886  1.00  0.00    -0.182 NA
ATOM     86  O   UNL A   1      46.344  22.487  26.112  1.00  0.00    -0.333 OA
ATOM     87  C   UNL A   1      45.048  22.678  26.487  1.00  0.00     0.259 A 
BRANCH  87  88
ATOM     88  C   UNL A   1      44.797  23.692  27.492  1.00  0.00     0.052 A 
ATOM     89  C   UNL A   1      44.506  23.284  28.806  1.00  0.00     0.014 A 
ATOM     90  C   UNL A   1      44.888  25.068  27.198  1.00  0.00     0.068 A 
ATOM     91  C   UNL A   1      44.327  24.221  29.824  1.00  0.00     0.001 A 
ATOM     92  C   UNL A   1      44.710  25.999  28.242  1.00  0.00     0.014 A 
ATOM     93  C   UNL A   1      44.434  25.578  29.542  1.00  0.00     0.001 A 
BRANCH  90  94
ATOM     94  C   UNL A   1      45.185  25.603  25.815  1.00  0.00     0.417 C 
ATOM     95  F   UNL A   1      44.780  26.901  25.676  1.00  0.00    -0.166 F 
ATOM     96  F   UNL A   1      46.516  25.605  25.532  1.00  0.00    -0.166 F 
ATOM     97  F   UNL A   1      44.575  24.945  24.794  1.00  0.00    -0.166 F 
ENDBRANCH  90  94
ENDBRANCH  87  88
ENDBRANCH  80  83
ENDBRANCH  78  79
ENDBRANCH  77  78
ENDBRANCH  76  77
ENDBRANCH   1  76
TORSDOF 18
ENDMDL
MODEL 3
REMARK VINA RESULT:     -11.3      4.548      9.494
REMARK SMILES O=C(NCCCCCCNC(=O)c1noc(-c2ccccc2C(F)(F)F)n1)c1ccc(-c2c3nc(c(-c4c(F)cc(S(=O)(=O)[O-])cc4F)c4ccc([nH]4)c(-c4c(F)cc(S(=O)(=O)[O-])cc4F)c4nc(c(-c5c(F)cc(S(=O)(=O)[O-])cc5F)c5ccc2[nH]5)C=C4)C=C3)cc1
REMARK SMILES IDX 6 1 5 2 4 3 3 4 1 5 2 6 28 8 29 9 93 10 30 11 92 12 31 13
REMARK SMILES IDX 32 14 33 15 86 16 34 17 91 18 85 19 87 20 35 21 90 22 84 23
REMARK SMILES IDX 83 24 36 26 70 27 49 28 69 29 50 30 53 31 68 32 88 33 51 34
REMARK SMILES IDX 52 35 67 37 89 38 54 39 37 40 38 41 47 42 39 43 40 44 46 45
REMARK SMILES IDX 48 46 41 47 42 48 43 49 44 50 45 51 71 52 72 53 81 54 73 55
REMARK SMILES IDX 74 56 80 57 82 58 75 59 76 60 77 61 78 62 79 63 55 64 56 65
REMARK SMILES IDX 65 66 57 67 58 68 64 69 66 70 59 71 60 72 61 73 62 74 63 75
REMARK SMILES IDX 7 76 8 77 9 78 10 79 11 80 12 82 13 83 14 84 27 85 15 86
REMARK SMILES IDX 16 87 17 88 18 89 22 90 19 91 21 92 20 93 23 94 24 95 25 96
REMARK SMILES IDX 26 97
REMARK H PARENT 3 7 87 25 53 36 10 81
REMARK Flexibility Score: inf
ROOT
ATOM      1  C   UNL A   1      31.870  29.947  26.249  1.00  0.00     0.002 C 
ENDROOT
BRANCH   1   2
ATOM      2  C   UNL A   1      31.691  31.440  26.519  1.00  0.00     0.021 C 
BRANCH   2   3
ATOM      3  C   UNL A   1      32.871  32.110  27.207  1.00  0.00     0.116 C 
BRANCH   3   4
ATOM      4  N   UNL A   1      32.613  33.502  27.541  1.00  0.00    -0.352 N 
ATOM      5  O   UNL A   1      32.808  35.408  28.738  1.00  0.00    -0.269 OA
ATOM      6  C   UNL A   1      33.249  34.293  28.468  1.00  0.00     0.251 C 
ATOM      7  H   UNL A   1      31.887  33.935  27.035  1.00  0.00     0.163 HD
BRANCH   6   8
ATOM      8  C   UNL A   1      34.452  33.778  29.156  1.00  0.00     0.039 A 
ATOM      9  C   UNL A   1      34.322  32.869  30.208  1.00  0.00     0.014 A 
ATOM     10  C   UNL A   1      35.719  34.222  28.764  1.00  0.00     0.014 A 
ATOM     11  C   UNL A   1      35.435  32.529  30.965  1.00  0.00     0.010 A 
ATOM     12  C   UNL A   1      36.852  33.793  29.464  1.00  0.00     0.010 A 
ATOM     13  C   UNL A   1      36.717  32.963  30.586  1.00  0.00    -0.014 A 
BRANCH  13  14
ATOM     14  C   UNL A   1      37.890  32.443  31.339  1.00  0.00     0.031 A 
ATOM     15  C   UNL A   1      38.277  32.993  32.684  1.00  0.00     0.074 A 
ATOM     16  C   UNL A   1      38.571  31.409  30.804  1.00  0.00     0.049 A 
ATOM     17  N   UNL A   1      39.235  32.600  33.484  1.00  0.00    -0.248 NA
ATOM     18  C   UNL A   1      37.500  34.131  33.199  1.00  0.00     0.031 C 
ATOM     19  C   UNL A   1      38.298  30.814  29.491  1.00  0.00     0.029 A 
ATOM     20  N   UNL A   1      39.602  30.655  31.298  1.00  0.00    -0.354 N 
ATOM     21  C   UNL A   1      39.184  33.439  34.590  1.00  0.00     0.074 A 
ATOM     22  C   UNL A   1      38.117  34.386  34.346  1.00  0.00     0.031 C 
ATOM     23  C   UNL A   1      39.097  29.754  29.311  1.00  0.00     0.029 A 
ATOM     24  C   UNL A   1      39.987  29.635  30.459  1.00  0.00     0.049 A 
ATOM     25  H   UNL A   1      40.028  30.827  32.170  1.00  0.00     0.167 HD
ATOM     26  C   UNL A   1      39.950  33.411  35.708  1.00  0.00     0.037 A 
ATOM     27  C   UNL A   1      40.960  28.716  30.587  1.00  0.00     0.037 A 
ATOM     28  C   UNL A   1      41.009  32.457  35.941  1.00  0.00     0.049 A 
ATOM     29  C   UNL A   1      41.797  28.718  31.832  1.00  0.00     0.074 A 
ATOM     30  C   UNL A   1      41.834  32.341  37.047  1.00  0.00     0.029 A 
ATOM     31  N   UNL A   1      41.386  31.456  35.057  1.00  0.00    -0.354 N 
ATOM     32  N   UNL A   1      41.717  29.508  32.875  1.00  0.00    -0.248 NA
ATOM     33  C   UNL A   1      42.858  27.707  31.917  1.00  0.00     0.031 C 
ATOM     34  C   UNL A   1      42.735  31.295  36.816  1.00  0.00     0.029 A 
ATOM     35  C   UNL A   1      42.440  30.727  35.586  1.00  0.00     0.049 A 
ATOM     36  H   UNL A   1      40.966  31.287  34.183  1.00  0.00     0.167 HD
ATOM     37  C   UNL A   1      42.715  29.088  33.745  1.00  0.00     0.074 A 
ATOM     38  C   UNL A   1      43.359  27.950  33.120  1.00  0.00     0.031 C 
ATOM     39  C   UNL A   1      43.075  29.603  34.946  1.00  0.00     0.037 A 
BRANCH  26  40
ATOM     40  C   UNL A   1      39.684  34.439  36.776  1.00  0.00     0.058 A 
ATOM     41  C   UNL A   1      38.891  34.145  37.895  1.00  0.00     0.135 A 
ATOM     42  C   UNL A   1      40.296  35.703  36.724  1.00  0.00     0.135 A 
ATOM     43  F   UNL A   1      38.269  32.958  37.991  1.00  0.00    -0.206 F 
ATOM     44  C   UNL A   1      38.707  35.068  38.922  1.00  0.00     0.059 A 
ATOM     45  C   UNL A   1      40.146  36.633  37.749  1.00  0.00     0.059 A 
ATOM     46  F   UNL A   1      41.065  36.038  35.675  1.00  0.00    -0.206 F 
ATOM     47  C   UNL A   1      39.344  36.308  38.843  1.00  0.00     0.060 A 
BRANCH  47  48
ATOM     48  S   UNL A   1      39.125  37.477  40.202  1.00  0.00     0.124 S 
ATOM     49  O   UNL A   1      38.183  38.427  39.618  1.00  0.00    -0.237 OA
ATOM     50  O   UNL A   1      38.591  36.627  41.260  1.00  0.00    -0.237 OA
ATOM     51  O   UNL A   1      40.472  37.989  40.431  1.00  0.00    -0.744 OA
ENDBRANCH  47  48
ENDBRANCH  26  40
BRANCH  27  52
ATOM     52  C   UNL A   1      41.209  27.741  29.492  1.00  0.00     0.058 A 
ATOM     53  C   UNL A   1      40.323  26.685  29.239  1.00  0.00     0.135 A 
ATOM     54  C   UNL A   1      42.344  27.855  28.673  1.00  0.00     0.135 A 
ATOM     55  F   UNL A   1      39.224  26.535  29.993  1.00  0.00    -0.206 F 
ATOM     56  C   UNL A   1      40.567  25.758  28.230  1.00  0.00     0.059 A 
ATOM     57  C   UNL A   1      42.593  26.961  27.639  1.00  0.00     0.059 A 
ATOM     58  F   UNL A   1      43.212  28.862  28.860  1.00  0.00    -0.206 F 
ATOM     59  C   UNL A   1      41.707  25.904  27.437  1.00  0.00     0.060 A 
BRANCH  59  60
ATOM     60  S   UNL A   1      42.008  24.710  26.117  1.00  0.00     0.124 S 
ATOM     61  O   UNL A   1      43.326  24.203  26.480  1.00  0.00    -0.237 OA
ATOM     62  O   UNL A   1      40.896  23.780  26.282  1.00  0.00    -0.237 OA
ATOM     63  O   UNL A   1      41.956  25.529  24.910  1.00  0.00    -0.744 OA
ENDBRANCH  59  60
ENDBRANCH  27  52
BRANCH  39  64
ATOM     64  C   UNL A   1      44.209  28.923  35.661  1.00  0.00     0.058 A 
ATOM     65  C   UNL A   1      45.543  29.313  35.457  1.00  0.00     0.135 A 
ATOM     66  C   UNL A   1      43.961  27.870  36.554  1.00  0.00     0.135 A 
ATOM     67  F   UNL A   1      45.834  30.310  34.606  1.00  0.00    -0.206 F 
ATOM     68  C   UNL A   1      46.595  28.653  36.084  1.00  0.00     0.059 A 
ATOM     69  C   UNL A   1      44.995  27.215  37.214  1.00  0.00     0.059 A 
ATOM     70  F   UNL A   1      42.703  27.465  36.790  1.00  0.00    -0.206 F 
ATOM     71  C   UNL A   1      46.311  27.602  36.957  1.00  0.00     0.060 A 
BRANCH  71  72
ATOM     72  S   UNL A   1      47.683  26.749  37.761  1.00  0.00     0.124 S 
ATOM     73  O   UNL A   1      47.033  25.532  38.236  1.00  0.00    -0.237 OA
ATOM     74  O   UNL A   1      48.630  26.574  36.663  1.00  0.00    -0.237 OA
ATOM     75  O   UNL A   1      48.102  27.685  38.800  1.00  0.00    -0.744 OA
ENDBRANCH  71  72
ENDBRANCH  39  64
ENDBRANCH  13  14
ENDBRANCH   6   8
ENDBRANCH   3   4
ENDBRANCH   2   3
ENDBRANCH   1   2
BRANCH   1  76
ATOM     76  C   UNL A   1      31.652  29.516  24.795  1.00  0.00     0.002 C 
BRANCH  76  77
ATOM     77  C   UNL A   1      31.036  28.125  24.606  1.00  0.00     0.021 C 
BRANCH  77  78
ATOM     78  C   UNL A   1      31.114  27.582  23.179  1.00  0.00     0.116 C 
BRANCH  78  79
ATOM     79  N   UNL A   1      32.273  28.111  22.482  1.00  0.00    -0.349 N 
ATOM     80  C   UNL A   1      33.433  27.455  22.136  1.00  0.00     0.292 C 
ATOM     81  H   UNL A   1      32.222  29.060  22.224  1.00  0.00     0.163 HD
ATOM     82  O   UNL A   1      34.404  28.134  21.785  1.00  0.00    -0.266 OA
BRANCH  80  83
ATOM     83  C   UNL A   1      33.459  25.988  22.188  1.00  0.00     0.260 A 
ATOM     84  N   UNL A   1      33.324  25.216  21.093  1.00  0.00    -0.051 NA
ATOM     85  N   UNL A   1      33.598  25.273  23.366  1.00  0.00    -0.182 NA
ATOM     86  O   UNL A   1      33.408  23.916  21.597  1.00  0.00    -0.333 OA
ATOM     87  C   UNL A   1      33.553  24.033  22.948  1.00  0.00     0.259 A 
BRANCH  87  88
ATOM     88  C   UNL A   1      33.607  22.802  23.712  1.00  0.00     0.052 A 
ATOM     89  C   UNL A   1      32.403  22.139  24.011  1.00  0.00     0.014 A 
ATOM     90  C   UNL A   1      34.831  22.230  24.115  1.00  0.00     0.068 A 
ATOM     91  C   UNL A   1      32.407  20.916  24.682  1.00  0.00     0.001 A 
ATOM     92  C   UNL A   1      34.814  20.991  24.786  1.00  0.00     0.014 A 
ATOM     93  C   UNL A   1      33.612  20.340  25.065  1.00  0.00     0.001 A 
BRANCH  90  94
ATOM     94  C   UNL A   1      36.175  22.872  23.848  1.00  0.00     0.417 C 
ATOM     95  F   UNL A   1      36.289  24.083  24.471  1.00  0.00    -0.166 F 
ATOM     96  F   UNL A   1      37.211  22.124  24.315  1.00  0.00    -0.166 F 
ATOM     97  F   UNL A   1      36.445  23.134  22.542  1.00  0.00    -0.166 F 
ENDBRANCH  90  94
ENDBRANCH  87  88
ENDBRANCH  80  83
ENDBRANCH  78  79
ENDBRANCH  77  78
ENDBRANCH  76  77
ENDBRANCH   1  76
TORSDOF 18
ENDMDL
