MODEL 1
REMARK VINA RESULT:     -10.4      0.000      0.000
REMARK SMILES COC(=O)[C@H]1CCN(C(=O)N[C@H](C(=O)NCCCCCCNC(=O)c2ccc(-c3c4nc(c(-c5c(F)cc(S(=O)(=O)[O-])cc5F)c5ccc([nH]5)c(-c5c(F)cc(S(=O)(=O)[O-])cc5F)c5nc(c(-c6c(F)cc(S(=O)(=O)[O-])cc6F)c6ccc3[nH]6)C=C5)C=C4)cc2)C2CC2)C1
REMARK SMILES IDX 18 1 17 2 16 3 15 4 13 5 14 6 12 8 11 9 9 10 10 11 8 13 5 14
REMARK SMILES IDX 6 15 94 16 7 17 3 18 4 19 2 20 1 21 91 22 92 23 93 24 19 25
REMARK SMILES IDX 20 26 21 27 22 28 23 29 24 31 25 32 26 33 90 34 27 35 89 36
REMARK SMILES IDX 28 37 29 38 30 39 83 40 31 41 88 42 82 43 84 44 32 45 87 46
REMARK SMILES IDX 81 47 80 48 33 50 67 51 46 52 66 53 47 54 50 55 65 56 85 57
REMARK SMILES IDX 48 58 49 59 64 61 86 62 51 63 34 64 35 65 44 66 36 67 37 68
REMARK SMILES IDX 43 69 45 70 38 71 39 72 40 73 41 74 42 75 68 76 69 77 78 78
REMARK SMILES IDX 70 79 71 80 77 81 79 82 72 83 73 84 74 85 75 86 76 87 52 88
REMARK SMILES IDX 53 89 62 90 54 91 55 92 61 93 63 94 56 95 57 96 58 97 59 98
REMARK SMILES IDX 60 99
REMARK H PARENT 15 7 11 12 22 30 84 49 50 60
REMARK Flexibility Score: inf
ROOT
ATOM      1  C   UNL A   1      32.493  29.991  26.973  1.00  0.00     0.002 C 
ENDROOT
BRANCH   1   2
ATOM      2  C   UNL A   1      31.644  28.769  27.344  1.00  0.00     0.021 C 
BRANCH   2   3
ATOM      3  C   UNL A   1      32.146  27.424  26.822  1.00  0.00     0.116 C 
BRANCH   3   4
ATOM      4  N   UNL A   1      31.136  26.387  26.829  1.00  0.00    -0.354 N 
ATOM      5  C   UNL A   1      31.137  25.175  26.201  1.00  0.00     0.242 C 
ATOM      6  O   UNL A   1      30.244  24.373  26.494  1.00  0.00    -0.273 OA
ATOM      7  H   UNL A   1      30.333  26.583  27.365  1.00  0.00     0.163 HD
BRANCH   5   8
ATOM      8  C   UNL A   1      32.163  24.867  25.064  1.00  0.00     0.176 C 
BRANCH   8   9
ATOM      9  N   UNL A   1      32.293  23.410  25.053  1.00  0.00    -0.326 N 
ATOM     10  C   UNL A   1      33.249  22.508  24.795  1.00  0.00     0.318 C 
ATOM     11  O   UNL A   1      32.879  21.331  24.711  1.00  0.00    -0.249 OA
ATOM     12  H   UNL A   1      31.448  22.973  25.307  1.00  0.00     0.166 HD
BRANCH  10  13
ATOM     13  N   UNL A   1      34.542  22.840  24.555  1.00  0.00    -0.324 N 
ATOM     14  C   UNL A   1      36.888  22.756  24.958  1.00  0.00     0.120 C 
ATOM     15  C   UNL A   1      36.595  22.847  23.460  1.00  0.00     0.039 C 
ATOM     16  C   UNL A   1      35.517  22.652  25.624  1.00  0.00     0.136 C 
ATOM     17  C   UNL A   1      35.200  23.448  23.418  1.00  0.00     0.122 C 
BRANCH  14  18
ATOM     18  C   UNL A   1      37.783  21.591  25.311  1.00  0.00     0.310 C 
ATOM     19  O   UNL A   1      37.522  20.432  25.015  1.00  0.00    -0.252 OA
BRANCH  18  20
ATOM     20  O   UNL A   1      38.886  21.984  26.003  1.00  0.00    -0.469 OA
ATOM     21  C   UNL A   1      38.869  23.355  26.408  1.00  0.00     0.282 C 
ENDBRANCH  18  20
ENDBRANCH  14  18
ENDBRANCH  10  13
ENDBRANCH   8   9
BRANCH   8  22
ATOM     22  C   UNL A   1      31.595  25.408  23.763  1.00  0.00     0.021 C 
ATOM     23  C   UNL A   1      32.261  26.560  23.044  1.00  0.00     0.006 C 
ATOM     24  C   UNL A   1      32.215  25.207  22.398  1.00  0.00     0.006 C 
ENDBRANCH   8  22
ENDBRANCH   5   8
ENDBRANCH   3   4
ENDBRANCH   2   3
ENDBRANCH   1   2
BRANCH   1  25
ATOM     25  C   UNL A   1      33.918  29.709  26.483  1.00  0.00     0.002 C 
BRANCH  25  26
ATOM     26  C   UNL A   1      34.989  29.580  27.569  1.00  0.00     0.021 C 
BRANCH  26  27
ATOM     27  C   UNL A   1      35.471  30.893  28.174  1.00  0.00     0.116 C 
BRANCH  27  28
ATOM     28  N   UNL A   1      35.423  30.889  29.626  1.00  0.00    -0.352 N 
ATOM     29  C   UNL A   1      36.370  30.478  30.533  1.00  0.00     0.251 C 
ATOM     30  H   UNL A   1      34.589  31.233  30.018  1.00  0.00     0.163 HD
ATOM     31  O   UNL A   1      36.072  30.394  31.722  1.00  0.00    -0.269 OA
BRANCH  29  32
ATOM     32  C   UNL A   1      37.736  30.114  30.087  1.00  0.00     0.039 A 
ATOM     33  C   UNL A   1      38.648  29.635  31.030  1.00  0.00     0.014 A 
ATOM     34  C   UNL A   1      38.131  30.272  28.755  1.00  0.00     0.014 A 
ATOM     35  C   UNL A   1      39.937  29.266  30.630  1.00  0.00     0.010 A 
ATOM     36  C   UNL A   1      39.389  29.835  28.344  1.00  0.00     0.010 A 
ATOM     37  C   UNL A   1      40.311  29.338  29.278  1.00  0.00    -0.014 A 
BRANCH  37  38
ATOM     38  C   UNL A   1      41.665  28.919  28.828  1.00  0.00     0.031 A 
ATOM     39  C   UNL A   1      42.775  29.931  28.725  1.00  0.00     0.074 A 
ATOM     40  C   UNL A   1      41.883  27.640  28.460  1.00  0.00     0.049 A 
ATOM     41  N   UNL A   1      44.000  29.774  28.292  1.00  0.00    -0.248 NA
ATOM     42  C   UNL A   1      42.458  31.309  29.135  1.00  0.00     0.031 C 
ATOM     43  C   UNL A   1      40.880  26.574  28.472  1.00  0.00     0.029 A 
ATOM     44  N   UNL A   1      43.018  27.022  27.996  1.00  0.00    -0.354 N 
ATOM     45  C   UNL A   1      44.593  31.030  28.364  1.00  0.00     0.074 A 
ATOM     46  C   UNL A   1      43.577  31.949  28.829  1.00  0.00     0.031 C 
ATOM     47  C   UNL A   1      41.448  25.430  28.055  1.00  0.00     0.029 A 
ATOM     48  C   UNL A   1      42.844  25.687  27.714  1.00  0.00     0.049 A 
ATOM     49  H   UNL A   1      43.875  27.490  27.876  1.00  0.00     0.167 HD
ATOM     50  C   UNL A   1      45.873  31.382  28.091  1.00  0.00     0.037 A 
ATOM     51  C   UNL A   1      43.710  24.773  27.230  1.00  0.00     0.037 A 
ATOM     52  C   UNL A   1      46.888  30.458  27.657  1.00  0.00     0.049 A 
ATOM     53  C   UNL A   1      45.128  25.185  26.944  1.00  0.00     0.074 A 
ATOM     54  C   UNL A   1      48.227  30.706  27.407  1.00  0.00     0.029 A 
ATOM     55  N   UNL A   1      46.679  29.109  27.412  1.00  0.00    -0.354 N 
ATOM     56  N   UNL A   1      45.685  26.367  27.071  1.00  0.00    -0.248 NA
ATOM     57  C   UNL A   1      46.039  24.140  26.458  1.00  0.00     0.031 C 
ATOM     58  C   UNL A   1      48.818  29.516  26.970  1.00  0.00     0.029 A 
ATOM     59  C   UNL A   1      47.861  28.514  26.998  1.00  0.00     0.049 A 
ATOM     60  H   UNL A   1      45.819  28.642  27.517  1.00  0.00     0.167 HD
ATOM     61  C   UNL A   1      47.019  26.198  26.713  1.00  0.00     0.074 A 
ATOM     62  C   UNL A   1      47.186  24.801  26.372  1.00  0.00     0.031 C 
ATOM     63  C   UNL A   1      48.016  27.118  26.674  1.00  0.00     0.037 A 
BRANCH  50  64
ATOM     64  C   UNL A   1      46.248  32.830  28.259  1.00  0.00     0.058 A 
ATOM     65  C   UNL A   1      46.127  33.751  27.206  1.00  0.00     0.135 A 
ATOM     66  C   UNL A   1      46.704  33.311  29.497  1.00  0.00     0.135 A 
ATOM     67  F   UNL A   1      45.710  33.344  25.997  1.00  0.00    -0.206 F 
ATOM     68  C   UNL A   1      46.476  35.088  27.363  1.00  0.00     0.059 A 
ATOM     69  C   UNL A   1      47.031  34.650  29.686  1.00  0.00     0.059 A 
ATOM     70  F   UNL A   1      46.838  32.476  30.540  1.00  0.00    -0.206 F 
ATOM     71  C   UNL A   1      46.929  35.529  28.609  1.00  0.00     0.060 A 
BRANCH  71  72
ATOM     72  S   UNL A   1      47.379  37.267  28.796  1.00  0.00     0.124 S 
ATOM     73  O   UNL A   1      48.837  37.196  28.741  1.00  0.00    -0.237 OA
ATOM     74  O   UNL A   1      46.731  37.884  27.644  1.00  0.00    -0.237 OA
ATOM     75  O   UNL A   1      46.817  37.625  30.095  1.00  0.00    -0.744 OA
ENDBRANCH  71  72
ENDBRANCH  50  64
BRANCH  51  76
ATOM     76  C   UNL A   1      43.265  23.370  27.014  1.00  0.00     0.058 A 
ATOM     77  C   UNL A   1      42.824  22.941  25.753  1.00  0.00     0.135 A 
ATOM     78  C   UNL A   1      43.282  22.430  28.055  1.00  0.00     0.135 A 
ATOM     79  F   UNL A   1      42.785  23.804  24.726  1.00  0.00    -0.206 F 
ATOM     80  C   UNL A   1      42.398  21.634  25.536  1.00  0.00     0.059 A 
ATOM     81  C   UNL A   1      42.885  21.111  27.856  1.00  0.00     0.059 A 
ATOM     82  F   UNL A   1      43.712  22.785  29.276  1.00  0.00    -0.206 F 
ATOM     83  C   UNL A   1      42.434  20.726  26.595  1.00  0.00     0.060 A 
BRANCH  83  84
ATOM     84  S   UNL A   1      41.923  19.020  26.291  1.00  0.00     0.124 S 
ATOM     85  O   UNL A   1      42.964  18.560  25.379  1.00  0.00    -0.237 OA
ATOM     86  O   UNL A   1      41.950  18.448  27.633  1.00  0.00    -0.237 OA
ATOM     87  O   UNL A   1      40.593  19.169  25.709  1.00  0.00    -0.744 OA
ENDBRANCH  83  84
ENDBRANCH  51  76
BRANCH  63  88
ATOM     88  C   UNL A   1      49.388  26.636  26.292  1.00  0.00     0.058 A 
ATOM     89  C   UNL A   1      49.856  26.699  24.971  1.00  0.00     0.135 A 
ATOM     90  C   UNL A   1      50.266  26.150  27.276  1.00  0.00     0.135 A 
ATOM     91  F   UNL A   1      49.056  27.152  23.992  1.00  0.00    -0.206 F 
ATOM     92  C   UNL A   1      51.136  26.271  24.632  1.00  0.00     0.059 A 
ATOM     93  C   UNL A   1      51.559  25.744  26.965  1.00  0.00     0.059 A 
ATOM     94  F   UNL A   1      49.872  26.079  28.558  1.00  0.00    -0.206 F 
ATOM     95  C   UNL A   1      51.981  25.796  25.637  1.00  0.00     0.060 A 
BRANCH  95  96
ATOM     96  S   UNL A   1      53.649  25.270  25.190  1.00  0.00     0.124 S 
ATOM     97  O   UNL A   1      54.457  25.994  26.165  1.00  0.00    -0.237 OA
ATOM     98  O   UNL A   1      53.579  23.823  25.373  1.00  0.00    -0.237 OA
ATOM     99  O   UNL A   1      53.786  25.714  23.806  1.00  0.00    -0.744 OA
ENDBRANCH  95  96
ENDBRANCH  63  88
ENDBRANCH  37  38
ENDBRANCH  29  32
ENDBRANCH  27  28
ENDBRANCH  26  27
ENDBRANCH  25  26
ENDBRANCH   1  25
TORSDOF 21
ENDMDL
MODEL 2
REMARK VINA RESULT:     -10.1      1.436      3.212
REMARK SMILES COC(=O)[C@H]1CCN(C(=O)N[C@H](C(=O)NCCCCCCNC(=O)c2ccc(-c3c4nc(c(-c5c(F)cc(S(=O)(=O)[O-])cc5F)c5ccc([nH]5)c(-c5c(F)cc(S(=O)(=O)[O-])cc5F)c5nc(c(-c6c(F)cc(S(=O)(=O)[O-])cc6F)c6ccc3[nH]6)C=C5)C=C4)cc2)C2CC2)C1
REMARK SMILES IDX 18 1 17 2 16 3 15 4 13 5 14 6 12 8 11 9 9 10 10 11 8 13 5 14
REMARK SMILES IDX 6 15 94 16 7 17 3 18 4 19 2 20 1 21 91 22 92 23 93 24 19 25
REMARK SMILES IDX 20 26 21 27 22 28 23 29 24 31 25 32 26 33 90 34 27 35 89 36
REMARK SMILES IDX 28 37 29 38 30 39 83 40 31 41 88 42 82 43 84 44 32 45 87 46
REMARK SMILES IDX 81 47 80 48 33 50 67 51 46 52 66 53 47 54 50 55 65 56 85 57
REMARK SMILES IDX 48 58 49 59 64 61 86 62 51 63 34 64 35 65 44 66 36 67 37 68
REMARK SMILES IDX 43 69 45 70 38 71 39 72 40 73 41 74 42 75 68 76 69 77 78 78
REMARK SMILES IDX 70 79 71 80 77 81 79 82 72 83 73 84 74 85 75 86 76 87 52 88
REMARK SMILES IDX 53 89 62 90 54 91 55 92 61 93 63 94 56 95 57 96 58 97 59 98
REMARK SMILES IDX 60 99
REMARK H PARENT 15 7 11 12 22 30 84 49 50 60
REMARK Flexibility Score: inf
ROOT
ATOM      1  C   UNL A   1      32.164  29.428  27.273  1.00  0.00     0.002 C 
ENDROOT
BRANCH   1   2
ATOM      2  C   UNL A   1      31.726  27.965  27.424  1.00  0.00     0.021 C 
BRANCH   2   3
ATOM      3  C   UNL A   1      31.965  27.069  26.212  1.00  0.00     0.116 C 
BRANCH   3   4
ATOM      4  N   UNL A   1      33.175  26.280  26.304  1.00  0.00    -0.354 N 
ATOM      5  C   UNL A   1      33.501  25.119  25.665  1.00  0.00     0.242 C 
ATOM      6  O   UNL A   1      34.665  24.715  25.759  1.00  0.00    -0.273 OA
ATOM      7  H   UNL A   1      33.862  26.631  26.915  1.00  0.00     0.163 HD
BRANCH   5   8
ATOM      8  C   UNL A   1      32.405  24.272  24.941  1.00  0.00     0.176 C 
BRANCH   8   9
ATOM      9  N   UNL A   1      32.938  24.026  23.601  1.00  0.00    -0.326 N 
ATOM     10  C   UNL A   1      33.047  24.695  22.446  1.00  0.00     0.318 C 
ATOM     11  O   UNL A   1      33.399  24.032  21.464  1.00  0.00    -0.249 OA
ATOM     12  H   UNL A   1      33.323  23.122  23.529  1.00  0.00     0.166 HD
BRANCH  10  13
ATOM     13  N   UNL A   1      32.720  26.004  22.310  1.00  0.00    -0.324 N 
ATOM     14  C   UNL A   1      31.198  27.821  22.069  1.00  0.00     0.120 C 
ATOM     15  C   UNL A   1      32.386  28.216  22.949  1.00  0.00     0.039 C 
ATOM     16  C   UNL A   1      31.411  26.339  21.761  1.00  0.00     0.136 C 
ATOM     17  C   UNL A   1      33.462  27.225  22.540  1.00  0.00     0.122 C 
BRANCH  14  18
ATOM     18  C   UNL A   1      29.866  28.080  22.732  1.00  0.00     0.310 C 
ATOM     19  O   UNL A   1      29.530  27.561  23.789  1.00  0.00    -0.252 OA
BRANCH  18  20
ATOM     20  O   UNL A   1      29.092  28.934  22.009  1.00  0.00    -0.469 OA
ATOM     21  C   UNL A   1      29.599  30.269  21.936  1.00  0.00     0.282 C 
ENDBRANCH  18  20
ENDBRANCH  14  18
ENDBRANCH  10  13
ENDBRANCH   8   9
BRANCH   8  22
ATOM     22  C   UNL A   1      32.209  22.989  25.731  1.00  0.00     0.021 C 
ATOM     23  C   UNL A   1      31.286  22.950  26.930  1.00  0.00     0.006 C 
ATOM     24  C   UNL A   1      30.955  22.143  25.709  1.00  0.00     0.006 C 
ENDBRANCH   8  22
ENDBRANCH   5   8
ENDBRANCH   3   4
ENDBRANCH   2   3
ENDBRANCH   1   2
BRANCH   1  25
ATOM     25  C   UNL A   1      33.495  29.670  26.553  1.00  0.00     0.002 C 
BRANCH  25  26
ATOM     26  C   UNL A   1      34.761  29.399  27.371  1.00  0.00     0.021 C 
BRANCH  26  27
ATOM     27  C   UNL A   1      35.471  30.635  27.911  1.00  0.00     0.116 C 
BRANCH  27  28
ATOM     28  N   UNL A   1      35.397  30.733  29.358  1.00  0.00    -0.352 N 
ATOM     29  C   UNL A   1      36.316  30.361  30.310  1.00  0.00     0.251 C 
ATOM     30  H   UNL A   1      34.565  31.125  29.709  1.00  0.00     0.163 HD
ATOM     31  O   UNL A   1      35.995  30.368  31.496  1.00  0.00    -0.269 OA
BRANCH  29  32
ATOM     32  C   UNL A   1      37.679  29.932  29.916  1.00  0.00     0.039 A 
ATOM     33  C   UNL A   1      38.034  29.972  28.565  1.00  0.00     0.014 A 
ATOM     34  C   UNL A   1      38.595  29.463  30.863  1.00  0.00     0.014 A 
ATOM     35  C   UNL A   1      39.321  29.591  28.171  1.00  0.00     0.010 A 
ATOM     36  C   UNL A   1      39.899  29.155  30.479  1.00  0.00     0.010 A 
ATOM     37  C   UNL A   1      40.274  29.204  29.127  1.00  0.00    -0.014 A 
BRANCH  37  38
ATOM     38  C   UNL A   1      41.658  28.829  28.731  1.00  0.00     0.031 A 
ATOM     39  C   UNL A   1      42.744  29.872  28.696  1.00  0.00     0.074 A 
ATOM     40  C   UNL A   1      41.926  27.563  28.351  1.00  0.00     0.049 A 
ATOM     41  N   UNL A   1      43.990  29.755  28.316  1.00  0.00    -0.248 NA
ATOM     42  C   UNL A   1      42.371  31.232  29.115  1.00  0.00     0.031 C 
ATOM     43  C   UNL A   1      40.953  26.471  28.299  1.00  0.00     0.029 A 
ATOM     44  N   UNL A   1      43.097  26.984  27.928  1.00  0.00    -0.354 N 
ATOM     45  C   UNL A   1      44.546  31.024  28.437  1.00  0.00     0.074 A 
ATOM     46  C   UNL A   1      43.485  31.908  28.871  1.00  0.00     0.031 C 
ATOM     47  C   UNL A   1      41.569  25.350  27.889  1.00  0.00     0.029 A 
ATOM     48  C   UNL A   1      42.972  25.650  27.615  1.00  0.00     0.049 A 
ATOM     49  H   UNL A   1      43.946  27.476  27.855  1.00  0.00     0.167 HD
ATOM     50  C   UNL A   1      45.826  31.415  28.228  1.00  0.00     0.037 A 
ATOM     51  C   UNL A   1      43.883  24.768  27.156  1.00  0.00     0.037 A 
ATOM     52  C   UNL A   1      46.884  30.526  27.824  1.00  0.00     0.049 A 
ATOM     53  C   UNL A   1      45.301  25.223  26.941  1.00  0.00     0.074 A 
ATOM     54  C   UNL A   1      48.226  30.813  27.640  1.00  0.00     0.029 A 
ATOM     55  N   UNL A   1      46.723  29.176  27.546  1.00  0.00    -0.354 N 
ATOM     56  N   UNL A   1      45.820  26.416  27.113  1.00  0.00    -0.248 NA
ATOM     57  C   UNL A   1      46.261  24.211  26.478  1.00  0.00     0.031 C 
ATOM     58  C   UNL A   1      48.868  29.647  27.209  1.00  0.00     0.029 A 
ATOM     59  C   UNL A   1      47.938  28.620  27.176  1.00  0.00     0.049 A 
ATOM     60  H   UNL A   1      45.872  28.685  27.604  1.00  0.00     0.167 HD
ATOM     61  C   UNL A   1      47.172  26.289  26.813  1.00  0.00     0.074 A 
ATOM     62  C   UNL A   1      47.392  24.903  26.456  1.00  0.00     0.031 C 
ATOM     63  C   UNL A   1      48.145  27.235  26.835  1.00  0.00     0.037 A 
BRANCH  50  64
ATOM     64  C   UNL A   1      46.155  32.868  28.438  1.00  0.00     0.058 A 
ATOM     65  C   UNL A   1      46.054  33.806  27.397  1.00  0.00     0.135 A 
ATOM     66  C   UNL A   1      46.544  33.338  29.703  1.00  0.00     0.135 A 
ATOM     67  F   UNL A   1      45.700  33.411  26.164  1.00  0.00    -0.206 F 
ATOM     68  C   UNL A   1      46.359  35.148  27.593  1.00  0.00     0.059 A 
ATOM     69  C   UNL A   1      46.825  34.681  29.930  1.00  0.00     0.059 A 
ATOM     70  F   UNL A   1      46.655  32.487  30.735  1.00  0.00    -0.206 F 
ATOM     71  C   UNL A   1      46.746  35.577  28.865  1.00  0.00     0.060 A 
BRANCH  71  72
ATOM     72  S   UNL A   1      47.140  37.323  29.103  1.00  0.00     0.124 S 
ATOM     73  O   UNL A   1      47.770  37.654  27.828  1.00  0.00    -0.237 OA
ATOM     74  O   UNL A   1      45.826  37.912  29.331  1.00  0.00    -0.237 OA
ATOM     75  O   UNL A   1      48.031  37.315  30.259  1.00  0.00    -0.744 OA
ENDBRANCH  71  72
ENDBRANCH  50  64
BRANCH  51  76
ATOM     76  C   UNL A   1      43.486  23.359  26.895  1.00  0.00     0.058 A 
ATOM     77  C   UNL A   1      43.144  22.499  27.950  1.00  0.00     0.135 A 
ATOM     78  C   UNL A   1      43.431  22.845  25.590  1.00  0.00     0.135 A 
ATOM     79  F   UNL A   1      43.186  22.942  29.216  1.00  0.00    -0.206 F 
ATOM     80  C   UNL A   1      42.778  21.176  27.723  1.00  0.00     0.059 A 
ATOM     81  C   UNL A   1      43.044  21.534  25.336  1.00  0.00     0.059 A 
ATOM     82  F   UNL A   1      43.732  23.631  24.545  1.00  0.00    -0.206 F 
ATOM     83  C   UNL A   1      42.730  20.703  26.411  1.00  0.00     0.060 A 
BRANCH  83  84
ATOM     84  S   UNL A   1      42.209  18.998  26.124  1.00  0.00     0.124 S 
ATOM     85  O   UNL A   1      43.016  18.635  24.964  1.00  0.00    -0.237 OA
ATOM     86  O   UNL A   1      42.570  18.351  27.381  1.00  0.00    -0.237 OA
ATOM     87  O   UNL A   1      40.775  19.123  25.882  1.00  0.00    -0.744 OA
ENDBRANCH  83  84
ENDBRANCH  51  76
BRANCH  63  88
ATOM     88  C   UNL A   1      49.545  26.797  26.508  1.00  0.00     0.058 A 
ATOM     89  C   UNL A   1      50.036  26.802  25.193  1.00  0.00     0.135 A 
ATOM     90  C   UNL A   1      50.424  26.413  27.534  1.00  0.00     0.135 A 
ATOM     91  F   UNL A   1      49.236  27.155  24.174  1.00  0.00    -0.206 F 
ATOM     92  C   UNL A   1      51.341  26.415  24.903  1.00  0.00     0.059 A 
ATOM     93  C   UNL A   1      51.741  26.050  27.271  1.00  0.00     0.059 A 
ATOM     94  F   UNL A   1      50.009  26.402  28.811  1.00  0.00    -0.206 F 
ATOM     95  C   UNL A   1      52.186  26.042  25.950  1.00  0.00     0.060 A 
BRANCH  95  96
ATOM     96  S   UNL A   1      53.886  25.569  25.565  1.00  0.00     0.124 S 
ATOM     97  O   UNL A   1      54.393  25.197  26.881  1.00  0.00    -0.237 OA
ATOM     98  O   UNL A   1      53.698  24.469  24.623  1.00  0.00    -0.237 OA
ATOM     99  O   UNL A   1      54.455  26.785  24.992  1.00  0.00    -0.744 OA
ENDBRANCH  95  96
ENDBRANCH  63  88
ENDBRANCH  37  38
ENDBRANCH  29  32
ENDBRANCH  27  28
ENDBRANCH  26  27
ENDBRANCH  25  26
ENDBRANCH   1  25
TORSDOF 21
ENDMDL
MODEL 3
REMARK VINA RESULT:     -10.0      2.442      8.641
REMARK SMILES COC(=O)[C@H]1CCN(C(=O)N[C@H](C(=O)NCCCCCCNC(=O)c2ccc(-c3c4nc(c(-c5c(F)cc(S(=O)(=O)[O-])cc5F)c5ccc([nH]5)c(-c5c(F)cc(S(=O)(=O)[O-])cc5F)c5nc(c(-c6c(F)cc(S(=O)(=O)[O-])cc6F)c6ccc3[nH]6)C=C5)C=C4)cc2)C2CC2)C1
REMARK SMILES IDX 18 1 17 2 16 3 15 4 13 5 14 6 12 8 11 9 9 10 10 11 8 13 5 14
REMARK SMILES IDX 6 15 94 16 7 17 3 18 4 19 2 20 1 21 91 22 92 23 93 24 19 25
REMARK SMILES IDX 20 26 21 27 22 28 23 29 24 31 25 32 26 33 90 34 27 35 89 36
REMARK SMILES IDX 28 37 29 38 30 39 83 40 31 41 88 42 82 43 84 44 32 45 87 46
REMARK SMILES IDX 81 47 80 48 33 50 67 51 46 52 66 53 47 54 50 55 65 56 85 57
REMARK SMILES IDX 48 58 49 59 64 61 86 62 51 63 34 64 35 65 44 66 36 67 37 68
REMARK SMILES IDX 43 69 45 70 38 71 39 72 40 73 41 74 42 75 68 76 69 77 78 78
REMARK SMILES IDX 70 79 71 80 77 81 79 82 72 83 73 84 74 85 75 86 76 87 52 88
REMARK SMILES IDX 53 89 62 90 54 91 55 92 61 93 63 94 56 95 57 96 58 97 59 98
REMARK SMILES IDX 60 99
REMARK H PARENT 15 7 11 12 22 30 84 49 50 60
REMARK Flexibility Score: inf
ROOT
ATOM      1  C   UNL A   1      37.296  22.340  25.728  1.00  0.00     0.002 C 
ENDROOT
BRANCH   1   2
ATOM      2  C   UNL A   1      36.766  21.952  24.341  1.00  0.00     0.021 C 
BRANCH   2   3
ATOM      3  C   UNL A   1      35.811  22.949  23.690  1.00  0.00     0.116 C 
BRANCH   3   4
ATOM      4  N   UNL A   1      35.562  24.124  24.497  1.00  0.00    -0.354 N 
ATOM      5  C   UNL A   1      34.389  24.785  24.722  1.00  0.00     0.242 C 
ATOM      6  O   UNL A   1      34.379  25.662  25.593  1.00  0.00    -0.273 OA
ATOM      7  H   UNL A   1      36.351  24.500  24.950  1.00  0.00     0.163 HD
BRANCH   5   8
ATOM      8  C   UNL A   1      33.139  24.522  23.822  1.00  0.00     0.176 C 
BRANCH   8   9
ATOM      9  N   UNL A   1      32.003  24.503  24.744  1.00  0.00    -0.326 N 
ATOM     10  C   UNL A   1      31.500  23.676  25.671  1.00  0.00     0.318 C 
ATOM     11  O   UNL A   1      30.376  23.960  26.100  1.00  0.00    -0.249 OA
ATOM     12  H   UNL A   1      31.462  25.321  24.663  1.00  0.00     0.166 HD
BRANCH  10  13
ATOM     13  N   UNL A   1      32.126  22.544  26.077  1.00  0.00    -0.324 N 
ATOM     14  C   UNL A   1      32.871  20.296  25.821  1.00  0.00     0.120 C 
ATOM     15  C   UNL A   1      33.903  21.130  26.582  1.00  0.00     0.039 C 
ATOM     16  C   UNL A   1      31.777  21.286  25.426  1.00  0.00     0.136 C 
ATOM     17  C   UNL A   1      33.078  22.279  27.134  1.00  0.00     0.122 C 
BRANCH  14  18
ATOM     18  C   UNL A   1      33.457  19.586  24.624  1.00  0.00     0.310 C 
ATOM     19  O   UNL A   1      34.574  19.084  24.622  1.00  0.00    -0.252 OA
BRANCH  18  20
ATOM     20  O   UNL A   1      32.609  19.590  23.560  1.00  0.00    -0.469 OA
ATOM     21  C   UNL A   1      32.526  18.342  22.869  1.00  0.00     0.282 C 
ENDBRANCH  18  20
ENDBRANCH  14  18
ENDBRANCH  10  13
ENDBRANCH   8   9
BRANCH   8  22
ATOM     22  C   UNL A   1      33.046  25.652  22.811  1.00  0.00     0.021 C 
ATOM     23  C   UNL A   1      32.972  25.361  21.328  1.00  0.00     0.006 C 
ATOM     24  C   UNL A   1      31.806  26.004  22.019  1.00  0.00     0.006 C 
ENDBRANCH   8  22
ENDBRANCH   5   8
ENDBRANCH   3   4
ENDBRANCH   2   3
ENDBRANCH   1   2
BRANCH   1  25
ATOM     25  C   UNL A   1      38.819  22.413  25.881  1.00  0.00     0.002 C 
BRANCH  25  26
ATOM     26  C   UNL A   1      39.496  21.171  26.468  1.00  0.00     0.021 C 
BRANCH  26  27
ATOM     27  C   UNL A   1      39.675  20.004  25.505  1.00  0.00     0.116 C 
BRANCH  27  28
ATOM     28  N   UNL A   1      40.680  19.057  25.957  1.00  0.00    -0.352 N 
ATOM     29  C   UNL A   1      41.975  19.278  26.361  1.00  0.00     0.251 C 
ATOM     30  H   UNL A   1      40.389  18.117  25.979  1.00  0.00     0.163 HD
ATOM     31  O   UNL A   1      42.723  18.321  26.544  1.00  0.00    -0.269 OA
BRANCH  29  32
ATOM     32  C   UNL A   1      42.480  20.658  26.553  1.00  0.00     0.039 A 
ATOM     33  C   UNL A   1      42.904  21.383  25.436  1.00  0.00     0.014 A 
ATOM     34  C   UNL A   1      42.567  21.229  27.827  1.00  0.00     0.014 A 
ATOM     35  C   UNL A   1      43.367  22.694  25.590  1.00  0.00     0.010 A 
ATOM     36  C   UNL A   1      42.957  22.560  27.970  1.00  0.00     0.010 A 
ATOM     37  C   UNL A   1      43.372  23.304  26.855  1.00  0.00    -0.014 A 
BRANCH  37  38
ATOM     38  C   UNL A   1      43.827  24.709  27.033  1.00  0.00     0.031 A 
ATOM     39  C   UNL A   1      45.278  25.064  26.838  1.00  0.00     0.074 A 
ATOM     40  C   UNL A   1      42.948  25.654  27.424  1.00  0.00     0.049 A 
ATOM     41  N   UNL A   1      45.878  26.214  27.011  1.00  0.00    -0.248 NA
ATOM     42  C   UNL A   1      46.178  23.977  26.422  1.00  0.00     0.031 C 
ATOM     43  C   UNL A   1      41.526  25.429  27.689  1.00  0.00     0.029 A 
ATOM     44  N   UNL A   1      43.124  26.993  27.674  1.00  0.00    -0.354 N 
ATOM     45  C   UNL A   1      47.222  25.987  26.739  1.00  0.00     0.074 A 
ATOM     46  C   UNL A   1      47.360  24.577  26.446  1.00  0.00     0.031 C 
ATOM     47  C   UNL A   1      40.955  26.592  28.044  1.00  0.00     0.029 A 
ATOM     48  C   UNL A   1      41.974  27.637  28.067  1.00  0.00     0.049 A 
ATOM     49  H   UNL A   1      43.992  27.449  27.581  1.00  0.00     0.167 HD
ATOM     50  C   UNL A   1      48.246  26.874  26.714  1.00  0.00     0.037 A 
ATOM     51  C   UNL A   1      41.764  28.924  28.410  1.00  0.00     0.037 A 
ATOM     52  C   UNL A   1      48.100  28.282  26.979  1.00  0.00     0.049 A 
ATOM     53  C   UNL A   1      42.915  29.893  28.365  1.00  0.00     0.074 A 
ATOM     54  C   UNL A   1      49.065  29.272  26.924  1.00  0.00     0.029 A 
ATOM     55  N   UNL A   1      46.913  28.900  27.344  1.00  0.00    -0.354 N 
ATOM     56  N   UNL A   1      44.169  29.670  28.052  1.00  0.00    -0.248 NA
ATOM     57  C   UNL A   1      42.621  31.291  28.710  1.00  0.00     0.031 C 
ATOM     58  C   UNL A   1      48.472  30.483  27.298  1.00  0.00     0.029 A 
ATOM     59  C   UNL A   1      47.124  30.257  27.533  1.00  0.00     0.049 A 
ATOM     60  H   UNL A   1      46.048  28.443  27.451  1.00  0.00     0.167 HD
ATOM     61  C   UNL A   1      44.805  30.904  28.130  1.00  0.00     0.074 A 
ATOM     62  C   UNL A   1      43.796  31.870  28.511  1.00  0.00     0.031 C 
ATOM     63  C   UNL A   1      46.108  31.210  27.902  1.00  0.00     0.037 A 
BRANCH  50  64
ATOM     64  C   UNL A   1      49.617  26.347  26.383  1.00  0.00     0.058 A 
ATOM     65  C   UNL A   1      50.415  25.708  27.346  1.00  0.00     0.135 A 
ATOM     66  C   UNL A   1      50.128  26.453  25.079  1.00  0.00     0.135 A 
ATOM     67  F   UNL A   1      49.983  25.591  28.612  1.00  0.00    -0.206 F 
ATOM     68  C   UNL A   1      51.681  25.224  27.039  1.00  0.00     0.059 A 
ATOM     69  C   UNL A   1      51.380  25.949  24.741  1.00  0.00     0.059 A 
ATOM     70  F   UNL A   1      49.408  27.053  24.118  1.00  0.00    -0.206 F 
ATOM     71  C   UNL A   1      52.157  25.350  25.732  1.00  0.00     0.060 A 
BRANCH  71  72
ATOM     72  S   UNL A   1      53.804  24.718  25.348  1.00  0.00     0.124 S 
ATOM     73  O   UNL A   1      54.499  24.934  26.614  1.00  0.00    -0.237 OA
ATOM     74  O   UNL A   1      53.532  23.326  25.006  1.00  0.00    -0.237 OA
ATOM     75  O   UNL A   1      54.241  25.560  24.240  1.00  0.00    -0.744 OA
ENDBRANCH  71  72
ENDBRANCH  50  64
BRANCH  51  76
ATOM     76  C   UNL A   1      40.402  29.376  28.800  1.00  0.00     0.058 A 
ATOM     77  C   UNL A   1      39.398  29.556  27.836  1.00  0.00     0.135 A 
ATOM     78  C   UNL A   1      40.071  29.626  30.141  1.00  0.00     0.135 A 
ATOM     79  F   UNL A   1      39.666  29.334  26.540  1.00  0.00    -0.206 F 
ATOM     80  C   UNL A   1      38.122  29.985  28.184  1.00  0.00     0.059 A 
ATOM     81  C   UNL A   1      38.795  30.031  30.516  1.00  0.00     0.059 A 
ATOM     82  F   UNL A   1      40.990  29.451  31.104  1.00  0.00    -0.206 F 
ATOM     83  C   UNL A   1      37.829  30.219  29.529  1.00  0.00     0.060 A 
BRANCH  83  84
ATOM     84  S   UNL A   1      36.155  30.731  29.975  1.00  0.00     0.124 S 
ATOM     85  O   UNL A   1      35.377  30.183  28.870  1.00  0.00    -0.237 OA
ATOM     86  O   UNL A   1      35.972  30.084  31.270  1.00  0.00    -0.237 OA
ATOM     87  O   UNL A   1      36.252  32.187  30.019  1.00  0.00    -0.744 OA
ENDBRANCH  83  84
ENDBRANCH  51  76
BRANCH  63  88
ATOM     88  C   UNL A   1      46.510  32.655  28.013  1.00  0.00     0.058 A 
ATOM     89  C   UNL A   1      47.081  33.178  29.183  1.00  0.00     0.135 A 
ATOM     90  C   UNL A   1      46.366  33.515  26.912  1.00  0.00     0.135 A 
ATOM     91  F   UNL A   1      47.237  32.399  30.265  1.00  0.00    -0.206 F 
ATOM     92  C   UNL A   1      47.470  34.511  29.268  1.00  0.00     0.059 A 
ATOM     93  C   UNL A   1      46.774  34.844  26.964  1.00  0.00     0.059 A 
ATOM     94  F   UNL A   1      45.836  33.062  25.764  1.00  0.00    -0.206 F 
ATOM     95  C   UNL A   1      47.313  35.336  28.152  1.00  0.00     0.060 A 
BRANCH  95  96
ATOM     96  S   UNL A   1      47.848  37.057  28.265  1.00  0.00     0.124 S 
ATOM     97  O   UNL A   1      49.277  36.939  28.000  1.00  0.00    -0.237 OA
ATOM     98  O   UNL A   1      47.058  37.698  27.218  1.00  0.00    -0.237 OA
ATOM     99  O   UNL A   1      47.491  37.435  29.630  1.00  0.00    -0.744 OA
ENDBRANCH  95  96
ENDBRANCH  63  88
ENDBRANCH  37  38
ENDBRANCH  29  32
ENDBRANCH  27  28
ENDBRANCH  26  27
ENDBRANCH  25  26
ENDBRANCH   1  25
TORSDOF 21
ENDMDL
