MODEL 1
REMARK VINA RESULT:     -11.2      0.000      0.000
REMARK SMILES COc1ccc(C(=O)N[C@H](C(=O)NCCCCCCNC(=O)c2ccc(-c3c4nc(c(-c5c(F)cc(S(=O)(=O)[O-])cc5F)c5ccc([nH]5)c(-c5c(F)cc(S(=O)(=O)[O-])cc5F)c5nc(c(-c6c(F)cc(S(=O)(=O)[O-])cc6F)c6ccc3[nH]6)C=C5)C=C4)cc2)C2=C(C)N=N[C@H]2C)c(F)c1F
REMARK SMILES IDX 16 1 15 2 14 3 13 4 11 5 12 6 10 8 9 9 7 10 8 11 6 13 3 14
REMARK SMILES IDX 4 15 98 16 5 17 96 18 99 19 97 20 2 21 1 22 89 23 90 24
REMARK SMILES IDX 94 25 91 26 92 27 93 28 95 29 17 30 18 31 19 32 20 33 21 34
REMARK SMILES IDX 22 36 23 37 24 38 88 39 25 40 87 41 26 42 27 43 28 44 81 45
REMARK SMILES IDX 29 46 86 47 80 48 82 49 30 50 85 51 79 52 78 53 31 55 65 56
REMARK SMILES IDX 44 57 64 58 45 59 48 60 63 61 83 62 46 63 47 64 62 66 84 67
REMARK SMILES IDX 49 68 32 69 33 70 42 71 34 72 35 73 41 74 43 75 36 76 37 77
REMARK SMILES IDX 38 78 39 79 40 80 66 81 67 82 76 83 68 84 69 85 75 86 77 87
REMARK SMILES IDX 70 88 71 89 72 90 73 91 74 92 50 93 51 94 60 95 52 96 53 97
REMARK SMILES IDX 59 98 61 99 54 100 55 101 56 102 57 103 58 104
REMARK H PARENT 13 7 9 12 20 35 82 54 48 65
REMARK Flexibility Score: inf
ROOT
ATOM      1  C   UNL A   1      37.283  22.609  25.579  1.00  0.00     0.002 C 
ENDROOT
BRANCH   1   2
ATOM      2  C   UNL A   1      36.090  23.395  26.128  1.00  0.00     0.021 C 
BRANCH   2   3
ATOM      3  C   UNL A   1      35.339  24.213  25.083  1.00  0.00     0.116 C 
BRANCH   3   4
ATOM      4  N   UNL A   1      35.112  25.580  25.514  1.00  0.00    -0.354 N 
ATOM      5  C   UNL A   1      33.964  26.324  25.517  1.00  0.00     0.247 C 
ATOM      6  O   UNL A   1      34.019  27.450  26.019  1.00  0.00    -0.272 OA
ATOM      7  H   UNL A   1      35.909  26.044  25.860  1.00  0.00     0.163 HD
BRANCH   5   8
ATOM      8  C   UNL A   1      32.661  25.760  24.895  1.00  0.00     0.202 C 
BRANCH   8   9
ATOM      9  N   UNL A   1      31.781  25.188  25.919  1.00  0.00    -0.336 N 
ATOM     10  C   UNL A   1      31.470  23.906  26.297  1.00  0.00     0.255 C 
ATOM     11  O   UNL A   1      30.650  23.777  27.208  1.00  0.00    -0.269 OA
ATOM     12  H   UNL A   1      31.310  25.871  26.450  1.00  0.00     0.165 HD
BRANCH  10  13
ATOM     13  C   UNL A   1      32.092  22.670  25.758  1.00  0.00     0.078 A 
ATOM     14  C   UNL A   1      33.308  20.260  24.931  1.00  0.00     0.157 A 
ATOM     15  C   UNL A   1      33.464  20.696  26.242  1.00  0.00     0.050 A 
ATOM     16  C   UNL A   1      32.543  21.016  24.047  1.00  0.00     0.201 A 
ATOM     17  C   UNL A   1      32.860  21.893  26.651  1.00  0.00     0.021 A 
ATOM     18  C   UNL A   1      31.898  22.177  24.475  1.00  0.00     0.175 A 
ATOM     19  F   UNL A   1      32.414  20.632  22.767  1.00  0.00    -0.200 F 
ATOM     20  F   UNL A   1      31.041  22.754  23.626  1.00  0.00    -0.203 F 
BRANCH  14  21
ATOM     21  O   UNL A   1      33.972  19.132  24.542  1.00  0.00    -0.494 OA
ATOM     22  C   UNL A   1      33.160  17.961  24.668  1.00  0.00     0.278 C 
ENDBRANCH  14  21
ENDBRANCH  10  13
ENDBRANCH   8   9
BRANCH   8  23
ATOM     23  C   UNL A   1      31.952  26.869  24.166  1.00  0.00     0.011 C 
ATOM     24  C   UNL A   1      32.308  27.722  23.194  1.00  0.00     0.064 C 
ATOM     25  C   UNL A   1      30.542  27.258  24.504  1.00  0.00     0.156 C 
ATOM     26  C   UNL A   1      33.577  27.837  22.423  1.00  0.00     0.069 C 
ATOM     27  N   UNL A   1      31.316  28.623  22.893  1.00  0.00    -0.160 NA
ATOM     28  N   UNL A   1      30.308  28.428  23.618  1.00  0.00    -0.181 NA
ATOM     29  C   UNL A   1      29.475  26.222  24.178  1.00  0.00     0.040 C 
ENDBRANCH   8  23
ENDBRANCH   5   8
ENDBRANCH   3   4
ENDBRANCH   2   3
ENDBRANCH   1   2
BRANCH   1  30
ATOM     30  C   UNL A   1      36.937  21.269  24.921  1.00  0.00     0.002 C 
BRANCH  30  31
ATOM     31  C   UNL A   1      38.062  20.233  24.912  1.00  0.00     0.021 C 
BRANCH  31  32
ATOM     32  C   UNL A   1      39.266  20.578  25.782  1.00  0.00     0.116 C 
BRANCH  32  33
ATOM     33  N   UNL A   1      40.172  19.454  25.946  1.00  0.00    -0.352 N 
ATOM     34  C   UNL A   1      41.532  19.461  26.145  1.00  0.00     0.251 C 
ATOM     35  H   UNL A   1      39.754  18.565  25.910  1.00  0.00     0.163 HD
ATOM     36  O   UNL A   1      42.167  18.415  26.096  1.00  0.00    -0.269 OA
BRANCH  34  37
ATOM     37  C   UNL A   1      42.220  20.744  26.395  1.00  0.00     0.039 A 
ATOM     38  C   UNL A   1      42.665  21.495  25.306  1.00  0.00     0.014 A 
ATOM     39  C   UNL A   1      42.409  21.210  27.700  1.00  0.00     0.014 A 
ATOM     40  C   UNL A   1      43.249  22.745  25.523  1.00  0.00     0.010 A 
ATOM     41  C   UNL A   1      42.920  22.487  27.910  1.00  0.00     0.010 A 
ATOM     42  C   UNL A   1      43.349  23.266  26.824  1.00  0.00    -0.014 A 
BRANCH  42  43
ATOM     43  C   UNL A   1      43.908  24.619  27.071  1.00  0.00     0.031 A 
ATOM     44  C   UNL A   1      43.002  25.744  27.490  1.00  0.00     0.074 A 
ATOM     45  C   UNL A   1      45.220  24.847  26.862  1.00  0.00     0.049 A 
ATOM     46  N   UNL A   1      43.288  27.003  27.697  1.00  0.00    -0.248 NA
ATOM     47  C   UNL A   1      41.580  25.413  27.676  1.00  0.00     0.031 C 
ATOM     48  C   UNL A   1      46.192  23.845  26.422  1.00  0.00     0.029 A 
ATOM     49  N   UNL A   1      45.961  25.995  26.988  1.00  0.00    -0.354 N 
ATOM     50  C   UNL A   1      42.085  27.615  28.031  1.00  0.00     0.074 A 
ATOM     51  C   UNL A   1      41.056  26.602  27.931  1.00  0.00     0.031 C 
ATOM     52  C   UNL A   1      47.407  24.414  26.349  1.00  0.00     0.029 A 
ATOM     53  C   UNL A   1      47.292  25.828  26.692  1.00  0.00     0.049 A 
ATOM     54  H   UNL A   1      45.575  26.857  27.266  1.00  0.00     0.167 HD
ATOM     55  C   UNL A   1      41.862  28.895  28.414  1.00  0.00     0.037 A 
ATOM     56  C   UNL A   1      48.307  26.715  26.694  1.00  0.00     0.037 A 
ATOM     57  C   UNL A   1      42.894  29.894  28.515  1.00  0.00     0.049 A 
ATOM     58  C   UNL A   1      48.029  28.142  27.080  1.00  0.00     0.074 A 
ATOM     59  C   UNL A   1      42.782  31.211  28.925  1.00  0.00     0.029 A 
ATOM     60  N   UNL A   1      44.229  29.689  28.194  1.00  0.00    -0.354 N 
ATOM     61  N   UNL A   1      46.896  28.693  27.444  1.00  0.00    -0.248 NA
ATOM     62  C   UNL A   1      49.169  29.069  27.058  1.00  0.00     0.031 C 
ATOM     63  C   UNL A   1      44.037  31.816  28.801  1.00  0.00     0.029 A 
ATOM     64  C   UNL A   1      44.946  30.862  28.372  1.00  0.00     0.049 A 
ATOM     65  H   UNL A   1      44.611  28.837  27.885  1.00  0.00     0.167 HD
ATOM     66  C   UNL A   1      47.192  30.022  27.727  1.00  0.00     0.074 A 
ATOM     67  C   UNL A   1      48.613  30.190  27.498  1.00  0.00     0.031 C 
ATOM     68  C   UNL A   1      46.363  31.012  28.144  1.00  0.00     0.037 A 
BRANCH  55  69
ATOM     69  C   UNL A   1      40.443  29.279  28.744  1.00  0.00     0.058 A 
ATOM     70  C   UNL A   1      40.012  29.437  30.072  1.00  0.00     0.135 A 
ATOM     71  C   UNL A   1      39.501  29.489  27.725  1.00  0.00     0.135 A 
ATOM     72  F   UNL A   1      40.864  29.238  31.090  1.00  0.00    -0.206 F 
ATOM     73  C   UNL A   1      38.688  29.736  30.379  1.00  0.00     0.059 A 
ATOM     74  C   UNL A   1      38.179  29.824  28.007  1.00  0.00     0.059 A 
ATOM     75  F   UNL A   1      39.857  29.358  26.436  1.00  0.00    -0.206 F 
ATOM     76  C   UNL A   1      37.777  29.921  29.337  1.00  0.00     0.060 A 
BRANCH  76  77
ATOM     77  S   UNL A   1      36.057  30.275  29.752  1.00  0.00     0.124 S 
ATOM     78  O   UNL A   1      36.062  31.735  29.792  1.00  0.00    -0.237 OA
ATOM     79  O   UNL A   1      35.336  29.675  28.633  1.00  0.00    -0.237 OA
ATOM     80  O   UNL A   1      35.873  29.613  31.040  1.00  0.00    -0.744 OA
ENDBRANCH  76  77
ENDBRANCH  55  69
BRANCH  56  81
ATOM     81  C   UNL A   1      49.684  26.266  26.356  1.00  0.00     0.058 A 
ATOM     82  C   UNL A   1      50.156  26.333  25.036  1.00  0.00     0.135 A 
ATOM     83  C   UNL A   1      50.564  25.790  27.341  1.00  0.00     0.135 A 
ATOM     84  F   UNL A   1      49.351  26.772  24.057  1.00  0.00    -0.206 F 
ATOM     85  C   UNL A   1      51.448  25.939  24.703  1.00  0.00     0.059 A 
ATOM     86  C   UNL A   1      51.868  25.415  27.036  1.00  0.00     0.059 A 
ATOM     87  F   UNL A   1      50.166  25.721  28.621  1.00  0.00    -0.206 F 
ATOM     88  C   UNL A   1      52.299  25.488  25.712  1.00  0.00     0.060 A 
BRANCH  88  89
ATOM     89  S   UNL A   1      53.995  25.042  25.277  1.00  0.00     0.124 S 
ATOM     90  O   UNL A   1      54.248  25.919  24.140  1.00  0.00    -0.237 OA
ATOM     91  O   UNL A   1      54.717  25.360  26.504  1.00  0.00    -0.237 OA
ATOM     92  O   UNL A   1      53.898  23.617  24.967  1.00  0.00    -0.744 OA
ENDBRANCH  88  89
ENDBRANCH  56  81
BRANCH  68  93
ATOM     93  C   UNL A   1      46.974  32.360  28.420  1.00  0.00     0.058 A 
ATOM     94  C   UNL A   1      47.530  32.679  29.669  1.00  0.00     0.135 A 
ATOM     95  C   UNL A   1      47.056  33.323  27.401  1.00  0.00     0.135 A 
ATOM     96  F   UNL A   1      47.472  31.799  30.681  1.00  0.00    -0.206 F 
ATOM     97  C   UNL A   1      48.127  33.914  29.903  1.00  0.00     0.059 A 
ATOM     98  C   UNL A   1      47.676  34.552  27.604  1.00  0.00     0.059 A 
ATOM     99  F   UNL A   1      46.548  33.065  26.185  1.00  0.00    -0.206 F 
ATOM    100  C   UNL A   1      48.200  34.842  28.863  1.00  0.00     0.060 A 
BRANCH 100 101
ATOM    101  S   UNL A   1      49.015  36.423  29.169  1.00  0.00     0.124 S 
ATOM    102  O   UNL A   1      48.173  37.341  28.411  1.00  0.00    -0.237 OA
ATOM    103  O   UNL A   1      48.933  36.539  30.622  1.00  0.00    -0.237 OA
ATOM    104  O   UNL A   1      50.360  36.221  28.638  1.00  0.00    -0.744 OA
ENDBRANCH 100 101
ENDBRANCH  68  93
ENDBRANCH  42  43
ENDBRANCH  34  37
ENDBRANCH  32  33
ENDBRANCH  31  32
ENDBRANCH  30  31
ENDBRANCH   1  30
TORSDOF 20
ENDMDL
MODEL 2
REMARK VINA RESULT:     -11.2      2.501      8.059
REMARK SMILES COc1ccc(C(=O)N[C@H](C(=O)NCCCCCCNC(=O)c2ccc(-c3c4nc(c(-c5c(F)cc(S(=O)(=O)[O-])cc5F)c5ccc([nH]5)c(-c5c(F)cc(S(=O)(=O)[O-])cc5F)c5nc(c(-c6c(F)cc(S(=O)(=O)[O-])cc6F)c6ccc3[nH]6)C=C5)C=C4)cc2)C2=C(C)N=N[C@H]2C)c(F)c1F
REMARK SMILES IDX 16 1 15 2 14 3 13 4 11 5 12 6 10 8 9 9 7 10 8 11 6 13 3 14
REMARK SMILES IDX 4 15 98 16 5 17 96 18 99 19 97 20 2 21 1 22 89 23 90 24
REMARK SMILES IDX 94 25 91 26 92 27 93 28 95 29 17 30 18 31 19 32 20 33 21 34
REMARK SMILES IDX 22 36 23 37 24 38 88 39 25 40 87 41 26 42 27 43 28 44 81 45
REMARK SMILES IDX 29 46 86 47 80 48 82 49 30 50 85 51 79 52 78 53 31 55 65 56
REMARK SMILES IDX 44 57 64 58 45 59 48 60 63 61 83 62 46 63 47 64 62 66 84 67
REMARK SMILES IDX 49 68 32 69 33 70 42 71 34 72 35 73 41 74 43 75 36 76 37 77
REMARK SMILES IDX 38 78 39 79 40 80 66 81 67 82 76 83 68 84 69 85 75 86 77 87
REMARK SMILES IDX 70 88 71 89 72 90 73 91 74 92 50 93 51 94 60 95 52 96 53 97
REMARK SMILES IDX 59 98 61 99 54 100 55 101 56 102 57 103 58 104
REMARK H PARENT 13 7 9 12 20 35 82 54 48 65
REMARK Flexibility Score: inf
ROOT
ATOM      1  C   UNL A   1      34.077  28.941  27.538  1.00  0.00     0.002 C 
ENDROOT
BRANCH   1   2
ATOM      2  C   UNL A   1      33.290  27.883  26.761  1.00  0.00     0.021 C 
BRANCH   2   3
ATOM      3  C   UNL A   1      31.838  28.254  26.483  1.00  0.00     0.116 C 
BRANCH   3   4
ATOM      4  N   UNL A   1      30.938  27.130  26.671  1.00  0.00    -0.354 N 
ATOM      5  C   UNL A   1      30.666  26.074  25.846  1.00  0.00     0.247 C 
ATOM      6  O   UNL A   1      29.914  25.195  26.278  1.00  0.00    -0.272 OA
ATOM      7  H   UNL A   1      30.448  27.128  27.525  1.00  0.00     0.163 HD
BRANCH   5   8
ATOM      8  C   UNL A   1      31.278  26.009  24.423  1.00  0.00     0.202 C 
BRANCH   8   9
ATOM      9  N   UNL A   1      31.090  24.688  23.816  1.00  0.00    -0.336 N 
ATOM     10  C   UNL A   1      31.854  23.550  23.763  1.00  0.00     0.255 C 
ATOM     11  O   UNL A   1      31.392  22.597  23.132  1.00  0.00    -0.269 OA
ATOM     12  H   UNL A   1      30.230  24.597  23.345  1.00  0.00     0.165 HD
BRANCH  10  13
ATOM     13  C   UNL A   1      33.148  23.341  24.461  1.00  0.00     0.078 A 
ATOM     14  C   UNL A   1      35.701  23.036  25.625  1.00  0.00     0.157 A 
ATOM     15  C   UNL A   1      35.593  23.338  24.272  1.00  0.00     0.050 A 
ATOM     16  C   UNL A   1      34.546  22.900  26.388  1.00  0.00     0.201 A 
ATOM     17  C   UNL A   1      34.324  23.489  23.695  1.00  0.00     0.021 A 
ATOM     18  C   UNL A   1      33.288  23.105  25.821  1.00  0.00     0.175 A 
ATOM     19  F   UNL A   1      34.630  22.568  27.687  1.00  0.00    -0.200 F 
ATOM     20  F   UNL A   1      32.236  23.133  26.647  1.00  0.00    -0.203 F 
BRANCH  14  21
ATOM     21  O   UNL A   1      36.947  22.818  26.140  1.00  0.00    -0.494 OA
ATOM     22  C   UNL A   1      37.828  23.920  25.900  1.00  0.00     0.278 C 
ENDBRANCH  14  21
ENDBRANCH  10  13
ENDBRANCH   8   9
BRANCH   8  23
ATOM     23  C   UNL A   1      30.631  27.066  23.568  1.00  0.00     0.011 C 
ATOM     24  C   UNL A   1      29.360  27.414  23.321  1.00  0.00     0.064 C 
ATOM     25  C   UNL A   1      31.444  27.995  22.714  1.00  0.00     0.156 C 
ATOM     26  C   UNL A   1      28.084  26.884  23.877  1.00  0.00     0.069 C 
ATOM     27  N   UNL A   1      29.260  28.424  22.395  1.00  0.00    -0.160 NA
ATOM     28  N   UNL A   1      30.400  28.773  21.998  1.00  0.00    -0.181 NA
ATOM     29  C   UNL A   1      32.316  28.990  23.466  1.00  0.00     0.040 C 
ENDBRANCH   8  23
ENDBRANCH   5   8
ENDBRANCH   3   4
ENDBRANCH   2   3
ENDBRANCH   1   2
BRANCH   1  30
ATOM     30  C   UNL A   1      34.089  30.339  26.911  1.00  0.00     0.002 C 
BRANCH  30  31
ATOM     31  C   UNL A   1      34.390  31.488  27.874  1.00  0.00     0.021 C 
BRANCH  31  32
ATOM     32  C   UNL A   1      35.741  31.407  28.575  1.00  0.00     0.116 C 
BRANCH  32  33
ATOM     33  N   UNL A   1      35.613  31.173  30.004  1.00  0.00    -0.352 N 
ATOM     34  C   UNL A   1      36.430  30.450  30.839  1.00  0.00     0.251 C 
ATOM     35  H   UNL A   1      34.832  31.589  30.432  1.00  0.00     0.163 HD
ATOM     36  O   UNL A   1      36.082  30.215  31.989  1.00  0.00    -0.269 OA
BRANCH  34  37
ATOM     37  C   UNL A   1      37.719  29.941  30.328  1.00  0.00     0.039 A 
ATOM     38  C   UNL A   1      37.970  29.995  28.956  1.00  0.00     0.014 A 
ATOM     39  C   UNL A   1      38.682  29.429  31.204  1.00  0.00     0.014 A 
ATOM     40  C   UNL A   1      39.213  29.588  28.466  1.00  0.00     0.010 A 
ATOM     41  C   UNL A   1      39.945  29.098  30.723  1.00  0.00     0.010 A 
ATOM     42  C   UNL A   1      40.223  29.169  29.349  1.00  0.00    -0.014 A 
BRANCH  42  43
ATOM     43  C   UNL A   1      41.571  28.795  28.855  1.00  0.00     0.031 A 
ATOM     44  C   UNL A   1      42.657  29.832  28.767  1.00  0.00     0.074 A 
ATOM     45  C   UNL A   1      41.801  27.535  28.434  1.00  0.00     0.049 A 
ATOM     46  N   UNL A   1      43.877  29.714  28.310  1.00  0.00    -0.248 NA
ATOM     47  C   UNL A   1      42.316  31.187  29.229  1.00  0.00     0.031 C 
ATOM     48  C   UNL A   1      40.818  26.450  28.438  1.00  0.00     0.029 A 
ATOM     49  N   UNL A   1      42.932  26.956  27.915  1.00  0.00    -0.354 N 
ATOM     50  C   UNL A   1      44.447  30.978  28.425  1.00  0.00     0.074 A 
ATOM     51  C   UNL A   1      43.416  31.860  28.928  1.00  0.00     0.031 C 
ATOM     52  C   UNL A   1      41.398  25.329  27.980  1.00  0.00     0.029 A 
ATOM     53  C   UNL A   1      42.779  25.625  27.607  1.00  0.00     0.049 A 
ATOM     54  H   UNL A   1      43.774  27.446  27.779  1.00  0.00     0.167 HD
ATOM     55  C   UNL A   1      45.719  31.361  28.162  1.00  0.00     0.037 A 
ATOM     56  C   UNL A   1      43.650  24.743  27.079  1.00  0.00     0.037 A 
ATOM     57  C   UNL A   1      46.739  30.475  27.665  1.00  0.00     0.049 A 
ATOM     58  C   UNL A   1      45.046  25.201  26.753  1.00  0.00     0.074 A 
ATOM     59  C   UNL A   1      48.068  30.753  27.397  1.00  0.00     0.029 A 
ATOM     60  N   UNL A   1      46.541  29.136  27.353  1.00  0.00    -0.354 N 
ATOM     61  N   UNL A   1      45.585  26.387  26.917  1.00  0.00    -0.248 NA
ATOM     62  C   UNL A   1      45.954  24.202  26.174  1.00  0.00     0.031 C 
ATOM     63  C   UNL A   1      48.659  29.598  26.873  1.00  0.00     0.029 A 
ATOM     64  C   UNL A   1      47.716  28.582  26.871  1.00  0.00     0.049 A 
ATOM     65  H   UNL A   1      45.691  28.652  27.457  1.00  0.00     0.167 HD
ATOM     66  C   UNL A   1      46.904  26.267  26.492  1.00  0.00     0.074 A 
ATOM     67  C   UNL A   1      47.082  24.891  26.070  1.00  0.00     0.031 C 
ATOM     68  C   UNL A   1      47.880  27.209  26.459  1.00  0.00     0.037 A 
BRANCH  55  69
ATOM     69  C   UNL A   1      46.068  32.807  28.404  1.00  0.00     0.058 A 
ATOM     70  C   UNL A   1      45.950  33.774  27.392  1.00  0.00     0.135 A 
ATOM     71  C   UNL A   1      46.529  33.233  29.660  1.00  0.00     0.135 A 
ATOM     72  F   UNL A   1      45.526  33.425  26.166  1.00  0.00    -0.206 F 
ATOM     73  C   UNL A   1      46.326  35.098  27.599  1.00  0.00     0.059 A 
ATOM     74  C   UNL A   1      46.877  34.559  29.901  1.00  0.00     0.059 A 
ATOM     75  F   UNL A   1      46.657  32.354  30.667  1.00  0.00    -0.206 F 
ATOM     76  C   UNL A   1      46.795  35.479  28.857  1.00  0.00     0.060 A 
BRANCH  76  77
ATOM     77  S   UNL A   1      47.311  37.191  29.100  1.00  0.00     0.124 S 
ATOM     78  O   UNL A   1      46.729  37.839  27.929  1.00  0.00    -0.237 OA
ATOM     79  O   UNL A   1      46.693  37.524  30.380  1.00  0.00    -0.237 OA
ATOM     80  O   UNL A   1      48.769  37.109  29.112  1.00  0.00    -0.744 OA
ENDBRANCH  76  77
ENDBRANCH  55  69
BRANCH  56  81
ATOM     81  C   UNL A   1      43.237  23.331  26.865  1.00  0.00     0.058 A 
ATOM     82  C   UNL A   1      43.008  22.839  25.572  1.00  0.00     0.135 A 
ATOM     83  C   UNL A   1      43.091  22.438  27.939  1.00  0.00     0.135 A 
ATOM     84  F   UNL A   1      43.127  23.655  24.513  1.00  0.00    -0.206 F 
ATOM     85  C   UNL A   1      42.643  21.515  25.349  1.00  0.00     0.059 A 
ATOM     86  C   UNL A   1      42.752  21.104  27.739  1.00  0.00     0.059 A 
ATOM     87  F   UNL A   1      43.314  22.855  29.196  1.00  0.00    -0.206 F 
ATOM     88  C   UNL A   1      42.525  20.653  26.440  1.00  0.00     0.060 A 
BRANCH  88  89
ATOM     89  S   UNL A   1      42.114  18.921  26.131  1.00  0.00     0.124 S 
ATOM     90  O   UNL A   1      43.039  18.587  25.054  1.00  0.00    -0.237 OA
ATOM     91  O   UNL A   1      42.391  18.308  27.426  1.00  0.00    -0.237 OA
ATOM     92  O   UNL A   1      40.702  18.972  25.760  1.00  0.00    -0.744 OA
ENDBRANCH  88  89
ENDBRANCH  56  81
BRANCH  68  93
ATOM     93  C   UNL A   1      49.243  26.780  25.988  1.00  0.00     0.058 A 
ATOM     94  C   UNL A   1      49.658  26.957  24.659  1.00  0.00     0.135 A 
ATOM     95  C   UNL A   1      50.168  26.236  26.895  1.00  0.00     0.135 A 
ATOM     96  F   UNL A   1      48.812  27.464  23.748  1.00  0.00    -0.206 F 
ATOM     97  C   UNL A   1      50.934  26.592  24.241  1.00  0.00     0.059 A 
ATOM     98  C   UNL A   1      51.459  25.894  26.507  1.00  0.00     0.059 A 
ATOM     99  F   UNL A   1      49.826  26.054  28.181  1.00  0.00    -0.206 F 
ATOM    100  C   UNL A   1      51.830  26.066  25.174  1.00  0.00     0.060 A 
BRANCH 100 101
ATOM    101  S   UNL A   1      53.496  25.638  24.628  1.00  0.00     0.124 S 
ATOM    102  O   UNL A   1      53.484  26.108  23.247  1.00  0.00    -0.237 OA
ATOM    103  O   UNL A   1      54.332  26.400  25.551  1.00  0.00    -0.237 OA
ATOM    104  O   UNL A   1      53.548  24.189  24.798  1.00  0.00    -0.744 OA
ENDBRANCH 100 101
ENDBRANCH  68  93
ENDBRANCH  42  43
ENDBRANCH  34  37
ENDBRANCH  32  33
ENDBRANCH  31  32
ENDBRANCH  30  31
ENDBRANCH   1  30
TORSDOF 20
ENDMDL
MODEL 3
REMARK VINA RESULT:     -10.8      5.961     10.545
REMARK SMILES COc1ccc(C(=O)N[C@H](C(=O)NCCCCCCNC(=O)c2ccc(-c3c4nc(c(-c5c(F)cc(S(=O)(=O)[O-])cc5F)c5ccc([nH]5)c(-c5c(F)cc(S(=O)(=O)[O-])cc5F)c5nc(c(-c6c(F)cc(S(=O)(=O)[O-])cc6F)c6ccc3[nH]6)C=C5)C=C4)cc2)C2=C(C)N=N[C@H]2C)c(F)c1F
REMARK SMILES IDX 16 1 15 2 14 3 13 4 11 5 12 6 10 8 9 9 7 10 8 11 6 13 3 14
REMARK SMILES IDX 4 15 98 16 5 17 96 18 99 19 97 20 2 21 1 22 89 23 90 24
REMARK SMILES IDX 94 25 91 26 92 27 93 28 95 29 17 30 18 31 19 32 20 33 21 34
REMARK SMILES IDX 22 36 23 37 24 38 88 39 25 40 87 41 26 42 27 43 28 44 81 45
REMARK SMILES IDX 29 46 86 47 80 48 82 49 30 50 85 51 79 52 78 53 31 55 65 56
REMARK SMILES IDX 44 57 64 58 45 59 48 60 63 61 83 62 46 63 47 64 62 66 84 67
REMARK SMILES IDX 49 68 32 69 33 70 42 71 34 72 35 73 41 74 43 75 36 76 37 77
REMARK SMILES IDX 38 78 39 79 40 80 66 81 67 82 76 83 68 84 69 85 75 86 77 87
REMARK SMILES IDX 70 88 71 89 72 90 73 91 74 92 50 93 51 94 60 95 52 96 53 97
REMARK SMILES IDX 59 98 61 99 54 100 55 101 56 102 57 103 58 104
REMARK H PARENT 13 7 9 12 20 35 82 54 48 65
REMARK Flexibility Score: inf
ROOT
ATOM      1  C   UNL A   1      37.489  23.396  25.475  1.00  0.00     0.002 C 
ENDROOT
BRANCH   1   2
ATOM      2  C   UNL A   1      36.567  23.379  24.254  1.00  0.00     0.021 C 
BRANCH   2   3
ATOM      3  C   UNL A   1      35.136  23.825  24.538  1.00  0.00     0.116 C 
BRANCH   3   4
ATOM      4  N   UNL A   1      35.084  25.130  25.173  1.00  0.00    -0.354 N 
ATOM      5  C   UNL A   1      34.020  25.960  25.394  1.00  0.00     0.247 C 
ATOM      6  O   UNL A   1      34.229  26.992  26.038  1.00  0.00    -0.272 OA
ATOM      7  H   UNL A   1      35.951  25.469  25.497  1.00  0.00     0.163 HD
BRANCH   5   8
ATOM      8  C   UNL A   1      32.618  25.605  24.836  1.00  0.00     0.202 C 
BRANCH   8   9
ATOM      9  N   UNL A   1      31.755  25.033  25.875  1.00  0.00    -0.336 N 
ATOM     10  C   UNL A   1      31.439  23.752  26.248  1.00  0.00     0.255 C 
ATOM     11  O   UNL A   1      30.638  23.623  27.177  1.00  0.00    -0.269 OA
ATOM     12  H   UNL A   1      31.304  25.717  26.423  1.00  0.00     0.165 HD
BRANCH  10  13
ATOM     13  C   UNL A   1      32.034  22.513  25.685  1.00  0.00     0.078 A 
ATOM     14  C   UNL A   1      33.198  20.096  24.810  1.00  0.00     0.157 A 
ATOM     15  C   UNL A   1      33.362  20.501  26.129  1.00  0.00     0.050 A 
ATOM     16  C   UNL A   1      32.451  20.886  23.941  1.00  0.00     0.201 A 
ATOM     17  C   UNL A   1      32.784  21.702  26.562  1.00  0.00     0.021 A 
ATOM     18  C   UNL A   1      31.831  22.052  24.391  1.00  0.00     0.175 A 
ATOM     19  F   UNL A   1      32.316  20.532  22.653  1.00  0.00    -0.200 F 
ATOM     20  F   UNL A   1      30.988  22.665  23.554  1.00  0.00    -0.203 F 
BRANCH  14  21
ATOM     21  O   UNL A   1      33.837  18.961  24.398  1.00  0.00    -0.494 OA
ATOM     22  C   UNL A   1      33.241  17.781  24.944  1.00  0.00     0.278 C 
ENDBRANCH  14  21
ENDBRANCH  10  13
ENDBRANCH   8   9
BRANCH   8  23
ATOM     23  C   UNL A   1      31.990  26.851  24.272  1.00  0.00     0.011 C 
ATOM     24  C   UNL A   1      32.394  27.783  23.396  1.00  0.00     0.064 C 
ATOM     25  C   UNL A   1      30.630  27.315  24.708  1.00  0.00     0.156 C 
ATOM     26  C   UNL A   1      33.646  27.883  22.596  1.00  0.00     0.069 C 
ATOM     27  N   UNL A   1      31.479  28.795  23.243  1.00  0.00    -0.160 NA
ATOM     28  N   UNL A   1      30.477  28.599  23.977  1.00  0.00    -0.181 NA
ATOM     29  C   UNL A   1      29.467  26.421  24.302  1.00  0.00     0.040 C 
ENDBRANCH   8  23
ENDBRANCH   5   8
ENDBRANCH   3   4
ENDBRANCH   2   3
ENDBRANCH   1   2
BRANCH   1  30
ATOM     30  C   UNL A   1      38.166  22.060  25.802  1.00  0.00     0.002 C 
BRANCH  30  31
ATOM     31  C   UNL A   1      39.494  22.165  26.553  1.00  0.00     0.021 C 
BRANCH  31  32
ATOM     32  C   UNL A   1      39.938  23.585  26.887  1.00  0.00     0.116 C 
BRANCH  32  33
ATOM     33  N   UNL A   1      41.063  24.020  26.077  1.00  0.00    -0.352 N 
ATOM     34  C   UNL A   1      41.736  25.218  26.102  1.00  0.00     0.251 C 
ATOM     35  H   UNL A   1      41.388  23.365  25.418  1.00  0.00     0.163 HD
ATOM     36  O   UNL A   1      42.557  25.481  25.233  1.00  0.00    -0.269 OA
BRANCH  34  37
ATOM     37  C   UNL A   1      41.442  26.191  27.174  1.00  0.00     0.039 A 
ATOM     38  C   UNL A   1      40.421  25.906  28.082  1.00  0.00     0.014 A 
ATOM     39  C   UNL A   1      42.184  27.370  27.291  1.00  0.00     0.014 A 
ATOM     40  C   UNL A   1      40.181  26.779  29.146  1.00  0.00     0.010 A 
ATOM     41  C   UNL A   1      41.995  28.197  28.394  1.00  0.00     0.010 A 
ATOM     42  C   UNL A   1      40.989  27.914  29.330  1.00  0.00    -0.014 A 
BRANCH  42  43
ATOM     43  C   UNL A   1      40.793  28.819  30.489  1.00  0.00     0.031 A 
ATOM     44  C   UNL A   1      41.645  28.666  31.719  1.00  0.00     0.074 A 
ATOM     45  C   UNL A   1      39.810  29.741  30.456  1.00  0.00     0.049 A 
ATOM     46  N   UNL A   1      41.588  29.318  32.851  1.00  0.00    -0.248 NA
ATOM     47  C   UNL A   1      42.681  27.620  31.679  1.00  0.00     0.031 C 
ATOM     48  C   UNL A   1      38.896  29.963  29.334  1.00  0.00     0.029 A 
ATOM     49  N   UNL A   1      39.413  30.661  31.394  1.00  0.00    -0.354 N 
ATOM     50  C   UNL A   1      42.575  28.761  33.658  1.00  0.00     0.074 A 
ATOM     51  C   UNL A   1      43.165  27.673  32.910  1.00  0.00     0.031 C 
ATOM     52  C   UNL A   1      38.069  30.977  29.635  1.00  0.00     0.029 A 
ATOM     53  C   UNL A   1      38.363  31.448  30.985  1.00  0.00     0.049 A 
ATOM     54  H   UNL A   1      39.841  30.750  32.276  1.00  0.00     0.167 HD
ATOM     55  C   UNL A   1      42.970  29.140  34.897  1.00  0.00     0.037 A 
ATOM     56  C   UNL A   1      37.707  32.435  31.627  1.00  0.00     0.037 A 
ATOM     57  C   UNL A   1      42.379  30.228  35.631  1.00  0.00     0.049 A 
ATOM     58  C   UNL A   1      38.134  32.811  33.020  1.00  0.00     0.074 A 
ATOM     59  C   UNL A   1      42.727  30.717  36.879  1.00  0.00     0.029 A 
ATOM     60  N   UNL A   1      41.308  30.993  35.188  1.00  0.00    -0.354 N 
ATOM     61  N   UNL A   1      39.104  32.310  33.749  1.00  0.00    -0.248 NA
ATOM     62  C   UNL A   1      37.382  33.889  33.677  1.00  0.00     0.031 C 
ATOM     63  C   UNL A   1      41.833  31.740  37.212  1.00  0.00     0.029 A 
ATOM     64  C   UNL A   1      40.966  31.932  36.148  1.00  0.00     0.049 A 
ATOM     65  H   UNL A   1      40.858  30.884  34.320  1.00  0.00     0.167 HD
ATOM     66  C   UNL A   1      39.098  33.033  34.937  1.00  0.00     0.074 A 
ATOM     67  C   UNL A   1      38.034  34.010  34.825  1.00  0.00     0.031 C 
ATOM     68  C   UNL A   1      39.906  32.903  36.020  1.00  0.00     0.037 A 
BRANCH  55  69
ATOM     69  C   UNL A   1      44.094  28.362  35.530  1.00  0.00     0.058 A 
ATOM     70  C   UNL A   1      43.848  27.279  36.392  1.00  0.00     0.135 A 
ATOM     71  C   UNL A   1      45.433  28.701  35.278  1.00  0.00     0.135 A 
ATOM     72  F   UNL A   1      42.588  26.915  36.680  1.00  0.00    -0.206 F 
ATOM     73  C   UNL A   1      44.885  26.597  37.021  1.00  0.00     0.059 A 
ATOM     74  C   UNL A   1      46.487  28.010  35.869  1.00  0.00     0.059 A 
ATOM     75  F   UNL A   1      45.730  29.723  34.459  1.00  0.00    -0.206 F 
ATOM     76  C   UNL A   1      46.202  26.975  36.758  1.00  0.00     0.060 A 
BRANCH  76  77
ATOM     77  S   UNL A   1      47.534  26.103  37.608  1.00  0.00     0.124 S 
ATOM     78  O   UNL A   1      48.346  27.216  38.093  1.00  0.00    -0.237 OA
ATOM     79  O   UNL A   1      46.813  25.353  38.631  1.00  0.00    -0.237 OA
ATOM     80  O   UNL A   1      48.142  25.297  36.553  1.00  0.00    -0.744 OA
ENDBRANCH  76  77
ENDBRANCH  55  69
BRANCH  56  81
ATOM     81  C   UNL A   1      36.605  33.160  30.941  1.00  0.00     0.058 A 
ATOM     82  C   UNL A   1      36.883  34.126  29.962  1.00  0.00     0.135 A 
ATOM     83  C   UNL A   1      35.257  32.886  31.223  1.00  0.00     0.135 A 
ATOM     84  F   UNL A   1      38.155  34.430  29.663  1.00  0.00    -0.206 F 
ATOM     85  C   UNL A   1      35.867  34.800  29.293  1.00  0.00     0.059 A 
ATOM     86  C   UNL A   1      34.224  33.528  30.548  1.00  0.00     0.059 A 
ATOM     87  F   UNL A   1      34.937  31.959  32.140  1.00  0.00    -0.206 F 
ATOM     88  C   UNL A   1      34.539  34.488  29.588  1.00  0.00     0.060 A 
BRANCH  88  89
ATOM     89  S   UNL A   1      33.230  35.322  28.664  1.00  0.00     0.124 S 
ATOM     90  O   UNL A   1      33.999  36.210  27.800  1.00  0.00    -0.237 OA
ATOM     91  O   UNL A   1      32.564  34.204  28.004  1.00  0.00    -0.237 OA
ATOM     92  O   UNL A   1      32.448  35.978  29.710  1.00  0.00    -0.744 OA
ENDBRANCH  88  89
ENDBRANCH  56  81
BRANCH  68  93
ATOM     93  C   UNL A   1      39.700  33.865  37.159  1.00  0.00     0.058 A 
ATOM     94  C   UNL A   1      38.892  33.546  38.261  1.00  0.00     0.135 A 
ATOM     95  C   UNL A   1      40.369  35.101  37.173  1.00  0.00     0.135 A 
ATOM     96  F   UNL A   1      38.223  32.383  38.296  1.00  0.00    -0.206 F 
ATOM     97  C   UNL A   1      38.737  34.427  39.328  1.00  0.00     0.059 A 
ATOM     98  C   UNL A   1      40.253  35.982  38.243  1.00  0.00     0.059 A 
ATOM     99  F   UNL A   1      41.161  35.452  36.147  1.00  0.00    -0.206 F 
ATOM    100  C   UNL A   1      39.427  35.640  39.312  1.00  0.00     0.060 A 
BRANCH 100 101
ATOM    101  S   UNL A   1      39.252  36.754  40.722  1.00  0.00     0.124 S 
ATOM    102  O   UNL A   1      38.463  35.942  41.642  1.00  0.00    -0.237 OA
ATOM    103  O   UNL A   1      40.640  36.985  41.110  1.00  0.00    -0.237 OA
ATOM    104  O   UNL A   1      38.564  37.912  40.158  1.00  0.00    -0.744 OA
ENDBRANCH 100 101
ENDBRANCH  68  93
ENDBRANCH  42  43
ENDBRANCH  34  37
ENDBRANCH  32  33
ENDBRANCH  31  32
ENDBRANCH  30  31
ENDBRANCH   1  30
TORSDOF 20
ENDMDL
