MODEL 1
REMARK VINA RESULT:     -11.0      0.000      0.000
REMARK SMILES C[NH2+][C@]1(C(=O)NCCCCCCNC(=O)c2ccc(-c3c4nc(c(-c5c(F)cc(S(=O)(=O)[O-])cc5F)c5ccc([nH]5)c(-c5c(F)cc(S(=O)(=O)[O-])cc5F)c5nc(c(-c6c(F)cc(S(=O)(=O)[O-])cc6F)c6ccc3[nH]6)C=C5)C=C4)cc2)CCC[C@@H]1CCn1nc(C)c(Cl)c1C
REMARK SMILES IDX 9 1 8 2 7 3 6 4 4 5 5 6 3 8 82 9 85 10 83 11 84 12 2 13 1 14
REMARK SMILES IDX 86 17 87 18 88 19 89 20 94 21 90 22 92 23 95 24 91 25 93 26
REMARK SMILES IDX 10 27 11 28 12 29 13 30 14 31 15 33 16 34 17 35 81 36 18 37
REMARK SMILES IDX 80 38 19 39 20 40 21 41 74 42 22 43 79 44 73 45 75 46 23 47
REMARK SMILES IDX 78 48 72 49 71 50 24 52 58 53 37 54 57 55 38 56 41 57 56 58
REMARK SMILES IDX 76 59 39 60 40 61 55 63 77 64 42 65 25 66 26 67 35 68 27 69
REMARK SMILES IDX 28 70 34 71 36 72 29 73 30 74 31 75 32 76 33 77 59 78 60 79
REMARK SMILES IDX 69 80 61 81 62 82 68 83 70 84 63 85 64 86 65 87 66 88 67 89
REMARK SMILES IDX 43 90 44 91 53 92 45 93 46 94 52 95 54 96 47 97 48 98 49 99
REMARK SMILES IDX 50 100 51 101
REMARK H PARENT 6 7 2 15 2 16 13 32 75 51 41 62
REMARK Flexibility Score: inf
ROOT
ATOM      1  C   UNL A   1      39.211  21.093  25.776  1.00  0.00     0.002 C 
ENDROOT
BRANCH   1   2
ATOM      2  C   UNL A   1      38.340  22.347  25.901  1.00  0.00     0.021 C 
BRANCH   2   3
ATOM      3  C   UNL A   1      36.901  22.137  25.441  1.00  0.00     0.116 C 
BRANCH   3   4
ATOM      4  N   UNL A   1      35.986  22.209  26.564  1.00  0.00    -0.351 N 
ATOM      5  C   UNL A   1      34.668  22.530  26.685  1.00  0.00     0.281 C 
ATOM      6  O   UNL A   1      34.251  22.579  27.851  1.00  0.00    -0.268 OA
ATOM      7  H   UNL A   1      36.407  21.976  27.423  1.00  0.00     0.163 HD
BRANCH   5   8
ATOM      8  C   UNL A   1      33.715  22.763  25.452  1.00  0.00     0.178 C 
ATOM      9  C   UNL A   1      33.962  21.763  24.298  1.00  0.00     0.079 C 
ATOM     10  C   UNL A   1      32.247  22.425  25.858  1.00  0.00     0.062 C 
ATOM     11  C   UNL A   1      32.623  21.631  23.573  1.00  0.00     0.008 C 
ATOM     12  C   UNL A   1      31.534  22.093  24.544  1.00  0.00     0.011 C 
BRANCH   8  13
ATOM     13  N   UNL A   1      34.039  24.087  24.883  1.00  0.00    -0.336 N 
ATOM     14  C   UNL A   1      34.493  25.195  25.669  1.00  0.00     0.331 C 
ATOM     15  H   UNL A   1      34.769  23.921  24.190  1.00  0.00     0.346 HD
ATOM     16  H   UNL A   1      33.117  24.411  24.596  1.00  0.00     0.346 HD
ENDBRANCH   8  13
BRANCH  10  17
ATOM     17  C   UNL A   1      31.518  23.419  26.777  1.00  0.00     0.034 C 
BRANCH  17  18
ATOM     18  C   UNL A   1      30.457  24.289  26.085  1.00  0.00     0.145 C 
BRANCH  18  19
ATOM     19  N   UNL A   1      30.851  25.670  25.861  1.00  0.00    -0.268 N 
ATOM     20  N   UNL A   1      31.144  26.432  26.938  1.00  0.00    -0.176 NA
ATOM     21  C   UNL A   1      31.041  26.325  24.668  1.00  0.00     0.054 A 
ATOM     22  C   UNL A   1      31.527  27.608  26.421  1.00  0.00     0.078 A 
ATOM     23  C   UNL A   1      31.452  27.596  25.012  1.00  0.00     0.084 A 
ATOM     24  C   UNL A   1      30.827  25.739  23.322  1.00  0.00     0.068 C 
ATOM     25  C   UNL A   1      31.971  28.702  27.319  1.00  0.00     0.070 C 
ATOM     26  Cl  UNL A   1      31.812  28.880  23.963  1.00  0.00    -0.080 Cl
ENDBRANCH  18  19
ENDBRANCH  17  18
ENDBRANCH  10  17
ENDBRANCH   5   8
ENDBRANCH   3   4
ENDBRANCH   2   3
ENDBRANCH   1   2
BRANCH   1  27
ATOM     27  C   UNL A   1      40.610  21.218  26.391  1.00  0.00     0.002 C 
BRANCH  27  28
ATOM     28  C   UNL A   1      40.695  22.118  27.627  1.00  0.00     0.021 C 
BRANCH  28  29
ATOM     29  C   UNL A   1      41.821  23.144  27.581  1.00  0.00     0.116 C 
BRANCH  29  30
ATOM     30  N   UNL A   1      41.770  23.950  26.371  1.00  0.00    -0.352 N 
ATOM     31  C   UNL A   1      41.440  25.272  26.225  1.00  0.00     0.251 C 
ATOM     32  H   UNL A   1      42.005  23.478  25.539  1.00  0.00     0.163 HD
ATOM     33  O   UNL A   1      41.231  25.732  25.102  1.00  0.00    -0.269 OA
BRANCH  31  34
ATOM     34  C   UNL A   1      41.321  26.135  27.417  1.00  0.00     0.039 A 
ATOM     35  C   UNL A   1      42.289  27.118  27.642  1.00  0.00     0.014 A 
ATOM     36  C   UNL A   1      40.261  25.972  28.313  1.00  0.00     0.014 A 
ATOM     37  C   UNL A   1      42.161  27.973  28.738  1.00  0.00     0.010 A 
ATOM     38  C   UNL A   1      40.095  26.873  29.361  1.00  0.00     0.010 A 
ATOM     39  C   UNL A   1      41.047  27.879  29.589  1.00  0.00    -0.014 A 
BRANCH  39  40
ATOM     40  C   UNL A   1      40.860  28.825  30.719  1.00  0.00     0.031 A 
ATOM     41  C   UNL A   1      41.710  28.705  31.955  1.00  0.00     0.074 A 
ATOM     42  C   UNL A   1      39.885  29.753  30.654  1.00  0.00     0.049 A 
ATOM     43  N   UNL A   1      41.654  29.396  33.064  1.00  0.00    -0.248 NA
ATOM     44  C   UNL A   1      42.740  27.654  31.955  1.00  0.00     0.031 C 
ATOM     45  C   UNL A   1      38.966  29.937  29.528  1.00  0.00     0.029 A 
ATOM     46  N   UNL A   1      39.496  30.711  31.557  1.00  0.00    -0.354 N 
ATOM     47  C   UNL A   1      42.631  28.858  33.896  1.00  0.00     0.074 A 
ATOM     48  C   UNL A   1      43.224  27.746  33.185  1.00  0.00     0.031 C 
ATOM     49  C   UNL A   1      38.137  30.959  29.797  1.00  0.00     0.029 A 
ATOM     50  C   UNL A   1      38.436  31.476  31.130  1.00  0.00     0.049 A 
ATOM     51  H   UNL A   1      39.935  30.839  32.428  1.00  0.00     0.167 HD
ATOM     52  C   UNL A   1      43.013  29.268  35.129  1.00  0.00     0.037 A 
ATOM     53  C   UNL A   1      37.771  32.473  31.745  1.00  0.00     0.037 A 
ATOM     54  C   UNL A   1      42.428  30.387  35.822  1.00  0.00     0.049 A 
ATOM     55  C   UNL A   1      38.207  32.903  33.120  1.00  0.00     0.074 A 
ATOM     56  C   UNL A   1      42.782  30.918  37.049  1.00  0.00     0.029 A 
ATOM     57  N   UNL A   1      41.366  31.146  35.350  1.00  0.00    -0.354 N 
ATOM     58  N   UNL A   1      39.175  32.426  33.865  1.00  0.00    -0.248 NA
ATOM     59  C   UNL A   1      37.464  34.011  33.737  1.00  0.00     0.031 C 
ATOM     60  C   UNL A   1      41.899  31.962  37.346  1.00  0.00     0.029 A 
ATOM     61  C   UNL A   1      41.034  32.122  36.275  1.00  0.00     0.049 A 
ATOM     62  H   UNL A   1      40.914  31.009  34.485  1.00  0.00     0.167 HD
ATOM     63  C   UNL A   1      39.178  33.194  35.025  1.00  0.00     0.074 A 
ATOM     64  C   UNL A   1      38.123  34.175  34.877  1.00  0.00     0.031 C 
ATOM     65  C   UNL A   1      39.983  33.097  36.112  1.00  0.00     0.037 A 
BRANCH  52  66
ATOM     66  C   UNL A   1      44.115  28.501  35.811  1.00  0.00     0.058 A 
ATOM     67  C   UNL A   1      45.466  28.854  35.658  1.00  0.00     0.135 A 
ATOM     68  C   UNL A   1      43.815  27.424  36.661  1.00  0.00     0.135 A 
ATOM     69  F   UNL A   1      45.814  29.866  34.847  1.00  0.00    -0.206 F 
ATOM     70  C   UNL A   1      46.480  28.148  36.297  1.00  0.00     0.059 A 
ATOM     71  C   UNL A   1      44.811  26.723  37.335  1.00  0.00     0.059 A 
ATOM     72  F   UNL A   1      42.541  27.042  36.846  1.00  0.00    -0.206 F 
ATOM     73  C   UNL A   1      46.143  27.084  37.134  1.00  0.00     0.060 A 
BRANCH  73  74
ATOM     74  S   UNL A   1      47.471  26.183  37.960  1.00  0.00     0.124 S 
ATOM     75  O   UNL A   1      47.081  26.310  39.361  1.00  0.00    -0.237 OA
ATOM     76  O   UNL A   1      47.343  24.847  37.386  1.00  0.00    -0.237 OA
ATOM     77  O   UNL A   1      48.672  26.916  37.574  1.00  0.00    -0.744 OA
ENDBRANCH  73  74
ENDBRANCH  52  66
BRANCH  53  78
ATOM     78  C   UNL A   1      36.634  33.144  31.058  1.00  0.00     0.058 A 
ATOM     79  C   UNL A   1      35.308  32.912  31.457  1.00  0.00     0.135 A 
ATOM     80  C   UNL A   1      36.849  34.038  29.997  1.00  0.00     0.135 A 
ATOM     81  F   UNL A   1      35.050  32.061  32.462  1.00  0.00    -0.206 F 
ATOM     82  C   UNL A   1      34.237  33.527  30.819  1.00  0.00     0.059 A 
ATOM     83  C   UNL A   1      35.795  34.687  29.363  1.00  0.00     0.059 A 
ATOM     84  F   UNL A   1      38.098  34.308  29.588  1.00  0.00    -0.206 F 
ATOM     85  C   UNL A   1      34.490  34.417  29.774  1.00  0.00     0.060 A 
BRANCH  85  86
ATOM     86  S   UNL A   1      33.094  35.242  28.981  1.00  0.00     0.124 S 
ATOM     87  O   UNL A   1      32.646  34.223  28.039  1.00  0.00    -0.237 OA
ATOM     88  O   UNL A   1      32.209  35.500  30.112  1.00  0.00    -0.237 OA
ATOM     89  O   UNL A   1      33.701  36.429  28.385  1.00  0.00    -0.744 OA
ENDBRANCH  85  86
ENDBRANCH  53  78
BRANCH  65  90
ATOM     90  C   UNL A   1      39.782  34.100  37.216  1.00  0.00     0.058 A 
ATOM     91  C   UNL A   1      38.997  33.814  38.343  1.00  0.00     0.135 A 
ATOM     92  C   UNL A   1      40.432  35.346  37.168  1.00  0.00     0.135 A 
ATOM     93  F   UNL A   1      38.349  32.643  38.437  1.00  0.00    -0.206 F 
ATOM     94  C   UNL A   1      38.841  34.738  39.373  1.00  0.00     0.059 A 
ATOM     95  C   UNL A   1      40.316  36.271  38.201  1.00  0.00     0.059 A 
ATOM     96  F   UNL A   1      41.204  35.665  36.118  1.00  0.00    -0.206 F 
ATOM     97  C   UNL A   1      39.508  35.961  39.294  1.00  0.00     0.060 A 
BRANCH  97  98
ATOM     98  S   UNL A   1      39.325  37.135  40.654  1.00  0.00     0.124 S 
ATOM     99  O   UNL A   1      40.689  37.631  40.799  1.00  0.00    -0.237 OA
ATOM    100  O   UNL A   1      38.357  38.086  40.117  1.00  0.00    -0.237 OA
ATOM    101  O   UNL A   1      38.838  36.307  41.754  1.00  0.00    -0.744 OA
ENDBRANCH  97  98
ENDBRANCH  65  90
ENDBRANCH  39  40
ENDBRANCH  31  34
ENDBRANCH  29  30
ENDBRANCH  28  29
ENDBRANCH  27  28
ENDBRANCH   1  27
TORSDOF 20
ENDMDL
MODEL 2
REMARK VINA RESULT:     -10.9      1.134      2.108
REMARK SMILES C[NH2+][C@]1(C(=O)NCCCCCCNC(=O)c2ccc(-c3c4nc(c(-c5c(F)cc(S(=O)(=O)[O-])cc5F)c5ccc([nH]5)c(-c5c(F)cc(S(=O)(=O)[O-])cc5F)c5nc(c(-c6c(F)cc(S(=O)(=O)[O-])cc6F)c6ccc3[nH]6)C=C5)C=C4)cc2)CCC[C@@H]1CCn1nc(C)c(Cl)c1C
REMARK SMILES IDX 9 1 8 2 7 3 6 4 4 5 5 6 3 8 82 9 85 10 83 11 84 12 2 13 1 14
REMARK SMILES IDX 86 17 87 18 88 19 89 20 94 21 90 22 92 23 95 24 91 25 93 26
REMARK SMILES IDX 10 27 11 28 12 29 13 30 14 31 15 33 16 34 17 35 81 36 18 37
REMARK SMILES IDX 80 38 19 39 20 40 21 41 74 42 22 43 79 44 73 45 75 46 23 47
REMARK SMILES IDX 78 48 72 49 71 50 24 52 58 53 37 54 57 55 38 56 41 57 56 58
REMARK SMILES IDX 76 59 39 60 40 61 55 63 77 64 42 65 25 66 26 67 35 68 27 69
REMARK SMILES IDX 28 70 34 71 36 72 29 73 30 74 31 75 32 76 33 77 59 78 60 79
REMARK SMILES IDX 69 80 61 81 62 82 68 83 70 84 63 85 64 86 65 87 66 88 67 89
REMARK SMILES IDX 43 90 44 91 53 92 45 93 46 94 52 95 54 96 47 97 48 98 49 99
REMARK SMILES IDX 50 100 51 101
REMARK H PARENT 6 7 2 15 2 16 13 32 75 51 41 62
REMARK Flexibility Score: inf
ROOT
ATOM      1  C   UNL A   1      40.298  20.813  26.438  1.00  0.00     0.002 C 
ENDROOT
BRANCH   1   2
ATOM      2  C   UNL A   1      39.514  22.095  26.145  1.00  0.00     0.021 C 
BRANCH   2   3
ATOM      3  C   UNL A   1      38.035  21.852  25.859  1.00  0.00     0.116 C 
BRANCH   3   4
ATOM      4  N   UNL A   1      37.668  22.385  24.560  1.00  0.00    -0.351 N 
ATOM      5  C   UNL A   1      36.478  22.628  23.944  1.00  0.00     0.281 C 
ATOM      6  O   UNL A   1      36.570  23.002  22.767  1.00  0.00    -0.268 OA
ATOM      7  H   UNL A   1      38.445  22.623  24.005  1.00  0.00     0.163 HD
BRANCH   5   8
ATOM      8  C   UNL A   1      35.085  22.512  24.672  1.00  0.00     0.178 C 
ATOM      9  C   UNL A   1      35.041  21.372  25.717  1.00  0.00     0.079 C 
ATOM     10  C   UNL A   1      34.858  23.771  25.564  1.00  0.00     0.062 C 
ATOM     11  C   UNL A   1      34.014  21.810  26.761  1.00  0.00     0.008 C 
ATOM     12  C   UNL A   1      33.860  23.327  26.638  1.00  0.00     0.011 C 
BRANCH   8  13
ATOM     13  N   UNL A   1      34.082  22.134  23.656  1.00  0.00    -0.336 N 
ATOM     14  C   UNL A   1      32.953  21.297  23.932  1.00  0.00     0.331 C 
ATOM     15  H   UNL A   1      33.699  23.011  23.303  1.00  0.00     0.346 HD
ATOM     16  H   UNL A   1      34.634  21.530  23.047  1.00  0.00     0.346 HD
ENDBRANCH   8  13
BRANCH  10  17
ATOM     17  C   UNL A   1      34.525  25.094  24.854  1.00  0.00     0.034 C 
BRANCH  17  18
ATOM     18  C   UNL A   1      33.103  25.624  25.097  1.00  0.00     0.145 C 
BRANCH  18  19
ATOM     19  N   UNL A   1      33.038  26.974  25.632  1.00  0.00    -0.268 N 
ATOM     20  N   UNL A   1      34.033  27.385  26.449  1.00  0.00    -0.176 NA
ATOM     21  C   UNL A   1      32.115  27.957  25.369  1.00  0.00     0.054 A 
ATOM     22  C   UNL A   1      33.736  28.663  26.722  1.00  0.00     0.078 A 
ATOM     23  C   UNL A   1      32.534  29.054  26.092  1.00  0.00     0.084 A 
ATOM     24  C   UNL A   1      30.929  27.810  24.489  1.00  0.00     0.068 C 
ATOM     25  C   UNL A   1      34.644  29.469  27.573  1.00  0.00     0.070 C 
ATOM     26  Cl  UNL A   1      31.778  30.569  26.195  1.00  0.00    -0.080 Cl
ENDBRANCH  18  19
ENDBRANCH  17  18
ENDBRANCH  10  17
ENDBRANCH   5   8
ENDBRANCH   3   4
ENDBRANCH   2   3
ENDBRANCH   1   2
BRANCH   1  27
ATOM     27  C   UNL A   1      41.619  21.024  27.187  1.00  0.00     0.002 C 
BRANCH  27  28
ATOM     28  C   UNL A   1      41.658  22.259  28.092  1.00  0.00     0.021 C 
BRANCH  28  29
ATOM     29  C   UNL A   1      42.813  23.211  27.807  1.00  0.00     0.116 C 
BRANCH  29  30
ATOM     30  N   UNL A   1      42.678  23.849  26.505  1.00  0.00    -0.352 N 
ATOM     31  C   UNL A   1      42.146  25.072  26.192  1.00  0.00     0.251 C 
ATOM     32  H   UNL A   1      43.016  23.326  25.742  1.00  0.00     0.163 HD
ATOM     33  O   UNL A   1      41.908  25.356  25.018  1.00  0.00    -0.269 OA
BRANCH  31  34
ATOM     34  C   UNL A   1      41.847  26.040  27.266  1.00  0.00     0.039 A 
ATOM     35  C   UNL A   1      40.735  25.825  28.083  1.00  0.00     0.014 A 
ATOM     36  C   UNL A   1      42.660  27.161  27.462  1.00  0.00     0.014 A 
ATOM     37  C   UNL A   1      40.470  26.707  29.133  1.00  0.00     0.010 A 
ATOM     38  C   UNL A   1      42.437  27.995  28.555  1.00  0.00     0.010 A 
ATOM     39  C   UNL A   1      41.337  27.781  29.398  1.00  0.00    -0.014 A 
BRANCH  39  40
ATOM     40  C   UNL A   1      41.109  28.687  30.553  1.00  0.00     0.031 A 
ATOM     41  C   UNL A   1      41.934  28.542  31.803  1.00  0.00     0.074 A 
ATOM     42  C   UNL A   1      40.119  29.600  30.496  1.00  0.00     0.049 A 
ATOM     43  N   UNL A   1      41.842  29.196  32.932  1.00  0.00    -0.248 NA
ATOM     44  C   UNL A   1      42.983  27.509  31.792  1.00  0.00     0.031 C 
ATOM     45  C   UNL A   1      39.222  29.804  29.356  1.00  0.00     0.029 A 
ATOM     46  N   UNL A   1      39.695  30.522  31.419  1.00  0.00    -0.354 N 
ATOM     47  C   UNL A   1      42.810  28.648  33.767  1.00  0.00     0.074 A 
ATOM     48  C   UNL A   1      43.438  27.570  33.035  1.00  0.00     0.031 C 
ATOM     49  C   UNL A   1      38.369  30.803  29.639  1.00  0.00     0.029 A 
ATOM     50  C   UNL A   1      38.630  31.282  30.993  1.00  0.00     0.049 A 
ATOM     51  H   UNL A   1      40.112  30.629  32.304  1.00  0.00     0.167 HD
ATOM     52  C   UNL A   1      43.158  29.025  35.021  1.00  0.00     0.037 A 
ATOM     53  C   UNL A   1      37.935  32.247  31.625  1.00  0.00     0.037 A 
ATOM     54  C   UNL A   1      42.539  30.112  35.736  1.00  0.00     0.049 A 
ATOM     55  C   UNL A   1      38.333  32.641  33.022  1.00  0.00     0.074 A 
ATOM     56  C   UNL A   1      42.857  30.609  36.987  1.00  0.00     0.029 A 
ATOM     57  N   UNL A   1      41.475  30.867  35.265  1.00  0.00    -0.354 N 
ATOM     58  N   UNL A   1      39.294  32.157  33.773  1.00  0.00    -0.248 NA
ATOM     59  C   UNL A   1      37.558  33.715  33.657  1.00  0.00     0.031 C 
ATOM     60  C   UNL A   1      41.950  31.628  37.297  1.00  0.00     0.029 A 
ATOM     61  C   UNL A   1      41.105  31.808  36.213  1.00  0.00     0.049 A 
ATOM     62  H   UNL A   1      41.044  30.750  34.387  1.00  0.00     0.167 HD
ATOM     63  C   UNL A   1      39.258  32.887  34.956  1.00  0.00     0.074 A 
ATOM     64  C   UNL A   1      38.189  33.854  34.815  1.00  0.00     0.031 C 
ATOM     65  C   UNL A   1      40.041  32.769  36.057  1.00  0.00     0.037 A 
BRANCH  52  66
ATOM     66  C   UNL A   1      44.259  28.256  35.703  1.00  0.00     0.058 A 
ATOM     67  C   UNL A   1      45.608  28.624  35.575  1.00  0.00     0.135 A 
ATOM     68  C   UNL A   1      43.958  27.160  36.527  1.00  0.00     0.135 A 
ATOM     69  F   UNL A   1      45.956  29.655  34.788  1.00  0.00    -0.206 F 
ATOM     70  C   UNL A   1      46.621  27.915  36.213  1.00  0.00     0.059 A 
ATOM     71  C   UNL A   1      44.952  26.455  37.201  1.00  0.00     0.059 A 
ATOM     72  F   UNL A   1      42.686  26.762  36.688  1.00  0.00    -0.206 F 
ATOM     73  C   UNL A   1      46.283  26.832  37.025  1.00  0.00     0.060 A 
BRANCH  73  74
ATOM     74  S   UNL A   1      47.609  25.928  37.851  1.00  0.00     0.124 S 
ATOM     75  O   UNL A   1      47.518  24.624  37.201  1.00  0.00    -0.237 OA
ATOM     76  O   UNL A   1      48.785  26.723  37.512  1.00  0.00    -0.237 OA
ATOM     77  O   UNL A   1      47.218  25.956  39.256  1.00  0.00    -0.744 OA
ENDBRANCH  73  74
ENDBRANCH  52  66
BRANCH  53  78
ATOM     78  C   UNL A   1      36.801  32.920  30.935  1.00  0.00     0.058 A 
ATOM     79  C   UNL A   1      37.027  33.934  29.990  1.00  0.00     0.135 A 
ATOM     80  C   UNL A   1      35.470  32.557  31.195  1.00  0.00     0.135 A 
ATOM     81  F   UNL A   1      38.281  34.321  29.711  1.00  0.00    -0.206 F 
ATOM     82  C   UNL A   1      35.977  34.576  29.344  1.00  0.00     0.059 A 
ATOM     83  C   UNL A   1      34.404  33.165  30.540  1.00  0.00     0.059 A 
ATOM     84  F   UNL A   1      35.199  31.582  32.076  1.00  0.00    -0.206 F 
ATOM     85  C   UNL A   1      34.667  34.182  29.623  1.00  0.00     0.060 A 
BRANCH  85  86
ATOM     86  S   UNL A   1      33.313  34.992  28.746  1.00  0.00     0.124 S 
ATOM     87  O   UNL A   1      32.526  35.528  29.851  1.00  0.00    -0.237 OA
ATOM     88  O   UNL A   1      34.021  35.974  27.931  1.00  0.00    -0.237 OA
ATOM     89  O   UNL A   1      32.694  33.899  28.001  1.00  0.00    -0.744 OA
ENDBRANCH  85  86
ENDBRANCH  53  78
BRANCH  65  90
ATOM     90  C   UNL A   1      39.799  33.733  37.187  1.00  0.00     0.058 A 
ATOM     91  C   UNL A   1      40.332  35.031  37.181  1.00  0.00     0.135 A 
ATOM     92  C   UNL A   1      38.974  33.367  38.265  1.00  0.00     0.135 A 
ATOM     93  F   UNL A   1      41.132  35.429  36.180  1.00  0.00    -0.206 F 
ATOM     94  C   UNL A   1      40.079  35.925  38.218  1.00  0.00     0.059 A 
ATOM     95  C   UNL A   1      38.681  34.256  39.295  1.00  0.00     0.059 A 
ATOM     96  F   UNL A   1      38.430  32.142  38.314  1.00  0.00    -0.206 F 
ATOM     97  C   UNL A   1      39.249  35.529  39.268  1.00  0.00     0.060 A 
BRANCH  97  98
ATOM     98  S   UNL A   1      38.899  36.712  40.587  1.00  0.00     0.124 S 
ATOM     99  O   UNL A   1      38.543  37.904  39.825  1.00  0.00    -0.237 OA
ATOM    100  O   UNL A   1      37.804  36.065  41.303  1.00  0.00    -0.237 OA
ATOM    101  O   UNL A   1      40.160  36.788  41.318  1.00  0.00    -0.744 OA
ENDBRANCH  97  98
ENDBRANCH  65  90
ENDBRANCH  39  40
ENDBRANCH  31  34
ENDBRANCH  29  30
ENDBRANCH  28  29
ENDBRANCH  27  28
ENDBRANCH   1  27
TORSDOF 20
ENDMDL
MODEL 3
REMARK VINA RESULT:     -10.8      6.603     11.863
REMARK SMILES C[NH2+][C@]1(C(=O)NCCCCCCNC(=O)c2ccc(-c3c4nc(c(-c5c(F)cc(S(=O)(=O)[O-])cc5F)c5ccc([nH]5)c(-c5c(F)cc(S(=O)(=O)[O-])cc5F)c5nc(c(-c6c(F)cc(S(=O)(=O)[O-])cc6F)c6ccc3[nH]6)C=C5)C=C4)cc2)CCC[C@@H]1CCn1nc(C)c(Cl)c1C
REMARK SMILES IDX 9 1 8 2 7 3 6 4 4 5 5 6 3 8 82 9 85 10 83 11 84 12 2 13 1 14
REMARK SMILES IDX 86 17 87 18 88 19 89 20 94 21 90 22 92 23 95 24 91 25 93 26
REMARK SMILES IDX 10 27 11 28 12 29 13 30 14 31 15 33 16 34 17 35 81 36 18 37
REMARK SMILES IDX 80 38 19 39 20 40 21 41 74 42 22 43 79 44 73 45 75 46 23 47
REMARK SMILES IDX 78 48 72 49 71 50 24 52 58 53 37 54 57 55 38 56 41 57 56 58
REMARK SMILES IDX 76 59 39 60 40 61 55 63 77 64 42 65 25 66 26 67 35 68 27 69
REMARK SMILES IDX 28 70 34 71 36 72 29 73 30 74 31 75 32 76 33 77 59 78 60 79
REMARK SMILES IDX 69 80 61 81 62 82 68 83 70 84 63 85 64 86 65 87 66 88 67 89
REMARK SMILES IDX 43 90 44 91 53 92 45 93 46 94 52 95 54 96 47 97 48 98 49 99
REMARK SMILES IDX 50 100 51 101
REMARK H PARENT 6 7 2 15 2 16 13 32 75 51 41 62
REMARK Flexibility Score: inf
ROOT
ATOM      1  C   UNL A   1      34.890  30.377  27.639  1.00  0.00     0.002 C 
ENDROOT
BRANCH   1   2
ATOM      2  C   UNL A   1      33.604  29.634  27.265  1.00  0.00     0.021 C 
BRANCH   2   3
ATOM      3  C   UNL A   1      33.841  28.193  26.824  1.00  0.00     0.116 C 
BRANCH   3   4
ATOM      4  N   UNL A   1      32.613  27.422  26.902  1.00  0.00    -0.351 N 
ATOM      5  C   UNL A   1      31.684  27.036  25.984  1.00  0.00     0.281 C 
ATOM      6  O   UNL A   1      30.696  26.459  26.459  1.00  0.00    -0.268 OA
ATOM      7  H   UNL A   1      32.408  27.111  27.813  1.00  0.00     0.163 HD
BRANCH   5   8
ATOM      8  C   UNL A   1      31.861  27.241  24.432  1.00  0.00     0.178 C 
ATOM      9  C   UNL A   1      31.816  28.728  24.008  1.00  0.00     0.079 C 
ATOM     10  C   UNL A   1      33.308  26.834  24.016  1.00  0.00     0.062 C 
ATOM     11  C   UNL A   1      32.662  28.819  22.738  1.00  0.00     0.008 C 
ATOM     12  C   UNL A   1      33.580  27.595  22.715  1.00  0.00     0.011 C 
BRANCH   8  13
ATOM     13  N   UNL A   1      30.697  26.621  23.767  1.00  0.00    -0.336 N 
ATOM     14  C   UNL A   1      29.472  27.316  23.506  1.00  0.00     0.331 C 
ATOM     15  H   UNL A   1      31.033  26.301  22.859  1.00  0.00     0.346 HD
ATOM     16  H   UNL A   1      30.399  25.950  24.473  1.00  0.00     0.346 HD
ENDBRANCH   8  13
BRANCH  10  17
ATOM     17  C   UNL A   1      33.644  25.333  23.990  1.00  0.00     0.034 C 
BRANCH  17  18
ATOM     18  C   UNL A   1      34.073  24.738  25.339  1.00  0.00     0.145 C 
BRANCH  18  19
ATOM     19  N   UNL A   1      34.442  23.332  25.297  1.00  0.00    -0.268 N 
ATOM     20  N   UNL A   1      33.452  22.412  25.324  1.00  0.00    -0.176 NA
ATOM     21  C   UNL A   1      35.691  22.777  25.163  1.00  0.00     0.054 A 
ATOM     22  C   UNL A   1      34.085  21.236  25.210  1.00  0.00     0.078 A 
ATOM     23  C   UNL A   1      35.483  21.414  25.134  1.00  0.00     0.084 A 
ATOM     24  C   UNL A   1      36.965  23.534  25.078  1.00  0.00     0.068 C 
ATOM     25  C   UNL A   1      33.303  19.977  25.159  1.00  0.00     0.070 C 
ATOM     26  Cl  UNL A   1      36.657  20.195  25.014  1.00  0.00    -0.080 Cl
ENDBRANCH  18  19
ENDBRANCH  17  18
ENDBRANCH  10  17
ENDBRANCH   5   8
ENDBRANCH   3   4
ENDBRANCH   2   3
ENDBRANCH   1   2
BRANCH   1  27
ATOM     27  C   UNL A   1      34.678  31.799  28.171  1.00  0.00     0.002 C 
BRANCH  27  28
ATOM     28  C   UNL A   1      35.935  32.674  28.196  1.00  0.00     0.021 C 
BRANCH  28  29
ATOM     29  C   UNL A   1      36.563  32.834  29.575  1.00  0.00     0.116 C 
BRANCH  29  30
ATOM     30  N   UNL A   1      36.175  31.756  30.473  1.00  0.00    -0.352 N 
ATOM     31  C   UNL A   1      36.789  30.551  30.695  1.00  0.00     0.251 C 
ATOM     32  H   UNL A   1      35.355  31.916  30.995  1.00  0.00     0.163 HD
ATOM     33  O   UNL A   1      36.202  29.669  31.321  1.00  0.00    -0.269 OA
BRANCH  31  34
ATOM     34  C   UNL A   1      38.148  30.311  30.168  1.00  0.00     0.039 A 
ATOM     35  C   UNL A   1      39.232  30.340  31.049  1.00  0.00     0.014 A 
ATOM     36  C   UNL A   1      38.352  30.064  28.808  1.00  0.00     0.014 A 
ATOM     37  C   UNL A   1      40.515  30.066  30.573  1.00  0.00     0.010 A 
ATOM     38  C   UNL A   1      39.620  29.716  28.350  1.00  0.00     0.010 A 
ATOM     39  C   UNL A   1      40.716  29.720  29.226  1.00  0.00    -0.014 A 
BRANCH  39  40
ATOM     40  C   UNL A   1      42.064  29.358  28.717  1.00  0.00     0.031 A 
ATOM     41  C   UNL A   1      42.351  27.949  28.273  1.00  0.00     0.074 A 
ATOM     42  C   UNL A   1      43.044  30.283  28.711  1.00  0.00     0.049 A 
ATOM     43  N   UNL A   1      43.478  27.429  27.858  1.00  0.00    -0.248 NA
ATOM     44  C   UNL A   1      41.234  26.993  28.326  1.00  0.00     0.031 C 
ATOM     45  C   UNL A   1      42.899  31.670  29.161  1.00  0.00     0.029 A 
ATOM     46  N   UNL A   1      44.357  30.198  28.323  1.00  0.00    -0.354 N 
ATOM     47  C   UNL A   1      43.208  26.086  27.612  1.00  0.00     0.074 A 
ATOM     48  C   UNL A   1      41.827  25.860  27.980  1.00  0.00     0.031 C 
ATOM     49  C   UNL A   1      44.068  32.310  29.002  1.00  0.00     0.029 A 
ATOM     50  C   UNL A   1      45.057  31.372  28.479  1.00  0.00     0.049 A 
ATOM     51  H   UNL A   1      44.760  29.374  27.966  1.00  0.00     0.167 HD
ATOM     52  C   UNL A   1      44.030  25.136  27.105  1.00  0.00     0.037 A 
ATOM     53  C   UNL A   1      46.351  31.657  28.240  1.00  0.00     0.037 A 
ATOM     54  C   UNL A   1      45.398  25.376  26.725  1.00  0.00     0.049 A 
ATOM     55  C   UNL A   1      47.248  30.582  27.687  1.00  0.00     0.074 A 
ATOM     56  C   UNL A   1      46.297  24.495  26.150  1.00  0.00     0.029 A 
ATOM     57  N   UNL A   1      46.067  26.581  26.885  1.00  0.00    -0.354 N 
ATOM     58  N   UNL A   1      46.960  29.335  27.399  1.00  0.00    -0.248 NA
ATOM     59  C   UNL A   1      48.645  30.952  27.422  1.00  0.00     0.031 C 
ATOM     60  C   UNL A   1      47.525  25.151  26.013  1.00  0.00     0.029 A 
ATOM     61  C   UNL A   1      47.375  26.459  26.445  1.00  0.00     0.049 A 
ATOM     62  H   UNL A   1      45.670  27.402  27.258  1.00  0.00     0.167 HD
ATOM     63  C   UNL A   1      48.129  28.780  26.890  1.00  0.00     0.074 A 
ATOM     64  C   UNL A   1      49.125  29.831  26.899  1.00  0.00     0.031 C 
ATOM     65  C   UNL A   1      48.356  27.516  26.454  1.00  0.00     0.037 A 
BRANCH  52  66
ATOM     66  C   UNL A   1      43.472  23.748  26.933  1.00  0.00     0.058 A 
ATOM     67  C   UNL A   1      43.304  22.878  28.022  1.00  0.00     0.135 A 
ATOM     68  C   UNL A   1      43.064  23.295  25.668  1.00  0.00     0.135 A 
ATOM     69  F   UNL A   1      43.689  23.252  29.253  1.00  0.00    -0.206 F 
ATOM     70  C   UNL A   1      42.780  21.600  27.859  1.00  0.00     0.059 A 
ATOM     71  C   UNL A   1      42.509  22.031  25.486  1.00  0.00     0.059 A 
ATOM     72  F   UNL A   1      43.200  24.083  24.589  1.00  0.00    -0.206 F 
ATOM     73  C   UNL A   1      42.385  21.185  26.587  1.00  0.00     0.060 A 
BRANCH  73  74
ATOM     74  S   UNL A   1      41.702  19.525  26.395  1.00  0.00     0.124 S 
ATOM     75  O   UNL A   1      42.384  19.069  25.188  1.00  0.00    -0.237 OA
ATOM     76  O   UNL A   1      42.111  18.875  27.636  1.00  0.00    -0.237 OA
ATOM     77  O   UNL A   1      40.269  19.759  26.255  1.00  0.00    -0.744 OA
ENDBRANCH  73  74
ENDBRANCH  52  66
BRANCH  53  78
ATOM     78  C   UNL A   1      46.873  33.026  28.506  1.00  0.00     0.058 A 
ATOM     79  C   UNL A   1      46.873  34.008  27.503  1.00  0.00     0.135 A 
ATOM     80  C   UNL A   1      47.370  33.383  29.769  1.00  0.00     0.135 A 
ATOM     81  F   UNL A   1      46.414  33.714  26.277  1.00  0.00    -0.206 F 
ATOM     82  C   UNL A   1      47.364  35.288  27.736  1.00  0.00     0.059 A 
ATOM     83  C   UNL A   1      47.840  34.666  30.034  1.00  0.00     0.059 A 
ATOM     84  F   UNL A   1      47.377  32.487  30.768  1.00  0.00    -0.206 F 
ATOM     85  C   UNL A   1      47.843  35.609  29.008  1.00  0.00     0.060 A 
BRANCH  85  86
ATOM     86  S   UNL A   1      48.438  37.286  29.311  1.00  0.00     0.124 S 
ATOM     87  O   UNL A   1      49.713  37.278  28.606  1.00  0.00    -0.237 OA
ATOM     88  O   UNL A   1      47.382  38.097  28.714  1.00  0.00    -0.237 OA
ATOM     89  O   UNL A   1      48.521  37.353  30.768  1.00  0.00    -0.744 OA
ENDBRANCH  85  86
ENDBRANCH  53  78
BRANCH  65  90
ATOM     90  C   UNL A   1      49.725  27.205  25.912  1.00  0.00     0.058 A 
ATOM     91  C   UNL A   1      50.768  26.766  26.742  1.00  0.00     0.135 A 
ATOM     92  C   UNL A   1      49.978  27.295  24.533  1.00  0.00     0.135 A 
ATOM     93  F   UNL A   1      50.583  26.668  28.068  1.00  0.00    -0.206 F 
ATOM     94  C   UNL A   1      52.023  26.452  26.228  1.00  0.00     0.059 A 
ATOM     95  C   UNL A   1      51.215  26.956  23.993  1.00  0.00     0.059 A 
ATOM     96  F   UNL A   1      49.013  27.699  23.693  1.00  0.00    -0.206 F 
ATOM     97  C   UNL A   1      52.235  26.547  24.851  1.00  0.00     0.060 A 
BRANCH  97  98
ATOM     98  S   UNL A   1      53.856  26.101  24.194  1.00  0.00     0.124 S 
ATOM     99  O   UNL A   1      54.057  24.779  24.777  1.00  0.00    -0.237 OA
ATOM    100  O   UNL A   1      53.627  26.132  22.752  1.00  0.00    -0.237 OA
ATOM    101  O   UNL A   1      54.731  27.152  24.705  1.00  0.00    -0.744 OA
ENDBRANCH  97  98
ENDBRANCH  65  90
ENDBRANCH  39  40
ENDBRANCH  31  34
ENDBRANCH  29  30
ENDBRANCH  28  29
ENDBRANCH  27  28
ENDBRANCH   1  27
TORSDOF 20
ENDMDL
