MODEL 1
REMARK VINA RESULT:     -11.9      0.000      0.000
REMARK SMILES O=C(NCCCCCCNC(=O)c1ccc(-c2c3nc(c(-c4c(F)cc(S(=O)(=O)[O-])cc4F)c4ccc([nH]4)c(-c4c(F)cc(S(=O)(=O)[O-])cc4F)c4nc(c(-c5c(F)cc(S(=O)(=O)[O-])cc5F)c5ccc2[nH]5)C=C4)C=C3)cc1)C1=NN(c2ccc(S(=O)(=O)[O-])cc2)C(=O)/C1=C/Nc1ccccc1
REMARK SMILES IDX 7 1 6 2 5 3 4 4 3 5 1 6 2 7 79 9 80 10 94 11 81 12 92 13
REMARK SMILES IDX 95 14 93 15 82 16 83 17 91 18 84 19 90 20 85 21 86 22 87 23
REMARK SMILES IDX 88 24 89 25 96 26 97 28 98 29 102 30 99 31 101 32 100 33
REMARK SMILES IDX 8 34 9 35 10 36 11 37 12 39 13 40 14 41 78 42 15 43 77 44
REMARK SMILES IDX 16 45 17 46 18 47 71 48 19 49 76 50 70 51 72 52 20 53 75 54
REMARK SMILES IDX 69 55 68 56 21 58 55 59 34 60 54 61 35 62 38 63 53 64 73 65
REMARK SMILES IDX 36 66 37 67 52 69 74 70 39 71 22 72 23 73 32 74 24 75 25 76
REMARK SMILES IDX 31 77 33 78 26 79 27 80 28 81 29 82 30 83 56 84 57 85 66 86
REMARK SMILES IDX 58 87 59 88 65 89 67 90 60 91 61 92 62 93 63 94 64 95 40 96
REMARK SMILES IDX 41 97 50 98 42 99 43 100 49 101 51 102 44 103 45 104 46 105
REMARK SMILES IDX 47 106 48 107
REMARK H PARENT 3 8 96 27 10 38 72 57 38 68
REMARK Flexibility Score: inf
ROOT
ATOM      1  C   UNL A   1      34.271  24.522  25.742  1.00  0.00     0.002 C 
ENDROOT
BRANCH   1   2
ATOM      2  C   UNL A   1      32.971  24.171  26.472  1.00  0.00     0.002 C 
BRANCH   2   3
ATOM      3  C   UNL A   1      31.920  25.284  26.567  1.00  0.00     0.021 C 
BRANCH   3   4
ATOM      4  C   UNL A   1      30.472  24.845  26.369  1.00  0.00     0.116 C 
BRANCH   4   5
ATOM      5  N   UNL A   1      29.811  25.565  25.296  1.00  0.00    -0.351 N 
ATOM      6  O   UNL A   1      29.209  25.924  23.139  1.00  0.00    -0.267 OA
ATOM      7  C   UNL A   1      29.944  25.367  23.945  1.00  0.00     0.272 C 
ATOM      8  H   UNL A   1      29.194  26.282  25.570  1.00  0.00     0.163 HD
BRANCH   7   9
ATOM      9  C   UNL A   1      30.951  24.387  23.434  1.00  0.00     0.163 C 
ATOM     10  N   UNL A   1      30.880  23.094  23.633  1.00  0.00    -0.158 NA
ATOM     11  C   UNL A   1      32.146  24.784  22.691  1.00  0.00     0.091 C 
ATOM     12  N   UNL A   1      32.047  22.569  23.064  1.00  0.00    -0.196 N 
ATOM     13  C   UNL A   1      32.838  23.517  22.395  1.00  0.00     0.282 C 
ATOM     14  C   UNL A   1      32.619  25.983  22.348  1.00  0.00     0.099 C 
ATOM     15  O   UNL A   1      33.871  23.407  21.758  1.00  0.00    -0.267 OA
BRANCH  12  16
ATOM     16  C   UNL A   1      32.421  21.240  23.380  1.00  0.00     0.069 A 
ATOM     17  C   UNL A   1      33.227  20.961  24.494  1.00  0.00     0.030 A 
ATOM     18  C   UNL A   1      32.062  20.181  22.533  1.00  0.00     0.030 A 
ATOM     19  C   UNL A   1      33.658  19.654  24.757  1.00  0.00     0.021 A 
ATOM     20  C   UNL A   1      32.512  18.880  22.768  1.00  0.00     0.021 A 
ATOM     21  C   UNL A   1      33.302  18.622  23.885  1.00  0.00     0.054 A 
BRANCH  21  22
ATOM     22  S   UNL A   1      33.916  16.988  24.179  1.00  0.00     0.124 S 
ATOM     23  O   UNL A   1      35.252  17.103  24.721  1.00  0.00    -0.237 OA
ATOM     24  O   UNL A   1      32.879  16.239  24.852  1.00  0.00    -0.237 OA
ATOM     25  O   UNL A   1      34.058  16.307  22.722  1.00  0.00    -0.744 OA
ENDBRANCH  21  22
ENDBRANCH  12  16
BRANCH  14  26
ATOM     26  N   UNL A   1      32.180  27.225  22.725  1.00  0.00    -0.361 N 
ATOM     27  H   UNL A   1      31.634  27.717  22.069  1.00  0.00     0.166 HD
BRANCH  26  28
ATOM     28  C   UNL A   1      32.425  27.869  23.947  1.00  0.00     0.038 A 
ATOM     29  C   UNL A   1      33.704  27.786  24.512  1.00  0.00     0.026 A 
ATOM     30  C   UNL A   1      31.457  28.645  24.596  1.00  0.00     0.026 A 
ATOM     31  C   UNL A   1      34.002  28.437  25.710  1.00  0.00     0.002 A 
ATOM     32  C   UNL A   1      31.746  29.279  25.806  1.00  0.00     0.002 A 
ATOM     33  C   UNL A   1      33.019  29.176  26.363  1.00  0.00     0.000 A 
ENDBRANCH  26  28
ENDBRANCH  14  26
ENDBRANCH   7   9
ENDBRANCH   4   5
ENDBRANCH   3   4
ENDBRANCH   2   3
ENDBRANCH   1   2
BRANCH   1  34
ATOM     34  C   UNL A   1      35.460  23.596  26.002  1.00  0.00     0.021 C 
BRANCH  34  35
ATOM     35  C   UNL A   1      36.762  23.966  25.297  1.00  0.00     0.116 C 
BRANCH  35  36
ATOM     36  N   UNL A   1      37.813  22.980  25.480  1.00  0.00    -0.352 N 
ATOM     37  C   UNL A   1      39.029  23.108  26.112  1.00  0.00     0.251 C 
ATOM     38  H   UNL A   1      37.629  22.093  25.098  1.00  0.00     0.163 HD
ATOM     39  O   UNL A   1      39.837  22.186  26.063  1.00  0.00    -0.269 OA
BRANCH  37  40
ATOM     40  C   UNL A   1      39.378  24.362  26.819  1.00  0.00     0.039 A 
ATOM     41  C   UNL A   1      38.951  24.527  28.141  1.00  0.00     0.014 A 
ATOM     42  C   UNL A   1      40.109  25.374  26.192  1.00  0.00     0.014 A 
ATOM     43  C   UNL A   1      39.313  25.674  28.852  1.00  0.00     0.010 A 
ATOM     44  C   UNL A   1      40.522  26.489  26.922  1.00  0.00     0.010 A 
ATOM     45  C   UNL A   1      40.132  26.650  28.261  1.00  0.00    -0.014 A 
BRANCH  45  46
ATOM     46  C   UNL A   1      40.598  27.835  29.028  1.00  0.00     0.031 A 
ATOM     47  C   UNL A   1      41.963  27.840  29.662  1.00  0.00     0.074 A 
ATOM     48  C   UNL A   1      39.765  28.880  29.212  1.00  0.00     0.049 A 
ATOM     49  N   UNL A   1      42.514  28.748  30.427  1.00  0.00    -0.248 NA
ATOM     50  C   UNL A   1      42.812  26.662  29.425  1.00  0.00     0.031 C 
ATOM     51  C   UNL A   1      38.402  28.978  28.686  1.00  0.00     0.029 A 
ATOM     52  N   UNL A   1      39.939  30.055  29.901  1.00  0.00    -0.354 N 
ATOM     53  C   UNL A   1      43.759  28.242  30.782  1.00  0.00     0.074 A 
ATOM     54  C   UNL A   1      43.869  26.932  30.177  1.00  0.00     0.031 C 
ATOM     55  C   UNL A   1      37.872  30.156  29.054  1.00  0.00     0.029 A 
ATOM     56  C   UNL A   1      38.840  30.881  29.871  1.00  0.00     0.049 A 
ATOM     57  H   UNL A   1      40.773  30.284  30.372  1.00  0.00     0.167 HD
ATOM     58  C   UNL A   1      44.729  28.823  31.528  1.00  0.00     0.037 A 
ATOM     59  C   UNL A   1      38.633  32.085  30.441  1.00  0.00     0.037 A 
ATOM     60  C   UNL A   1      44.633  30.145  32.093  1.00  0.00     0.049 A 
ATOM     61  C   UNL A   1      39.731  32.713  31.257  1.00  0.00     0.074 A 
ATOM     62  C   UNL A   1      45.595  30.851  32.795  1.00  0.00     0.029 A 
ATOM     63  N   UNL A   1      43.513  30.958  32.023  1.00  0.00    -0.354 N 
ATOM     64  N   UNL A   1      40.928  32.248  31.522  1.00  0.00    -0.248 NA
ATOM     65  C   UNL A   1      39.452  34.030  31.846  1.00  0.00     0.031 C 
ATOM     66  C   UNL A   1      45.043  32.077  33.183  1.00  0.00     0.029 A 
ATOM     67  C   UNL A   1      43.752  32.151  32.685  1.00  0.00     0.049 A 
ATOM     68  H   UNL A   1      42.672  30.724  31.567  1.00  0.00     0.167 HD
ATOM     69  C   UNL A   1      41.555  33.227  32.285  1.00  0.00     0.074 A 
ATOM     70  C   UNL A   1      40.608  34.314  32.431  1.00  0.00     0.031 C 
ATOM     71  C   UNL A   1      42.803  33.229  32.813  1.00  0.00     0.037 A 
BRANCH  58  72
ATOM     72  C   UNL A   1      45.986  28.038  31.777  1.00  0.00     0.058 A 
ATOM     73  C   UNL A   1      47.121  28.185  30.965  1.00  0.00     0.135 A 
ATOM     74  C   UNL A   1      46.074  27.163  32.873  1.00  0.00     0.135 A 
ATOM     75  F   UNL A   1      47.087  28.998  29.897  1.00  0.00    -0.206 F 
ATOM     76  C   UNL A   1      48.292  27.476  31.214  1.00  0.00     0.059 A 
ATOM     77  C   UNL A   1      47.243  26.461  33.156  1.00  0.00     0.059 A 
ATOM     78  F   UNL A   1      45.018  26.985  33.682  1.00  0.00    -0.206 F 
ATOM     79  C   UNL A   1      48.342  26.614  32.312  1.00  0.00     0.060 A 
BRANCH  79  80
ATOM     80  S   UNL A   1      49.871  25.708  32.629  1.00  0.00     0.124 S 
ATOM     81  O   UNL A   1      50.841  26.794  32.706  1.00  0.00    -0.237 OA
ATOM     82  O   UNL A   1      49.578  25.030  33.890  1.00  0.00    -0.237 OA
ATOM     83  O   UNL A   1      49.996  24.835  31.467  1.00  0.00    -0.744 OA
ENDBRANCH  79  80
ENDBRANCH  58  72
BRANCH  59  84
ATOM     84  C   UNL A   1      37.340  32.791  30.244  1.00  0.00     0.058 A 
ATOM     85  C   UNL A   1      36.312  32.683  31.194  1.00  0.00     0.135 A 
ATOM     86  C   UNL A   1      37.103  33.582  29.111  1.00  0.00     0.135 A 
ATOM     87  F   UNL A   1      36.491  31.933  32.291  1.00  0.00    -0.206 F 
ATOM     88  C   UNL A   1      35.088  33.318  31.018  1.00  0.00     0.059 A 
ATOM     89  C   UNL A   1      35.895  34.245  28.922  1.00  0.00     0.059 A 
ATOM     90  F   UNL A   1      38.060  33.730  28.182  1.00  0.00    -0.206 F 
ATOM     91  C   UNL A   1      34.888  34.097  29.877  1.00  0.00     0.060 A 
BRANCH  91  92
ATOM     92  S   UNL A   1      33.309  34.951  29.674  1.00  0.00     0.124 S 
ATOM     93  O   UNL A   1      32.768  34.890  31.027  1.00  0.00    -0.237 OA
ATOM     94  O   UNL A   1      33.731  36.270  29.213  1.00  0.00    -0.237 OA
ATOM     95  O   UNL A   1      32.617  34.139  28.677  1.00  0.00    -0.744 OA
ENDBRANCH  91  92
ENDBRANCH  59  84
BRANCH  71  96
ATOM     96  C   UNL A   1      43.235  34.455  33.566  1.00  0.00     0.058 A 
ATOM     97  C   UNL A   1      43.653  35.618  32.902  1.00  0.00     0.135 A 
ATOM     98  C   UNL A   1      43.180  34.483  34.969  1.00  0.00     0.135 A 
ATOM     99  F   UNL A   1      43.730  35.640  31.562  1.00  0.00    -0.206 F 
ATOM    100  C   UNL A   1      44.023  36.761  33.603  1.00  0.00     0.059 A 
ATOM    101  C   UNL A   1      43.522  35.622  35.690  1.00  0.00     0.059 A 
ATOM    102  F   UNL A   1      42.778  33.399  35.652  1.00  0.00    -0.206 F 
ATOM    103  C   UNL A   1      43.953  36.753  34.998  1.00  0.00     0.060 A 
BRANCH 103 104
ATOM    104  S   UNL A   1      44.401  38.254  35.897  1.00  0.00     0.124 S 
ATOM    105  O   UNL A   1      45.849  38.109  36.006  1.00  0.00    -0.237 OA
ATOM    106  O   UNL A   1      43.934  39.308  35.002  1.00  0.00    -0.237 OA
ATOM    107  O   UNL A   1      43.661  38.131  37.150  1.00  0.00    -0.744 OA
ENDBRANCH 103 104
ENDBRANCH  71  96
ENDBRANCH  45  46
ENDBRANCH  37  40
ENDBRANCH  35  36
ENDBRANCH  34  35
ENDBRANCH   1  34
TORSDOF 20
ENDMDL
MODEL 2
REMARK VINA RESULT:     -11.7      2.182      2.810
REMARK SMILES O=C(NCCCCCCNC(=O)c1ccc(-c2c3nc(c(-c4c(F)cc(S(=O)(=O)[O-])cc4F)c4ccc([nH]4)c(-c4c(F)cc(S(=O)(=O)[O-])cc4F)c4nc(c(-c5c(F)cc(S(=O)(=O)[O-])cc5F)c5ccc2[nH]5)C=C4)C=C3)cc1)C1=NN(c2ccc(S(=O)(=O)[O-])cc2)C(=O)/C1=C/Nc1ccccc1
REMARK SMILES IDX 7 1 6 2 5 3 4 4 3 5 1 6 2 7 79 9 80 10 94 11 81 12 92 13
REMARK SMILES IDX 95 14 93 15 82 16 83 17 91 18 84 19 90 20 85 21 86 22 87 23
REMARK SMILES IDX 88 24 89 25 96 26 97 28 98 29 102 30 99 31 101 32 100 33
REMARK SMILES IDX 8 34 9 35 10 36 11 37 12 39 13 40 14 41 78 42 15 43 77 44
REMARK SMILES IDX 16 45 17 46 18 47 71 48 19 49 76 50 70 51 72 52 20 53 75 54
REMARK SMILES IDX 69 55 68 56 21 58 55 59 34 60 54 61 35 62 38 63 53 64 73 65
REMARK SMILES IDX 36 66 37 67 52 69 74 70 39 71 22 72 23 73 32 74 24 75 25 76
REMARK SMILES IDX 31 77 33 78 26 79 27 80 28 81 29 82 30 83 56 84 57 85 66 86
REMARK SMILES IDX 58 87 59 88 65 89 67 90 60 91 61 92 62 93 63 94 64 95 40 96
REMARK SMILES IDX 41 97 50 98 42 99 43 100 49 101 51 102 44 103 45 104 46 105
REMARK SMILES IDX 47 106 48 107
REMARK H PARENT 3 8 96 27 10 38 72 57 38 68
REMARK Flexibility Score: inf
ROOT
ATOM      1  C   UNL A   1      34.125  24.185  25.999  1.00  0.00     0.002 C 
ENDROOT
BRANCH   1   2
ATOM      2  C   UNL A   1      32.780  23.826  26.637  1.00  0.00     0.002 C 
BRANCH   2   3
ATOM      3  C   UNL A   1      31.756  24.961  26.753  1.00  0.00     0.021 C 
BRANCH   3   4
ATOM      4  C   UNL A   1      30.316  24.592  26.406  1.00  0.00     0.116 C 
BRANCH   4   5
ATOM      5  N   UNL A   1      29.770  25.411  25.340  1.00  0.00    -0.351 N 
ATOM      6  O   UNL A   1      29.359  25.946  23.175  1.00  0.00    -0.267 OA
ATOM      7  C   UNL A   1      30.007  25.304  23.993  1.00  0.00     0.272 C 
ATOM      8  H   UNL A   1      29.157  26.130  25.617  1.00  0.00     0.163 HD
BRANCH   7   9
ATOM      9  C   UNL A   1      31.018  24.324  23.492  1.00  0.00     0.163 C 
ATOM     10  N   UNL A   1      30.889  23.025  23.592  1.00  0.00    -0.158 NA
ATOM     11  C   UNL A   1      32.281  24.725  22.874  1.00  0.00     0.091 C 
ATOM     12  N   UNL A   1      32.080  22.496  23.079  1.00  0.00    -0.196 N 
ATOM     13  C   UNL A   1      32.953  23.456  22.542  1.00  0.00     0.282 C 
ATOM     14  C   UNL A   1      32.819  25.926  22.656  1.00  0.00     0.099 C 
ATOM     15  O   UNL A   1      34.029  23.351  21.981  1.00  0.00    -0.267 OA
BRANCH  12  16
ATOM     16  C   UNL A   1      32.384  21.135  23.326  1.00  0.00     0.069 A 
ATOM     17  C   UNL A   1      33.047  20.744  24.499  1.00  0.00     0.030 A 
ATOM     18  C   UNL A   1      32.102  20.157  22.360  1.00  0.00     0.030 A 
ATOM     19  C   UNL A   1      33.414  19.407  24.702  1.00  0.00     0.021 A 
ATOM     20  C   UNL A   1      32.491  18.827  22.539  1.00  0.00     0.021 A 
ATOM     21  C   UNL A   1      33.139  18.458  23.714  1.00  0.00     0.054 A 
BRANCH  21  22
ATOM     22  S   UNL A   1      33.677  16.787  23.943  1.00  0.00     0.124 S 
ATOM     23  O   UNL A   1      32.706  16.115  24.777  1.00  0.00    -0.237 OA
ATOM     24  O   UNL A   1      34.068  16.266  22.652  1.00  0.00    -0.237 OA
ATOM     25  O   UNL A   1      35.044  16.881  24.796  1.00  0.00    -0.744 OA
ENDBRANCH  21  22
ENDBRANCH  12  16
BRANCH  14  26
ATOM     26  N   UNL A   1      32.392  27.156  23.086  1.00  0.00    -0.361 N 
ATOM     27  H   UNL A   1      31.920  27.713  22.425  1.00  0.00     0.166 HD
BRANCH  26  28
ATOM     28  C   UNL A   1      32.555  27.701  24.367  1.00  0.00     0.038 A 
ATOM     29  C   UNL A   1      33.781  27.533  25.025  1.00  0.00     0.026 A 
ATOM     30  C   UNL A   1      31.561  28.463  24.994  1.00  0.00     0.026 A 
ATOM     31  C   UNL A   1      33.998  28.086  26.288  1.00  0.00     0.002 A 
ATOM     32  C   UNL A   1      31.768  28.999  26.266  1.00  0.00     0.002 A 
ATOM     33  C   UNL A   1      32.988  28.811  26.913  1.00  0.00     0.000 A 
ENDBRANCH  26  28
ENDBRANCH  14  26
ENDBRANCH   7   9
ENDBRANCH   4   5
ENDBRANCH   3   4
ENDBRANCH   2   3
ENDBRANCH   1   2
BRANCH   1  34
ATOM     34  C   UNL A   1      35.242  23.150  26.154  1.00  0.00     0.021 C 
BRANCH  34  35
ATOM     35  C   UNL A   1      36.647  23.623  25.792  1.00  0.00     0.116 C 
BRANCH  35  36
ATOM     36  N   UNL A   1      37.664  22.606  25.996  1.00  0.00    -0.352 N 
ATOM     37  C   UNL A   1      38.965  22.746  26.417  1.00  0.00     0.251 C 
ATOM     38  H   UNL A   1      37.381  21.684  25.805  1.00  0.00     0.163 HD
ATOM     39  O   UNL A   1      39.711  21.771  26.418  1.00  0.00    -0.269 OA
BRANCH  37  40
ATOM     40  C   UNL A   1      39.479  24.071  26.837  1.00  0.00     0.039 A 
ATOM     41  C   UNL A   1      39.391  24.427  28.187  1.00  0.00     0.014 A 
ATOM     42  C   UNL A   1      40.034  24.964  25.917  1.00  0.00     0.014 A 
ATOM     43  C   UNL A   1      39.919  25.645  28.622  1.00  0.00     0.010 A 
ATOM     44  C   UNL A   1      40.615  26.151  26.361  1.00  0.00     0.010 A 
ATOM     45  C   UNL A   1      40.567  26.504  27.719  1.00  0.00    -0.014 A 
BRANCH  45  46
ATOM     46  C   UNL A   1      41.209  27.764  28.178  1.00  0.00     0.031 A 
ATOM     47  C   UNL A   1      42.706  27.915  28.131  1.00  0.00     0.074 A 
ATOM     48  C   UNL A   1      40.449  28.748  28.700  1.00  0.00     0.049 A 
ATOM     49  N   UNL A   1      43.449  28.906  28.553  1.00  0.00    -0.248 NA
ATOM     50  C   UNL A   1      43.470  26.797  27.555  1.00  0.00     0.031 C 
ATOM     51  C   UNL A   1      38.991  28.706  28.842  1.00  0.00     0.029 A 
ATOM     52  N   UNL A   1      40.796  29.970  29.220  1.00  0.00    -0.354 N 
ATOM     53  C   UNL A   1      44.764  28.523  28.318  1.00  0.00     0.074 A 
ATOM     54  C   UNL A   1      44.719  27.193  27.748  1.00  0.00     0.031 C 
ATOM     55  C   UNL A   1      38.570  29.857  29.391  1.00  0.00     0.029 A 
ATOM     56  C   UNL A   1      39.724  30.703  29.674  1.00  0.00     0.049 A 
ATOM     57  H   UNL A   1      41.725  30.292  29.263  1.00  0.00     0.167 HD
ATOM     58  C   UNL A   1      45.903  29.221  28.540  1.00  0.00     0.037 A 
ATOM     59  C   UNL A   1      39.677  31.916  30.258  1.00  0.00     0.037 A 
ATOM     60  C   UNL A   1      45.942  30.561  29.069  1.00  0.00     0.049 A 
ATOM     61  C   UNL A   1      40.957  32.676  30.485  1.00  0.00     0.074 A 
ATOM     62  C   UNL A   1      47.041  31.381  29.252  1.00  0.00     0.029 A 
ATOM     63  N   UNL A   1      44.834  31.277  29.496  1.00  0.00    -0.354 N 
ATOM     64  N   UNL A   1      42.186  32.324  30.191  1.00  0.00    -0.248 NA
ATOM     65  C   UNL A   1      40.843  33.998  31.117  1.00  0.00     0.031 C 
ATOM     66  C   UNL A   1      46.604  32.578  29.829  1.00  0.00     0.029 A 
ATOM     67  C   UNL A   1      45.226  32.520  29.963  1.00  0.00     0.049 A 
ATOM     68  H   UNL A   1      43.906  30.950  29.471  1.00  0.00     0.167 HD
ATOM     69  C   UNL A   1      42.988  33.393  30.576  1.00  0.00     0.074 A 
ATOM     70  C   UNL A   1      42.105  34.406  31.116  1.00  0.00     0.031 C 
ATOM     71  C   UNL A   1      44.335  33.524  30.488  1.00  0.00     0.037 A 
BRANCH  58  72
ATOM     72  C   UNL A   1      47.210  28.554  28.209  1.00  0.00     0.058 A 
ATOM     73  C   UNL A   1      47.907  27.789  29.156  1.00  0.00     0.135 A 
ATOM     74  C   UNL A   1      47.744  28.640  26.914  1.00  0.00     0.135 A 
ATOM     75  F   UNL A   1      47.448  27.684  30.413  1.00  0.00    -0.206 F 
ATOM     76  C   UNL A   1      49.103  27.152  28.838  1.00  0.00     0.059 A 
ATOM     77  C   UNL A   1      48.926  27.992  26.566  1.00  0.00     0.059 A 
ATOM     78  F   UNL A   1      47.117  29.360  25.969  1.00  0.00    -0.206 F 
ATOM     79  C   UNL A   1      49.605  27.260  27.540  1.00  0.00     0.060 A 
BRANCH  79  80
ATOM     80  S   UNL A   1      51.151  26.420  27.138  1.00  0.00     0.124 S 
ATOM     81  O   UNL A   1      51.307  26.756  25.727  1.00  0.00    -0.237 OA
ATOM     82  O   UNL A   1      52.099  27.056  28.050  1.00  0.00    -0.237 OA
ATOM     83  O   UNL A   1      50.859  25.018  27.421  1.00  0.00    -0.744 OA
ENDBRANCH  79  80
ENDBRANCH  58  72
BRANCH  59  84
ATOM     84  C   UNL A   1      38.370  32.505  30.653  1.00  0.00     0.058 A 
ATOM     85  C   UNL A   1      37.864  32.322  31.950  1.00  0.00     0.135 A 
ATOM     86  C   UNL A   1      37.603  33.255  29.751  1.00  0.00     0.135 A 
ATOM     87  F   UNL A   1      38.559  31.605  32.845  1.00  0.00    -0.206 F 
ATOM     88  C   UNL A   1      36.634  32.845  32.331  1.00  0.00     0.059 A 
ATOM     89  C   UNL A   1      36.380  33.808  30.116  1.00  0.00     0.059 A 
ATOM     90  F   UNL A   1      38.052  33.473  28.505  1.00  0.00    -0.206 F 
ATOM     91  C   UNL A   1      35.897  33.586  31.406  1.00  0.00     0.060 A 
BRANCH  91  92
ATOM     92  S   UNL A   1      34.318  34.297  31.921  1.00  0.00     0.124 S 
ATOM     93  O   UNL A   1      33.770  33.225  32.745  1.00  0.00    -0.237 OA
ATOM     94  O   UNL A   1      34.740  35.499  32.634  1.00  0.00    -0.237 OA
ATOM     95  O   UNL A   1      33.632  34.537  30.655  1.00  0.00    -0.744 OA
ENDBRANCH  91  92
ENDBRANCH  59  84
BRANCH  71  96
ATOM     96  C   UNL A   1      44.935  34.823  30.948  1.00  0.00     0.058 A 
ATOM     97  C   UNL A   1      45.400  34.994  32.260  1.00  0.00     0.135 A 
ATOM     98  C   UNL A   1      45.093  35.890  30.050  1.00  0.00     0.135 A 
ATOM     99  F   UNL A   1      45.265  34.007  33.159  1.00  0.00    -0.206 F 
ATOM    100  C   UNL A   1      45.982  36.189  32.673  1.00  0.00     0.059 A 
ATOM    101  C   UNL A   1      45.694  37.084  30.433  1.00  0.00     0.059 A 
ATOM    102  F   UNL A   1      44.673  35.773  28.780  1.00  0.00    -0.206 F 
ATOM    103  C   UNL A   1      46.126  37.228  31.751  1.00  0.00     0.060 A 
BRANCH 103 104
ATOM    104  S   UNL A   1      46.916  38.760  32.288  1.00  0.00     0.124 S 
ATOM    105  O   UNL A   1      47.733  39.091  31.125  1.00  0.00    -0.237 OA
ATOM    106  O   UNL A   1      45.774  39.636  32.529  1.00  0.00    -0.237 OA
ATOM    107  O   UNL A   1      47.655  38.360  33.481  1.00  0.00    -0.744 OA
ENDBRANCH 103 104
ENDBRANCH  71  96
ENDBRANCH  45  46
ENDBRANCH  37  40
ENDBRANCH  35  36
ENDBRANCH  34  35
ENDBRANCH   1  34
TORSDOF 20
ENDMDL
MODEL 3
REMARK VINA RESULT:     -11.6      4.443      9.635
REMARK SMILES O=C(NCCCCCCNC(=O)c1ccc(-c2c3nc(c(-c4c(F)cc(S(=O)(=O)[O-])cc4F)c4ccc([nH]4)c(-c4c(F)cc(S(=O)(=O)[O-])cc4F)c4nc(c(-c5c(F)cc(S(=O)(=O)[O-])cc5F)c5ccc2[nH]5)C=C4)C=C3)cc1)C1=NN(c2ccc(S(=O)(=O)[O-])cc2)C(=O)/C1=C/Nc1ccccc1
REMARK SMILES IDX 7 1 6 2 5 3 4 4 3 5 1 6 2 7 79 9 80 10 94 11 81 12 92 13
REMARK SMILES IDX 95 14 93 15 82 16 83 17 91 18 84 19 90 20 85 21 86 22 87 23
REMARK SMILES IDX 88 24 89 25 96 26 97 28 98 29 102 30 99 31 101 32 100 33
REMARK SMILES IDX 8 34 9 35 10 36 11 37 12 39 13 40 14 41 78 42 15 43 77 44
REMARK SMILES IDX 16 45 17 46 18 47 71 48 19 49 76 50 70 51 72 52 20 53 75 54
REMARK SMILES IDX 69 55 68 56 21 58 55 59 34 60 54 61 35 62 38 63 53 64 73 65
REMARK SMILES IDX 36 66 37 67 52 69 74 70 39 71 22 72 23 73 32 74 24 75 25 76
REMARK SMILES IDX 31 77 33 78 26 79 27 80 28 81 29 82 30 83 56 84 57 85 66 86
REMARK SMILES IDX 58 87 59 88 65 89 67 90 60 91 61 92 62 93 63 94 64 95 40 96
REMARK SMILES IDX 41 97 50 98 42 99 43 100 49 101 51 102 44 103 45 104 46 105
REMARK SMILES IDX 47 106 48 107
REMARK H PARENT 3 8 96 27 10 38 72 57 38 68
REMARK Flexibility Score: inf
ROOT
ATOM      1  C   UNL A   1      34.195  30.557  27.320  1.00  0.00     0.002 C 
ENDROOT
BRANCH   1   2
ATOM      2  C   UNL A   1      32.770  30.482  26.763  1.00  0.00     0.002 C 
BRANCH   2   3
ATOM      3  C   UNL A   1      32.560  29.568  25.551  1.00  0.00     0.021 C 
BRANCH   3   4
ATOM      4  C   UNL A   1      33.687  28.580  25.263  1.00  0.00     0.116 C 
BRANCH   4   5
ATOM      5  N   UNL A   1      34.039  28.528  23.856  1.00  0.00    -0.351 N 
ATOM      6  O   UNL A   1      33.826  27.803  21.717  1.00  0.00    -0.267 OA
ATOM      7  C   UNL A   1      33.586  27.645  22.908  1.00  0.00     0.272 C 
ATOM      8  H   UNL A   1      34.680  29.207  23.544  1.00  0.00     0.163 HD
BRANCH   7   9
ATOM      9  C   UNL A   1      32.709  26.504  23.315  1.00  0.00     0.163 C 
ATOM     10  N   UNL A   1      33.157  25.322  23.655  1.00  0.00    -0.158 NA
ATOM     11  C   UNL A   1      31.249  26.587  23.332  1.00  0.00     0.091 C 
ATOM     12  N   UNL A   1      32.013  24.546  23.879  1.00  0.00    -0.196 N 
ATOM     13  C   UNL A   1      30.806  25.257  23.786  1.00  0.00     0.282 C 
ATOM     14  C   UNL A   1      30.413  27.569  22.992  1.00  0.00     0.099 C 
ATOM     15  O   UNL A   1      29.650  24.920  23.965  1.00  0.00    -0.267 OA
BRANCH  12  16
ATOM     16  C   UNL A   1      32.150  23.138  23.963  1.00  0.00     0.069 A 
ATOM     17  C   UNL A   1      32.583  22.523  25.147  1.00  0.00     0.030 A 
ATOM     18  C   UNL A   1      31.936  22.335  22.832  1.00  0.00     0.030 A 
ATOM     19  C   UNL A   1      32.791  21.138  25.200  1.00  0.00     0.021 A 
ATOM     20  C   UNL A   1      32.171  20.959  22.865  1.00  0.00     0.021 A 
ATOM     21  C   UNL A   1      32.590  20.366  24.053  1.00  0.00     0.054 A 
BRANCH  21  22
ATOM     22  S   UNL A   1      32.932  18.630  24.106  1.00  0.00     0.124 S 
ATOM     23  O   UNL A   1      32.183  18.060  25.203  1.00  0.00    -0.237 OA
ATOM     24  O   UNL A   1      32.826  18.116  22.758  1.00  0.00    -0.237 OA
ATOM     25  O   UNL A   1      34.495  18.504  24.488  1.00  0.00    -0.744 OA
ENDBRANCH  21  22
ENDBRANCH  12  16
BRANCH  14  26
ATOM     26  N   UNL A   1      30.688  28.766  22.382  1.00  0.00    -0.361 N 
ATOM     27  H   UNL A   1      31.498  28.799  21.824  1.00  0.00     0.166 HD
BRANCH  26  28
ATOM     28  C   UNL A   1      29.935  29.946  22.468  1.00  0.00     0.038 A 
ATOM     29  C   UNL A   1      29.394  30.494  21.297  1.00  0.00     0.026 A 
ATOM     30  C   UNL A   1      29.651  30.570  23.689  1.00  0.00     0.026 A 
ATOM     31  C   UNL A   1      28.613  31.649  21.341  1.00  0.00     0.002 A 
ATOM     32  C   UNL A   1      28.888  31.738  23.733  1.00  0.00     0.002 A 
ATOM     33  C   UNL A   1      28.368  32.278  22.559  1.00  0.00     0.000 A 
ENDBRANCH  26  28
ENDBRANCH  14  26
ENDBRANCH   7   9
ENDBRANCH   4   5
ENDBRANCH   3   4
ENDBRANCH   2   3
ENDBRANCH   1   2
BRANCH   1  34
ATOM     34  C   UNL A   1      34.556  31.837  28.078  1.00  0.00     0.021 C 
BRANCH  34  35
ATOM     35  C   UNL A   1      35.844  31.789  28.894  1.00  0.00     0.116 C 
BRANCH  35  36
ATOM     36  N   UNL A   1      35.672  31.175  30.199  1.00  0.00    -0.352 N 
ATOM     37  C   UNL A   1      36.540  30.379  30.910  1.00  0.00     0.251 C 
ATOM     38  H   UNL A   1      34.810  31.353  30.638  1.00  0.00     0.163 HD
ATOM     39  O   UNL A   1      36.165  29.856  31.956  1.00  0.00    -0.269 OA
BRANCH  37  40
ATOM     40  C   UNL A   1      37.909  30.124  30.405  1.00  0.00     0.039 A 
ATOM     41  C   UNL A   1      38.938  29.920  31.330  1.00  0.00     0.014 A 
ATOM     42  C   UNL A   1      38.188  30.094  29.036  1.00  0.00     0.014 A 
ATOM     43  C   UNL A   1      40.228  29.621  30.883  1.00  0.00     0.010 A 
ATOM     44  C   UNL A   1      39.460  29.734  28.592  1.00  0.00     0.010 A 
ATOM     45  C   UNL A   1      40.494  29.491  29.510  1.00  0.00    -0.014 A 
BRANCH  45  46
ATOM     46  C   UNL A   1      41.838  29.091  29.019  1.00  0.00     0.031 A 
ATOM     47  C   UNL A   1      42.943  30.108  28.913  1.00  0.00     0.074 A 
ATOM     48  C   UNL A   1      42.046  27.825  28.604  1.00  0.00     0.049 A 
ATOM     49  N   UNL A   1      44.155  29.965  28.440  1.00  0.00    -0.248 NA
ATOM     50  C   UNL A   1      42.639  31.471  29.376  1.00  0.00     0.031 C 
ATOM     51  C   UNL A   1      41.045  26.755  28.614  1.00  0.00     0.029 A 
ATOM     52  N   UNL A   1      43.165  27.224  28.081  1.00  0.00    -0.354 N 
ATOM     53  C   UNL A   1      44.748  31.218  28.526  1.00  0.00     0.074 A 
ATOM     54  C   UNL A   1      43.751  32.119  29.064  1.00  0.00     0.031 C 
ATOM     55  C   UNL A   1      41.601  25.627  28.142  1.00  0.00     0.029 A 
ATOM     56  C   UNL A   1      42.983  25.899  27.760  1.00  0.00     0.049 A 
ATOM     57  H   UNL A   1      44.018  27.698  27.950  1.00  0.00     0.167 HD
ATOM     58  C   UNL A   1      46.013  31.581  28.204  1.00  0.00     0.037 A 
ATOM     59  C   UNL A   1      43.831  25.005  27.215  1.00  0.00     0.037 A 
ATOM     60  C   UNL A   1      47.015  30.673  27.708  1.00  0.00     0.049 A 
ATOM     61  C   UNL A   1      45.235  25.432  26.876  1.00  0.00     0.074 A 
ATOM     62  C   UNL A   1      48.346  30.930  27.431  1.00  0.00     0.029 A 
ATOM     63  N   UNL A   1      46.798  29.335  27.417  1.00  0.00    -0.354 N 
ATOM     64  N   UNL A   1      45.797  26.606  27.030  1.00  0.00    -0.248 NA
ATOM     65  C   UNL A   1      46.118  24.412  26.293  1.00  0.00     0.031 C 
ATOM     66  C   UNL A   1      48.925  29.757  26.934  1.00  0.00     0.029 A 
ATOM     67  C   UNL A   1      47.964  28.758  26.943  1.00  0.00     0.049 A 
ATOM     68  H   UNL A   1      45.941  28.863  27.532  1.00  0.00     0.167 HD
ATOM     69  C   UNL A   1      47.109  26.459  26.590  1.00  0.00     0.074 A 
ATOM     70  C   UNL A   1      47.257  25.080  26.172  1.00  0.00     0.031 C 
ATOM     71  C   UNL A   1      48.101  27.381  26.541  1.00  0.00     0.037 A 
BRANCH  58  72
ATOM     72  C   UNL A   1      46.393  33.025  28.379  1.00  0.00     0.058 A 
ATOM     73  C   UNL A   1      46.232  33.961  27.345  1.00  0.00     0.135 A 
ATOM     74  C   UNL A   1      46.876  33.489  29.613  1.00  0.00     0.135 A 
ATOM     75  F   UNL A   1      45.787  33.569  26.142  1.00  0.00    -0.206 F 
ATOM     76  C   UNL A   1      46.561  35.302  27.520  1.00  0.00     0.059 A 
ATOM     77  C   UNL A   1      47.188  34.830  29.819  1.00  0.00     0.059 A 
ATOM     78  F   UNL A   1      47.048  32.636  30.636  1.00  0.00    -0.206 F 
ATOM     79  C   UNL A   1      47.040  35.726  28.761  1.00  0.00     0.060 A 
BRANCH  79  80
ATOM     80  S   UNL A   1      47.452  37.471  28.977  1.00  0.00     0.124 S 
ATOM     81  O   UNL A   1      46.193  38.113  28.617  1.00  0.00    -0.237 OA
ATOM     82  O   UNL A   1      47.814  37.535  30.390  1.00  0.00    -0.237 OA
ATOM     83  O   UNL A   1      48.553  37.678  28.042  1.00  0.00    -0.744 OA
ENDBRANCH  79  80
ENDBRANCH  58  72
BRANCH  59  84
ATOM     84  C   UNL A   1      43.389  23.606  26.975  1.00  0.00     0.058 A 
ATOM     85  C   UNL A   1      43.059  23.171  25.681  1.00  0.00     0.135 A 
ATOM     86  C   UNL A   1      43.284  22.681  28.023  1.00  0.00     0.135 A 
ATOM     87  F   UNL A   1      43.138  24.023  24.648  1.00  0.00    -0.206 F 
ATOM     88  C   UNL A   1      42.622  21.874  25.439  1.00  0.00     0.059 A 
ATOM     89  C   UNL A   1      42.870  21.371  27.803  1.00  0.00     0.059 A 
ATOM     90  F   UNL A   1      43.604  23.044  29.275  1.00  0.00    -0.206 F 
ATOM     91  C   UNL A   1      42.529  20.980  26.507  1.00  0.00     0.060 A 
BRANCH  91  92
ATOM     92  S   UNL A   1      41.999  19.286  26.179  1.00  0.00     0.124 S 
ATOM     93  O   UNL A   1      42.355  18.621  27.427  1.00  0.00    -0.237 OA
ATOM     94  O   UNL A   1      40.570  19.453  25.929  1.00  0.00    -0.237 OA
ATOM     95  O   UNL A   1      42.790  18.908  25.012  1.00  0.00    -0.744 OA
ENDBRANCH  91  92
ENDBRANCH  59  84
BRANCH  71  96
ATOM     96  C   UNL A   1      49.447  26.924  26.053  1.00  0.00     0.058 A 
ATOM     97  C   UNL A   1      49.857  27.127  24.727  1.00  0.00     0.135 A 
ATOM     98  C   UNL A   1      50.356  26.322  26.937  1.00  0.00     0.135 A 
ATOM     99  F   UNL A   1      49.022  27.691  23.840  1.00  0.00    -0.206 F 
ATOM    100  C   UNL A   1      51.116  26.728  24.288  1.00  0.00     0.059 A 
ATOM    101  C   UNL A   1      51.628  25.938  26.528  1.00  0.00     0.059 A 
ATOM    102  F   UNL A   1      50.015  26.114  28.220  1.00  0.00    -0.206 F 
ATOM    103  C   UNL A   1      51.995  26.136  25.197  1.00  0.00     0.060 A 
BRANCH 103 104
ATOM    104  S   UNL A   1      53.640  25.656  24.626  1.00  0.00     0.124 S 
ATOM    105  O   UNL A   1      53.635  24.221  24.894  1.00  0.00    -0.237 OA
ATOM    106  O   UNL A   1      53.608  26.038  23.218  1.00  0.00    -0.237 OA
ATOM    107  O   UNL A   1      54.533  26.449  25.465  1.00  0.00    -0.744 OA
ENDBRANCH 103 104
ENDBRANCH  71  96
ENDBRANCH  45  46
ENDBRANCH  37  40
ENDBRANCH  35  36
ENDBRANCH  34  35
ENDBRANCH   1  34
TORSDOF 20
ENDMDL
