MODEL 1
REMARK VINA RESULT:     -11.2      0.000      0.000
REMARK SMILES O=C(Cn1ccc2ccc(CO)cc21)NCCCCCCNC(=O)c1ccc(-c2c3nc(c(-c4c(F)cc(S(=O)(=O)[O-])cc4F)c4ccc([nH]4)c(-c4c(F)cc(S(=O)(=O)[O-])cc4F)c4nc(c(-c5c(F)cc(S(=O)(=O)[O-])cc5F)c5ccc2[nH]5)C=C4)C=C3)cc1
REMARK SMILES IDX 18 1 17 2 16 3 15 4 1 5 2 6 3 8 4 9 5 10 14 11 6 12 7 13
REMARK SMILES IDX 13 14 8 15 10 16 9 17 11 18 12 19 19 21 20 22 21 23 22 24
REMARK SMILES IDX 23 25 24 27 25 28 26 29 90 30 27 31 89 32 28 33 29 34 30 35
REMARK SMILES IDX 83 36 31 37 88 38 82 39 84 40 32 41 87 42 81 43 80 44 33 46
REMARK SMILES IDX 67 47 46 48 66 49 47 50 50 51 65 52 85 53 48 54 49 55 64 57
REMARK SMILES IDX 86 58 51 59 34 60 35 61 44 62 36 63 37 64 43 65 45 66 38 67
REMARK SMILES IDX 39 68 40 69 41 70 42 71 68 72 69 73 78 74 70 75 71 76 77 77
REMARK SMILES IDX 79 78 72 79 73 80 74 81 75 82 76 83 52 84 53 85 62 86 54 87
REMARK SMILES IDX 55 88 61 89 63 90 56 91 57 92 58 93 59 94 60 95
REMARK H PARENT 15 7 12 20 22 26 84 45 50 56
REMARK Flexibility Score: inf
ROOT
ATOM      1  C   UNL A   1      40.663  21.147  27.157  1.00  0.00     0.002 C 
ENDROOT
BRANCH   1   2
ATOM      2  C   UNL A   1      39.848  22.448  27.115  1.00  0.00     0.021 C 
BRANCH   2   3
ATOM      3  C   UNL A   1      38.872  22.542  25.943  1.00  0.00     0.116 C 
BRANCH   3   4
ATOM      4  N   UNL A   1      37.510  22.318  26.377  1.00  0.00    -0.355 N 
ATOM      5  O   UNL A   1      36.969  20.780  24.766  1.00  0.00    -0.273 OA
ATOM      6  C   UNL A   1      36.645  21.456  25.742  1.00  0.00     0.239 C 
ATOM      7  H   UNL A   1      37.185  22.806  27.168  1.00  0.00     0.163 HD
BRANCH   6   8
ATOM      8  C   UNL A   1      35.210  21.486  26.229  1.00  0.00     0.222 C 
BRANCH   8   9
ATOM      9  N   UNL A   1      34.227  21.512  25.156  1.00  0.00    -0.338 N 
ATOM     10  C   UNL A   1      33.664  22.660  24.662  1.00  0.00     0.087 A 
ATOM     11  C   UNL A   1      33.706  20.407  24.510  1.00  0.00     0.049 A 
ATOM     12  C   UNL A   1      32.779  22.304  23.670  1.00  0.00     0.028 A 
ATOM     13  C   UNL A   1      32.798  20.887  23.561  1.00  0.00    -0.000 A 
ATOM     14  C   UNL A   1      33.962  19.033  24.656  1.00  0.00     0.033 A 
ATOM     15  C   UNL A   1      32.126  19.969  22.733  1.00  0.00     0.011 A 
ATOM     16  C   UNL A   1      33.290  18.127  23.817  1.00  0.00    -0.021 A 
ATOM     17  C   UNL A   1      32.380  18.599  22.867  1.00  0.00     0.007 A 
BRANCH  16  18
ATOM     18  C   UNL A   1      33.562  16.651  23.950  1.00  0.00     0.191 C 
BRANCH  18  19
ATOM     19  O   UNL A   1      34.187  16.168  22.770  1.00  0.00    -0.392 OA
ATOM     20  H   UNL A   1      34.686  16.886  22.350  1.00  0.00     0.211 HD
ENDBRANCH  18  19
ENDBRANCH  16  18
ENDBRANCH   8   9
ENDBRANCH   6   8
ENDBRANCH   3   4
ENDBRANCH   2   3
ENDBRANCH   1   2
BRANCH   1  21
ATOM     21  C   UNL A   1      40.581  20.283  25.895  1.00  0.00     0.002 C 
BRANCH  21  22
ATOM     22  C   UNL A   1      41.432  19.007  25.917  1.00  0.00     0.021 C 
BRANCH  22  23
ATOM     23  C   UNL A   1      42.921  19.240  26.180  1.00  0.00     0.116 C 
BRANCH  23  24
ATOM     24  N   UNL A   1      43.624  19.865  25.079  1.00  0.00    -0.352 N 
ATOM     25  C   UNL A   1      44.013  21.145  24.794  1.00  0.00     0.251 C 
ATOM     26  H   UNL A   1      43.882  19.224  24.378  1.00  0.00     0.163 HD
ATOM     27  O   UNL A   1      44.720  21.290  23.793  1.00  0.00    -0.269 OA
BRANCH  25  28
ATOM     28  C   UNL A   1      43.587  22.351  25.555  1.00  0.00     0.039 A 
ATOM     29  C   UNL A   1      42.830  23.407  25.044  1.00  0.00     0.014 A 
ATOM     30  C   UNL A   1      44.049  22.439  26.882  1.00  0.00     0.014 A 
ATOM     31  C   UNL A   1      42.651  24.571  25.780  1.00  0.00     0.010 A 
ATOM     32  C   UNL A   1      43.844  23.589  27.636  1.00  0.00     0.010 A 
ATOM     33  C   UNL A   1      43.202  24.679  27.055  1.00  0.00    -0.014 A 
BRANCH  33  34
ATOM     34  C   UNL A   1      43.067  25.964  27.737  1.00  0.00     0.031 A 
ATOM     35  C   UNL A   1      44.148  26.966  27.488  1.00  0.00     0.074 A 
ATOM     36  C   UNL A   1      41.971  26.263  28.464  1.00  0.00     0.049 A 
ATOM     37  N   UNL A   1      44.884  27.607  28.341  1.00  0.00    -0.248 NA
ATOM     38  C   UNL A   1      44.501  27.233  26.083  1.00  0.00     0.031 C 
ATOM     39  C   UNL A   1      40.718  25.506  28.556  1.00  0.00     0.029 A 
ATOM     40  N   UNL A   1      41.702  27.389  29.178  1.00  0.00    -0.354 N 
ATOM     41  C   UNL A   1      45.676  28.482  27.594  1.00  0.00     0.074 A 
ATOM     42  C   UNL A   1      45.477  28.130  26.211  1.00  0.00     0.031 C 
ATOM     43  C   UNL A   1      39.756  26.308  29.062  1.00  0.00     0.029 A 
ATOM     44  C   UNL A   1      40.354  27.576  29.444  1.00  0.00     0.049 A 
ATOM     45  H   UNL A   1      42.400  28.015  29.479  1.00  0.00     0.167 HD
ATOM     46  C   UNL A   1      46.331  29.547  28.137  1.00  0.00     0.037 A 
ATOM     47  C   UNL A   1      39.764  28.731  29.838  1.00  0.00     0.037 A 
ATOM     48  C   UNL A   1      46.472  29.428  29.561  1.00  0.00     0.049 A 
ATOM     49  C   UNL A   1      40.827  29.610  30.392  1.00  0.00     0.074 A 
ATOM     50  C   UNL A   1      47.125  28.546  30.399  1.00  0.00     0.029 A 
ATOM     51  N   UNL A   1      45.623  30.143  30.367  1.00  0.00    -0.354 N 
ATOM     52  N   UNL A   1      41.484  29.371  31.493  1.00  0.00    -0.248 NA
ATOM     53  C   UNL A   1      41.455  30.562  29.489  1.00  0.00     0.031 C 
ATOM     54  C   UNL A   1      46.288  28.437  31.546  1.00  0.00     0.029 A 
ATOM     55  C   UNL A   1      45.197  29.283  31.348  1.00  0.00     0.049 A 
ATOM     56  H   UNL A   1      45.369  31.088  30.263  1.00  0.00     0.167 HD
ATOM     57  C   UNL A   1      42.776  29.813  31.243  1.00  0.00     0.074 A 
ATOM     58  C   UNL A   1      42.673  30.619  30.031  1.00  0.00     0.031 C 
ATOM     59  C   UNL A   1      43.854  29.268  31.883  1.00  0.00     0.037 A 
BRANCH  46  60
ATOM     60  C   UNL A   1      46.616  30.832  27.400  1.00  0.00     0.058 A 
ATOM     61  C   UNL A   1      47.944  31.266  27.206  1.00  0.00     0.135 A 
ATOM     62  C   UNL A   1      45.614  31.784  27.108  1.00  0.00     0.135 A 
ATOM     63  F   UNL A   1      48.975  30.448  27.469  1.00  0.00    -0.206 F 
ATOM     64  C   UNL A   1      48.253  32.568  26.804  1.00  0.00     0.059 A 
ATOM     65  C   UNL A   1      45.898  33.069  26.657  1.00  0.00     0.059 A 
ATOM     66  F   UNL A   1      44.318  31.539  27.343  1.00  0.00    -0.206 F 
ATOM     67  C   UNL A   1      47.221  33.467  26.547  1.00  0.00     0.060 A 
BRANCH  67  68
ATOM     68  S   UNL A   1      47.616  35.181  26.151  1.00  0.00     0.124 S 
ATOM     69  O   UNL A   1      48.800  35.020  25.315  1.00  0.00    -0.237 OA
ATOM     70  O   UNL A   1      46.405  35.624  25.467  1.00  0.00    -0.237 OA
ATOM     71  O   UNL A   1      47.845  35.784  27.461  1.00  0.00    -0.744 OA
ENDBRANCH  67  68
ENDBRANCH  46  60
BRANCH  47  72
ATOM     72  C   UNL A   1      38.446  29.254  29.390  1.00  0.00     0.058 A 
ATOM     73  C   UNL A   1      37.451  29.598  30.322  1.00  0.00     0.135 A 
ATOM     74  C   UNL A   1      38.235  29.691  28.066  1.00  0.00     0.135 A 
ATOM     75  F   UNL A   1      37.583  29.245  31.610  1.00  0.00    -0.206 F 
ATOM     76  C   UNL A   1      36.339  30.369  29.971  1.00  0.00     0.059 A 
ATOM     77  C   UNL A   1      37.127  30.445  27.689  1.00  0.00     0.059 A 
ATOM     78  F   UNL A   1      39.152  29.482  27.109  1.00  0.00    -0.206 F 
ATOM     79  C   UNL A   1      36.197  30.807  28.654  1.00  0.00     0.060 A 
BRANCH  79  80
ATOM     80  S   UNL A   1      34.865  31.954  28.236  1.00  0.00     0.124 S 
ATOM     81  O   UNL A   1      35.584  33.006  27.526  1.00  0.00    -0.237 OA
ATOM     82  O   UNL A   1      33.987  31.120  27.423  1.00  0.00    -0.237 OA
ATOM     83  O   UNL A   1      34.325  32.338  29.539  1.00  0.00    -0.744 OA
ENDBRANCH  79  80
ENDBRANCH  47  72
BRANCH  59  84
ATOM     84  C   UNL A   1      43.603  28.373  33.069  1.00  0.00     0.058 A 
ATOM     85  C   UNL A   1      43.497  26.973  32.989  1.00  0.00     0.135 A 
ATOM     86  C   UNL A   1      43.620  28.939  34.353  1.00  0.00     0.135 A 
ATOM     87  F   UNL A   1      43.590  26.341  31.811  1.00  0.00    -0.206 F 
ATOM     88  C   UNL A   1      43.362  26.179  34.129  1.00  0.00     0.059 A 
ATOM     89  C   UNL A   1      43.519  28.162  35.506  1.00  0.00     0.059 A 
ATOM     90  F   UNL A   1      43.788  30.264  34.503  1.00  0.00    -0.206 F 
ATOM     91  C   UNL A   1      43.375  26.782  35.384  1.00  0.00     0.060 A 
BRANCH  91  92
ATOM     92  S   UNL A   1      43.275  25.744  36.859  1.00  0.00     0.124 S 
ATOM     93  O   UNL A   1      42.118  24.901  36.562  1.00  0.00    -0.237 OA
ATOM     94  O   UNL A   1      44.569  25.060  36.851  1.00  0.00    -0.237 OA
ATOM     95  O   UNL A   1      43.091  26.698  37.941  1.00  0.00    -0.744 OA
ENDBRANCH  91  92
ENDBRANCH  59  84
ENDBRANCH  33  34
ENDBRANCH  25  28
ENDBRANCH  23  24
ENDBRANCH  22  23
ENDBRANCH  21  22
ENDBRANCH   1  21
TORSDOF 19
ENDMDL
MODEL 2
REMARK VINA RESULT:     -11.1      2.246      3.657
REMARK SMILES O=C(Cn1ccc2ccc(CO)cc21)NCCCCCCNC(=O)c1ccc(-c2c3nc(c(-c4c(F)cc(S(=O)(=O)[O-])cc4F)c4ccc([nH]4)c(-c4c(F)cc(S(=O)(=O)[O-])cc4F)c4nc(c(-c5c(F)cc(S(=O)(=O)[O-])cc5F)c5ccc2[nH]5)C=C4)C=C3)cc1
REMARK SMILES IDX 18 1 17 2 16 3 15 4 1 5 2 6 3 8 4 9 5 10 14 11 6 12 7 13
REMARK SMILES IDX 13 14 8 15 10 16 9 17 11 18 12 19 19 21 20 22 21 23 22 24
REMARK SMILES IDX 23 25 24 27 25 28 26 29 90 30 27 31 89 32 28 33 29 34 30 35
REMARK SMILES IDX 83 36 31 37 88 38 82 39 84 40 32 41 87 42 81 43 80 44 33 46
REMARK SMILES IDX 67 47 46 48 66 49 47 50 50 51 65 52 85 53 48 54 49 55 64 57
REMARK SMILES IDX 86 58 51 59 34 60 35 61 44 62 36 63 37 64 43 65 45 66 38 67
REMARK SMILES IDX 39 68 40 69 41 70 42 71 68 72 69 73 78 74 70 75 71 76 77 77
REMARK SMILES IDX 79 78 72 79 73 80 74 81 75 82 76 83 52 84 53 85 62 86 54 87
REMARK SMILES IDX 55 88 61 89 63 90 56 91 57 92 58 93 59 94 60 95
REMARK H PARENT 15 7 12 20 22 26 84 45 50 56
REMARK Flexibility Score: inf
ROOT
ATOM      1  C   UNL A   1      39.285  23.428  26.992  1.00  0.00     0.002 C 
ENDROOT
BRANCH   1   2
ATOM      2  C   UNL A   1      38.036  24.149  26.466  1.00  0.00     0.021 C 
BRANCH   2   3
ATOM      3  C   UNL A   1      37.231  23.348  25.444  1.00  0.00     0.116 C 
BRANCH   3   4
ATOM      4  N   UNL A   1      35.843  23.761  25.432  1.00  0.00    -0.355 N 
ATOM      5  O   UNL A   1      35.094  22.125  24.012  1.00  0.00    -0.273 OA
ATOM      6  C   UNL A   1      34.870  23.122  24.698  1.00  0.00     0.239 C 
ATOM      7  H   UNL A   1      35.582  24.538  25.977  1.00  0.00     0.163 HD
BRANCH   6   8
ATOM      8  C   UNL A   1      33.516  23.803  24.668  1.00  0.00     0.222 C 
BRANCH   8   9
ATOM      9  N   UNL A   1      33.493  25.030  23.887  1.00  0.00    -0.338 N 
ATOM     10  C   UNL A   1      33.383  25.066  22.521  1.00  0.00     0.087 A 
ATOM     11  C   UNL A   1      33.606  26.312  24.391  1.00  0.00     0.049 A 
ATOM     12  C   UNL A   1      33.405  26.385  22.130  1.00  0.00     0.028 A 
ATOM     13  C   UNL A   1      33.542  27.181  23.299  1.00  0.00    -0.000 A 
ATOM     14  C   UNL A   1      33.738  26.789  25.707  1.00  0.00     0.033 A 
ATOM     15  C   UNL A   1      33.610  28.568  23.525  1.00  0.00     0.011 A 
ATOM     16  C   UNL A   1      33.797  28.178  25.920  1.00  0.00    -0.021 A 
ATOM     17  C   UNL A   1      33.735  29.053  24.832  1.00  0.00     0.007 A 
BRANCH  16  18
ATOM     18  C   UNL A   1      33.925  28.709  27.324  1.00  0.00     0.191 C 
BRANCH  18  19
ATOM     19  O   UNL A   1      32.749  29.423  27.678  1.00  0.00    -0.392 OA
ATOM     20  H   UNL A   1      32.974  30.349  27.858  1.00  0.00     0.211 HD
ENDBRANCH  18  19
ENDBRANCH  16  18
ENDBRANCH   8   9
ENDBRANCH   6   8
ENDBRANCH   3   4
ENDBRANCH   2   3
ENDBRANCH   1   2
BRANCH   1  21
ATOM     21  C   UNL A   1      39.704  22.184  26.203  1.00  0.00     0.002 C 
BRANCH  21  22
ATOM     22  C   UNL A   1      40.423  21.102  27.019  1.00  0.00     0.021 C 
BRANCH  22  23
ATOM     23  C   UNL A   1      41.950  21.172  26.964  1.00  0.00     0.116 C 
BRANCH  23  24
ATOM     24  N   UNL A   1      42.476  21.593  25.682  1.00  0.00    -0.352 N 
ATOM     25  C   UNL A   1      43.028  22.751  25.206  1.00  0.00     0.251 C 
ATOM     26  H   UNL A   1      42.427  20.886  24.999  1.00  0.00     0.163 HD
ATOM     27  O   UNL A   1      43.489  22.705  24.063  1.00  0.00    -0.269 OA
BRANCH  25  28
ATOM     28  C   UNL A   1      43.042  24.047  25.937  1.00  0.00     0.039 A 
ATOM     29  C   UNL A   1      43.770  24.316  27.098  1.00  0.00     0.014 A 
ATOM     30  C   UNL A   1      42.195  25.051  25.430  1.00  0.00     0.014 A 
ATOM     31  C   UNL A   1      43.563  25.493  27.807  1.00  0.00     0.010 A 
ATOM     32  C   UNL A   1      42.010  26.245  26.117  1.00  0.00     0.010 A 
ATOM     33  C   UNL A   1      42.646  26.432  27.342  1.00  0.00    -0.014 A 
BRANCH  33  34
ATOM     34  C   UNL A   1      42.399  27.601  28.183  1.00  0.00     0.031 A 
ATOM     35  C   UNL A   1      43.454  28.660  28.178  1.00  0.00     0.074 A 
ATOM     36  C   UNL A   1      41.233  27.760  28.841  1.00  0.00     0.049 A 
ATOM     37  N   UNL A   1      44.086  29.193  29.176  1.00  0.00    -0.248 NA
ATOM     38  C   UNL A   1      43.915  29.137  26.862  1.00  0.00     0.031 C 
ATOM     39  C   UNL A   1      40.010  26.960  28.710  1.00  0.00     0.029 A 
ATOM     40  N   UNL A   1      40.855  28.763  29.679  1.00  0.00    -0.354 N 
ATOM     41  C   UNL A   1      44.901  30.189  28.636  1.00  0.00     0.074 A 
ATOM     42  C   UNL A   1      44.838  30.034  27.204  1.00  0.00     0.031 C 
ATOM     43  C   UNL A   1      38.974  27.653  29.234  1.00  0.00     0.029 A 
ATOM     44  C   UNL A   1      39.482  28.869  29.844  1.00  0.00     0.049 A 
ATOM     45  H   UNL A   1      41.498  29.358  30.127  1.00  0.00     0.167 HD
ATOM     46  C   UNL A   1      45.462  31.183  29.381  1.00  0.00     0.037 A 
ATOM     47  C   UNL A   1      38.813  29.937  30.340  1.00  0.00     0.037 A 
ATOM     48  C   UNL A   1      45.484  30.865  30.781  1.00  0.00     0.049 A 
ATOM     49  C   UNL A   1      39.785  30.759  31.108  1.00  0.00     0.074 A 
ATOM     50  C   UNL A   1      46.099  29.891  31.543  1.00  0.00     0.029 A 
ATOM     51  N   UNL A   1      44.538  31.431  31.599  1.00  0.00    -0.354 N 
ATOM     52  N   UNL A   1      40.354  30.383  32.220  1.00  0.00    -0.248 NA
ATOM     53  C   UNL A   1      40.448  31.849  30.409  1.00  0.00     0.031 C 
ATOM     54  C   UNL A   1      45.170  29.593  32.581  1.00  0.00     0.029 A 
ATOM     55  C   UNL A   1      44.066  30.426  32.405  1.00  0.00     0.049 A 
ATOM     56  H   UNL A   1      44.255  32.374  31.606  1.00  0.00     0.167 HD
ATOM     57  C   UNL A   1      41.643  30.894  32.155  1.00  0.00     0.074 A 
ATOM     58  C   UNL A   1      41.611  31.863  31.064  1.00  0.00     0.031 C 
ATOM     59  C   UNL A   1      42.683  30.295  32.807  1.00  0.00     0.037 A 
BRANCH  46  60
ATOM     60  C   UNL A   1      45.755  32.569  28.861  1.00  0.00     0.058 A 
ATOM     61  C   UNL A   1      47.064  33.090  28.912  1.00  0.00     0.135 A 
ATOM     62  C   UNL A   1      44.739  33.502  28.557  1.00  0.00     0.135 A 
ATOM     63  F   UNL A   1      48.105  32.295  29.209  1.00  0.00    -0.206 F 
ATOM     64  C   UNL A   1      47.337  34.447  28.727  1.00  0.00     0.059 A 
ATOM     65  C   UNL A   1      44.993  34.849  28.318  1.00  0.00     0.059 A 
ATOM     66  F   UNL A   1      43.443  33.164  28.576  1.00  0.00    -0.206 F 
ATOM     67  C   UNL A   1      46.289  35.322  28.446  1.00  0.00     0.060 A 
BRANCH  67  68
ATOM     68  S   UNL A   1      46.618  37.091  28.332  1.00  0.00     0.124 S 
ATOM     69  O   UNL A   1      48.025  37.150  28.711  1.00  0.00    -0.237 OA
ATOM     70  O   UNL A   1      46.321  37.367  26.930  1.00  0.00    -0.237 OA
ATOM     71  O   UNL A   1      45.681  37.670  29.291  1.00  0.00    -0.744 OA
ENDBRANCH  67  68
ENDBRANCH  46  60
BRANCH  47  72
ATOM     72  C   UNL A   1      37.517  30.481  29.852  1.00  0.00     0.058 A 
ATOM     73  C   UNL A   1      36.584  31.036  30.745  1.00  0.00     0.135 A 
ATOM     74  C   UNL A   1      37.286  30.722  28.481  1.00  0.00     0.135 A 
ATOM     75  F   UNL A   1      36.741  30.878  32.068  1.00  0.00    -0.206 F 
ATOM     76  C   UNL A   1      35.514  31.824  30.307  1.00  0.00     0.059 A 
ATOM     77  C   UNL A   1      36.218  31.488  28.021  1.00  0.00     0.059 A 
ATOM     78  F   UNL A   1      38.149  30.301  27.545  1.00  0.00    -0.206 F 
ATOM     79  C   UNL A   1      35.353  32.061  28.942  1.00  0.00     0.060 A 
BRANCH  79  80
ATOM     80  S   UNL A   1      34.087  33.226  28.385  1.00  0.00     0.124 S 
ATOM     81  O   UNL A   1      34.852  34.108  27.511  1.00  0.00    -0.237 OA
ATOM     82  O   UNL A   1      33.131  32.344  27.725  1.00  0.00    -0.237 OA
ATOM     83  O   UNL A   1      33.615  33.834  29.627  1.00  0.00    -0.744 OA
ENDBRANCH  79  80
ENDBRANCH  47  72
BRANCH  59  84
ATOM     84  C   UNL A   1      42.368  29.231  33.827  1.00  0.00     0.058 A 
ATOM     85  C   UNL A   1      42.231  27.865  33.522  1.00  0.00     0.135 A 
ATOM     86  C   UNL A   1      42.355  29.586  35.185  1.00  0.00     0.135 A 
ATOM     87  F   UNL A   1      42.348  27.425  32.262  1.00  0.00    -0.206 F 
ATOM     88  C   UNL A   1      42.036  26.905  34.516  1.00  0.00     0.059 A 
ATOM     89  C   UNL A   1      42.195  28.639  36.196  1.00  0.00     0.059 A 
ATOM     90  F   UNL A   1      42.551  30.865  35.549  1.00  0.00    -0.206 F 
ATOM     91  C   UNL A   1      42.020  27.301  35.851  1.00  0.00     0.060 A 
BRANCH  91  92
ATOM     92  S   UNL A   1      41.843  26.046  37.138  1.00  0.00     0.124 S 
ATOM     93  O   UNL A   1      40.464  26.253  37.579  1.00  0.00    -0.237 OA
ATOM     94  O   UNL A   1      42.088  24.804  36.403  1.00  0.00    -0.237 OA
ATOM     95  O   UNL A   1      42.867  26.399  38.108  1.00  0.00    -0.744 OA
ENDBRANCH  91  92
ENDBRANCH  59  84
ENDBRANCH  33  34
ENDBRANCH  25  28
ENDBRANCH  23  24
ENDBRANCH  22  23
ENDBRANCH  21  22
ENDBRANCH   1  21
TORSDOF 19
ENDMDL
MODEL 3
REMARK VINA RESULT:     -10.9      1.481      3.030
REMARK SMILES O=C(Cn1ccc2ccc(CO)cc21)NCCCCCCNC(=O)c1ccc(-c2c3nc(c(-c4c(F)cc(S(=O)(=O)[O-])cc4F)c4ccc([nH]4)c(-c4c(F)cc(S(=O)(=O)[O-])cc4F)c4nc(c(-c5c(F)cc(S(=O)(=O)[O-])cc5F)c5ccc2[nH]5)C=C4)C=C3)cc1
REMARK SMILES IDX 18 1 17 2 16 3 15 4 1 5 2 6 3 8 4 9 5 10 14 11 6 12 7 13
REMARK SMILES IDX 13 14 8 15 10 16 9 17 11 18 12 19 19 21 20 22 21 23 22 24
REMARK SMILES IDX 23 25 24 27 25 28 26 29 90 30 27 31 89 32 28 33 29 34 30 35
REMARK SMILES IDX 83 36 31 37 88 38 82 39 84 40 32 41 87 42 81 43 80 44 33 46
REMARK SMILES IDX 67 47 46 48 66 49 47 50 50 51 65 52 85 53 48 54 49 55 64 57
REMARK SMILES IDX 86 58 51 59 34 60 35 61 44 62 36 63 37 64 43 65 45 66 38 67
REMARK SMILES IDX 39 68 40 69 41 70 42 71 68 72 69 73 78 74 70 75 71 76 77 77
REMARK SMILES IDX 79 78 72 79 73 80 74 81 75 82 76 83 52 84 53 85 62 86 54 87
REMARK SMILES IDX 55 88 61 89 63 90 56 91 57 92 58 93 59 94 60 95
REMARK H PARENT 15 7 12 20 22 26 84 45 50 56
REMARK Flexibility Score: inf
ROOT
ATOM      1  C   UNL A   1      40.169  22.372  26.496  1.00  0.00     0.002 C 
ENDROOT
BRANCH   1   2
ATOM      2  C   UNL A   1      38.636  22.426  26.450  1.00  0.00     0.021 C 
BRANCH   2   3
ATOM      3  C   UNL A   1      38.018  21.753  25.224  1.00  0.00     0.116 C 
BRANCH   3   4
ATOM      4  N   UNL A   1      36.848  22.472  24.767  1.00  0.00    -0.355 N 
ATOM      5  O   UNL A   1      35.295  21.037  25.652  1.00  0.00    -0.273 OA
ATOM      6  C   UNL A   1      35.560  22.050  25.004  1.00  0.00     0.239 C 
ATOM      7  H   UNL A   1      36.980  23.307  24.262  1.00  0.00     0.163 HD
BRANCH   6   8
ATOM      8  C   UNL A   1      34.471  22.831  24.297  1.00  0.00     0.222 C 
BRANCH   8   9
ATOM      9  N   UNL A   1      33.557  23.514  25.201  1.00  0.00    -0.338 N 
ATOM     10  C   UNL A   1      32.778  22.874  26.130  1.00  0.00     0.087 A 
ATOM     11  C   UNL A   1      33.323  24.876  25.237  1.00  0.00     0.049 A 
ATOM     12  C   UNL A   1      32.041  23.828  26.793  1.00  0.00     0.028 A 
ATOM     13  C   UNL A   1      32.377  25.095  26.243  1.00  0.00    -0.000 A 
ATOM     14  C   UNL A   1      33.868  25.937  24.494  1.00  0.00     0.033 A 
ATOM     15  C   UNL A   1      31.964  26.411  26.517  1.00  0.00     0.011 A 
ATOM     16  C   UNL A   1      33.453  27.249  24.784  1.00  0.00    -0.021 A 
ATOM     17  C   UNL A   1      32.506  27.475  25.787  1.00  0.00     0.007 A 
BRANCH  16  18
ATOM     18  C   UNL A   1      34.036  28.400  24.007  1.00  0.00     0.191 C 
BRANCH  18  19
ATOM     19  O   UNL A   1      33.416  29.614  24.407  1.00  0.00    -0.392 OA
ATOM     20  H   UNL A   1      32.452  29.517  24.360  1.00  0.00     0.211 HD
ENDBRANCH  18  19
ENDBRANCH  16  18
ENDBRANCH   8   9
ENDBRANCH   6   8
ENDBRANCH   3   4
ENDBRANCH   2   3
ENDBRANCH   1   2
BRANCH   1  21
ATOM     21  C   UNL A   1      40.763  21.685  27.728  1.00  0.00     0.002 C 
BRANCH  21  22
ATOM     22  C   UNL A   1      41.762  20.558  27.434  1.00  0.00     0.021 C 
BRANCH  22  23
ATOM     23  C   UNL A   1      41.607  19.915  26.054  1.00  0.00     0.116 C 
BRANCH  23  24
ATOM     24  N   UNL A   1      42.823  19.909  25.267  1.00  0.00    -0.352 N 
ATOM     25  C   UNL A   1      43.890  20.756  25.145  1.00  0.00     0.251 C 
ATOM     26  H   UNL A   1      42.899  19.115  24.690  1.00  0.00     0.163 HD
ATOM     27  O   UNL A   1      44.827  20.355  24.450  1.00  0.00    -0.269 OA
BRANCH  25  28
ATOM     28  C   UNL A   1      43.958  22.124  25.727  1.00  0.00     0.039 A 
ATOM     29  C   UNL A   1      44.666  22.483  26.876  1.00  0.00     0.014 A 
ATOM     30  C   UNL A   1      43.187  23.109  25.080  1.00  0.00     0.014 A 
ATOM     31  C   UNL A   1      44.507  23.742  27.441  1.00  0.00     0.010 A 
ATOM     32  C   UNL A   1      43.052  24.382  25.623  1.00  0.00     0.010 A 
ATOM     33  C   UNL A   1      43.662  24.671  26.841  1.00  0.00    -0.014 A 
BRANCH  33  34
ATOM     34  C   UNL A   1      43.458  25.939  27.537  1.00  0.00     0.031 A 
ATOM     35  C   UNL A   1      44.494  26.994  27.315  1.00  0.00     0.074 A 
ATOM     36  C   UNL A   1      42.340  26.178  28.252  1.00  0.00     0.049 A 
ATOM     37  N   UNL A   1      45.188  27.658  28.186  1.00  0.00    -0.248 NA
ATOM     38  C   UNL A   1      44.853  27.295  25.918  1.00  0.00     0.031 C 
ATOM     39  C   UNL A   1      41.123  25.363  28.317  1.00  0.00     0.029 A 
ATOM     40  N   UNL A   1      42.009  27.281  28.976  1.00  0.00    -0.354 N 
ATOM     41  C   UNL A   1      45.948  28.577  27.461  1.00  0.00     0.074 A 
ATOM     42  C   UNL A   1      45.785  28.234  26.071  1.00  0.00     0.031 C 
ATOM     43  C   UNL A   1      40.117  26.113  28.819  1.00  0.00     0.029 A 
ATOM     44  C   UNL A   1      40.650  27.402  29.225  1.00  0.00     0.049 A 
ATOM     45  H   UNL A   1      42.673  27.934  29.294  1.00  0.00     0.167 HD
ATOM     46  C   UNL A   1      46.546  29.664  28.026  1.00  0.00     0.037 A 
ATOM     47  C   UNL A   1      40.002  28.523  29.624  1.00  0.00     0.037 A 
ATOM     48  C   UNL A   1      46.674  29.534  29.450  1.00  0.00     0.049 A 
ATOM     49  C   UNL A   1      41.015  29.444  30.204  1.00  0.00     0.074 A 
ATOM     50  C   UNL A   1      47.355  28.673  30.287  1.00  0.00     0.029 A 
ATOM     51  N   UNL A   1      45.781  30.199  30.253  1.00  0.00    -0.354 N 
ATOM     52  N   UNL A   1      41.668  29.221  31.311  1.00  0.00    -0.248 NA
ATOM     53  C   UNL A   1      41.610  30.435  29.321  1.00  0.00     0.031 C 
ATOM     54  C   UNL A   1      46.508  28.510  31.420  1.00  0.00     0.029 A 
ATOM     55  C   UNL A   1      45.382  29.307  31.217  1.00  0.00     0.049 A 
ATOM     56  H   UNL A   1      45.485  31.132  30.157  1.00  0.00     0.167 HD
ATOM     57  C   UNL A   1      42.941  29.725  31.085  1.00  0.00     0.074 A 
ATOM     58  C   UNL A   1      42.817  30.542  29.882  1.00  0.00     0.031 C 
ATOM     59  C   UNL A   1      44.034  29.223  31.733  1.00  0.00     0.037 A 
BRANCH  46  60
ATOM     60  C   UNL A   1      46.781  30.971  27.309  1.00  0.00     0.058 A 
ATOM     61  C   UNL A   1      48.086  31.484  27.167  1.00  0.00     0.135 A 
ATOM     62  C   UNL A   1      45.736  31.865  26.987  1.00  0.00     0.135 A 
ATOM     63  F   UNL A   1      49.155  30.727  27.461  1.00  0.00    -0.206 F 
ATOM     64  C   UNL A   1      48.333  32.805  26.785  1.00  0.00     0.059 A 
ATOM     65  C   UNL A   1      45.959  33.168  26.555  1.00  0.00     0.059 A 
ATOM     66  F   UNL A   1      44.449  31.541  27.172  1.00  0.00    -0.206 F 
ATOM     67  C   UNL A   1      47.258  33.644  26.497  1.00  0.00     0.060 A 
BRANCH  67  68
ATOM     68  S   UNL A   1      47.566  35.382  26.127  1.00  0.00     0.124 S 
ATOM     69  O   UNL A   1      48.550  35.282  25.056  1.00  0.00    -0.237 OA
ATOM     70  O   UNL A   1      46.240  35.851  25.735  1.00  0.00    -0.237 OA
ATOM     71  O   UNL A   1      48.062  35.913  27.394  1.00  0.00    -0.744 OA
ENDBRANCH  67  68
ENDBRANCH  46  60
BRANCH  47  72
ATOM     72  C   UNL A   1      38.667  28.990  29.165  1.00  0.00     0.058 A 
ATOM     73  C   UNL A   1      37.613  29.175  30.076  1.00  0.00     0.135 A 
ATOM     74  C   UNL A   1      38.477  29.531  27.876  1.00  0.00     0.135 A 
ATOM     75  F   UNL A   1      37.720  28.715  31.333  1.00  0.00    -0.206 F 
ATOM     76  C   UNL A   1      36.461  29.894  29.744  1.00  0.00     0.059 A 
ATOM     77  C   UNL A   1      37.331  30.236  27.517  1.00  0.00     0.059 A 
ATOM     78  F   UNL A   1      39.443  29.477  26.948  1.00  0.00    -0.206 F 
ATOM     79  C   UNL A   1      36.339  30.440  28.467  1.00  0.00     0.060 A 
BRANCH  79  80
ATOM     80  S   UNL A   1      34.942  31.524  28.091  1.00  0.00     0.124 S 
ATOM     81  O   UNL A   1      35.597  32.638  27.416  1.00  0.00    -0.237 OA
ATOM     82  O   UNL A   1      34.109  30.670  27.253  1.00  0.00    -0.237 OA
ATOM     83  O   UNL A   1      34.387  31.832  29.408  1.00  0.00    -0.744 OA
ENDBRANCH  79  80
ENDBRANCH  47  72
BRANCH  59  84
ATOM     84  C   UNL A   1      43.809  28.302  32.905  1.00  0.00     0.058 A 
ATOM     85  C   UNL A   1      43.587  28.744  34.222  1.00  0.00     0.135 A 
ATOM     86  C   UNL A   1      43.663  26.928  32.660  1.00  0.00     0.135 A 
ATOM     87  F   UNL A   1      43.592  30.051  34.520  1.00  0.00    -0.206 F 
ATOM     88  C   UNL A   1      43.287  27.856  35.255  1.00  0.00     0.059 A 
ATOM     89  C   UNL A   1      43.330  26.028  33.671  1.00  0.00     0.059 A 
ATOM     90  F   UNL A   1      43.792  26.449  31.411  1.00  0.00    -0.206 F 
ATOM     91  C   UNL A   1      43.159  26.499  34.971  1.00  0.00     0.060 A 
BRANCH  91  92
ATOM     92  S   UNL A   1      42.695  25.363  36.296  1.00  0.00     0.124 S 
ATOM     93  O   UNL A   1      43.741  25.610  37.289  1.00  0.00    -0.237 OA
ATOM     94  O   UNL A   1      41.358  25.833  36.661  1.00  0.00    -0.237 OA
ATOM     95  O   UNL A   1      42.735  24.056  35.660  1.00  0.00    -0.744 OA
ENDBRANCH  91  92
ENDBRANCH  59  84
ENDBRANCH  33  34
ENDBRANCH  25  28
ENDBRANCH  23  24
ENDBRANCH  22  23
ENDBRANCH  21  22
ENDBRANCH   1  21
TORSDOF 19
ENDMDL
