MODEL 1
REMARK VINA RESULT:     -12.9      0.000      0.000
REMARK SMILES Cc1nc2cc(S(=O)(=O)N3CCC(C(=O)NCCCCCCNC(=O)c4ccc(-c5c6nc(c(-c7c(F)cc(S(=O)(=O)[O-])cc7F)c7ccc([nH]7)c(-c7c(F)cc(S(=O)(=O)[O-])cc7F)c7nc(c(-c8c(F)cc(S(=O)(=O)[O-])cc8F)c8ccc5[nH]8)C=C7)C=C6)cc4)CC3)ccc2n1C1CCCC1
REMARK SMILES IDX 19 1 18 2 17 3 16 4 14 5 15 6 13 8 10 9 11 10 93 11 12 12
REMARK SMILES IDX 92 13 7 14 8 15 9 16 6 17 1 18 2 19 3 20 97 21 4 22 96 23
REMARK SMILES IDX 5 24 95 25 94 26 98 27 99 28 102 29 100 30 101 31 20 32
REMARK SMILES IDX 21 33 22 34 23 35 24 36 25 38 26 39 27 40 91 41 28 42 90 43
REMARK SMILES IDX 29 44 30 45 31 46 84 47 32 48 89 49 83 50 85 51 33 52 88 53
REMARK SMILES IDX 82 54 81 55 34 57 68 58 47 59 67 60 48 61 51 62 66 63 86 64
REMARK SMILES IDX 49 65 50 66 65 68 87 69 52 70 35 71 36 72 45 73 37 74 38 75
REMARK SMILES IDX 44 76 46 77 39 78 40 79 41 80 42 81 43 82 69 83 70 84 79 85
REMARK SMILES IDX 71 86 72 87 78 88 80 89 73 90 74 91 75 92 76 93 77 94 53 95
REMARK SMILES IDX 54 96 63 97 55 98 56 99 62 100 64 101 57 102 58 103 59 104
REMARK SMILES IDX 60 105 61 106
REMARK H PARENT 16 7 23 37 85 56 51 67
REMARK Flexibility Score: inf
ROOT
ATOM      1  C   UNL A   1      35.628  29.945  28.418  1.00  0.00     0.002 C 
ENDROOT
BRANCH   1   2
ATOM      2  C   UNL A   1      35.061  29.095  27.282  1.00  0.00     0.021 C 
BRANCH   2   3
ATOM      3  C   UNL A   1      33.611  28.698  27.514  1.00  0.00     0.116 C 
BRANCH   3   4
ATOM      4  N   UNL A   1      32.746  29.868  27.479  1.00  0.00    -0.356 N 
ATOM      5  C   UNL A   1      32.007  30.384  26.459  1.00  0.00     0.223 C 
ATOM      6  O   UNL A   1      31.419  31.454  26.627  1.00  0.00    -0.275 OA
ATOM      7  H   UNL A   1      32.686  30.365  28.327  1.00  0.00     0.163 HD
BRANCH   5   8
ATOM      8  C   UNL A   1      31.907  29.647  25.134  1.00  0.00     0.081 C 
ATOM      9  N   UNL A   1      32.542  27.346  23.474  1.00  0.00    -0.198 NA
ATOM     10  C   UNL A   1      33.352  28.577  23.316  1.00  0.00     0.103 C 
ATOM     11  C   UNL A   1      31.229  27.384  24.164  1.00  0.00     0.103 C 
ATOM     12  C   UNL A   1      33.277  29.538  24.477  1.00  0.00     0.030 C 
ATOM     13  C   UNL A   1      31.161  28.332  25.336  1.00  0.00     0.030 C 
BRANCH   9  14
ATOM     14  S   UNL A   1      32.563  26.324  22.082  1.00  0.00     0.243 S 
ATOM     15  O   UNL A   1      33.774  26.619  21.338  1.00  0.00    -0.207 OA
ATOM     16  O   UNL A   1      31.257  26.385  21.473  1.00  0.00    -0.207 OA
BRANCH  14  17
ATOM     17  C   UNL A   1      32.752  24.663  22.712  1.00  0.00     0.085 A 
ATOM     18  C   UNL A   1      35.829  20.146  25.122  1.00  0.00     0.088 C 
ATOM     19  C   UNL A   1      34.921  21.155  24.522  1.00  0.00     0.106 A 
ATOM     20  N   UNL A   1      35.289  22.381  24.199  1.00  0.00    -0.233 NA
ATOM     21  N   UNL A   1      33.595  20.938  24.212  1.00  0.00    -0.325 N 
ATOM     22  C   UNL A   1      34.179  22.989  23.679  1.00  0.00     0.090 A 
ATOM     23  C   UNL A   1      33.105  22.108  23.673  1.00  0.00     0.068 A 
ATOM     24  C   UNL A   1      34.017  24.294  23.189  1.00  0.00     0.052 A 
ATOM     25  C   UNL A   1      31.846  22.461  23.195  1.00  0.00     0.030 A 
ATOM     26  C   UNL A   1      31.691  23.755  22.728  1.00  0.00     0.024 A 
BRANCH  21  27
ATOM     27  C   UNL A   1      32.829  19.720  24.401  1.00  0.00     0.089 C 
ATOM     28  C   UNL A   1      33.256  18.555  23.501  1.00  0.00     0.025 C 
ATOM     29  C   UNL A   1      32.898  19.151  25.823  1.00  0.00     0.025 C 
ATOM     30  C   UNL A   1      32.717  17.316  24.199  1.00  0.00     0.002 C 
ATOM     31  C   UNL A   1      32.633  17.654  25.685  1.00  0.00     0.002 C 
ENDBRANCH  21  27
ENDBRANCH  14  17
ENDBRANCH   9  14
ENDBRANCH   5   8
ENDBRANCH   3   4
ENDBRANCH   2   3
ENDBRANCH   1   2
BRANCH   1  32
ATOM     32  C   UNL A   1      36.105  31.335  27.981  1.00  0.00     0.002 C 
BRANCH  32  33
ATOM     33  C   UNL A   1      34.987  32.377  27.835  1.00  0.00     0.021 C 
BRANCH  33  34
ATOM     34  C   UNL A   1      35.116  33.549  28.808  1.00  0.00     0.116 C 
BRANCH  34  35
ATOM     35  N   UNL A   1      34.521  33.279  30.098  1.00  0.00    -0.352 N 
ATOM     36  C   UNL A   1      34.977  32.766  31.277  1.00  0.00     0.251 C 
ATOM     37  H   UNL A   1      33.567  33.521  30.134  1.00  0.00     0.163 HD
ATOM     38  O   UNL A   1      34.172  32.761  32.211  1.00  0.00    -0.269 OA
BRANCH  36  39
ATOM     39  C   UNL A   1      36.312  32.146  31.468  1.00  0.00     0.039 A 
ATOM     40  C   UNL A   1      37.540  32.763  31.221  1.00  0.00     0.014 A 
ATOM     41  C   UNL A   1      36.297  30.785  31.821  1.00  0.00     0.014 A 
ATOM     42  C   UNL A   1      38.695  32.004  31.134  1.00  0.00     0.010 A 
ATOM     43  C   UNL A   1      37.454  30.029  31.778  1.00  0.00     0.010 A 
ATOM     44  C   UNL A   1      38.626  30.627  31.338  1.00  0.00    -0.014 A 
BRANCH  44  45
ATOM     45  C   UNL A   1      39.825  29.841  31.095  1.00  0.00     0.031 A 
ATOM     46  C   UNL A   1      40.716  29.692  32.278  1.00  0.00     0.074 A 
ATOM     47  C   UNL A   1      40.057  29.258  29.901  1.00  0.00     0.049 A 
ATOM     48  N   UNL A   1      41.917  30.145  32.433  1.00  0.00    -0.248 NA
ATOM     49  C   UNL A   1      40.139  29.106  33.498  1.00  0.00     0.031 C 
ATOM     50  C   UNL A   1      39.178  29.166  28.731  1.00  0.00     0.029 A 
ATOM     51  N   UNL A   1      41.142  28.539  29.513  1.00  0.00    -0.354 N 
ATOM     52  C   UNL A   1      42.326  29.735  33.700  1.00  0.00     0.074 A 
ATOM     53  C   UNL A   1      41.149  29.236  34.362  1.00  0.00     0.031 C 
ATOM     54  C   UNL A   1      39.663  28.238  27.874  1.00  0.00     0.029 A 
ATOM     55  C   UNL A   1      40.954  27.786  28.359  1.00  0.00     0.049 A 
ATOM     56  H   UNL A   1      41.993  28.551  30.009  1.00  0.00     0.167 HD
ATOM     57  C   UNL A   1      43.642  29.664  34.046  1.00  0.00     0.037 A 
ATOM     58  C   UNL A   1      41.789  26.818  27.898  1.00  0.00     0.037 A 
ATOM     59  C   UNL A   1      44.465  30.414  33.133  1.00  0.00     0.049 A 
ATOM     60  C   UNL A   1      43.124  27.089  28.501  1.00  0.00     0.074 A 
ATOM     61  C   UNL A   1      44.583  31.754  32.819  1.00  0.00     0.029 A 
ATOM     62  N   UNL A   1      45.069  29.734  32.104  1.00  0.00    -0.354 N 
ATOM     63  N   UNL A   1      43.833  28.149  28.213  1.00  0.00    -0.248 NA
ATOM     64  C   UNL A   1      43.426  26.469  29.784  1.00  0.00     0.031 C 
ATOM     65  C   UNL A   1      44.793  31.784  31.410  1.00  0.00     0.029 A 
ATOM     66  C   UNL A   1      44.863  30.465  30.959  1.00  0.00     0.049 A 
ATOM     67  H   UNL A   1      45.559  28.882  32.173  1.00  0.00     0.167 HD
ATOM     68  C   UNL A   1      44.364  28.570  29.425  1.00  0.00     0.074 A 
ATOM     69  C   UNL A   1      44.121  27.461  30.350  1.00  0.00     0.031 C 
ATOM     70  C   UNL A   1      44.688  29.878  29.650  1.00  0.00     0.037 A 
BRANCH  57  71
ATOM     71  C   UNL A   1      44.219  28.665  35.015  1.00  0.00     0.058 A 
ATOM     72  C   UNL A   1      43.860  27.305  34.917  1.00  0.00     0.135 A 
ATOM     73  C   UNL A   1      44.883  29.036  36.205  1.00  0.00     0.135 A 
ATOM     74  F   UNL A   1      43.225  26.843  33.828  1.00  0.00    -0.206 F 
ATOM     75  C   UNL A   1      44.075  26.400  35.957  1.00  0.00     0.059 A 
ATOM     76  C   UNL A   1      45.152  28.140  37.233  1.00  0.00     0.059 A 
ATOM     77  F   UNL A   1      45.214  30.307  36.469  1.00  0.00    -0.206 F 
ATOM     78  C   UNL A   1      44.705  26.833  37.120  1.00  0.00     0.060 A 
BRANCH  78  79
ATOM     79  S   UNL A   1      44.866  25.701  38.512  1.00  0.00     0.124 S 
ATOM     80  O   UNL A   1      46.245  25.940  38.925  1.00  0.00    -0.237 OA
ATOM     81  O   UNL A   1      43.833  26.190  39.419  1.00  0.00    -0.237 OA
ATOM     82  O   UNL A   1      44.603  24.395  37.917  1.00  0.00    -0.744 OA
ENDBRANCH  78  79
ENDBRANCH  57  71
BRANCH  58  83
ATOM     83  C   UNL A   1      41.400  25.486  27.352  1.00  0.00     0.058 A 
ATOM     84  C   UNL A   1      42.203  24.810  26.415  1.00  0.00     0.135 A 
ATOM     85  C   UNL A   1      40.376  24.721  27.950  1.00  0.00     0.135 A 
ATOM     86  F   UNL A   1      43.216  25.451  25.811  1.00  0.00    -0.206 F 
ATOM     87  C   UNL A   1      42.032  23.449  26.124  1.00  0.00     0.059 A 
ATOM     88  C   UNL A   1      40.183  23.368  27.673  1.00  0.00     0.059 A 
ATOM     89  F   UNL A   1      39.585  25.246  28.898  1.00  0.00    -0.206 F 
ATOM     90  C   UNL A   1      41.031  22.731  26.778  1.00  0.00     0.060 A 
BRANCH  90  91
ATOM     91  S   UNL A   1      40.916  20.939  26.543  1.00  0.00     0.124 S 
ATOM     92  O   UNL A   1      42.098  20.662  25.734  1.00  0.00    -0.237 OA
ATOM     93  O   UNL A   1      40.953  20.446  27.916  1.00  0.00    -0.237 OA
ATOM     94  O   UNL A   1      39.638  20.767  25.856  1.00  0.00    -0.744 OA
ENDBRANCH  90  91
ENDBRANCH  58  83
BRANCH  70  95
ATOM     95  C   UNL A   1      44.638  30.833  28.480  1.00  0.00     0.058 A 
ATOM     96  C   UNL A   1      43.577  31.725  28.238  1.00  0.00     0.135 A 
ATOM     97  C   UNL A   1      45.776  30.966  27.674  1.00  0.00     0.135 A 
ATOM     98  F   UNL A   1      42.500  31.744  29.034  1.00  0.00    -0.206 F 
ATOM     99  C   UNL A   1      43.626  32.673  27.213  1.00  0.00     0.059 A 
ATOM    100  C   UNL A   1      45.860  31.924  26.666  1.00  0.00     0.059 A 
ATOM    101  F   UNL A   1      46.853  30.195  27.900  1.00  0.00    -0.206 F 
ATOM    102  C   UNL A   1      44.774  32.764  26.430  1.00  0.00     0.060 A 
BRANCH 102 103
ATOM    103  S   UNL A   1      44.862  34.029  25.143  1.00  0.00     0.124 S 
ATOM    104  O   UNL A   1      44.431  33.294  23.958  1.00  0.00    -0.237 OA
ATOM    105  O   UNL A   1      43.932  35.044  25.631  1.00  0.00    -0.237 OA
ATOM    106  O   UNL A   1      46.268  34.429  25.151  1.00  0.00    -0.744 OA
ENDBRANCH 102 103
ENDBRANCH  70  95
ENDBRANCH  44  45
ENDBRANCH  36  39
ENDBRANCH  34  35
ENDBRANCH  33  34
ENDBRANCH  32  33
ENDBRANCH   1  32
TORSDOF 19
ENDMDL
MODEL 2
REMARK VINA RESULT:     -12.3      3.307      9.569
REMARK SMILES Cc1nc2cc(S(=O)(=O)N3CCC(C(=O)NCCCCCCNC(=O)c4ccc(-c5c6nc(c(-c7c(F)cc(S(=O)(=O)[O-])cc7F)c7ccc([nH]7)c(-c7c(F)cc(S(=O)(=O)[O-])cc7F)c7nc(c(-c8c(F)cc(S(=O)(=O)[O-])cc8F)c8ccc5[nH]8)C=C7)C=C6)cc4)CC3)ccc2n1C1CCCC1
REMARK SMILES IDX 19 1 18 2 17 3 16 4 14 5 15 6 13 8 10 9 11 10 93 11 12 12
REMARK SMILES IDX 92 13 7 14 8 15 9 16 6 17 1 18 2 19 3 20 97 21 4 22 96 23
REMARK SMILES IDX 5 24 95 25 94 26 98 27 99 28 102 29 100 30 101 31 20 32
REMARK SMILES IDX 21 33 22 34 23 35 24 36 25 38 26 39 27 40 91 41 28 42 90 43
REMARK SMILES IDX 29 44 30 45 31 46 84 47 32 48 89 49 83 50 85 51 33 52 88 53
REMARK SMILES IDX 82 54 81 55 34 57 68 58 47 59 67 60 48 61 51 62 66 63 86 64
REMARK SMILES IDX 49 65 50 66 65 68 87 69 52 70 35 71 36 72 45 73 37 74 38 75
REMARK SMILES IDX 44 76 46 77 39 78 40 79 41 80 42 81 43 82 69 83 70 84 79 85
REMARK SMILES IDX 71 86 72 87 78 88 80 89 73 90 74 91 75 92 76 93 77 94 53 95
REMARK SMILES IDX 54 96 63 97 55 98 56 99 62 100 64 101 57 102 58 103 59 104
REMARK SMILES IDX 60 105 61 106
REMARK H PARENT 16 7 23 37 85 56 51 67
REMARK Flexibility Score: inf
ROOT
ATOM      1  C   UNL A   1      40.247  25.855  28.219  1.00  0.00     0.002 C 
ENDROOT
BRANCH   1   2
ATOM      2  C   UNL A   1      39.518  24.517  28.118  1.00  0.00     0.021 C 
BRANCH   2   3
ATOM      3  C   UNL A   1      38.823  24.328  26.777  1.00  0.00     0.116 C 
BRANCH   3   4
ATOM      4  N   UNL A   1      39.068  22.991  26.256  1.00  0.00    -0.356 N 
ATOM      5  C   UNL A   1      38.223  22.119  25.641  1.00  0.00     0.223 C 
ATOM      6  O   UNL A   1      38.626  20.987  25.367  1.00  0.00    -0.275 OA
ATOM      7  H   UNL A   1      39.991  22.667  26.365  1.00  0.00     0.163 HD
BRANCH   5   8
ATOM      8  C   UNL A   1      36.805  22.540  25.294  1.00  0.00     0.081 C 
ATOM      9  N   UNL A   1      34.272  22.018  23.964  1.00  0.00    -0.198 NA
ATOM     10  C   UNL A   1      35.250  22.909  23.298  1.00  0.00     0.103 C 
ATOM     11  C   UNL A   1      34.396  21.699  25.407  1.00  0.00     0.103 C 
ATOM     12  C   UNL A   1      36.669  22.779  23.796  1.00  0.00     0.030 C 
ATOM     13  C   UNL A   1      35.815  21.551  25.900  1.00  0.00     0.030 C 
BRANCH   9  14
ATOM     14  S   UNL A   1      32.644  22.273  23.449  1.00  0.00     0.243 S 
ATOM     15  O   UNL A   1      31.777  21.531  24.348  1.00  0.00    -0.207 OA
ATOM     16  O   UNL A   1      32.602  22.086  22.020  1.00  0.00    -0.207 OA
BRANCH  14  17
ATOM     17  C   UNL A   1      32.314  24.003  23.746  1.00  0.00     0.085 A 
ATOM     18  C   UNL A   1      30.287  29.422  22.262  1.00  0.00     0.088 C 
ATOM     19  C   UNL A   1      30.839  28.150  22.790  1.00  0.00     0.106 A 
ATOM     20  N   UNL A   1      30.854  27.015  22.117  1.00  0.00    -0.233 NA
ATOM     21  N   UNL A   1      31.417  27.996  24.033  1.00  0.00    -0.325 N 
ATOM     22  C   UNL A   1      31.440  26.090  22.939  1.00  0.00     0.090 A 
ATOM     23  C   UNL A   1      31.804  26.678  24.144  1.00  0.00     0.068 A 
ATOM     24  C   UNL A   1      31.697  24.728  22.719  1.00  0.00     0.052 A 
ATOM     25  C   UNL A   1      32.425  25.969  25.168  1.00  0.00     0.030 A 
ATOM     26  C   UNL A   1      32.660  24.623  24.950  1.00  0.00     0.024 A 
BRANCH  21  27
ATOM     27  C   UNL A   1      31.600  29.010  25.056  1.00  0.00     0.089 C 
ATOM     28  C   UNL A   1      31.461  28.495  26.493  1.00  0.00     0.025 C 
ATOM     29  C   UNL A   1      32.973  29.691  25.023  1.00  0.00     0.025 C 
ATOM     30  C   UNL A   1      32.173  29.537  27.342  1.00  0.00     0.002 C 
ATOM     31  C   UNL A   1      33.225  30.185  26.445  1.00  0.00     0.002 C 
ENDBRANCH  21  27
ENDBRANCH  14  17
ENDBRANCH   9  14
ENDBRANCH   5   8
ENDBRANCH   3   4
ENDBRANCH   2   3
ENDBRANCH   1   2
BRANCH   1  32
ATOM     32  C   UNL A   1      41.772  25.730  28.314  1.00  0.00     0.002 C 
BRANCH  32  33
ATOM     33  C   UNL A   1      42.380  24.633  27.428  1.00  0.00     0.021 C 
BRANCH  33  34
ATOM     34  C   UNL A   1      42.261  24.922  25.932  1.00  0.00     0.116 C 
BRANCH  34  35
ATOM     35  N   UNL A   1      43.534  25.203  25.307  1.00  0.00    -0.352 N 
ATOM     36  C   UNL A   1      44.455  26.203  25.413  1.00  0.00     0.251 C 
ATOM     37  H   UNL A   1      43.797  24.513  24.656  1.00  0.00     0.163 HD
ATOM     38  O   UNL A   1      45.490  26.056  24.759  1.00  0.00    -0.269 OA
BRANCH  36  39
ATOM     39  C   UNL A   1      44.250  27.464  26.170  1.00  0.00     0.039 A 
ATOM     40  C   UNL A   1      44.950  27.850  27.314  1.00  0.00     0.014 A 
ATOM     41  C   UNL A   1      43.174  28.257  25.734  1.00  0.00     0.014 A 
ATOM     42  C   UNL A   1      44.472  28.879  28.109  1.00  0.00     0.010 A 
ATOM     43  C   UNL A   1      42.717  29.315  26.500  1.00  0.00     0.010 A 
ATOM     44  C   UNL A   1      43.311  29.552  27.732  1.00  0.00    -0.014 A 
BRANCH  44  45
ATOM     45  C   UNL A   1      42.755  30.525  28.659  1.00  0.00     0.031 A 
ATOM     46  C   UNL A   1      43.657  31.667  28.970  1.00  0.00     0.074 A 
ATOM     47  C   UNL A   1      41.500  30.406  29.138  1.00  0.00     0.049 A 
ATOM     48  N   UNL A   1      44.198  31.970  30.104  1.00  0.00    -0.248 NA
ATOM     49  C   UNL A   1      44.146  32.478  27.843  1.00  0.00     0.031 C 
ATOM     50  C   UNL A   1      40.455  29.448  28.764  1.00  0.00     0.029 A 
ATOM     51  N   UNL A   1      40.865  31.202  30.036  1.00  0.00    -0.354 N 
ATOM     52  C   UNL A   1      44.943  33.126  29.882  1.00  0.00     0.074 A 
ATOM     53  C   UNL A   1      44.997  33.304  28.455  1.00  0.00     0.031 C 
ATOM     54  C   UNL A   1      39.263  29.871  29.245  1.00  0.00     0.029 A 
ATOM     55  C   UNL A   1      39.484  31.036  30.080  1.00  0.00     0.049 A 
ATOM     56  H   UNL A   1      41.343  31.844  30.610  1.00  0.00     0.167 HD
ATOM     57  C   UNL A   1      45.306  33.957  30.901  1.00  0.00     0.037 A 
ATOM     58  C   UNL A   1      38.606  31.857  30.714  1.00  0.00     0.037 A 
ATOM     59  C   UNL A   1      45.184  33.305  32.178  1.00  0.00     0.049 A 
ATOM     60  C   UNL A   1      39.385  32.590  31.750  1.00  0.00     0.074 A 
ATOM     61  C   UNL A   1      45.816  32.234  32.779  1.00  0.00     0.029 A 
ATOM     62  N   UNL A   1      44.032  33.512  32.899  1.00  0.00    -0.354 N 
ATOM     63  N   UNL A   1      39.923  32.000  32.786  1.00  0.00    -0.248 NA
ATOM     64  C   UNL A   1      39.997  33.856  31.369  1.00  0.00     0.031 C 
ATOM     65  C   UNL A   1      44.787  31.554  33.493  1.00  0.00     0.029 A 
ATOM     66  C   UNL A   1      43.607  32.285  33.345  1.00  0.00     0.049 A 
ATOM     67  H   UNL A   1      43.593  34.378  33.064  1.00  0.00     0.167 HD
ATOM     68  C   UNL A   1      41.173  32.589  32.929  1.00  0.00     0.074 A 
ATOM     69  C   UNL A   1      41.139  33.765  32.058  1.00  0.00     0.031 C 
ATOM     70  C   UNL A   1      42.217  31.923  33.505  1.00  0.00     0.037 A 
BRANCH  57  71
ATOM     71  C   UNL A   1      45.466  35.450  30.770  1.00  0.00     0.058 A 
ATOM     72  C   UNL A   1      44.338  36.256  30.518  1.00  0.00     0.135 A 
ATOM     73  C   UNL A   1      46.718  36.081  30.600  1.00  0.00     0.135 A 
ATOM     74  F   UNL A   1      43.098  35.758  30.650  1.00  0.00    -0.206 F 
ATOM     75  C   UNL A   1      44.448  37.569  30.055  1.00  0.00     0.059 A 
ATOM     76  C   UNL A   1      46.850  37.402  30.189  1.00  0.00     0.059 A 
ATOM     77  F   UNL A   1      47.874  35.417  30.729  1.00  0.00    -0.206 F 
ATOM     78  C   UNL A   1      45.710  38.125  29.876  1.00  0.00     0.060 A 
BRANCH  78  79
ATOM     79  S   UNL A   1      45.856  39.771  29.157  1.00  0.00     0.124 S 
ATOM     80  O   UNL A   1      47.175  39.705  28.538  1.00  0.00    -0.237 OA
ATOM     81  O   UNL A   1      44.720  39.802  28.242  1.00  0.00    -0.237 OA
ATOM     82  O   UNL A   1      45.747  40.655  30.314  1.00  0.00    -0.744 OA
ENDBRANCH  78  79
ENDBRANCH  57  71
BRANCH  58  83
ATOM     83  C   UNL A   1      37.296  32.339  30.192  1.00  0.00     0.058 A 
ATOM     84  C   UNL A   1      36.089  32.069  30.864  1.00  0.00     0.135 A 
ATOM     85  C   UNL A   1      37.228  33.316  29.175  1.00  0.00     0.135 A 
ATOM     86  F   UNL A   1      36.061  31.171  31.860  1.00  0.00    -0.206 F 
ATOM     87  C   UNL A   1      34.901  32.756  30.578  1.00  0.00     0.059 A 
ATOM     88  C   UNL A   1      36.057  34.008  28.869  1.00  0.00     0.059 A 
ATOM     89  F   UNL A   1      38.327  33.694  28.505  1.00  0.00    -0.206 F 
ATOM     90  C   UNL A   1      34.902  33.743  29.592  1.00  0.00     0.060 A 
BRANCH  90  91
ATOM     91  S   UNL A   1      33.424  34.757  29.338  1.00  0.00     0.124 S 
ATOM     92  O   UNL A   1      32.710  34.003  28.313  1.00  0.00    -0.237 OA
ATOM     93  O   UNL A   1      32.819  34.757  30.666  1.00  0.00    -0.237 OA
ATOM     94  O   UNL A   1      33.964  36.043  28.902  1.00  0.00    -0.744 OA
ENDBRANCH  90  91
ENDBRANCH  58  83
BRANCH  70  95
ATOM     95  C   UNL A   1      41.934  30.593  34.163  1.00  0.00     0.058 A 
ATOM     96  C   UNL A   1      41.845  29.373  33.466  1.00  0.00     0.135 A 
ATOM     97  C   UNL A   1      41.920  30.526  35.563  1.00  0.00     0.135 A 
ATOM     98  F   UNL A   1      41.966  29.334  32.133  1.00  0.00    -0.206 F 
ATOM     99  C   UNL A   1      41.700  28.151  34.128  1.00  0.00     0.059 A 
ATOM    100  C   UNL A   1      41.807  29.316  36.245  1.00  0.00     0.059 A 
ATOM    101  F   UNL A   1      42.075  31.646  36.289  1.00  0.00    -0.206 F 
ATOM    102  C   UNL A   1      41.681  28.134  35.520  1.00  0.00     0.060 A 
BRANCH 102 103
ATOM    103  S   UNL A   1      41.554  26.549  36.378  1.00  0.00     0.124 S 
ATOM    104  O   UNL A   1      42.943  26.276  36.731  1.00  0.00    -0.237 OA
ATOM    105  O   UNL A   1      40.667  26.863  37.496  1.00  0.00    -0.237 OA
ATOM    106  O   UNL A   1      40.980  25.659  35.370  1.00  0.00    -0.744 OA
ENDBRANCH 102 103
ENDBRANCH  70  95
ENDBRANCH  44  45
ENDBRANCH  36  39
ENDBRANCH  34  35
ENDBRANCH  33  34
ENDBRANCH  32  33
ENDBRANCH   1  32
TORSDOF 19
ENDMDL
MODEL 3
REMARK VINA RESULT:     -12.2      4.767     12.631
REMARK SMILES Cc1nc2cc(S(=O)(=O)N3CCC(C(=O)NCCCCCCNC(=O)c4ccc(-c5c6nc(c(-c7c(F)cc(S(=O)(=O)[O-])cc7F)c7ccc([nH]7)c(-c7c(F)cc(S(=O)(=O)[O-])cc7F)c7nc(c(-c8c(F)cc(S(=O)(=O)[O-])cc8F)c8ccc5[nH]8)C=C7)C=C6)cc4)CC3)ccc2n1C1CCCC1
REMARK SMILES IDX 19 1 18 2 17 3 16 4 14 5 15 6 13 8 10 9 11 10 93 11 12 12
REMARK SMILES IDX 92 13 7 14 8 15 9 16 6 17 1 18 2 19 3 20 97 21 4 22 96 23
REMARK SMILES IDX 5 24 95 25 94 26 98 27 99 28 102 29 100 30 101 31 20 32
REMARK SMILES IDX 21 33 22 34 23 35 24 36 25 38 26 39 27 40 91 41 28 42 90 43
REMARK SMILES IDX 29 44 30 45 31 46 84 47 32 48 89 49 83 50 85 51 33 52 88 53
REMARK SMILES IDX 82 54 81 55 34 57 68 58 47 59 67 60 48 61 51 62 66 63 86 64
REMARK SMILES IDX 49 65 50 66 65 68 87 69 52 70 35 71 36 72 45 73 37 74 38 75
REMARK SMILES IDX 44 76 46 77 39 78 40 79 41 80 42 81 43 82 69 83 70 84 79 85
REMARK SMILES IDX 71 86 72 87 78 88 80 89 73 90 74 91 75 92 76 93 77 94 53 95
REMARK SMILES IDX 54 96 63 97 55 98 56 99 62 100 64 101 57 102 58 103 59 104
REMARK SMILES IDX 60 105 61 106
REMARK H PARENT 16 7 23 37 85 56 51 67
REMARK Flexibility Score: inf
ROOT
ATOM      1  C   UNL A   1      42.447  18.920  27.591  1.00  0.00     0.002 C 
ENDROOT
BRANCH   1   2
ATOM      2  C   UNL A   1      42.795  18.246  26.266  1.00  0.00     0.021 C 
BRANCH   2   3
ATOM      3  C   UNL A   1      43.477  19.191  25.288  1.00  0.00     0.116 C 
BRANCH   3   4
ATOM      4  N   UNL A   1      44.918  18.983  25.293  1.00  0.00    -0.356 N 
ATOM      5  C   UNL A   1      45.936  19.880  25.183  1.00  0.00     0.223 C 
ATOM      6  O   UNL A   1      47.094  19.465  25.111  1.00  0.00    -0.275 OA
ATOM      7  H   UNL A   1      45.200  18.045  25.392  1.00  0.00     0.163 HD
BRANCH   5   8
ATOM      8  C   UNL A   1      45.646  21.371  25.155  1.00  0.00     0.081 C 
ATOM      9  N   UNL A   1      46.489  24.115  25.618  1.00  0.00    -0.198 NA
ATOM     10  C   UNL A   1      45.654  23.449  26.645  1.00  0.00     0.103 C 
ATOM     11  C   UNL A   1      46.586  23.564  24.244  1.00  0.00     0.103 C 
ATOM     12  C   UNL A   1      45.636  21.942  26.567  1.00  0.00     0.030 C 
ATOM     13  C   UNL A   1      46.585  22.057  24.169  1.00  0.00     0.030 C 
BRANCH   9  14
ATOM     14  S   UNL A   1      46.398  25.839  25.668  1.00  0.00     0.243 S 
ATOM     15  O   UNL A   1      46.491  26.244  27.059  1.00  0.00    -0.207 OA
ATOM     16  O   UNL A   1      45.301  26.245  24.824  1.00  0.00    -0.207 OA
BRANCH  14  17
ATOM     17  C   UNL A   1      47.890  26.418  24.875  1.00  0.00     0.085 A 
ATOM     18  C   UNL A   1      50.967  29.105  20.517  1.00  0.00     0.088 C 
ATOM     19  C   UNL A   1      50.365  28.408  21.679  1.00  0.00     0.106 A 
ATOM     20  N   UNL A   1      49.069  28.205  21.829  1.00  0.00    -0.233 NA
ATOM     21  N   UNL A   1      51.074  27.872  22.734  1.00  0.00    -0.325 N 
ATOM     22  C   UNL A   1      48.921  27.535  23.013  1.00  0.00     0.090 A 
ATOM     23  C   UNL A   1      50.161  27.311  23.599  1.00  0.00     0.068 A 
ATOM     24  C   UNL A   1      47.754  27.082  23.648  1.00  0.00     0.052 A 
ATOM     25  C   UNL A   1      50.309  26.646  24.813  1.00  0.00     0.030 A 
ATOM     26  C   UNL A   1      49.152  26.218  25.441  1.00  0.00     0.024 A 
BRANCH  21  27
ATOM     27  C   UNL A   1      52.513  27.878  22.926  1.00  0.00     0.089 C 
ATOM     28  C   UNL A   1      52.978  28.556  24.219  1.00  0.00     0.025 C 
ATOM     29  C   UNL A   1      53.145  26.482  22.976  1.00  0.00     0.025 C 
ATOM     30  C   UNL A   1      54.377  28.008  24.456  1.00  0.00     0.002 C 
ATOM     31  C   UNL A   1      54.425  26.635  23.792  1.00  0.00     0.002 C 
ENDBRANCH  21  27
ENDBRANCH  14  17
ENDBRANCH   9  14
ENDBRANCH   5   8
ENDBRANCH   3   4
ENDBRANCH   2   3
ENDBRANCH   1   2
BRANCH   1  32
ATOM     32  C   UNL A   1      42.362  20.449  27.511  1.00  0.00     0.002 C 
BRANCH  32  33
ATOM     33  C   UNL A   1      40.934  21.010  27.506  1.00  0.00     0.021 C 
BRANCH  33  34
ATOM     34  C   UNL A   1      40.494  21.546  26.143  1.00  0.00     0.116 C 
BRANCH  34  35
ATOM     35  N   UNL A   1      41.562  22.201  25.423  1.00  0.00    -0.352 N 
ATOM     36  C   UNL A   1      42.141  23.435  25.477  1.00  0.00     0.251 C 
ATOM     37  H   UNL A   1      41.965  21.624  24.735  1.00  0.00     0.163 HD
ATOM     38  O   UNL A   1      43.111  23.610  24.735  1.00  0.00    -0.269 OA
BRANCH  36  39
ATOM     39  C   UNL A   1      41.628  24.574  26.280  1.00  0.00     0.039 A 
ATOM     40  C   UNL A   1      40.897  25.656  25.787  1.00  0.00     0.014 A 
ATOM     41  C   UNL A   1      42.030  24.586  27.628  1.00  0.00     0.014 A 
ATOM     42  C   UNL A   1      40.743  26.799  26.553  1.00  0.00     0.010 A 
ATOM     43  C   UNL A   1      41.841  25.708  28.414  1.00  0.00     0.010 A 
ATOM     44  C   UNL A   1      41.287  26.842  27.836  1.00  0.00    -0.014 A 
BRANCH  44  45
ATOM     45  C   UNL A   1      41.236  28.104  28.556  1.00  0.00     0.031 A 
ATOM     46  C   UNL A   1      42.387  29.010  28.296  1.00  0.00     0.074 A 
ATOM     47  C   UNL A   1      40.189  28.425  29.344  1.00  0.00     0.049 A 
ATOM     48  N   UNL A   1      43.297  29.401  29.128  1.00  0.00    -0.248 NA
ATOM     49  C   UNL A   1      42.650  29.399  26.901  1.00  0.00     0.031 C 
ATOM     50  C   UNL A   1      38.919  27.716  29.528  1.00  0.00     0.029 A 
ATOM     51  N   UNL A   1      40.022  29.536  30.108  1.00  0.00    -0.354 N 
ATOM     52  C   UNL A   1      44.141  30.245  28.409  1.00  0.00     0.074 A 
ATOM     53  C   UNL A   1      43.787  30.087  27.024  1.00  0.00     0.031 C 
ATOM     54  C   UNL A   1      38.034  28.530  30.149  1.00  0.00     0.029 A 
ATOM     55  C   UNL A   1      38.716  29.750  30.537  1.00  0.00     0.049 A 
ATOM     56  H   UNL A   1      40.764  30.140  30.338  1.00  0.00     0.167 HD
ATOM     57  C   UNL A   1      44.949  31.154  29.027  1.00  0.00     0.037 A 
ATOM     58  C   UNL A   1      38.245  30.890  31.108  1.00  0.00     0.037 A 
ATOM     59  C   UNL A   1      45.104  30.852  30.426  1.00  0.00     0.049 A 
ATOM     60  C   UNL A   1      39.428  31.602  31.667  1.00  0.00     0.074 A 
ATOM     61  C   UNL A   1      45.677  29.812  31.130  1.00  0.00     0.029 A 
ATOM     62  N   UNL A   1      44.289  31.505  31.319  1.00  0.00    -0.354 N 
ATOM     63  N   UNL A   1      40.137  31.133  32.661  1.00  0.00    -0.248 NA
ATOM     64  C   UNL A   1      40.120  32.549  30.803  1.00  0.00     0.031 C 
ATOM     65  C   UNL A   1      44.808  29.596  32.239  1.00  0.00     0.029 A 
ATOM     66  C   UNL A   1      43.799  30.560  32.187  1.00  0.00     0.049 A 
ATOM     67  H   UNL A   1      44.093  32.471  31.335  1.00  0.00     0.167 HD
ATOM     68  C   UNL A   1      41.457  31.392  32.317  1.00  0.00     0.074 A 
ATOM     69  C   UNL A   1      41.380  32.316  31.185  1.00  0.00     0.031 C 
ATOM     70  C   UNL A   1      42.483  30.618  32.782  1.00  0.00     0.037 A 
BRANCH  57  71
ATOM     71  C   UNL A   1      45.339  32.487  28.442  1.00  0.00     0.058 A 
ATOM     72  C   UNL A   1      46.700  32.793  28.243  1.00  0.00     0.135 A 
ATOM     73  C   UNL A   1      44.447  33.577  28.338  1.00  0.00     0.135 A 
ATOM     74  F   UNL A   1      47.636  31.833  28.319  1.00  0.00    -0.206 F 
ATOM     75  C   UNL A   1      47.148  34.099  28.034  1.00  0.00     0.059 A 
ATOM     76  C   UNL A   1      44.866  34.876  28.080  1.00  0.00     0.059 A 
ATOM     77  F   UNL A   1      43.135  33.448  28.579  1.00  0.00    -0.206 F 
ATOM     78  C   UNL A   1      46.222  35.136  27.974  1.00  0.00     0.060 A 
BRANCH  78  79
ATOM     79  S   UNL A   1      46.807  36.835  27.834  1.00  0.00     0.124 S 
ATOM     80  O   UNL A   1      46.318  37.205  26.511  1.00  0.00    -0.237 OA
ATOM     81  O   UNL A   1      46.144  37.475  28.965  1.00  0.00    -0.237 OA
ATOM     82  O   UNL A   1      48.256  36.704  27.957  1.00  0.00    -0.744 OA
ENDBRANCH  78  79
ENDBRANCH  57  71
BRANCH  58  83
ATOM     83  C   UNL A   1      36.953  31.572  30.811  1.00  0.00     0.058 A 
ATOM     84  C   UNL A   1      36.148  32.103  31.836  1.00  0.00     0.135 A 
ATOM     85  C   UNL A   1      36.619  31.966  29.498  1.00  0.00     0.135 A 
ATOM     86  F   UNL A   1      36.404  31.801  33.118  1.00  0.00    -0.206 F 
ATOM     87  C   UNL A   1      35.106  33.006  31.578  1.00  0.00     0.059 A 
ATOM     88  C   UNL A   1      35.584  32.858  29.218  1.00  0.00     0.059 A 
ATOM     89  F   UNL A   1      37.351  31.566  28.448  1.00  0.00    -0.206 F 
ATOM     90  C   UNL A   1      34.847  33.395  30.264  1.00  0.00     0.060 A 
BRANCH  90  91
ATOM     91  S   UNL A   1      33.625  34.691  29.938  1.00  0.00     0.124 S 
ATOM     92  O   UNL A   1      33.097  34.952  31.272  1.00  0.00    -0.237 OA
ATOM     93  O   UNL A   1      34.446  35.749  29.359  1.00  0.00    -0.237 OA
ATOM     94  O   UNL A   1      32.692  34.053  29.013  1.00  0.00    -0.744 OA
ENDBRANCH  90  91
ENDBRANCH  58  83
BRANCH  70  95
ATOM     95  C   UNL A   1      42.171  29.585  33.839  1.00  0.00     0.058 A 
ATOM     96  C   UNL A   1      41.676  28.298  33.559  1.00  0.00     0.135 A 
ATOM     97  C   UNL A   1      42.544  29.848  35.164  1.00  0.00     0.135 A 
ATOM     98  F   UNL A   1      41.404  27.925  32.302  1.00  0.00    -0.206 F 
ATOM     99  C   UNL A   1      41.514  27.334  34.558  1.00  0.00     0.059 A 
ATOM    100  C   UNL A   1      42.420  28.892  36.171  1.00  0.00     0.059 A 
ATOM    101  F   UNL A   1      43.092  31.032  35.484  1.00  0.00    -0.206 F 
ATOM    102  C   UNL A   1      41.889  27.642  35.863  1.00  0.00     0.060 A 
BRANCH 102 103
ATOM    103  S   UNL A   1      41.735  26.377  37.144  1.00  0.00     0.124 S 
ATOM    104  O   UNL A   1      41.854  25.143  36.374  1.00  0.00    -0.237 OA
ATOM    105  O   UNL A   1      42.858  26.682  38.027  1.00  0.00    -0.237 OA
ATOM    106  O   UNL A   1      40.416  26.630  37.719  1.00  0.00    -0.744 OA
ENDBRANCH 102 103
ENDBRANCH  70  95
ENDBRANCH  44  45
ENDBRANCH  36  39
ENDBRANCH  34  35
ENDBRANCH  33  34
ENDBRANCH  32  33
ENDBRANCH   1  32
TORSDOF 19
ENDMDL
