MODEL 1
REMARK VINA RESULT:      -8.6      0.000      0.000
REMARK SMILES CN(C[C@H]1C[C@H](O)C1)C(=O)NCCOCC(=O)NCCCCCCNC(=O)c1ccc(-c2c3nc(c(-c4c(F)cc(S(=O)(=O)[O-])cc4F)c4ccc([nH]4)c(-c4c(F)cc(S(=O)(=O)[O-])cc4F)c4nc(c(-c5c(F)cc(S(=O)(=O)[O-])cc5F)c5ccc2[nH]5)C=C4)C=C3)cc1
REMARK SMILES IDX 19 1 18 2 16 3 17 4 15 6 14 7 13 8 12 9 11 10 9 11 10 12
REMARK SMILES IDX 2 14 1 15 3 16 4 17 8 18 5 19 6 20 7 21 20 23 21 24 22 25
REMARK SMILES IDX 23 26 24 27 25 28 26 29 27 31 28 32 29 33 93 34 30 35 92 36
REMARK SMILES IDX 31 37 32 38 33 39 86 40 34 41 91 42 85 43 87 44 35 45 90 46
REMARK SMILES IDX 84 47 83 48 36 50 70 51 49 52 69 53 50 54 53 55 68 56 88 57
REMARK SMILES IDX 51 58 52 59 67 61 89 62 54 63 37 64 38 65 47 66 39 67 40 68
REMARK SMILES IDX 46 69 48 70 41 71 42 72 43 73 44 74 45 75 71 76 72 77 81 78
REMARK SMILES IDX 73 79 74 80 80 81 82 82 75 83 76 84 77 85 78 86 79 87 55 88
REMARK SMILES IDX 56 89 65 90 57 91 58 92 64 93 66 94 59 95 60 96 61 97 62 98
REMARK SMILES IDX 63 99
REMARK H PARENT 18 5 11 13 7 22 25 30 87 49 53 60
REMARK Flexibility Score: inf
ROOT
ATOM      1  C   UNL A   1      49.208  19.967  37.111  1.00  0.00     0.116 C 
ENDROOT
BRANCH   1   2
ATOM      2  N   UNL A   1      47.868  19.771  36.589  1.00  0.00    -0.354 N 
ATOM      3  C   UNL A   1      46.696  19.637  37.272  1.00  0.00     0.245 C 
ATOM      4  O   UNL A   1      45.644  19.607  36.631  1.00  0.00    -0.272 OA
ATOM      5  H   UNL A   1      47.795  19.731  35.609  1.00  0.00     0.163 HD
BRANCH   3   6
ATOM      6  C   UNL A   1      46.706  19.548  38.805  1.00  0.00     0.260 C 
BRANCH   6   7
ATOM      7  O   UNL A   1      45.977  18.519  39.451  1.00  0.00    -0.370 OA
BRANCH   7   8
ATOM      8  C   UNL A   1      46.718  17.728  40.381  1.00  0.00     0.182 C 
BRANCH   8   9
ATOM      9  C   UNL A   1      46.087  16.366  40.692  1.00  0.00     0.146 C 
BRANCH   9  10
ATOM     10  N   UNL A   1      44.653  16.306  40.436  1.00  0.00    -0.336 N 
ATOM     11  C   UNL A   1      43.487  16.343  41.098  1.00  0.00     0.317 C 
ATOM     12  O   UNL A   1      42.489  16.329  40.365  1.00  0.00    -0.249 OA
ATOM     13  H   UNL A   1      44.487  16.207  39.471  1.00  0.00     0.165 HD
BRANCH  11  14
ATOM     14  N   UNL A   1      43.353  16.400  42.458  1.00  0.00    -0.328 N 
ATOM     15  C   UNL A   1      43.817  17.646  43.066  1.00  0.00     0.148 C 
BRANCH  14  16
ATOM     16  C   UNL A   1      42.796  15.425  43.382  1.00  0.00     0.124 C 
BRANCH  16  17
ATOM     17  C   UNL A   1      42.882  14.022  42.786  1.00  0.00     0.014 C 
ATOM     18  C   UNL A   1      41.500  13.458  42.373  1.00  0.00     0.037 C 
ATOM     19  C   UNL A   1      43.098  12.755  43.651  1.00  0.00     0.037 C 
ATOM     20  C   UNL A   1      41.880  12.099  42.980  1.00  0.00     0.115 C 
BRANCH  20  21
ATOM     21  O   UNL A   1      42.142  11.033  42.053  1.00  0.00    -0.393 OA
ATOM     22  H   UNL A   1      41.706  11.225  41.207  1.00  0.00     0.210 HD
ENDBRANCH  20  21
ENDBRANCH  16  17
ENDBRANCH  14  16
ENDBRANCH  11  14
ENDBRANCH   9  10
ENDBRANCH   8   9
ENDBRANCH   7   8
ENDBRANCH   6   7
ENDBRANCH   3   6
ENDBRANCH   1   2
BRANCH   1  23
ATOM     23  C   UNL A   1      49.784  21.333  36.733  1.00  0.00     0.021 C 
BRANCH  23  24
ATOM     24  C   UNL A   1      48.998  22.113  35.669  1.00  0.00     0.002 C 
BRANCH  24  25
ATOM     25  C   UNL A   1      48.080  23.215  36.206  1.00  0.00     0.002 C 
BRANCH  25  26
ATOM     26  C   UNL A   1      47.629  24.248  35.173  1.00  0.00     0.021 C 
BRANCH  26  27
ATOM     27  C   UNL A   1      48.129  25.668  35.419  1.00  0.00     0.116 C 
BRANCH  27  28
ATOM     28  N   UNL A   1      48.362  25.946  36.827  1.00  0.00    -0.352 N 
ATOM     29  C   UNL A   1      47.770  26.906  37.618  1.00  0.00     0.251 C 
ATOM     30  H   UNL A   1      49.028  25.374  37.274  1.00  0.00     0.163 HD
ATOM     31  O   UNL A   1      48.171  27.117  38.754  1.00  0.00    -0.269 OA
BRANCH  29  32
ATOM     32  C   UNL A   1      46.657  27.706  37.058  1.00  0.00     0.039 A 
ATOM     33  C   UNL A   1      46.928  28.964  36.513  1.00  0.00     0.014 A 
ATOM     34  C   UNL A   1      45.362  27.183  37.026  1.00  0.00     0.014 A 
ATOM     35  C   UNL A   1      45.910  29.667  35.863  1.00  0.00     0.010 A 
ATOM     36  C   UNL A   1      44.367  27.857  36.325  1.00  0.00     0.010 A 
ATOM     37  C   UNL A   1      44.632  29.100  35.728  1.00  0.00    -0.014 A 
BRANCH  37  38
ATOM     38  C   UNL A   1      43.550  29.768  34.958  1.00  0.00     0.031 A 
ATOM     39  C   UNL A   1      42.568  30.654  35.671  1.00  0.00     0.074 A 
ATOM     40  C   UNL A   1      43.381  29.484  33.652  1.00  0.00     0.049 A 
ATOM     41  N   UNL A   1      41.453  31.176  35.229  1.00  0.00    -0.248 NA
ATOM     42  C   UNL A   1      42.864  30.965  37.078  1.00  0.00     0.031 C 
ATOM     43  C   UNL A   1      44.246  28.610  32.855  1.00  0.00     0.029 A 
ATOM     44  N   UNL A   1      42.405  29.876  32.769  1.00  0.00    -0.354 N 
ATOM     45  C   UNL A   1      40.898  31.849  36.311  1.00  0.00     0.074 A 
ATOM     46  C   UNL A   1      41.783  31.642  37.438  1.00  0.00     0.031 C 
ATOM     47  C   UNL A   1      43.761  28.532  31.605  1.00  0.00     0.029 A 
ATOM     48  C   UNL A   1      42.530  29.312  31.520  1.00  0.00     0.049 A 
ATOM     49  H   UNL A   1      41.683  30.501  33.008  1.00  0.00     0.167 HD
ATOM     50  C   UNL A   1      39.759  32.582  36.358  1.00  0.00     0.037 A 
ATOM     51  C   UNL A   1      41.732  29.394  30.438  1.00  0.00     0.037 A 
ATOM     52  C   UNL A   1      38.904  32.813  35.224  1.00  0.00     0.049 A 
ATOM     53  C   UNL A   1      40.481  30.227  30.506  1.00  0.00     0.074 A 
ATOM     54  C   UNL A   1      37.761  33.590  35.153  1.00  0.00     0.029 A 
ATOM     55  N   UNL A   1      39.096  32.269  33.962  1.00  0.00    -0.354 N 
ATOM     56  N   UNL A   1      39.992  30.893  31.524  1.00  0.00    -0.248 NA
ATOM     57  C   UNL A   1      39.675  30.323  29.281  1.00  0.00     0.031 C 
ATOM     58  C   UNL A   1      37.243  33.489  33.857  1.00  0.00     0.029 A 
ATOM     59  C   UNL A   1      38.088  32.684  33.109  1.00  0.00     0.049 A 
ATOM     60  H   UNL A   1      39.841  31.676  33.710  1.00  0.00     0.167 HD
ATOM     61  C   UNL A   1      38.840  31.514  31.054  1.00  0.00     0.074 A 
ATOM     62  C   UNL A   1      38.702  31.142  29.661  1.00  0.00     0.031 C 
ATOM     63  C   UNL A   1      37.977  32.322  31.717  1.00  0.00     0.037 A 
BRANCH  50  64
ATOM     64  C   UNL A   1      39.373  33.180  37.681  1.00  0.00     0.058 A 
ATOM     65  C   UNL A   1      39.981  34.347  38.170  1.00  0.00     0.135 A 
ATOM     66  C   UNL A   1      38.370  32.586  38.465  1.00  0.00     0.135 A 
ATOM     67  F   UNL A   1      40.955  34.947  37.468  1.00  0.00    -0.206 F 
ATOM     68  C   UNL A   1      39.636  34.884  39.406  1.00  0.00     0.059 A 
ATOM     69  C   UNL A   1      37.990  33.121  39.692  1.00  0.00     0.059 A 
ATOM     70  F   UNL A   1      37.755  31.470  38.044  1.00  0.00    -0.206 F 
ATOM     71  C   UNL A   1      38.642  34.260  40.162  1.00  0.00     0.060 A 
BRANCH  71  72
ATOM     72  S   UNL A   1      38.216  34.958  41.772  1.00  0.00     0.124 S 
ATOM     73  O   UNL A   1      36.815  34.568  41.894  1.00  0.00    -0.237 OA
ATOM     74  O   UNL A   1      39.144  34.275  42.667  1.00  0.00    -0.237 OA
ATOM     75  O   UNL A   1      38.456  36.387  41.596  1.00  0.00    -0.744 OA
ENDBRANCH  71  72
ENDBRANCH  50  64
BRANCH  51  76
ATOM     76  C   UNL A   1      42.106  28.674  29.192  1.00  0.00     0.058 A 
ATOM     77  C   UNL A   1      41.547  27.425  28.888  1.00  0.00     0.135 A 
ATOM     78  C   UNL A   1      43.002  29.234  28.267  1.00  0.00     0.135 A 
ATOM     79  F   UNL A   1      40.693  26.847  29.745  1.00  0.00    -0.206 F 
ATOM     80  C   UNL A   1      41.863  26.752  27.712  1.00  0.00     0.059 A 
ATOM     81  C   UNL A   1      43.317  28.589  27.074  1.00  0.00     0.059 A 
ATOM     82  F   UNL A   1      43.552  30.434  28.505  1.00  0.00    -0.206 F 
ATOM     83  C   UNL A   1      42.746  27.345  26.808  1.00  0.00     0.060 A 
BRANCH  83  84
ATOM     84  S   UNL A   1      43.095  26.496  25.253  1.00  0.00     0.124 S 
ATOM     85  O   UNL A   1      42.167  25.374  25.316  1.00  0.00    -0.237 OA
ATOM     86  O   UNL A   1      42.786  27.527  24.265  1.00  0.00    -0.237 OA
ATOM     87  O   UNL A   1      44.510  26.155  25.368  1.00  0.00    -0.744 OA
ENDBRANCH  83  84
ENDBRANCH  51  76
BRANCH  63  88
ATOM     88  C   UNL A   1      36.831  32.908  30.943  1.00  0.00     0.058 A 
ATOM     89  C   UNL A   1      35.525  32.410  31.065  1.00  0.00     0.135 A 
ATOM     90  C   UNL A   1      37.030  34.042  30.139  1.00  0.00     0.135 A 
ATOM     91  F   UNL A   1      35.283  31.323  31.815  1.00  0.00    -0.206 F 
ATOM     92  C   UNL A   1      34.455  33.015  30.413  1.00  0.00     0.059 A 
ATOM     93  C   UNL A   1      35.973  34.676  29.496  1.00  0.00     0.059 A 
ATOM     94  F   UNL A   1      38.261  34.562  29.996  1.00  0.00    -0.206 F 
ATOM     95  C   UNL A   1      34.689  34.153  29.636  1.00  0.00     0.060 A 
BRANCH  95  96
ATOM     96  S   UNL A   1      33.283  34.970  28.851  1.00  0.00     0.124 S 
ATOM     97  O   UNL A   1      32.731  33.891  28.039  1.00  0.00    -0.237 OA
ATOM     98  O   UNL A   1      32.476  35.375  29.999  1.00  0.00    -0.237 OA
ATOM     99  O   UNL A   1      33.898  36.065  28.108  1.00  0.00    -0.744 OA
ENDBRANCH  95  96
ENDBRANCH  63  88
ENDBRANCH  37  38
ENDBRANCH  29  32
ENDBRANCH  27  28
ENDBRANCH  26  27
ENDBRANCH  25  26
ENDBRANCH  24  25
ENDBRANCH  23  24
ENDBRANCH   1  23
TORSDOF 24
ENDMDL
MODEL 2
REMARK VINA RESULT:      -8.2      6.912     12.730
REMARK SMILES CN(C[C@H]1C[C@H](O)C1)C(=O)NCCOCC(=O)NCCCCCCNC(=O)c1ccc(-c2c3nc(c(-c4c(F)cc(S(=O)(=O)[O-])cc4F)c4ccc([nH]4)c(-c4c(F)cc(S(=O)(=O)[O-])cc4F)c4nc(c(-c5c(F)cc(S(=O)(=O)[O-])cc5F)c5ccc2[nH]5)C=C4)C=C3)cc1
REMARK SMILES IDX 19 1 18 2 16 3 17 4 15 6 14 7 13 8 12 9 11 10 9 11 10 12
REMARK SMILES IDX 2 14 1 15 3 16 4 17 8 18 5 19 6 20 7 21 20 23 21 24 22 25
REMARK SMILES IDX 23 26 24 27 25 28 26 29 27 31 28 32 29 33 93 34 30 35 92 36
REMARK SMILES IDX 31 37 32 38 33 39 86 40 34 41 91 42 85 43 87 44 35 45 90 46
REMARK SMILES IDX 84 47 83 48 36 50 70 51 49 52 69 53 50 54 53 55 68 56 88 57
REMARK SMILES IDX 51 58 52 59 67 61 89 62 54 63 37 64 38 65 47 66 39 67 40 68
REMARK SMILES IDX 46 69 48 70 41 71 42 72 43 73 44 74 45 75 71 76 72 77 81 78
REMARK SMILES IDX 73 79 74 80 80 81 82 82 75 83 76 84 77 85 78 86 79 87 55 88
REMARK SMILES IDX 56 89 65 90 57 91 58 92 64 93 66 94 59 95 60 96 61 97 62 98
REMARK SMILES IDX 63 99
REMARK H PARENT 18 5 11 13 7 22 25 30 87 49 53 60
REMARK Flexibility Score: inf
ROOT
ATOM      1  C   UNL A   1      40.083  29.635  34.440  1.00  0.00     0.116 C 
ENDROOT
BRANCH   1   2
ATOM      2  N   UNL A   1      39.288  29.065  33.368  1.00  0.00    -0.354 N 
ATOM      3  C   UNL A   1      39.699  28.323  32.301  1.00  0.00     0.245 C 
ATOM      4  O   UNL A   1      38.842  27.824  31.569  1.00  0.00    -0.272 OA
ATOM      5  H   UNL A   1      38.321  29.236  33.419  1.00  0.00     0.163 HD
BRANCH   3   6
ATOM      6  C   UNL A   1      41.198  28.109  32.046  1.00  0.00     0.260 C 
BRANCH   6   7
ATOM      7  O   UNL A   1      42.093  29.199  32.176  1.00  0.00    -0.370 OA
BRANCH   7   8
ATOM      8  C   UNL A   1      43.479  28.859  32.224  1.00  0.00     0.182 C 
BRANCH   8   9
ATOM      9  C   UNL A   1      44.164  29.197  33.552  1.00  0.00     0.146 C 
BRANCH   9  10
ATOM     10  N   UNL A   1      45.306  28.346  33.864  1.00  0.00    -0.336 N 
ATOM     11  C   UNL A   1      45.661  27.053  33.845  1.00  0.00     0.317 C 
ATOM     12  O   UNL A   1      46.842  26.849  34.156  1.00  0.00    -0.249 OA
ATOM     13  H   UNL A   1      46.054  28.894  34.192  1.00  0.00     0.165 HD
BRANCH  11  14
ATOM     14  N   UNL A   1      44.837  26.013  33.513  1.00  0.00    -0.328 N 
ATOM     15  C   UNL A   1      44.788  25.704  32.086  1.00  0.00     0.148 C 
BRANCH  14  16
ATOM     16  C   UNL A   1      44.028  25.155  34.365  1.00  0.00     0.124 C 
BRANCH  16  17
ATOM     17  C   UNL A   1      43.186  25.999  35.319  1.00  0.00     0.014 C 
ATOM     18  C   UNL A   1      42.811  25.245  36.618  1.00  0.00     0.037 C 
ATOM     19  C   UNL A   1      41.680  26.274  35.088  1.00  0.00     0.037 C 
ATOM     20  C   UNL A   1      41.382  25.799  36.520  1.00  0.00     0.115 C 
BRANCH  20  21
ATOM     21  O   UNL A   1      41.018  26.806  37.479  1.00  0.00    -0.393 OA
ATOM     22  H   UNL A   1      41.616  26.758  38.242  1.00  0.00     0.210 HD
ENDBRANCH  20  21
ENDBRANCH  16  17
ENDBRANCH  14  16
ENDBRANCH  11  14
ENDBRANCH   9  10
ENDBRANCH   8   9
ENDBRANCH   7   8
ENDBRANCH   6   7
ENDBRANCH   3   6
ENDBRANCH   1   2
BRANCH   1  23
ATOM     23  C   UNL A   1      39.604  31.033  34.836  1.00  0.00     0.021 C 
BRANCH  23  24
ATOM     24  C   UNL A   1      38.086  31.253  34.787  1.00  0.00     0.002 C 
BRANCH  24  25
ATOM     25  C   UNL A   1      37.607  32.318  33.797  1.00  0.00     0.002 C 
BRANCH  25  26
ATOM     26  C   UNL A   1      36.334  31.968  33.026  1.00  0.00     0.021 C 
BRANCH  26  27
ATOM     27  C   UNL A   1      36.442  30.746  32.120  1.00  0.00     0.116 C 
BRANCH  27  28
ATOM     28  N   UNL A   1      35.628  30.862  30.920  1.00  0.00    -0.352 N 
ATOM     29  C   UNL A   1      36.040  30.878  29.606  1.00  0.00     0.251 C 
ATOM     30  H   UNL A   1      34.657  30.939  31.066  1.00  0.00     0.163 HD
ATOM     31  O   UNL A   1      35.251  31.126  28.705  1.00  0.00    -0.269 OA
BRANCH  29  32
ATOM     32  C   UNL A   1      37.466  30.622  29.302  1.00  0.00     0.039 A 
ATOM     33  C   UNL A   1      38.448  31.129  30.158  1.00  0.00     0.014 A 
ATOM     34  C   UNL A   1      37.821  29.838  28.202  1.00  0.00     0.014 A 
ATOM     35  C   UNL A   1      39.786  30.781  29.955  1.00  0.00     0.010 A 
ATOM     36  C   UNL A   1      39.146  29.444  28.038  1.00  0.00     0.010 A 
ATOM     37  C   UNL A   1      40.140  29.903  28.918  1.00  0.00    -0.014 A 
BRANCH  37  38
ATOM     38  C   UNL A   1      41.535  29.428  28.728  1.00  0.00     0.031 A 
ATOM     39  C   UNL A   1      42.666  30.417  28.736  1.00  0.00     0.074 A 
ATOM     40  C   UNL A   1      41.770  28.134  28.431  1.00  0.00     0.049 A 
ATOM     41  N   UNL A   1      43.920  30.243  28.409  1.00  0.00    -0.248 NA
ATOM     42  C   UNL A   1      42.332  31.793  29.135  1.00  0.00     0.031 C 
ATOM     43  C   UNL A   1      40.753  27.083  28.356  1.00  0.00     0.029 A 
ATOM     44  N   UNL A   1      42.937  27.488  28.105  1.00  0.00    -0.354 N 
ATOM     45  C   UNL A   1      44.517  31.492  28.528  1.00  0.00     0.074 A 
ATOM     46  C   UNL A   1      43.480  32.421  28.928  1.00  0.00     0.031 C 
ATOM     47  C   UNL A   1      41.339  25.927  28.006  1.00  0.00     0.029 A 
ATOM     48  C   UNL A   1      42.764  26.160  27.789  1.00  0.00     0.049 A 
ATOM     49  H   UNL A   1      43.815  27.934  28.098  1.00  0.00     0.167 HD
ATOM     50  C   UNL A   1      45.814  31.832  28.333  1.00  0.00     0.037 A 
ATOM     51  C   UNL A   1      43.647  25.242  27.350  1.00  0.00     0.037 A 
ATOM     52  C   UNL A   1      46.845  30.896  27.970  1.00  0.00     0.049 A 
ATOM     53  C   UNL A   1      45.086  25.636  27.156  1.00  0.00     0.074 A 
ATOM     54  C   UNL A   1      48.200  31.130  27.808  1.00  0.00     0.029 A 
ATOM     55  N   UNL A   1      46.638  29.549  27.713  1.00  0.00    -0.354 N 
ATOM     56  N   UNL A   1      45.644  26.811  27.316  1.00  0.00    -0.248 NA
ATOM     57  C   UNL A   1      46.015  24.582  26.726  1.00  0.00     0.031 C 
ATOM     58  C   UNL A   1      48.806  29.930  27.420  1.00  0.00     0.029 A 
ATOM     59  C   UNL A   1      47.837  28.940  27.383  1.00  0.00     0.049 A 
ATOM     60  H   UNL A   1      45.767  29.092  27.760  1.00  0.00     0.167 HD
ATOM     61  C   UNL A   1      46.995  26.632  27.038  1.00  0.00     0.074 A 
ATOM     62  C   UNL A   1      47.170  25.235  26.697  1.00  0.00     0.031 C 
ATOM     63  C   UNL A   1      47.998  27.542  27.067  1.00  0.00     0.037 A 
BRANCH  50  64
ATOM     64  C   UNL A   1      46.185  33.278  28.502  1.00  0.00     0.058 A 
ATOM     65  C   UNL A   1      46.575  33.801  29.746  1.00  0.00     0.135 A 
ATOM     66  C   UNL A   1      46.165  34.152  27.402  1.00  0.00     0.135 A 
ATOM     67  F   UNL A   1      46.599  33.013  30.832  1.00  0.00    -0.206 F 
ATOM     68  C   UNL A   1      46.895  35.145  29.902  1.00  0.00     0.059 A 
ATOM     69  C   UNL A   1      46.508  35.494  27.530  1.00  0.00     0.059 A 
ATOM     70  F   UNL A   1      45.801  33.705  26.190  1.00  0.00    -0.206 F 
ATOM     71  C   UNL A   1      46.854  35.986  28.788  1.00  0.00     0.060 A 
BRANCH  71  72
ATOM     72  S   UNL A   1      47.256  37.732  29.008  1.00  0.00     0.124 S 
ATOM     73  O   UNL A   1      48.247  37.668  30.077  1.00  0.00    -0.237 OA
ATOM     74  O   UNL A   1      47.765  38.106  27.693  1.00  0.00    -0.237 OA
ATOM     75  O   UNL A   1      45.976  38.331  29.375  1.00  0.00    -0.744 OA
ENDBRANCH  71  72
ENDBRANCH  50  64
BRANCH  51  76
ATOM     76  C   UNL A   1      43.189  23.853  27.079  1.00  0.00     0.058 A 
ATOM     77  C   UNL A   1      42.984  23.407  25.766  1.00  0.00     0.135 A 
ATOM     78  C   UNL A   1      42.983  22.936  28.123  1.00  0.00     0.135 A 
ATOM     79  F   UNL A   1      43.160  24.249  24.738  1.00  0.00    -0.206 F 
ATOM     80  C   UNL A   1      42.585  22.102  25.494  1.00  0.00     0.059 A 
ATOM     81  C   UNL A   1      42.606  21.620  27.874  1.00  0.00     0.059 A 
ATOM     82  F   UNL A   1      43.183  23.311  29.395  1.00  0.00    -0.206 F 
ATOM     83  C   UNL A   1      42.404  21.214  26.556  1.00  0.00     0.060 A 
BRANCH  83  84
ATOM     84  S   UNL A   1      41.956  19.503  26.188  1.00  0.00     0.124 S 
ATOM     85  O   UNL A   1      42.799  19.221  25.033  1.00  0.00    -0.237 OA
ATOM     86  O   UNL A   1      42.317  18.818  27.426  1.00  0.00    -0.237 OA
ATOM     87  O   UNL A   1      40.522  19.583  25.921  1.00  0.00    -0.744 OA
ENDBRANCH  83  84
ENDBRANCH  51  76
BRANCH  63  88
ATOM     88  C   UNL A   1      49.390  27.059  26.774  1.00  0.00     0.058 A 
ATOM     89  C   UNL A   1      50.290  26.732  27.799  1.00  0.00     0.135 A 
ATOM     90  C   UNL A   1      49.793  26.834  25.447  1.00  0.00     0.135 A 
ATOM     91  F   UNL A   1      49.957  26.937  29.083  1.00  0.00    -0.206 F 
ATOM     92  C   UNL A   1      51.546  26.202  27.518  1.00  0.00     0.059 A 
ATOM     93  C   UNL A   1      51.033  26.285  25.144  1.00  0.00     0.059 A 
ATOM     94  F   UNL A   1      48.964  27.124  24.431  1.00  0.00    -0.206 F 
ATOM     95  C   UNL A   1      51.905  25.974  26.187  1.00  0.00     0.060 A 
BRANCH  95  96
ATOM     96  S   UNL A   1      53.508  25.220  25.838  1.00  0.00     0.124 S 
ATOM     97  O   UNL A   1      54.130  25.226  27.158  1.00  0.00    -0.237 OA
ATOM     98  O   UNL A   1      53.131  23.908  25.321  1.00  0.00    -0.237 OA
ATOM     99  O   UNL A   1      54.103  26.125  24.859  1.00  0.00    -0.744 OA
ENDBRANCH  95  96
ENDBRANCH  63  88
ENDBRANCH  37  38
ENDBRANCH  29  32
ENDBRANCH  27  28
ENDBRANCH  26  27
ENDBRANCH  25  26
ENDBRANCH  24  25
ENDBRANCH  23  24
ENDBRANCH   1  23
TORSDOF 24
ENDMDL
MODEL 3
REMARK VINA RESULT:      -8.2      8.592     15.118
REMARK SMILES CN(C[C@H]1C[C@H](O)C1)C(=O)NCCOCC(=O)NCCCCCCNC(=O)c1ccc(-c2c3nc(c(-c4c(F)cc(S(=O)(=O)[O-])cc4F)c4ccc([nH]4)c(-c4c(F)cc(S(=O)(=O)[O-])cc4F)c4nc(c(-c5c(F)cc(S(=O)(=O)[O-])cc5F)c5ccc2[nH]5)C=C4)C=C3)cc1
REMARK SMILES IDX 19 1 18 2 16 3 17 4 15 6 14 7 13 8 12 9 11 10 9 11 10 12
REMARK SMILES IDX 2 14 1 15 3 16 4 17 8 18 5 19 6 20 7 21 20 23 21 24 22 25
REMARK SMILES IDX 23 26 24 27 25 28 26 29 27 31 28 32 29 33 93 34 30 35 92 36
REMARK SMILES IDX 31 37 32 38 33 39 86 40 34 41 91 42 85 43 87 44 35 45 90 46
REMARK SMILES IDX 84 47 83 48 36 50 70 51 49 52 69 53 50 54 53 55 68 56 88 57
REMARK SMILES IDX 51 58 52 59 67 61 89 62 54 63 37 64 38 65 47 66 39 67 40 68
REMARK SMILES IDX 46 69 48 70 41 71 42 72 43 73 44 74 45 75 71 76 72 77 81 78
REMARK SMILES IDX 73 79 74 80 80 81 82 82 75 83 76 84 77 85 78 86 79 87 55 88
REMARK SMILES IDX 56 89 65 90 57 91 58 92 64 93 66 94 59 95 60 96 61 97 62 98
REMARK SMILES IDX 63 99
REMARK H PARENT 18 5 11 13 7 22 25 30 87 49 53 60
REMARK Flexibility Score: inf
ROOT
ATOM      1  C   UNL A   1      37.026  32.007  33.455  1.00  0.00     0.116 C 
ENDROOT
BRANCH   1   2
ATOM      2  N   UNL A   1      35.955  32.941  33.749  1.00  0.00    -0.354 N 
ATOM      3  C   UNL A   1      35.952  33.994  34.613  1.00  0.00     0.245 C 
ATOM      4  O   UNL A   1      34.974  34.745  34.620  1.00  0.00    -0.272 OA
ATOM      5  H   UNL A   1      35.116  32.794  33.255  1.00  0.00     0.163 HD
BRANCH   3   6
ATOM      6  C   UNL A   1      37.156  34.235  35.535  1.00  0.00     0.260 C 
BRANCH   6   7
ATOM      7  O   UNL A   1      37.135  33.733  36.859  1.00  0.00    -0.370 OA
BRANCH   7   8
ATOM      8  C   UNL A   1      38.364  33.841  37.580  1.00  0.00     0.182 C 
BRANCH   8   9
ATOM      9  C   UNL A   1      38.587  32.729  38.611  1.00  0.00     0.146 C 
BRANCH   9  10
ATOM     10  N   UNL A   1      37.570  31.685  38.587  1.00  0.00    -0.336 N 
ATOM     11  C   UNL A   1      36.818  30.961  39.430  1.00  0.00     0.317 C 
ATOM     12  O   UNL A   1      36.005  30.216  38.868  1.00  0.00    -0.249 OA
ATOM     13  H   UNL A   1      37.371  31.431  37.658  1.00  0.00     0.165 HD
BRANCH  11  14
ATOM     14  N   UNL A   1      36.894  31.008  40.795  1.00  0.00    -0.328 N 
ATOM     15  C   UNL A   1      35.712  31.560  41.454  1.00  0.00     0.148 C 
BRANCH  14  16
ATOM     16  C   UNL A   1      37.957  30.570  41.685  1.00  0.00     0.124 C 
BRANCH  16  17
ATOM     17  C   UNL A   1      37.594  30.875  43.136  1.00  0.00     0.014 C 
ATOM     18  C   UNL A   1      38.718  31.621  43.894  1.00  0.00     0.037 C 
ATOM     19  C   UNL A   1      37.609  29.798  44.249  1.00  0.00     0.037 C 
ATOM     20  C   UNL A   1      38.488  30.717  45.114  1.00  0.00     0.115 C 
BRANCH  20  21
ATOM     21  O   UNL A   1      37.866  31.328  46.257  1.00  0.00    -0.393 OA
ATOM     22  H   UNL A   1      37.715  32.270  46.079  1.00  0.00     0.210 HD
ENDBRANCH  20  21
ENDBRANCH  16  17
ENDBRANCH  14  16
ENDBRANCH  11  14
ENDBRANCH   9  10
ENDBRANCH   8   9
ENDBRANCH   7   8
ENDBRANCH   6   7
ENDBRANCH   3   6
ENDBRANCH   1   2
BRANCH   1  23
ATOM     23  C   UNL A   1      37.636  32.240  32.072  1.00  0.00     0.021 C 
BRANCH  23  24
ATOM     24  C   UNL A   1      37.121  33.476  31.319  1.00  0.00     0.002 C 
BRANCH  24  25
ATOM     25  C   UNL A   1      37.459  33.525  29.827  1.00  0.00     0.002 C 
BRANCH  25  26
ATOM     26  C   UNL A   1      36.273  33.331  28.882  1.00  0.00     0.021 C 
BRANCH  26  27
ATOM     27  C   UNL A   1      36.117  31.921  28.323  1.00  0.00     0.116 C 
BRANCH  27  28
ATOM     28  N   UNL A   1      35.798  30.941  29.350  1.00  0.00    -0.352 N 
ATOM     29  C   UNL A   1      36.592  29.929  29.843  1.00  0.00     0.251 C 
ATOM     30  H   UNL A   1      34.898  31.009  29.744  1.00  0.00     0.163 HD
ATOM     31  O   UNL A   1      36.136  29.091  30.608  1.00  0.00    -0.269 OA
BRANCH  29  32
ATOM     32  C   UNL A   1      38.004  29.853  29.406  1.00  0.00     0.039 A 
ATOM     33  C   UNL A   1      39.019  29.869  30.367  1.00  0.00     0.014 A 
ATOM     34  C   UNL A   1      38.314  29.713  28.051  1.00  0.00     0.014 A 
ATOM     35  C   UNL A   1      40.344  29.663  29.974  1.00  0.00     0.010 A 
ATOM     36  C   UNL A   1      39.626  29.449  27.670  1.00  0.00     0.010 A 
ATOM     37  C   UNL A   1      40.652  29.411  28.627  1.00  0.00    -0.014 A 
BRANCH  37  38
ATOM     38  C   UNL A   1      42.033  29.088  28.180  1.00  0.00     0.031 A 
ATOM     39  C   UNL A   1      42.378  27.679  27.789  1.00  0.00     0.074 A 
ATOM     40  C   UNL A   1      42.996  30.029  28.241  1.00  0.00     0.049 A 
ATOM     41  N   UNL A   1      43.550  27.150  27.552  1.00  0.00    -0.248 NA
ATOM     42  C   UNL A   1      41.257  26.733  27.685  1.00  0.00     0.031 C 
ATOM     43  C   UNL A   1      42.795  31.425  28.639  1.00  0.00     0.029 A 
ATOM     44  N   UNL A   1      44.345  29.946  27.998  1.00  0.00    -0.354 N 
ATOM     45  C   UNL A   1      43.312  25.803  27.304  1.00  0.00     0.074 A 
ATOM     46  C   UNL A   1      41.888  25.591  27.451  1.00  0.00     0.031 C 
ATOM     47  C   UNL A   1      43.975  32.064  28.614  1.00  0.00     0.029 A 
ATOM     48  C   UNL A   1      45.023  31.118  28.241  1.00  0.00     0.049 A 
ATOM     49  H   UNL A   1      44.784  29.125  27.679  1.00  0.00     0.167 HD
ATOM     50  C   UNL A   1      44.199  24.835  26.974  1.00  0.00     0.037 A 
ATOM     51  C   UNL A   1      46.342  31.393  28.194  1.00  0.00     0.037 A 
ATOM     52  C   UNL A   1      45.610  25.061  26.795  1.00  0.00     0.049 A 
ATOM     53  C   UNL A   1      47.308  30.307  27.808  1.00  0.00     0.074 A 
ATOM     54  C   UNL A   1      46.582  24.159  26.401  1.00  0.00     0.029 A 
ATOM     55  N   UNL A   1      46.249  26.275  26.997  1.00  0.00    -0.354 N 
ATOM     56  N   UNL A   1      47.062  29.049  27.533  1.00  0.00    -0.248 NA
ATOM     57  C   UNL A   1      48.728  30.676  27.722  1.00  0.00     0.031 C 
ATOM     58  C   UNL A   1      47.815  24.820  26.398  1.00  0.00     0.029 A 
ATOM     59  C   UNL A   1      47.604  26.144  26.747  1.00  0.00     0.049 A 
ATOM     60  H   UNL A   1      45.804  27.109  27.276  1.00  0.00     0.167 HD
ATOM     61  C   UNL A   1      48.291  28.483  27.210  1.00  0.00     0.074 A 
ATOM     62  C   UNL A   1      49.280  29.536  27.326  1.00  0.00     0.031 C 
ATOM     63  C   UNL A   1      48.573  27.209  26.846  1.00  0.00     0.037 A 
BRANCH  50  64
ATOM     64  C   UNL A   1      43.669  23.441  26.791  1.00  0.00     0.058 A 
ATOM     65  C   UNL A   1      43.359  22.618  27.886  1.00  0.00     0.135 A 
ATOM     66  C   UNL A   1      43.452  22.925  25.503  1.00  0.00     0.135 A 
ATOM     67  F   UNL A   1      43.560  23.057  29.139  1.00  0.00    -0.206 F 
ATOM     68  C   UNL A   1      42.890  21.320  27.712  1.00  0.00     0.059 A 
ATOM     69  C   UNL A   1      42.958  21.639  25.305  1.00  0.00     0.059 A 
ATOM     70  F   UNL A   1      43.730  23.669  24.421  1.00  0.00    -0.206 F 
ATOM     71  C   UNL A   1      42.698  20.838  26.416  1.00  0.00     0.060 A 
BRANCH  71  72
ATOM     72  S   UNL A   1      42.104  19.146  26.203  1.00  0.00     0.124 S 
ATOM     73  O   UNL A   1      42.943  18.681  25.104  1.00  0.00    -0.237 OA
ATOM     74  O   UNL A   1      42.378  18.550  27.506  1.00  0.00    -0.237 OA
ATOM     75  O   UNL A   1      40.690  19.321  25.882  1.00  0.00    -0.744 OA
ENDBRANCH  71  72
ENDBRANCH  50  64
BRANCH  51  76
ATOM     76  C   UNL A   1      46.817  32.766  28.509  1.00  0.00     0.058 A 
ATOM     77  C   UNL A   1      46.869  33.754  27.516  1.00  0.00     0.135 A 
ATOM     78  C   UNL A   1      47.194  33.128  29.813  1.00  0.00     0.135 A 
ATOM     79  F   UNL A   1      46.527  33.454  26.254  1.00  0.00    -0.206 F 
ATOM     80  C   UNL A   1      47.283  35.052  27.799  1.00  0.00     0.059 A 
ATOM     81  C   UNL A   1      47.590  34.425  30.125  1.00  0.00     0.059 A 
ATOM     82  F   UNL A   1      47.146  32.222  30.801  1.00  0.00    -0.206 F 
ATOM     83  C   UNL A   1      47.636  35.379  29.110  1.00  0.00     0.060 A 
BRANCH  83  84
ATOM     84  S   UNL A   1      48.103  37.084  29.482  1.00  0.00     0.124 S 
ATOM     85  O   UNL A   1      48.542  36.971  30.868  1.00  0.00    -0.237 OA
ATOM     86  O   UNL A   1      49.152  37.337  28.497  1.00  0.00    -0.237 OA
ATOM     87  O   UNL A   1      46.863  37.824  29.269  1.00  0.00    -0.744 OA
ENDBRANCH  83  84
ENDBRANCH  51  76
BRANCH  63  88
ATOM     88  C   UNL A   1      49.995  26.879  26.495  1.00  0.00     0.058 A 
ATOM     89  C   UNL A   1      50.857  26.255  27.409  1.00  0.00     0.135 A 
ATOM     90  C   UNL A   1      50.471  27.109  25.193  1.00  0.00     0.135 A 
ATOM     91  F   UNL A   1      50.454  26.021  28.667  1.00  0.00    -0.206 F 
ATOM     92  C   UNL A   1      52.145  25.873  27.045  1.00  0.00     0.059 A 
ATOM     93  C   UNL A   1      51.746  26.716  24.801  1.00  0.00     0.059 A 
ATOM     94  F   UNL A   1      49.681  27.696  24.279  1.00  0.00    -0.206 F 
ATOM     95  C   UNL A   1      52.577  26.101  25.736  1.00  0.00     0.060 A 
BRANCH  95  96
ATOM     96  S   UNL A   1      54.225  25.538  25.257  1.00  0.00     0.124 S 
ATOM     97  O   UNL A   1      54.185  25.708  23.809  1.00  0.00    -0.237 OA
ATOM     98  O   UNL A   1      55.094  26.463  25.979  1.00  0.00    -0.237 OA
ATOM     99  O   UNL A   1      54.262  24.156  25.727  1.00  0.00    -0.744 OA
ENDBRANCH  95  96
ENDBRANCH  63  88
ENDBRANCH  37  38
ENDBRANCH  29  32
ENDBRANCH  27  28
ENDBRANCH  26  27
ENDBRANCH  25  26
ENDBRANCH  24  25
ENDBRANCH  23  24
ENDBRANCH   1  23
TORSDOF 24
ENDMDL
