MODEL 1
REMARK VINA RESULT:     -11.8      0.000      0.000
REMARK SMILES C[C@@H](Sc1nc(-c2ccc3c(c2)OCO3)ccc1C#N)C(=O)NCCCCCCNC(=O)c1ccc(-c2c3nc(c(-c4c(F)cc(S(=O)(=O)[O-])cc4F)c4ccc([nH]4)c(-c4c(F)cc(S(=O)(=O)[O-])cc4F)c4nc(c(-c5c(F)cc(S(=O)(=O)[O-])cc5F)c5ccc2[nH]5)C=C4)C=C3)cc1
REMARK SMILES IDX 26 1 25 2 24 3 23 4 21 5 22 6 2 8 1 9 3 10 4 11 5 12 18 13
REMARK SMILES IDX 6 14 17 15 16 16 19 17 20 18 7 19 8 20 12 21 9 22 11 23
REMARK SMILES IDX 10 24 13 25 15 26 14 27 27 28 28 29 29 30 30 31 31 32 32 34
REMARK SMILES IDX 33 35 34 36 98 37 35 38 97 39 36 40 37 41 38 42 91 43 39 44
REMARK SMILES IDX 96 45 90 46 92 47 40 48 95 49 89 50 88 51 41 53 75 54 54 55
REMARK SMILES IDX 74 56 55 57 58 58 73 59 93 60 56 61 57 62 72 64 94 65 59 66
REMARK SMILES IDX 42 67 43 68 52 69 44 70 45 71 51 72 53 73 46 74 47 75 48 76
REMARK SMILES IDX 49 77 50 78 76 79 77 80 86 81 78 82 79 83 85 84 87 85 80 86
REMARK SMILES IDX 81 87 82 88 83 89 84 90 60 91 61 92 70 93 62 94 63 95 69 96
REMARK SMILES IDX 71 97 64 98 65 99 66 100 67 101 68 102
REMARK H PARENT 23 7 30 33 92 52 58 63
REMARK Flexibility Score: inf
ROOT
ATOM      1  C   UNL A   1      32.784  29.499  26.316  1.00  0.00     0.002 C 
ENDROOT
BRANCH   1   2
ATOM      2  C   UNL A   1      31.797  28.415  25.869  1.00  0.00     0.021 C 
BRANCH   2   3
ATOM      3  C   UNL A   1      32.103  27.038  26.459  1.00  0.00     0.116 C 
BRANCH   3   4
ATOM      4  N   UNL A   1      30.871  26.331  26.752  1.00  0.00    -0.355 N 
ATOM      5  C   UNL A   1      30.564  25.007  26.643  1.00  0.00     0.233 C 
ATOM      6  O   UNL A   1      29.406  24.671  26.908  1.00  0.00    -0.274 OA
ATOM      7  H   UNL A   1      30.138  26.898  27.081  1.00  0.00     0.163 HD
BRANCH   5   8
ATOM      8  C   UNL A   1      31.609  23.962  26.219  1.00  0.00     0.139 C 
ATOM      9  C   UNL A   1      31.764  22.852  27.255  1.00  0.00     0.030 C 
BRANCH   8  10
ATOM     10  S   UNL A   1      31.217  23.474  24.479  1.00  0.00    -0.092 SA
BRANCH  10  11
ATOM     11  C   UNL A   1      31.723  24.786  23.386  1.00  0.00     0.115 A 
ATOM     12  N   UNL A   1      30.801  25.799  23.410  1.00  0.00    -0.240 NA
ATOM     13  C   UNL A   1      32.882  24.895  22.621  1.00  0.00     0.084 A 
ATOM     14  C   UNL A   1      30.984  26.900  22.643  1.00  0.00     0.072 A 
ATOM     15  C   UNL A   1      33.043  26.024  21.808  1.00  0.00     0.024 A 
ATOM     16  C   UNL A   1      32.089  27.031  21.815  1.00  0.00     0.030 A 
BRANCH  13  17
ATOM     17  C   UNL A   1      33.955  23.953  22.618  1.00  0.00     0.102 C 
ATOM     18  N   UNL A   1      34.866  23.236  22.626  1.00  0.00    -0.192 NA
ENDBRANCH  13  17
BRANCH  14  19
ATOM     19  C   UNL A   1      29.995  27.983  22.750  1.00  0.00     0.004 A 
ATOM     20  C   UNL A   1      28.691  27.712  23.240  1.00  0.00     0.014 A 
ATOM     21  C   UNL A   1      30.281  29.278  22.277  1.00  0.00     0.061 A 
ATOM     22  C   UNL A   1      27.682  28.681  23.220  1.00  0.00     0.051 A 
ATOM     23  C   UNL A   1      29.261  30.212  22.254  1.00  0.00     0.166 A 
ATOM     24  C   UNL A   1      27.996  29.916  22.705  1.00  0.00     0.165 A 
ATOM     25  O   UNL A   1      29.350  31.481  21.770  1.00  0.00    -0.454 OA
ATOM     26  O   UNL A   1      27.132  30.955  22.559  1.00  0.00    -0.454 OA
ATOM     27  C   UNL A   1      27.998  31.949  21.977  1.00  0.00     0.468 C 
ENDBRANCH  14  19
ENDBRANCH  10  11
ENDBRANCH   8  10
ENDBRANCH   5   8
ENDBRANCH   3   4
ENDBRANCH   2   3
ENDBRANCH   1   2
BRANCH   1  28
ATOM     28  C   UNL A   1      34.209  28.994  26.561  1.00  0.00     0.002 C 
BRANCH  28  29
ATOM     29  C   UNL A   1      34.760  29.311  27.952  1.00  0.00     0.021 C 
BRANCH  29  30
ATOM     30  C   UNL A   1      35.364  30.704  28.069  1.00  0.00     0.116 C 
BRANCH  30  31
ATOM     31  N   UNL A   1      35.393  31.159  29.451  1.00  0.00    -0.352 N 
ATOM     32  C   UNL A   1      36.340  30.913  30.414  1.00  0.00     0.251 C 
ATOM     33  H   UNL A   1      34.632  31.716  29.734  1.00  0.00     0.163 HD
ATOM     34  O   UNL A   1      36.106  31.156  31.593  1.00  0.00    -0.269 OA
BRANCH  32  35
ATOM     35  C   UNL A   1      37.638  30.338  30.007  1.00  0.00     0.039 A 
ATOM     36  C   UNL A   1      38.026  30.405  28.668  1.00  0.00     0.014 A 
ATOM     37  C   UNL A   1      38.481  29.765  30.963  1.00  0.00     0.014 A 
ATOM     38  C   UNL A   1      39.292  29.946  28.298  1.00  0.00     0.010 A 
ATOM     39  C   UNL A   1      39.772  29.391  30.607  1.00  0.00     0.010 A 
ATOM     40  C   UNL A   1      40.189  29.470  29.269  1.00  0.00    -0.014 A 
BRANCH  40  41
ATOM     41  C   UNL A   1      41.565  29.040  28.914  1.00  0.00     0.031 A 
ATOM     42  C   UNL A   1      42.677  30.056  28.872  1.00  0.00     0.074 A 
ATOM     43  C   UNL A   1      41.798  27.759  28.560  1.00  0.00     0.049 A 
ATOM     44  N   UNL A   1      43.917  29.905  28.490  1.00  0.00    -0.248 NA
ATOM     45  C   UNL A   1      42.344  31.430  29.289  1.00  0.00     0.031 C 
ATOM     46  C   UNL A   1      40.795  26.692  28.530  1.00  0.00     0.029 A 
ATOM     47  N   UNL A   1      42.949  27.139  28.141  1.00  0.00    -0.354 N 
ATOM     48  C   UNL A   1      44.503  31.160  28.597  1.00  0.00     0.074 A 
ATOM     49  C   UNL A   1      43.476  32.074  29.041  1.00  0.00     0.031 C 
ATOM     50  C   UNL A   1      41.378  25.548  28.135  1.00  0.00     0.029 A 
ATOM     51  C   UNL A   1      42.782  25.808  27.830  1.00  0.00     0.049 A 
ATOM     52  H   UNL A   1      43.815  27.603  28.069  1.00  0.00     0.167 HD
ATOM     53  C   UNL A   1      45.787  31.513  28.361  1.00  0.00     0.037 A 
ATOM     54  C   UNL A   1      43.653  24.907  27.334  1.00  0.00     0.037 A 
ATOM     55  C   UNL A   1      46.813  30.588  27.953  1.00  0.00     0.049 A 
ATOM     56  C   UNL A   1      45.072  25.340  27.058  1.00  0.00     0.074 A 
ATOM     57  C   UNL A   1      48.161  30.835  27.763  1.00  0.00     0.029 A 
ATOM     58  N   UNL A   1      46.606  29.248  27.662  1.00  0.00    -0.354 N 
ATOM     59  N   UNL A   1      45.627  26.514  27.242  1.00  0.00    -0.248 NA
ATOM     60  C   UNL A   1      45.984  24.326  26.508  1.00  0.00     0.031 C 
ATOM     61  C   UNL A   1      48.754  29.666  27.282  1.00  0.00     0.029 A 
ATOM     62  C   UNL A   1      47.795  28.667  27.256  1.00  0.00     0.049 A 
ATOM     63  H   UNL A   1      45.742  28.780  27.735  1.00  0.00     0.167 HD
ATOM     64  C   UNL A   1      46.962  26.365  26.877  1.00  0.00     0.074 A 
ATOM     65  C   UNL A   1      47.132  24.988  26.469  1.00  0.00     0.031 C 
ATOM     66  C   UNL A   1      47.958  27.285  26.883  1.00  0.00     0.037 A 
BRANCH  53  67
ATOM     67  C   UNL A   1      46.178  32.956  28.523  1.00  0.00     0.058 A 
ATOM     68  C   UNL A   1      46.091  33.874  27.465  1.00  0.00     0.135 A 
ATOM     69  C   UNL A   1      46.545  33.447  29.787  1.00  0.00     0.135 A 
ATOM     70  F   UNL A   1      45.765  33.458  26.231  1.00  0.00    -0.206 F 
ATOM     71  C   UNL A   1      46.350  35.228  27.655  1.00  0.00     0.059 A 
ATOM     72  C   UNL A   1      46.777  34.800  30.008  1.00  0.00     0.059 A 
ATOM     73  F   UNL A   1      46.652  32.610  30.831  1.00  0.00    -0.206 F 
ATOM     74  C   UNL A   1      46.679  35.683  28.934  1.00  0.00     0.060 A 
BRANCH  74  75
ATOM     75  S   UNL A   1      46.945  37.451  29.176  1.00  0.00     0.124 S 
ATOM     76  O   UNL A   1      47.513  37.840  27.888  1.00  0.00    -0.237 OA
ATOM     77  O   UNL A   1      45.593  37.932  29.443  1.00  0.00    -0.237 OA
ATOM     78  O   UNL A   1      47.864  37.507  30.307  1.00  0.00    -0.744 OA
ENDBRANCH  74  75
ENDBRANCH  53  67
BRANCH  54  79
ATOM     79  C   UNL A   1      43.226  23.507  27.049  1.00  0.00     0.058 A 
ATOM     80  C   UNL A   1      43.176  22.543  28.067  1.00  0.00     0.135 A 
ATOM     81  C   UNL A   1      42.913  23.090  25.744  1.00  0.00     0.135 A 
ATOM     82  F   UNL A   1      43.469  22.886  29.331  1.00  0.00    -0.206 F 
ATOM     83  C   UNL A   1      42.886  21.208  27.798  1.00  0.00     0.059 A 
ATOM     84  C   UNL A   1      42.580  21.770  25.457  1.00  0.00     0.059 A 
ATOM     85  F   UNL A   1      42.924  23.972  24.733  1.00  0.00    -0.206 F 
ATOM     86  C   UNL A   1      42.595  20.831  26.486  1.00  0.00     0.060 A 
BRANCH  86  87
ATOM     87  S   UNL A   1      42.236  19.095  26.145  1.00  0.00     0.124 S 
ATOM     88  O   UNL A   1      43.244  18.780  25.139  1.00  0.00    -0.237 OA
ATOM     89  O   UNL A   1      42.427  18.480  27.455  1.00  0.00    -0.237 OA
ATOM     90  O   UNL A   1      40.857  19.125  25.668  1.00  0.00    -0.744 OA
ENDBRANCH  86  87
ENDBRANCH  54  79
BRANCH  66  91
ATOM     91  C   UNL A   1      49.341  26.828  26.505  1.00  0.00     0.058 A 
ATOM     92  C   UNL A   1      50.215  26.243  27.433  1.00  0.00     0.135 A 
ATOM     93  C   UNL A   1      49.765  26.908  25.167  1.00  0.00     0.135 A 
ATOM     94  F   UNL A   1      49.865  26.148  28.726  1.00  0.00    -0.206 F 
ATOM     95  C   UNL A   1      51.467  25.769  27.053  1.00  0.00     0.059 A 
ATOM     96  C   UNL A   1      50.995  26.406  24.758  1.00  0.00     0.059 A 
ATOM     97  F   UNL A   1      48.964  27.449  24.235  1.00  0.00    -0.206 F 
ATOM     98  C   UNL A   1      51.844  25.846  25.711  1.00  0.00     0.060 A 
BRANCH  98  99
ATOM     99  S   UNL A   1      53.446  25.175  25.223  1.00  0.00     0.124 S 
ATOM    100  O   UNL A   1      54.328  25.751  26.234  1.00  0.00    -0.237 OA
ATOM    101  O   UNL A   1      53.221  23.736  25.324  1.00  0.00    -0.237 OA
ATOM    102  O   UNL A   1      53.632  25.682  23.868  1.00  0.00    -0.744 OA
ENDBRANCH  98  99
ENDBRANCH  66  91
ENDBRANCH  40  41
ENDBRANCH  32  35
ENDBRANCH  30  31
ENDBRANCH  29  30
ENDBRANCH  28  29
ENDBRANCH   1  28
TORSDOF 20
ENDMDL
MODEL 2
REMARK VINA RESULT:     -11.6      1.629      4.403
REMARK SMILES C[C@@H](Sc1nc(-c2ccc3c(c2)OCO3)ccc1C#N)C(=O)NCCCCCCNC(=O)c1ccc(-c2c3nc(c(-c4c(F)cc(S(=O)(=O)[O-])cc4F)c4ccc([nH]4)c(-c4c(F)cc(S(=O)(=O)[O-])cc4F)c4nc(c(-c5c(F)cc(S(=O)(=O)[O-])cc5F)c5ccc2[nH]5)C=C4)C=C3)cc1
REMARK SMILES IDX 26 1 25 2 24 3 23 4 21 5 22 6 2 8 1 9 3 10 4 11 5 12 18 13
REMARK SMILES IDX 6 14 17 15 16 16 19 17 20 18 7 19 8 20 12 21 9 22 11 23
REMARK SMILES IDX 10 24 13 25 15 26 14 27 27 28 28 29 29 30 30 31 31 32 32 34
REMARK SMILES IDX 33 35 34 36 98 37 35 38 97 39 36 40 37 41 38 42 91 43 39 44
REMARK SMILES IDX 96 45 90 46 92 47 40 48 95 49 89 50 88 51 41 53 75 54 54 55
REMARK SMILES IDX 74 56 55 57 58 58 73 59 93 60 56 61 57 62 72 64 94 65 59 66
REMARK SMILES IDX 42 67 43 68 52 69 44 70 45 71 51 72 53 73 46 74 47 75 48 76
REMARK SMILES IDX 49 77 50 78 76 79 77 80 86 81 78 82 79 83 85 84 87 85 80 86
REMARK SMILES IDX 81 87 82 88 83 89 84 90 60 91 61 92 70 93 62 94 63 95 69 96
REMARK SMILES IDX 71 97 64 98 65 99 66 100 67 101 68 102
REMARK H PARENT 23 7 30 33 92 52 58 63
REMARK Flexibility Score: inf
ROOT
ATOM      1  C   UNL A   1      32.274  29.255  25.386  1.00  0.00     0.002 C 
ENDROOT
BRANCH   1   2
ATOM      2  C   UNL A   1      32.874  28.931  24.014  1.00  0.00     0.021 C 
BRANCH   2   3
ATOM      3  C   UNL A   1      31.894  29.143  22.859  1.00  0.00     0.116 C 
BRANCH   3   4
ATOM      4  N   UNL A   1      31.935  28.013  21.951  1.00  0.00    -0.355 N 
ATOM      5  C   UNL A   1      31.582  26.711  22.145  1.00  0.00     0.233 C 
ATOM      6  O   UNL A   1      31.772  25.928  21.208  1.00  0.00    -0.274 OA
ATOM      7  H   UNL A   1      32.272  28.220  21.050  1.00  0.00     0.163 HD
BRANCH   5   8
ATOM      8  C   UNL A   1      30.964  26.222  23.464  1.00  0.00     0.139 C 
ATOM      9  C   UNL A   1      29.611  26.873  23.739  1.00  0.00     0.030 C 
BRANCH   8  10
ATOM     10  S   UNL A   1      31.053  24.376  23.459  1.00  0.00    -0.092 SA
BRANCH  10  11
ATOM     11  C   UNL A   1      31.727  23.828  25.013  1.00  0.00     0.115 A 
ATOM     12  N   UNL A   1      33.018  23.403  24.842  1.00  0.00    -0.240 NA
ATOM     13  C   UNL A   1      31.142  23.838  26.277  1.00  0.00     0.084 A 
ATOM     14  C   UNL A   1      33.723  22.935  25.899  1.00  0.00     0.072 A 
ATOM     15  C   UNL A   1      31.871  23.321  27.356  1.00  0.00     0.024 A 
ATOM     16  C   UNL A   1      33.167  22.863  27.167  1.00  0.00     0.030 A 
BRANCH  13  17
ATOM     17  C   UNL A   1      29.851  24.368  26.581  1.00  0.00     0.102 C 
ATOM     18  N   UNL A   1      28.823  24.809  26.885  1.00  0.00    -0.192 NA
ENDBRANCH  13  17
BRANCH  14  19
ATOM     19  C   UNL A   1      35.123  22.545  25.672  1.00  0.00     0.004 A 
ATOM     20  C   UNL A   1      35.428  21.287  25.090  1.00  0.00     0.014 A 
ATOM     21  C   UNL A   1      36.185  23.356  26.116  1.00  0.00     0.061 A 
ATOM     22  C   UNL A   1      36.744  20.822  24.991  1.00  0.00     0.051 A 
ATOM     23  C   UNL A   1      37.475  22.865  26.021  1.00  0.00     0.166 A 
ATOM     24  C   UNL A   1      37.742  21.630  25.482  1.00  0.00     0.165 A 
ATOM     25  O   UNL A   1      38.602  23.489  26.462  1.00  0.00    -0.454 OA
ATOM     26  O   UNL A   1      39.065  21.318  25.518  1.00  0.00    -0.454 OA
ATOM     27  C   UNL A   1      39.607  22.505  26.130  1.00  0.00     0.468 C 
ENDBRANCH  14  19
ENDBRANCH  10  11
ENDBRANCH   8  10
ENDBRANCH   5   8
ENDBRANCH   3   4
ENDBRANCH   2   3
ENDBRANCH   1   2
BRANCH   1  28
ATOM     28  C   UNL A   1      33.180  28.904  26.570  1.00  0.00     0.002 C 
BRANCH  28  29
ATOM     29  C   UNL A   1      33.930  30.097  27.165  1.00  0.00     0.021 C 
BRANCH  29  30
ATOM     30  C   UNL A   1      35.151  29.704  27.988  1.00  0.00     0.116 C 
BRANCH  30  31
ATOM     31  N   UNL A   1      35.242  30.484  29.214  1.00  0.00    -0.352 N 
ATOM     32  C   UNL A   1      36.280  30.553  30.109  1.00  0.00     0.251 C 
ATOM     33  H   UNL A   1      34.454  31.033  29.430  1.00  0.00     0.163 HD
ATOM     34  O   UNL A   1      36.115  31.057  31.214  1.00  0.00    -0.269 OA
BRANCH  32  35
ATOM     35  C   UNL A   1      37.592  29.996  29.724  1.00  0.00     0.039 A 
ATOM     36  C   UNL A   1      38.009  30.084  28.395  1.00  0.00     0.014 A 
ATOM     37  C   UNL A   1      38.420  29.420  30.691  1.00  0.00     0.014 A 
ATOM     38  C   UNL A   1      39.288  29.643  28.048  1.00  0.00     0.010 A 
ATOM     39  C   UNL A   1      39.722  29.064  30.360  1.00  0.00     0.010 A 
ATOM     40  C   UNL A   1      40.168  29.164  29.033  1.00  0.00    -0.014 A 
BRANCH  40  41
ATOM     41  C   UNL A   1      41.557  28.753  28.703  1.00  0.00     0.031 A 
ATOM     42  C   UNL A   1      42.653  29.786  28.674  1.00  0.00     0.074 A 
ATOM     43  C   UNL A   1      41.814  27.474  28.360  1.00  0.00     0.049 A 
ATOM     44  N   UNL A   1      43.902  29.651  28.313  1.00  0.00    -0.248 NA
ATOM     45  C   UNL A   1      42.293  31.157  29.077  1.00  0.00     0.031 C 
ATOM     46  C   UNL A   1      40.829  26.392  28.319  1.00  0.00     0.029 A 
ATOM     47  N   UNL A   1      42.982  26.869  27.963  1.00  0.00    -0.354 N 
ATOM     48  C   UNL A   1      44.467  30.916  28.423  1.00  0.00     0.074 A 
ATOM     49  C   UNL A   1      43.419  31.816  28.844  1.00  0.00     0.031 C 
ATOM     50  C   UNL A   1      41.435  25.255  27.941  1.00  0.00     0.029 A 
ATOM     51  C   UNL A   1      42.839  25.534  27.657  1.00  0.00     0.049 A 
ATOM     52  H   UNL A   1      43.841  27.345  27.904  1.00  0.00     0.167 HD
ATOM     53  C   UNL A   1      45.750  31.286  28.205  1.00  0.00     0.037 A 
ATOM     54  C   UNL A   1      43.732  24.644  27.181  1.00  0.00     0.037 A 
ATOM     55  C   UNL A   1      46.796  30.374  27.820  1.00  0.00     0.049 A 
ATOM     56  C   UNL A   1      45.149  25.096  26.926  1.00  0.00     0.074 A 
ATOM     57  C   UNL A   1      48.143  30.641  27.651  1.00  0.00     0.029 A 
ATOM     58  N   UNL A   1      46.614  29.030  27.534  1.00  0.00    -0.354 N 
ATOM     59  N   UNL A   1      45.683  26.280  27.112  1.00  0.00    -0.248 NA
ATOM     60  C   UNL A   1      46.085  24.094  26.396  1.00  0.00     0.031 C 
ATOM     61  C   UNL A   1      48.761  29.479  27.187  1.00  0.00     0.029 A 
ATOM     62  C   UNL A   1      47.819  28.465  27.150  1.00  0.00     0.049 A 
ATOM     63  H   UNL A   1      45.756  28.550  27.595  1.00  0.00     0.167 HD
ATOM     64  C   UNL A   1      47.026  26.148  26.771  1.00  0.00     0.074 A 
ATOM     65  C   UNL A   1      47.224  24.772  26.374  1.00  0.00     0.031 C 
ATOM     66  C   UNL A   1      48.008  27.083  26.788  1.00  0.00     0.037 A 
BRANCH  53  67
ATOM     67  C   UNL A   1      46.116  32.736  28.366  1.00  0.00     0.058 A 
ATOM     68  C   UNL A   1      46.620  33.247  29.572  1.00  0.00     0.135 A 
ATOM     69  C   UNL A   1      46.060  33.601  27.260  1.00  0.00     0.135 A 
ATOM     70  F   UNL A   1      46.677  32.472  30.666  1.00  0.00    -0.206 F 
ATOM     71  C   UNL A   1      47.057  34.564  29.675  1.00  0.00     0.059 A 
ATOM     72  C   UNL A   1      46.521  34.911  27.331  1.00  0.00     0.059 A 
ATOM     73  F   UNL A   1      45.579  33.165  26.085  1.00  0.00    -0.206 F 
ATOM     74  C   UNL A   1      47.016  35.384  28.545  1.00  0.00     0.060 A 
BRANCH  74  75
ATOM     75  S   UNL A   1      47.652  37.068  28.680  1.00  0.00     0.124 S 
ATOM     76  O   UNL A   1      47.935  37.158  30.110  1.00  0.00    -0.237 OA
ATOM     77  O   UNL A   1      48.818  37.028  27.804  1.00  0.00    -0.237 OA
ATOM     78  O   UNL A   1      46.543  37.891  28.209  1.00  0.00    -0.744 OA
ENDBRANCH  74  75
ENDBRANCH  53  67
BRANCH  54  79
ATOM     79  C   UNL A   1      43.330  23.235  26.896  1.00  0.00     0.058 A 
ATOM     80  C   UNL A   1      43.052  22.337  27.938  1.00  0.00     0.135 A 
ATOM     81  C   UNL A   1      43.271  22.744  25.582  1.00  0.00     0.135 A 
ATOM     82  F   UNL A   1      43.098  22.753  29.213  1.00  0.00    -0.206 F 
ATOM     83  C   UNL A   1      42.783  20.993  27.693  1.00  0.00     0.059 A 
ATOM     84  C   UNL A   1      42.966  21.414  25.310  1.00  0.00     0.059 A 
ATOM     85  F   UNL A   1      43.508  23.562  24.544  1.00  0.00    -0.206 F 
ATOM     86  C   UNL A   1      42.749  20.540  26.374  1.00  0.00     0.060 A 
BRANCH  86  87
ATOM     87  S   UNL A   1      42.416  18.793  26.067  1.00  0.00     0.124 S 
ATOM     88  O   UNL A   1      42.694  18.208  27.375  1.00  0.00    -0.237 OA
ATOM     89  O   UNL A   1      41.014  18.815  25.662  1.00  0.00    -0.237 OA
ATOM     90  O   UNL A   1      43.363  18.451  25.010  1.00  0.00    -0.744 OA
ENDBRANCH  86  87
ENDBRANCH  54  79
BRANCH  66  91
ATOM     91  C   UNL A   1      49.404  26.646  26.436  1.00  0.00     0.058 A 
ATOM     92  C   UNL A   1      50.248  26.019  27.364  1.00  0.00     0.135 A 
ATOM     93  C   UNL A   1      49.872  26.786  25.118  1.00  0.00     0.135 A 
ATOM     94  F   UNL A   1      49.855  25.865  28.640  1.00  0.00    -0.206 F 
ATOM     95  C   UNL A   1      51.513  25.564  27.005  1.00  0.00     0.059 A 
ATOM     96  C   UNL A   1      51.116  26.305  24.727  1.00  0.00     0.059 A 
ATOM     97  F   UNL A   1      49.101  27.369  24.185  1.00  0.00    -0.206 F 
ATOM     98  C   UNL A   1      51.934  25.703  25.681  1.00  0.00     0.060 A 
BRANCH  98  99
ATOM     99  S   UNL A   1      53.553  25.056  25.217  1.00  0.00     0.124 S 
ATOM    100  O   UNL A   1      53.342  23.617  25.335  1.00  0.00    -0.237 OA
ATOM    101  O   UNL A   1      53.709  25.563  23.856  1.00  0.00    -0.237 OA
ATOM    102  O   UNL A   1      54.452  25.641  26.206  1.00  0.00    -0.744 OA
ENDBRANCH  98  99
ENDBRANCH  66  91
ENDBRANCH  40  41
ENDBRANCH  32  35
ENDBRANCH  30  31
ENDBRANCH  29  30
ENDBRANCH  28  29
ENDBRANCH   1  28
TORSDOF 20
ENDMDL
MODEL 3
REMARK VINA RESULT:     -11.2      2.011      4.433
REMARK SMILES C[C@@H](Sc1nc(-c2ccc3c(c2)OCO3)ccc1C#N)C(=O)NCCCCCCNC(=O)c1ccc(-c2c3nc(c(-c4c(F)cc(S(=O)(=O)[O-])cc4F)c4ccc([nH]4)c(-c4c(F)cc(S(=O)(=O)[O-])cc4F)c4nc(c(-c5c(F)cc(S(=O)(=O)[O-])cc5F)c5ccc2[nH]5)C=C4)C=C3)cc1
REMARK SMILES IDX 26 1 25 2 24 3 23 4 21 5 22 6 2 8 1 9 3 10 4 11 5 12 18 13
REMARK SMILES IDX 6 14 17 15 16 16 19 17 20 18 7 19 8 20 12 21 9 22 11 23
REMARK SMILES IDX 10 24 13 25 15 26 14 27 27 28 28 29 29 30 30 31 31 32 32 34
REMARK SMILES IDX 33 35 34 36 98 37 35 38 97 39 36 40 37 41 38 42 91 43 39 44
REMARK SMILES IDX 96 45 90 46 92 47 40 48 95 49 89 50 88 51 41 53 75 54 54 55
REMARK SMILES IDX 74 56 55 57 58 58 73 59 93 60 56 61 57 62 72 64 94 65 59 66
REMARK SMILES IDX 42 67 43 68 52 69 44 70 45 71 51 72 53 73 46 74 47 75 48 76
REMARK SMILES IDX 49 77 50 78 76 79 77 80 86 81 78 82 79 83 85 84 87 85 80 86
REMARK SMILES IDX 81 87 82 88 83 89 84 90 60 91 61 92 70 93 62 94 63 95 69 96
REMARK SMILES IDX 71 97 64 98 65 99 66 100 67 101 68 102
REMARK H PARENT 23 7 30 33 92 52 58 63
REMARK Flexibility Score: inf
ROOT
ATOM      1  C   UNL A   1      32.788  29.185  26.568  1.00  0.00     0.002 C 
ENDROOT
BRANCH   1   2
ATOM      2  C   UNL A   1      31.723  29.500  25.512  1.00  0.00     0.021 C 
BRANCH   2   3
ATOM      3  C   UNL A   1      31.798  28.590  24.286  1.00  0.00     0.116 C 
BRANCH   3   4
ATOM      4  N   UNL A   1      30.473  28.122  23.925  1.00  0.00    -0.355 N 
ATOM      5  C   UNL A   1      29.901  26.893  24.065  1.00  0.00     0.233 C 
ATOM      6  O   UNL A   1      28.760  26.746  23.616  1.00  0.00    -0.274 OA
ATOM      7  H   UNL A   1      29.894  28.803  23.512  1.00  0.00     0.163 HD
BRANCH   5   8
ATOM      8  C   UNL A   1      30.629  25.731  24.759  1.00  0.00     0.139 C 
ATOM      9  C   UNL A   1      30.004  25.387  26.108  1.00  0.00     0.030 C 
BRANCH   8  10
ATOM     10  S   UNL A   1      30.804  24.376  23.514  1.00  0.00    -0.092 SA
BRANCH  10  11
ATOM     11  C   UNL A   1      32.503  23.845  23.477  1.00  0.00     0.115 A 
ATOM     12  N   UNL A   1      32.606  22.564  23.949  1.00  0.00    -0.240 NA
ATOM     13  C   UNL A   1      33.626  24.524  23.009  1.00  0.00     0.084 A 
ATOM     14  C   UNL A   1      33.817  21.962  24.016  1.00  0.00     0.072 A 
ATOM     15  C   UNL A   1      34.876  23.902  23.114  1.00  0.00     0.024 A 
ATOM     16  C   UNL A   1      34.975  22.615  23.623  1.00  0.00     0.030 A 
BRANCH  13  17
ATOM     17  C   UNL A   1      33.609  25.812  22.390  1.00  0.00     0.102 C 
ATOM     18  N   UNL A   1      33.655  26.849  21.875  1.00  0.00    -0.192 NA
ENDBRANCH  13  17
BRANCH  14  19
ATOM     19  C   UNL A   1      33.865  20.566  24.477  1.00  0.00     0.004 A 
ATOM     20  C   UNL A   1      35.113  19.905  24.621  1.00  0.00     0.014 A 
ATOM     21  C   UNL A   1      32.684  19.827  24.685  1.00  0.00     0.061 A 
ATOM     22  C   UNL A   1      35.191  18.540  24.917  1.00  0.00     0.051 A 
ATOM     23  C   UNL A   1      32.791  18.476  24.960  1.00  0.00     0.166 A 
ATOM     24  C   UNL A   1      34.011  17.851  25.064  1.00  0.00     0.165 A 
ATOM     25  O   UNL A   1      31.754  17.608  25.121  1.00  0.00    -0.454 OA
ATOM     26  O   UNL A   1      33.898  16.517  25.298  1.00  0.00    -0.454 OA
ATOM     27  C   UNL A   1      32.465  16.370  25.345  1.00  0.00     0.468 C 
ENDBRANCH  14  19
ENDBRANCH  10  11
ENDBRANCH   8  10
ENDBRANCH   5   8
ENDBRANCH   3   4
ENDBRANCH   2   3
ENDBRANCH   1   2
BRANCH   1  28
ATOM     28  C   UNL A   1      33.304  30.409  27.329  1.00  0.00     0.002 C 
BRANCH  28  29
ATOM     29  C   UNL A   1      34.823  30.584  27.287  1.00  0.00     0.021 C 
BRANCH  29  30
ATOM     30  C   UNL A   1      35.558  29.818  28.379  1.00  0.00     0.116 C 
BRANCH  30  31
ATOM     31  N   UNL A   1      35.463  30.497  29.663  1.00  0.00    -0.352 N 
ATOM     32  C   UNL A   1      36.441  30.679  30.610  1.00  0.00     0.251 C 
ATOM     33  H   UNL A   1      34.581  30.874  29.883  1.00  0.00     0.163 HD
ATOM     34  O   UNL A   1      36.149  31.051  31.741  1.00  0.00    -0.269 OA
BRANCH  32  35
ATOM     35  C   UNL A   1      37.845  30.404  30.246  1.00  0.00     0.039 A 
ATOM     36  C   UNL A   1      38.755  30.057  31.246  1.00  0.00     0.014 A 
ATOM     37  C   UNL A   1      38.247  30.458  28.908  1.00  0.00     0.014 A 
ATOM     38  C   UNL A   1      40.060  29.706  30.893  1.00  0.00     0.010 A 
ATOM     39  C   UNL A   1      39.518  30.023  28.553  1.00  0.00     0.010 A 
ATOM     40  C   UNL A   1      40.441  29.650  29.542  1.00  0.00    -0.014 A 
BRANCH  40  41
ATOM     41  C   UNL A   1      41.802  29.214  29.134  1.00  0.00     0.031 A 
ATOM     42  C   UNL A   1      42.917  30.224  29.059  1.00  0.00     0.074 A 
ATOM     43  C   UNL A   1      42.013  27.934  28.763  1.00  0.00     0.049 A 
ATOM     44  N   UNL A   1      44.142  30.068  28.632  1.00  0.00    -0.248 NA
ATOM     45  C   UNL A   1      42.608  31.597  29.497  1.00  0.00     0.031 C 
ATOM     46  C   UNL A   1      41.004  26.873  28.763  1.00  0.00     0.029 A 
ATOM     47  N   UNL A   1      43.145  27.310  28.299  1.00  0.00    -0.354 N 
ATOM     48  C   UNL A   1      44.739  31.319  28.726  1.00  0.00     0.074 A 
ATOM     49  C   UNL A   1      43.734  32.236  29.212  1.00  0.00     0.031 C 
ATOM     50  C   UNL A   1      41.565  25.729  28.339  1.00  0.00     0.029 A 
ATOM     51  C   UNL A   1      42.958  25.982  27.985  1.00  0.00     0.049 A 
ATOM     52  H   UNL A   1      44.010  27.769  28.199  1.00  0.00     0.167 HD
ATOM     53  C   UNL A   1      46.016  31.665  28.446  1.00  0.00     0.037 A 
ATOM     54  C   UNL A   1      43.806  25.080  27.452  1.00  0.00     0.037 A 
ATOM     55  C   UNL A   1      47.020  30.737  27.995  1.00  0.00     0.049 A 
ATOM     56  C   UNL A   1      45.216  25.506  27.128  1.00  0.00     0.074 A 
ATOM     57  C   UNL A   1      48.362  30.978  27.758  1.00  0.00     0.029 A 
ATOM     58  N   UNL A   1      46.795  29.401  27.703  1.00  0.00    -0.354 N 
ATOM     59  N   UNL A   1      45.785  26.676  27.299  1.00  0.00    -0.248 NA
ATOM     60  C   UNL A   1      46.102  24.491  26.538  1.00  0.00     0.031 C 
ATOM     61  C   UNL A   1      48.930  29.809  27.249  1.00  0.00     0.029 A 
ATOM     62  C   UNL A   1      47.965  28.816  27.250  1.00  0.00     0.049 A 
ATOM     63  H   UNL A   1      45.932  28.938  27.804  1.00  0.00     0.167 HD
ATOM     64  C   UNL A   1      47.104  26.521  26.886  1.00  0.00     0.074 A 
ATOM     65  C   UNL A   1      47.252  25.146  26.463  1.00  0.00     0.031 C 
ATOM     66  C   UNL A   1      48.106  27.435  26.862  1.00  0.00     0.037 A 
BRANCH  53  67
ATOM     67  C   UNL A   1      46.421  33.105  28.603  1.00  0.00     0.058 A 
ATOM     68  C   UNL A   1      46.940  33.605  29.807  1.00  0.00     0.135 A 
ATOM     69  C   UNL A   1      46.385  33.970  27.496  1.00  0.00     0.135 A 
ATOM     70  F   UNL A   1      46.979  32.829  30.902  1.00  0.00    -0.206 F 
ATOM     71  C   UNL A   1      47.413  34.910  29.908  1.00  0.00     0.059 A 
ATOM     72  C   UNL A   1      46.881  35.267  27.565  1.00  0.00     0.059 A 
ATOM     73  F   UNL A   1      45.890  33.545  26.323  1.00  0.00    -0.206 F 
ATOM     74  C   UNL A   1      47.392  35.729  28.777  1.00  0.00     0.060 A 
BRANCH  74  75
ATOM     75  S   UNL A   1      48.072  37.395  28.908  1.00  0.00     0.124 S 
ATOM     76  O   UNL A   1      48.469  37.438  30.313  1.00  0.00    -0.237 OA
ATOM     77  O   UNL A   1      49.164  37.359  27.942  1.00  0.00    -0.237 OA
ATOM     78  O   UNL A   1      46.947  38.253  28.550  1.00  0.00    -0.744 OA
ENDBRANCH  74  75
ENDBRANCH  53  67
BRANCH  54  79
ATOM     79  C   UNL A   1      43.359  23.684  27.173  1.00  0.00     0.058 A 
ATOM     80  C   UNL A   1      43.060  23.267  25.867  1.00  0.00     0.135 A 
ATOM     81  C   UNL A   1      43.169  22.757  28.211  1.00  0.00     0.135 A 
ATOM     82  F   UNL A   1      43.221  24.114  24.838  1.00  0.00    -0.206 F 
ATOM     83  C   UNL A   1      42.539  22.003  25.604  1.00  0.00     0.059 A 
ATOM     84  C   UNL A   1      42.686  21.475  27.968  1.00  0.00     0.059 A 
ATOM     85  F   UNL A   1      43.457  23.093  29.478  1.00  0.00    -0.206 F 
ATOM     86  C   UNL A   1      42.349  21.116  26.664  1.00  0.00     0.060 A 
BRANCH  86  87
ATOM     87  S   UNL A   1      41.656  19.486  26.314  1.00  0.00     0.124 S 
ATOM     88  O   UNL A   1      42.053  18.738  27.502  1.00  0.00    -0.237 OA
ATOM     89  O   UNL A   1      40.232  19.780  26.189  1.00  0.00    -0.237 OA
ATOM     90  O   UNL A   1      42.321  19.098  25.074  1.00  0.00    -0.744 OA
ENDBRANCH  86  87
ENDBRANCH  54  79
BRANCH  66  91
ATOM     91  C   UNL A   1      49.472  26.973  26.432  1.00  0.00     0.058 A 
ATOM     92  C   UNL A   1      50.367  26.358  27.319  1.00  0.00     0.135 A 
ATOM     93  C   UNL A   1      49.855  27.078  25.083  1.00  0.00     0.135 A 
ATOM     94  F   UNL A   1      50.056  26.238  28.620  1.00  0.00    -0.206 F 
ATOM     95  C   UNL A   1      51.602  25.881  26.890  1.00  0.00     0.059 A 
ATOM     96  C   UNL A   1      51.066  26.573  24.625  1.00  0.00     0.059 A 
ATOM     97  F   UNL A   1      49.032  27.647  24.188  1.00  0.00    -0.206 F 
ATOM     98  C   UNL A   1      51.938  25.984  25.538  1.00  0.00     0.060 A 
BRANCH  98  99
ATOM     99  S   UNL A   1      53.517  25.307  24.987  1.00  0.00     0.124 S 
ATOM    100  O   UNL A   1      54.464  26.076  25.788  1.00  0.00    -0.237 OA
ATOM    101  O   UNL A   1      53.388  23.896  25.340  1.00  0.00    -0.237 OA
ATOM    102  O   UNL A   1      53.531  25.591  23.556  1.00  0.00    -0.744 OA
ENDBRANCH  98  99
ENDBRANCH  66  91
ENDBRANCH  40  41
ENDBRANCH  32  35
ENDBRANCH  30  31
ENDBRANCH  29  30
ENDBRANCH  28  29
ENDBRANCH   1  28
TORSDOF 20
ENDMDL
