MODEL 1
REMARK VINA RESULT:     -14.5      0.000      0.000
REMARK SMILES CC(=O)Nc1cnc(N2CC=C(c3ccccc3C)CC2)c(C(=O)NCCCCCCNC(=O)c2ccc(-c3c4nc(c(-c5c(F)cc(S(=O)(=O)[O-])cc5F)c5ccc([nH]5)c(-c5c(F)cc(S(=O)(=O)[O-])cc5F)c5nc(c(-c6c(F)cc(S(=O)(=O)[O-])cc6F)c6ccc3[nH]6)C=C5)C=C4)cc2)c1
REMARK SMILES IDX 29 1 28 2 27 3 26 4 25 5 23 6 24 7 22 9 5 10 6 11 101 12
REMARK SMILES IDX 7 13 8 14 4 15 1 16 2 17 3 18 9 20 10 21 21 22 11 23 20 24
REMARK SMILES IDX 12 25 13 26 14 27 18 28 15 29 17 30 19 31 16 32 30 33 31 34
REMARK SMILES IDX 32 35 33 36 34 38 35 39 36 40 100 41 37 42 99 43 38 44 39 45
REMARK SMILES IDX 40 46 93 47 41 48 98 49 92 50 94 51 42 52 97 53 91 54 90 55
REMARK SMILES IDX 43 57 77 58 56 59 76 60 57 61 60 62 75 63 95 64 58 65 59 66
REMARK SMILES IDX 74 68 96 69 61 70 44 71 45 72 54 73 46 74 47 75 53 76 55 77
REMARK SMILES IDX 48 78 49 79 50 80 51 81 52 82 78 83 79 84 88 85 80 86 81 87
REMARK SMILES IDX 87 88 89 89 82 90 83 91 84 92 85 93 86 94 62 95 63 96 72 97
REMARK SMILES IDX 64 98 65 99 71 100 73 101 66 102 67 103 68 104 69 105 70 106
REMARK H PARENT 25 8 4 19 32 37 94 56 60 67
REMARK Flexibility Score: inf
ROOT
ATOM      1  C   UNL A   1      35.803  22.347  24.888  1.00  0.00     0.002 C 
ENDROOT
BRANCH   1   2
ATOM      2  C   UNL A   1      35.302  21.857  26.259  1.00  0.00     0.002 C 
BRANCH   2   3
ATOM      3  C   UNL A   1      34.528  22.878  27.105  1.00  0.00     0.021 C 
BRANCH   3   4
ATOM      4  C   UNL A   1      33.397  22.272  27.932  1.00  0.00     0.116 C 
BRANCH   4   5
ATOM      5  N   UNL A   1      32.090  22.641  27.436  1.00  0.00    -0.352 N 
ATOM      6  C   UNL A   1      31.321  22.352  26.339  1.00  0.00     0.255 C 
ATOM      7  O   UNL A   1      30.123  22.558  26.540  1.00  0.00    -0.269 OA
ATOM      8  H   UNL A   1      31.632  23.261  28.048  1.00  0.00     0.163 HD
BRANCH   6   9
ATOM      9  C   UNL A   1      31.799  21.794  25.022  1.00  0.00     0.084 A 
ATOM     10  C   UNL A   1      32.270  19.887  23.566  1.00  0.00     0.060 A 
ATOM     11  C   UNL A   1      32.378  20.772  22.517  1.00  0.00     0.139 A 
ATOM     12  C   UNL A   1      32.052  20.425  24.833  1.00  0.00     0.045 A 
ATOM     13  N   UNL A   1      32.208  22.099  22.652  1.00  0.00    -0.236 NA
ATOM     14  C   UNL A   1      31.932  22.622  23.883  1.00  0.00     0.141 A 
BRANCH  10  15
ATOM     15  N   UNL A   1      32.399  18.510  23.320  1.00  0.00    -0.325 N 
ATOM     16  C   UNL A   1      34.622  18.154  24.384  1.00  0.00     0.114 C 
ATOM     17  C   UNL A   1      33.460  17.678  23.552  1.00  0.00     0.221 C 
ATOM     18  O   UNL A   1      33.409  16.516  23.147  1.00  0.00    -0.275 OA
ATOM     19  H   UNL A   1      31.608  18.081  22.921  1.00  0.00     0.169 HD
ENDBRANCH  10  15
BRANCH  14  20
ATOM     20  N   UNL A   1      31.856  23.991  23.861  1.00  0.00    -0.352 N 
ATOM     21  C   UNL A   1      33.100  24.730  23.759  1.00  0.00     0.146 C 
ATOM     22  C   UNL A   1      30.601  24.711  23.703  1.00  0.00     0.123 C 
ATOM     23  C   UNL A   1      32.953  26.104  24.351  1.00  0.00    -0.002 C 
ATOM     24  C   UNL A   1      30.518  25.818  24.761  1.00  0.00     0.057 C 
ATOM     25  C   UNL A   1      31.799  26.615  24.825  1.00  0.00    -0.041 C 
BRANCH  25  26
ATOM     26  C   UNL A   1      31.766  27.975  25.395  1.00  0.00    -0.020 A 
ATOM     27  C   UNL A   1      32.179  28.140  26.731  1.00  0.00     0.008 A 
ATOM     28  C   UNL A   1      31.328  29.102  24.671  1.00  0.00    -0.044 A 
ATOM     29  C   UNL A   1      32.163  29.394  27.342  1.00  0.00     0.001 A 
ATOM     30  C   UNL A   1      31.333  30.362  25.296  1.00  0.00     0.004 A 
ATOM     31  C   UNL A   1      30.872  29.018  23.240  1.00  0.00     0.045 C 
ATOM     32  C   UNL A   1      31.739  30.505  26.622  1.00  0.00     0.000 A 
ENDBRANCH  25  26
ENDBRANCH  14  20
ENDBRANCH   6   9
ENDBRANCH   4   5
ENDBRANCH   3   4
ENDBRANCH   2   3
ENDBRANCH   1   2
BRANCH   1  33
ATOM     33  C   UNL A   1      37.318  22.527  24.745  1.00  0.00     0.021 C 
BRANCH  33  34
ATOM     34  C   UNL A   1      37.898  23.531  25.732  1.00  0.00     0.116 C 
BRANCH  34  35
ATOM     35  N   UNL A   1      39.165  23.103  26.299  1.00  0.00    -0.352 N 
ATOM     36  C   UNL A   1      40.141  23.906  26.863  1.00  0.00     0.251 C 
ATOM     37  H   UNL A   1      39.350  22.137  26.280  1.00  0.00     0.163 HD
ATOM     38  O   UNL A   1      41.275  23.521  27.077  1.00  0.00    -0.269 OA
BRANCH  36  39
ATOM     39  C   UNL A   1      39.692  25.230  27.339  1.00  0.00     0.039 A 
ATOM     40  C   UNL A   1      40.159  26.347  26.635  1.00  0.00     0.014 A 
ATOM     41  C   UNL A   1      39.086  25.359  28.586  1.00  0.00     0.014 A 
ATOM     42  C   UNL A   1      40.146  27.594  27.251  1.00  0.00     0.010 A 
ATOM     43  C   UNL A   1      39.149  26.584  29.226  1.00  0.00     0.010 A 
ATOM     44  C   UNL A   1      39.709  27.692  28.573  1.00  0.00    -0.014 A 
BRANCH  44  45
ATOM     45  C   UNL A   1      39.862  28.899  29.374  1.00  0.00     0.031 A 
ATOM     46  C   UNL A   1      38.811  29.940  29.355  1.00  0.00     0.074 A 
ATOM     47  C   UNL A   1      40.952  29.069  30.154  1.00  0.00     0.049 A 
ATOM     48  N   UNL A   1      39.036  31.195  29.570  1.00  0.00    -0.248 NA
ATOM     49  C   UNL A   1      37.413  29.648  29.051  1.00  0.00     0.031 C 
ATOM     50  C   UNL A   1      41.139  30.079  31.194  1.00  0.00     0.029 A 
ATOM     51  N   UNL A   1      42.203  28.471  30.025  1.00  0.00    -0.354 N 
ATOM     52  C   UNL A   1      37.817  31.818  29.695  1.00  0.00     0.074 A 
ATOM     53  C   UNL A   1      36.838  30.828  29.305  1.00  0.00     0.031 C 
ATOM     54  C   UNL A   1      42.450  30.206  31.447  1.00  0.00     0.029 A 
ATOM     55  C   UNL A   1      43.164  29.388  30.480  1.00  0.00     0.049 A 
ATOM     56  H   UNL A   1      42.382  27.567  29.677  1.00  0.00     0.167 HD
ATOM     57  C   UNL A   1      37.737  33.061  30.248  1.00  0.00     0.037 A 
ATOM     58  C   UNL A   1      44.153  29.848  29.658  1.00  0.00     0.037 A 
ATOM     59  C   UNL A   1      39.050  33.565  30.631  1.00  0.00     0.049 A 
ATOM     60  C   UNL A   1      44.111  31.342  29.429  1.00  0.00     0.074 A 
ATOM     61  C   UNL A   1      39.737  33.537  31.834  1.00  0.00     0.029 A 
ATOM     62  N   UNL A   1      39.979  33.904  29.654  1.00  0.00    -0.354 N 
ATOM     63  N   UNL A   1      43.068  32.090  29.665  1.00  0.00    -0.248 NA
ATOM     64  C   UNL A   1      45.237  32.111  28.905  1.00  0.00     0.031 C 
ATOM     65  C   UNL A   1      41.098  33.813  31.573  1.00  0.00     0.029 A 
ATOM     66  C   UNL A   1      41.239  34.026  30.213  1.00  0.00     0.049 A 
ATOM     67  H   UNL A   1      39.772  34.037  28.701  1.00  0.00     0.167 HD
ATOM     68  C   UNL A   1      43.340  33.388  29.307  1.00  0.00     0.074 A 
ATOM     69  C   UNL A   1      44.721  33.352  28.866  1.00  0.00     0.031 C 
ATOM     70  C   UNL A   1      42.398  34.376  29.404  1.00  0.00     0.037 A 
BRANCH  57  71
ATOM     71  C   UNL A   1      36.425  33.638  30.720  1.00  0.00     0.058 A 
ATOM     72  C   UNL A   1      35.473  34.135  29.806  1.00  0.00     0.135 A 
ATOM     73  C   UNL A   1      36.083  33.784  32.079  1.00  0.00     0.135 A 
ATOM     74  F   UNL A   1      35.634  34.005  28.483  1.00  0.00    -0.206 F 
ATOM     75  C   UNL A   1      34.326  34.820  30.205  1.00  0.00     0.059 A 
ATOM     76  C   UNL A   1      34.964  34.508  32.506  1.00  0.00     0.059 A 
ATOM     77  F   UNL A   1      36.837  33.224  33.039  1.00  0.00    -0.206 F 
ATOM     78  C   UNL A   1      34.096  35.034  31.557  1.00  0.00     0.060 A 
BRANCH  78  79
ATOM     79  S   UNL A   1      32.676  36.038  32.039  1.00  0.00     0.124 S 
ATOM     80  O   UNL A   1      32.324  36.700  30.785  1.00  0.00    -0.237 OA
ATOM     81  O   UNL A   1      31.736  35.026  32.507  1.00  0.00    -0.237 OA
ATOM     82  O   UNL A   1      33.219  36.919  33.069  1.00  0.00    -0.744 OA
ENDBRANCH  78  79
ENDBRANCH  57  71
BRANCH  58  83
ATOM     83  C   UNL A   1      44.607  28.836  28.664  1.00  0.00     0.058 A 
ATOM     84  C   UNL A   1      44.030  28.870  27.379  1.00  0.00     0.135 A 
ATOM     85  C   UNL A   1      45.829  28.167  28.807  1.00  0.00     0.135 A 
ATOM     86  F   UNL A   1      42.851  29.487  27.189  1.00  0.00    -0.206 F 
ATOM     87  C   UNL A   1      44.706  28.400  26.259  1.00  0.00     0.059 A 
ATOM     88  C   UNL A   1      46.523  27.681  27.697  1.00  0.00     0.059 A 
ATOM     89  F   UNL A   1      46.427  28.100  30.006  1.00  0.00    -0.206 F 
ATOM     90  C   UNL A   1      45.981  27.863  26.423  1.00  0.00     0.060 A 
BRANCH  90  91
ATOM     91  S   UNL A   1      46.968  27.553  24.939  1.00  0.00     0.124 S 
ATOM     92  O   UNL A   1      48.319  27.479  25.484  1.00  0.00    -0.237 OA
ATOM     93  O   UNL A   1      46.412  26.288  24.463  1.00  0.00    -0.237 OA
ATOM     94  O   UNL A   1      46.687  28.713  24.100  1.00  0.00    -0.744 OA
ENDBRANCH  90  91
ENDBRANCH  58  83
BRANCH  70  95
ATOM     95  C   UNL A   1      42.506  35.788  28.864  1.00  0.00     0.058 A 
ATOM     96  C   UNL A   1      41.816  36.261  27.736  1.00  0.00     0.135 A 
ATOM     97  C   UNL A   1      43.237  36.771  29.579  1.00  0.00     0.135 A 
ATOM     98  F   UNL A   1      40.994  35.467  27.036  1.00  0.00    -0.206 F 
ATOM     99  C   UNL A   1      41.898  37.589  27.306  1.00  0.00     0.059 A 
ATOM    100  C   UNL A   1      43.286  38.111  29.201  1.00  0.00     0.059 A 
ATOM    101  F   UNL A   1      43.925  36.467  30.690  1.00  0.00    -0.206 F 
ATOM    102  C   UNL A   1      42.636  38.508  28.045  1.00  0.00     0.060 A 
BRANCH 102 103
ATOM    103  S   UNL A   1      42.693  40.236  27.538  1.00  0.00     0.124 S 
ATOM    104  O   UNL A   1      43.083  40.116  26.137  1.00  0.00    -0.237 OA
ATOM    105  O   UNL A   1      41.326  40.691  27.775  1.00  0.00    -0.237 OA
ATOM    106  O   UNL A   1      43.698  40.810  28.429  1.00  0.00    -0.744 OA
ENDBRANCH 102 103
ENDBRANCH  70  95
ENDBRANCH  44  45
ENDBRANCH  36  39
ENDBRANCH  34  35
ENDBRANCH  33  34
ENDBRANCH   1  33
TORSDOF 19
ENDMDL
MODEL 2
REMARK VINA RESULT:     -13.0      1.226      2.202
REMARK SMILES CC(=O)Nc1cnc(N2CC=C(c3ccccc3C)CC2)c(C(=O)NCCCCCCNC(=O)c2ccc(-c3c4nc(c(-c5c(F)cc(S(=O)(=O)[O-])cc5F)c5ccc([nH]5)c(-c5c(F)cc(S(=O)(=O)[O-])cc5F)c5nc(c(-c6c(F)cc(S(=O)(=O)[O-])cc6F)c6ccc3[nH]6)C=C5)C=C4)cc2)c1
REMARK SMILES IDX 29 1 28 2 27 3 26 4 25 5 23 6 24 7 22 9 5 10 6 11 101 12
REMARK SMILES IDX 7 13 8 14 4 15 1 16 2 17 3 18 9 20 10 21 21 22 11 23 20 24
REMARK SMILES IDX 12 25 13 26 14 27 18 28 15 29 17 30 19 31 16 32 30 33 31 34
REMARK SMILES IDX 32 35 33 36 34 38 35 39 36 40 100 41 37 42 99 43 38 44 39 45
REMARK SMILES IDX 40 46 93 47 41 48 98 49 92 50 94 51 42 52 97 53 91 54 90 55
REMARK SMILES IDX 43 57 77 58 56 59 76 60 57 61 60 62 75 63 95 64 58 65 59 66
REMARK SMILES IDX 74 68 96 69 61 70 44 71 45 72 54 73 46 74 47 75 53 76 55 77
REMARK SMILES IDX 48 78 49 79 50 80 51 81 52 82 78 83 79 84 88 85 80 86 81 87
REMARK SMILES IDX 87 88 89 89 82 90 83 91 84 92 85 93 86 94 62 95 63 96 72 97
REMARK SMILES IDX 64 98 65 99 71 100 73 101 66 102 67 103 68 104 69 105 70 106
REMARK H PARENT 25 8 4 19 32 37 94 56 60 67
REMARK Flexibility Score: inf
ROOT
ATOM      1  C   UNL A   1      36.443  23.354  24.863  1.00  0.00     0.002 C 
ENDROOT
BRANCH   1   2
ATOM      2  C   UNL A   1      36.571  22.599  23.527  1.00  0.00     0.002 C 
BRANCH   2   3
ATOM      3  C   UNL A   1      35.572  22.989  22.428  1.00  0.00     0.021 C 
BRANCH   3   4
ATOM      4  C   UNL A   1      34.516  23.996  22.874  1.00  0.00     0.116 C 
BRANCH   4   5
ATOM      5  N   UNL A   1      33.175  23.582  22.529  1.00  0.00    -0.352 N 
ATOM      6  C   UNL A   1      32.199  22.797  23.086  1.00  0.00     0.255 C 
ATOM      7  O   UNL A   1      31.078  23.066  22.652  1.00  0.00    -0.269 OA
ATOM      8  H   UNL A   1      32.886  23.966  21.669  1.00  0.00     0.163 HD
BRANCH   6   9
ATOM      9  C   UNL A   1      32.385  21.743  24.148  1.00  0.00     0.084 A 
ATOM     10  C   UNL A   1      32.815  19.423  24.789  1.00  0.00     0.060 A 
ATOM     11  C   UNL A   1      33.032  19.865  26.074  1.00  0.00     0.139 A 
ATOM     12  C   UNL A   1      32.417  20.371  23.848  1.00  0.00     0.045 A 
ATOM     13  N   UNL A   1      32.952  21.160  26.432  1.00  0.00    -0.236 NA
ATOM     14  C   UNL A   1      32.624  22.099  25.496  1.00  0.00     0.141 A 
BRANCH  10  15
ATOM     15  N   UNL A   1      32.984  18.061  24.493  1.00  0.00    -0.325 N 
ATOM     16  C   UNL A   1      35.474  17.998  24.469  1.00  0.00     0.114 C 
ATOM     17  C   UNL A   1      34.130  17.363  24.225  1.00  0.00     0.221 C 
ATOM     18  O   UNL A   1      34.045  16.187  23.867  1.00  0.00    -0.275 OA
ATOM     19  H   UNL A   1      32.155  17.530  24.476  1.00  0.00     0.169 HD
ENDBRANCH  10  15
BRANCH  14  20
ATOM     20  N   UNL A   1      32.519  23.355  26.035  1.00  0.00    -0.352 N 
ATOM     21  C   UNL A   1      31.192  23.827  26.382  1.00  0.00     0.146 C 
ATOM     22  C   UNL A   1      33.672  24.124  26.481  1.00  0.00     0.123 C 
ATOM     23  C   UNL A   1      31.137  25.329  26.357  1.00  0.00    -0.002 C 
ATOM     24  C   UNL A   1      33.575  25.548  25.922  1.00  0.00     0.057 C 
ATOM     25  C   UNL A   1      32.198  26.131  26.135  1.00  0.00    -0.041 C 
BRANCH  25  26
ATOM     26  C   UNL A   1      32.033  27.597  26.122  1.00  0.00    -0.020 A 
ATOM     27  C   UNL A   1      32.386  28.310  27.283  1.00  0.00     0.008 A 
ATOM     28  C   UNL A   1      31.528  28.304  25.012  1.00  0.00    -0.044 A 
ATOM     29  C   UNL A   1      32.246  29.696  27.350  1.00  0.00     0.001 A 
ATOM     30  C   UNL A   1      31.408  29.703  25.089  1.00  0.00     0.004 A 
ATOM     31  C   UNL A   1      31.129  27.623  23.732  1.00  0.00     0.045 C 
ATOM     32  C   UNL A   1      31.756  30.392  26.251  1.00  0.00     0.000 A 
ENDBRANCH  25  26
ENDBRANCH  14  20
ENDBRANCH   6   9
ENDBRANCH   4   5
ENDBRANCH   3   4
ENDBRANCH   2   3
ENDBRANCH   1   2
BRANCH   1  33
ATOM     33  C   UNL A   1      37.731  23.967  25.421  1.00  0.00     0.021 C 
BRANCH  33  34
ATOM     34  C   UNL A   1      38.277  23.220  26.629  1.00  0.00     0.116 C 
BRANCH  34  35
ATOM     35  N   UNL A   1      39.727  23.142  26.642  1.00  0.00    -0.352 N 
ATOM     36  C   UNL A   1      40.621  24.198  26.660  1.00  0.00     0.251 C 
ATOM     37  H   UNL A   1      40.119  22.238  26.636  1.00  0.00     0.163 HD
ATOM     38  O   UNL A   1      41.804  24.072  26.407  1.00  0.00    -0.269 OA
BRANCH  36  39
ATOM     39  C   UNL A   1      40.089  25.485  27.156  1.00  0.00     0.039 A 
ATOM     40  C   UNL A   1      40.462  26.636  26.451  1.00  0.00     0.014 A 
ATOM     41  C   UNL A   1      39.500  25.562  28.415  1.00  0.00     0.014 A 
ATOM     42  C   UNL A   1      40.373  27.875  27.078  1.00  0.00     0.010 A 
ATOM     43  C   UNL A   1      39.489  26.784  29.063  1.00  0.00     0.010 A 
ATOM     44  C   UNL A   1      39.956  27.932  28.409  1.00  0.00    -0.014 A 
BRANCH  44  45
ATOM     45  C   UNL A   1      40.040  29.142  29.216  1.00  0.00     0.031 A 
ATOM     46  C   UNL A   1      38.960  30.151  29.155  1.00  0.00     0.074 A 
ATOM     47  C   UNL A   1      41.092  29.344  30.040  1.00  0.00     0.049 A 
ATOM     48  N   UNL A   1      39.136  31.411  29.381  1.00  0.00    -0.248 NA
ATOM     49  C   UNL A   1      37.585  29.817  28.795  1.00  0.00     0.031 C 
ATOM     50  C   UNL A   1      41.206  30.357  31.087  1.00  0.00     0.029 A 
ATOM     51  N   UNL A   1      42.365  28.785  29.960  1.00  0.00    -0.354 N 
ATOM     52  C   UNL A   1      37.895  31.996  29.457  1.00  0.00     0.074 A 
ATOM     53  C   UNL A   1      36.963  30.978  29.027  1.00  0.00     0.031 C 
ATOM     54  C   UNL A   1      42.501  30.523  31.393  1.00  0.00     0.029 A 
ATOM     55  C   UNL A   1      43.278  29.731  30.455  1.00  0.00     0.049 A 
ATOM     56  H   UNL A   1      42.585  27.888  29.620  1.00  0.00     0.167 HD
ATOM     57  C   UNL A   1      37.755  33.235  30.007  1.00  0.00     0.037 A 
ATOM     58  C   UNL A   1      44.285  30.222  29.674  1.00  0.00     0.037 A 
ATOM     59  C   UNL A   1      39.034  33.779  30.444  1.00  0.00     0.049 A 
ATOM     60  C   UNL A   1      44.206  31.715  29.445  1.00  0.00     0.074 A 
ATOM     61  C   UNL A   1      39.674  33.769  31.673  1.00  0.00     0.029 A 
ATOM     62  N   UNL A   1      39.992  34.147  29.505  1.00  0.00    -0.354 N 
ATOM     63  N   UNL A   1      43.132  32.430  29.639  1.00  0.00    -0.248 NA
ATOM     64  C   UNL A   1      45.328  32.519  28.968  1.00  0.00     0.031 C 
ATOM     65  C   UNL A   1      41.035  34.087  31.467  1.00  0.00     0.029 A 
ATOM     66  C   UNL A   1      41.224  34.307  30.114  1.00  0.00     0.049 A 
ATOM     67  H   UNL A   1      39.819  34.276  28.545  1.00  0.00     0.167 HD
ATOM     68  C   UNL A   1      43.378  33.736  29.294  1.00  0.00     0.074 A 
ATOM     69  C   UNL A   1      44.776  33.744  28.908  1.00  0.00     0.031 C 
ATOM     70  C   UNL A   1      42.403  34.695  29.353  1.00  0.00     0.037 A 
BRANCH  57  71
ATOM     71  C   UNL A   1      36.407  33.771  30.427  1.00  0.00     0.058 A 
ATOM     72  C   UNL A   1      35.479  34.242  29.476  1.00  0.00     0.135 A 
ATOM     73  C   UNL A   1      36.006  33.900  31.771  1.00  0.00     0.135 A 
ATOM     74  F   UNL A   1      35.699  34.123  28.160  1.00  0.00    -0.206 F 
ATOM     75  C   UNL A   1      34.297  34.891  29.829  1.00  0.00     0.059 A 
ATOM     76  C   UNL A   1      34.848  34.589  32.153  1.00  0.00     0.059 A 
ATOM     77  F   UNL A   1      36.736  33.359  32.760  1.00  0.00    -0.206 F 
ATOM     78  C   UNL A   1      34.005  35.092  31.171  1.00  0.00     0.060 A 
BRANCH  78  79
ATOM     79  S   UNL A   1      32.537  36.051  31.597  1.00  0.00     0.124 S 
ATOM     80  O   UNL A   1      31.777  35.109  32.415  1.00  0.00    -0.237 OA
ATOM     81  O   UNL A   1      33.114  37.185  32.310  1.00  0.00    -0.237 OA
ATOM     82  O   UNL A   1      31.944  36.357  30.299  1.00  0.00    -0.744 OA
ENDBRANCH  78  79
ENDBRANCH  57  71
BRANCH  58  83
ATOM     83  C   UNL A   1      44.809  29.227  28.698  1.00  0.00     0.058 A 
ATOM     84  C   UNL A   1      45.836  28.363  29.126  1.00  0.00     0.135 A 
ATOM     85  C   UNL A   1      44.067  28.844  27.574  1.00  0.00     0.135 A 
ATOM     86  F   UNL A   1      46.587  28.689  30.191  1.00  0.00    -0.206 F 
ATOM     87  C   UNL A   1      46.017  27.104  28.563  1.00  0.00     0.059 A 
ATOM     88  C   UNL A   1      44.236  27.588  26.988  1.00  0.00     0.059 A 
ATOM     89  F   UNL A   1      43.078  29.627  27.118  1.00  0.00    -0.206 F 
ATOM     90  C   UNL A   1      45.168  26.702  27.534  1.00  0.00     0.060 A 
BRANCH  90  91
ATOM     91  S   UNL A   1      45.205  24.964  27.033  1.00  0.00     0.124 S 
ATOM     92  O   UNL A   1      44.326  24.346  28.020  1.00  0.00    -0.237 OA
ATOM     93  O   UNL A   1      44.675  25.029  25.672  1.00  0.00    -0.237 OA
ATOM     94  O   UNL A   1      46.617  24.614  27.137  1.00  0.00    -0.744 OA
ENDBRANCH  90  91
ENDBRANCH  58  83
BRANCH  70  95
ATOM     95  C   UNL A   1      42.489  36.110  28.820  1.00  0.00     0.058 A 
ATOM     96  C   UNL A   1      43.184  37.155  29.452  1.00  0.00     0.135 A 
ATOM     97  C   UNL A   1      41.961  36.426  27.542  1.00  0.00     0.135 A 
ATOM     98  F   UNL A   1      43.833  36.963  30.609  1.00  0.00    -0.206 F 
ATOM     99  C   UNL A   1      43.289  38.433  28.896  1.00  0.00     0.059 A 
ATOM    100  C   UNL A   1      42.103  37.676  26.944  1.00  0.00     0.059 A 
ATOM    101  F   UNL A   1      41.294  35.517  26.813  1.00  0.00    -0.206 F 
ATOM    102  C   UNL A   1      42.745  38.685  27.640  1.00  0.00     0.060 A 
BRANCH 102 103
ATOM    103  S   UNL A   1      42.933  40.310  26.884  1.00  0.00     0.124 S 
ATOM    104  O   UNL A   1      41.587  40.550  26.372  1.00  0.00    -0.237 OA
ATOM    105  O   UNL A   1      43.337  41.148  28.009  1.00  0.00    -0.237 OA
ATOM    106  O   UNL A   1      43.965  40.089  25.876  1.00  0.00    -0.744 OA
ENDBRANCH 102 103
ENDBRANCH  70  95
ENDBRANCH  44  45
ENDBRANCH  36  39
ENDBRANCH  34  35
ENDBRANCH  33  34
ENDBRANCH   1  33
TORSDOF 19
ENDMDL
MODEL 3
REMARK VINA RESULT:     -12.8      1.971      4.774
REMARK SMILES CC(=O)Nc1cnc(N2CC=C(c3ccccc3C)CC2)c(C(=O)NCCCCCCNC(=O)c2ccc(-c3c4nc(c(-c5c(F)cc(S(=O)(=O)[O-])cc5F)c5ccc([nH]5)c(-c5c(F)cc(S(=O)(=O)[O-])cc5F)c5nc(c(-c6c(F)cc(S(=O)(=O)[O-])cc6F)c6ccc3[nH]6)C=C5)C=C4)cc2)c1
REMARK SMILES IDX 29 1 28 2 27 3 26 4 25 5 23 6 24 7 22 9 5 10 6 11 101 12
REMARK SMILES IDX 7 13 8 14 4 15 1 16 2 17 3 18 9 20 10 21 21 22 11 23 20 24
REMARK SMILES IDX 12 25 13 26 14 27 18 28 15 29 17 30 19 31 16 32 30 33 31 34
REMARK SMILES IDX 32 35 33 36 34 38 35 39 36 40 100 41 37 42 99 43 38 44 39 45
REMARK SMILES IDX 40 46 93 47 41 48 98 49 92 50 94 51 42 52 97 53 91 54 90 55
REMARK SMILES IDX 43 57 77 58 56 59 76 60 57 61 60 62 75 63 95 64 58 65 59 66
REMARK SMILES IDX 74 68 96 69 61 70 44 71 45 72 54 73 46 74 47 75 53 76 55 77
REMARK SMILES IDX 48 78 49 79 50 80 51 81 52 82 78 83 79 84 88 85 80 86 81 87
REMARK SMILES IDX 87 88 89 89 82 90 83 91 84 92 85 93 86 94 62 95 63 96 72 97
REMARK SMILES IDX 64 98 65 99 71 100 73 101 66 102 67 103 68 104 69 105 70 106
REMARK H PARENT 25 8 4 19 32 37 94 56 60 67
REMARK Flexibility Score: inf
ROOT
ATOM      1  C   UNL A   1      38.221  23.337  26.460  1.00  0.00     0.002 C 
ENDROOT
BRANCH   1   2
ATOM      2  C   UNL A   1      37.273  24.157  25.566  1.00  0.00     0.002 C 
BRANCH   2   3
ATOM      3  C   UNL A   1      36.688  23.428  24.347  1.00  0.00     0.021 C 
BRANCH   3   4
ATOM      4  C   UNL A   1      35.162  23.409  24.307  1.00  0.00     0.116 C 
BRANCH   4   5
ATOM      5  N   UNL A   1      34.629  24.116  23.164  1.00  0.00    -0.352 N 
ATOM      6  C   UNL A   1      33.772  25.164  22.950  1.00  0.00     0.255 C 
ATOM      7  O   UNL A   1      33.937  25.686  21.847  1.00  0.00    -0.269 OA
ATOM      8  H   UNL A   1      34.973  23.750  22.317  1.00  0.00     0.163 HD
BRANCH   6   9
ATOM      9  C   UNL A   1      32.754  25.710  23.919  1.00  0.00     0.084 A 
ATOM     10  C   UNL A   1      31.631  27.605  24.981  1.00  0.00     0.060 A 
ATOM     11  C   UNL A   1      30.688  26.722  25.456  1.00  0.00     0.139 A 
ATOM     12  C   UNL A   1      32.704  27.068  24.271  1.00  0.00     0.045 A 
ATOM     13  N   UNL A   1      30.720  25.402  25.203  1.00  0.00    -0.236 NA
ATOM     14  C   UNL A   1      31.738  24.883  24.455  1.00  0.00     0.141 A 
BRANCH  10  15
ATOM     15  N   UNL A   1      31.481  28.977  25.240  1.00  0.00    -0.325 N 
ATOM     16  C   UNL A   1      32.896  29.119  27.286  1.00  0.00     0.114 C 
ATOM     17  C   UNL A   1      31.919  29.716  26.306  1.00  0.00     0.221 C 
ATOM     18  O   UNL A   1      31.573  30.894  26.399  1.00  0.00    -0.275 OA
ATOM     19  H   UNL A   1      30.987  29.481  24.554  1.00  0.00     0.169 HD
ENDBRANCH  10  15
BRANCH  14  20
ATOM     20  N   UNL A   1      31.661  23.519  24.347  1.00  0.00    -0.352 N 
ATOM     21  C   UNL A   1      31.687  22.747  25.575  1.00  0.00     0.146 C 
ATOM     22  C   UNL A   1      31.328  22.840  23.103  1.00  0.00     0.123 C 
ATOM     23  C   UNL A   1      32.210  21.360  25.322  1.00  0.00    -0.002 C 
ATOM     24  C   UNL A   1      32.330  21.705  22.863  1.00  0.00     0.057 C 
ATOM     25  C   UNL A   1      32.523  20.870  24.107  1.00  0.00    -0.041 C 
BRANCH  25  26
ATOM     26  C   UNL A   1      33.039  19.494  23.969  1.00  0.00    -0.020 A 
ATOM     27  C   UNL A   1      32.220  18.544  23.332  1.00  0.00     0.008 A 
ATOM     28  C   UNL A   1      34.299  19.093  24.458  1.00  0.00    -0.044 A 
ATOM     29  C   UNL A   1      32.635  17.221  23.177  1.00  0.00     0.001 A 
ATOM     30  C   UNL A   1      34.710  17.760  24.279  1.00  0.00     0.004 A 
ATOM     31  C   UNL A   1      35.239  20.042  25.149  1.00  0.00     0.045 C 
ATOM     32  C   UNL A   1      33.881  16.830  23.651  1.00  0.00     0.000 A 
ENDBRANCH  25  26
ENDBRANCH  14  20
ENDBRANCH   6   9
ENDBRANCH   4   5
ENDBRANCH   3   4
ENDBRANCH   2   3
ENDBRANCH   1   2
BRANCH   1  33
ATOM     33  C   UNL A   1      38.968  22.186  25.779  1.00  0.00     0.021 C 
BRANCH  33  34
ATOM     34  C   UNL A   1      40.153  21.678  26.588  1.00  0.00     0.116 C 
BRANCH  34  35
ATOM     35  N   UNL A   1      41.433  21.992  25.978  1.00  0.00    -0.352 N 
ATOM     36  C   UNL A   1      41.956  23.249  25.731  1.00  0.00     0.251 C 
ATOM     37  H   UNL A   1      41.991  21.226  25.710  1.00  0.00     0.163 HD
ATOM     38  O   UNL A   1      42.900  23.442  24.990  1.00  0.00    -0.269 OA
BRANCH  36  39
ATOM     39  C   UNL A   1      41.396  24.351  26.540  1.00  0.00     0.039 A 
ATOM     40  C   UNL A   1      41.229  25.585  25.900  1.00  0.00     0.014 A 
ATOM     41  C   UNL A   1      41.321  24.236  27.926  1.00  0.00     0.014 A 
ATOM     42  C   UNL A   1      41.128  26.742  26.666  1.00  0.00     0.010 A 
ATOM     43  C   UNL A   1      41.302  25.393  28.683  1.00  0.00     0.010 A 
ATOM     44  C   UNL A   1      41.241  26.645  28.054  1.00  0.00    -0.014 A 
BRANCH  44  45
ATOM     45  C   UNL A   1      41.370  27.808  28.924  1.00  0.00     0.031 A 
ATOM     46  C   UNL A   1      40.249  28.765  29.053  1.00  0.00     0.074 A 
ATOM     47  C   UNL A   1      42.503  28.011  29.632  1.00  0.00     0.049 A 
ATOM     48  N   UNL A   1      40.399  30.016  29.338  1.00  0.00    -0.248 NA
ATOM     49  C   UNL A   1      38.856  28.387  28.834  1.00  0.00     0.031 C 
ATOM     50  C   UNL A   1      42.698  28.964  30.722  1.00  0.00     0.029 A 
ATOM     51  N   UNL A   1      43.779  27.520  29.369  1.00  0.00    -0.354 N 
ATOM     52  C   UNL A   1      39.153  30.535  29.595  1.00  0.00     0.074 A 
ATOM     53  C   UNL A   1      38.219  29.500  29.211  1.00  0.00     0.031 C 
ATOM     54  C   UNL A   1      44.012  29.174  30.886  1.00  0.00     0.029 A 
ATOM     55  C   UNL A   1      44.705  28.477  29.815  1.00  0.00     0.049 A 
ATOM     56  H   UNL A   1      43.994  26.656  28.948  1.00  0.00     0.167 HD
ATOM     57  C   UNL A   1      39.028  31.731  30.237  1.00  0.00     0.037 A 
ATOM     58  C   UNL A   1      45.591  29.062  28.957  1.00  0.00     0.037 A 
ATOM     59  C   UNL A   1      40.327  32.309  30.557  1.00  0.00     0.049 A 
ATOM     60  C   UNL A   1      45.425  30.561  28.835  1.00  0.00     0.074 A 
ATOM     61  C   UNL A   1      41.107  32.257  31.701  1.00  0.00     0.029 A 
ATOM     62  N   UNL A   1      41.151  32.779  29.540  1.00  0.00    -0.354 N 
ATOM     63  N   UNL A   1      44.352  31.210  29.198  1.00  0.00    -0.248 NA
ATOM     64  C   UNL A   1      46.448  31.445  28.284  1.00  0.00     0.031 C 
ATOM     65  C   UNL A   1      42.420  32.652  31.360  1.00  0.00     0.029 A 
ATOM     66  C   UNL A   1      42.439  32.961  30.011  1.00  0.00     0.049 A 
ATOM     67  H   UNL A   1      40.860  32.956  28.616  1.00  0.00     0.167 HD
ATOM     68  C   UNL A   1      44.502  32.545  28.912  1.00  0.00     0.074 A 
ATOM     69  C   UNL A   1      45.843  32.643  28.369  1.00  0.00     0.031 C 
ATOM     70  C   UNL A   1      43.502  33.450  29.146  1.00  0.00     0.037 A 
BRANCH  57  71
ATOM     71  C   UNL A   1      37.719  32.175  30.843  1.00  0.00     0.058 A 
ATOM     72  C   UNL A   1      36.882  33.096  30.181  1.00  0.00     0.135 A 
ATOM     73  C   UNL A   1      37.272  31.766  32.115  1.00  0.00     0.135 A 
ATOM     74  F   UNL A   1      37.147  33.521  28.939  1.00  0.00    -0.206 F 
ATOM     75  C   UNL A   1      35.750  33.653  30.776  1.00  0.00     0.059 A 
ATOM     76  C   UNL A   1      36.168  32.344  32.752  1.00  0.00     0.059 A 
ATOM     77  F   UNL A   1      37.905  30.786  32.782  1.00  0.00    -0.206 F 
ATOM     78  C   UNL A   1      35.419  33.298  32.076  1.00  0.00     0.060 A 
BRANCH  78  79
ATOM     79  S   UNL A   1      34.029  34.133  32.868  1.00  0.00     0.124 S 
ATOM     80  O   UNL A   1      33.208  33.011  33.317  1.00  0.00    -0.237 OA
ATOM     81  O   UNL A   1      34.693  34.893  33.921  1.00  0.00    -0.237 OA
ATOM     82  O   UNL A   1      33.450  34.925  31.787  1.00  0.00    -0.744 OA
ENDBRANCH  78  79
ENDBRANCH  57  71
BRANCH  58  83
ATOM     83  C   UNL A   1      46.036  28.154  27.864  1.00  0.00     0.058 A 
ATOM     84  C   UNL A   1      45.320  28.180  26.651  1.00  0.00     0.135 A 
ATOM     85  C   UNL A   1      47.332  27.620  27.839  1.00  0.00     0.135 A 
ATOM     86  F   UNL A   1      44.069  28.670  26.622  1.00  0.00    -0.206 F 
ATOM     87  C   UNL A   1      45.913  27.840  25.441  1.00  0.00     0.059 A 
ATOM     88  C   UNL A   1      47.945  27.265  26.636  1.00  0.00     0.059 A 
ATOM     89  F   UNL A   1      48.062  27.566  28.962  1.00  0.00    -0.206 F 
ATOM     90  C   UNL A   1      47.249  27.442  25.438  1.00  0.00     0.060 A 
BRANCH  90  91
ATOM     91  S   UNL A   1      48.092  27.312  23.843  1.00  0.00     0.124 S 
ATOM     92  O   UNL A   1      47.222  28.098  22.975  1.00  0.00    -0.237 OA
ATOM     93  O   UNL A   1      49.393  27.911  24.138  1.00  0.00    -0.237 OA
ATOM     94  O   UNL A   1      48.111  25.876  23.589  1.00  0.00    -0.744 OA
ENDBRANCH  90  91
ENDBRANCH  58  83
BRANCH  70  95
ATOM     95  C   UNL A   1      43.467  34.897  28.699  1.00  0.00     0.058 A 
ATOM     96  C   UNL A   1      43.287  35.313  27.369  1.00  0.00     0.135 A 
ATOM     97  C   UNL A   1      43.483  35.941  29.658  1.00  0.00     0.135 A 
ATOM     98  F   UNL A   1      43.137  34.427  26.374  1.00  0.00    -0.206 F 
ATOM     99  C   UNL A   1      43.202  36.660  27.007  1.00  0.00     0.059 A 
ATOM    100  C   UNL A   1      43.342  37.287  29.326  1.00  0.00     0.059 A 
ATOM    101  F   UNL A   1      43.623  35.690  30.969  1.00  0.00    -0.206 F 
ATOM    102  C   UNL A   1      43.229  37.642  27.992  1.00  0.00     0.060 A 
BRANCH 102 103
ATOM    103  S   UNL A   1      43.051  39.378  27.544  1.00  0.00     0.124 S 
ATOM    104  O   UNL A   1      43.766  40.035  28.634  1.00  0.00    -0.237 OA
ATOM    105  O   UNL A   1      43.697  39.444  26.236  1.00  0.00    -0.237 OA
ATOM    106  O   UNL A   1      41.603  39.569  27.529  1.00  0.00    -0.744 OA
ENDBRANCH 102 103
ENDBRANCH  70  95
ENDBRANCH  44  45
ENDBRANCH  36  39
ENDBRANCH  34  35
ENDBRANCH  33  34
ENDBRANCH   1  33
TORSDOF 19
ENDMDL
