MODEL 1
REMARK VINA RESULT:     -11.5      0.000      0.000
REMARK SMILES C[C@@H](O)[C@@H](NC(=O)Nc1ccc(F)cc1F)C(=O)NCCCCCCNC(=O)c1ccc(-c2c3nc(c(-c4c(F)cc(S(=O)(=O)[O-])cc4F)c4ccc([nH]4)c(-c4c(F)cc(S(=O)(=O)[O-])cc4F)c4nc(c(-c5c(F)cc(S(=O)(=O)[O-])cc5F)c5ccc2[nH]5)C=C4)C=C3)cc1
REMARK SMILES IDX 23 1 22 2 21 3 20 4 19 5 17 6 18 7 4 9 2 10 1 11 3 12 5 14
REMARK SMILES IDX 6 15 7 17 8 18 9 20 10 21 15 22 11 23 14 24 16 25 12 26
REMARK SMILES IDX 13 27 24 28 25 29 26 30 27 31 28 33 29 34 30 35 94 36 31 37
REMARK SMILES IDX 93 38 32 39 33 40 34 41 87 42 35 43 92 44 86 45 88 46 36 47
REMARK SMILES IDX 91 48 85 49 84 50 37 52 71 53 50 54 70 55 51 56 54 57 69 58
REMARK SMILES IDX 89 59 52 60 53 61 68 63 90 64 55 65 38 66 39 67 48 68 40 69
REMARK SMILES IDX 41 70 47 71 49 72 42 73 43 74 44 75 45 76 46 77 72 78 73 79
REMARK SMILES IDX 82 80 74 81 75 82 81 83 83 84 76 85 77 86 78 87 79 88 80 89
REMARK SMILES IDX 56 90 57 91 66 92 58 93 59 94 65 95 67 96 60 97 61 98 62 99
REMARK SMILES IDX 63 100 64 101
REMARK H PARENT 19 8 3 13 5 16 8 19 26 32 88 51 54 62
REMARK Flexibility Score: inf
ROOT
ATOM      1  C   UNL A   1      32.878  28.364  27.481  1.00  0.00     0.002 C 
ENDROOT
BRANCH   1   2
ATOM      2  C   UNL A   1      32.267  27.302  26.560  1.00  0.00     0.002 C 
BRANCH   2   3
ATOM      3  C   UNL A   1      33.263  26.290  25.962  1.00  0.00     0.021 C 
BRANCH   3   4
ATOM      4  C   UNL A   1      32.828  25.698  24.620  1.00  0.00     0.116 C 
BRANCH   4   5
ATOM      5  N   UNL A   1      31.587  24.982  24.791  1.00  0.00    -0.354 N 
ATOM      6  C   UNL A   1      31.483  23.638  24.564  1.00  0.00     0.245 C 
ATOM      7  O   UNL A   1      31.039  23.225  23.492  1.00  0.00    -0.273 OA
ATOM      8  H   UNL A   1      30.788  25.478  25.080  1.00  0.00     0.163 HD
BRANCH   6   9
ATOM      9  C   UNL A   1      32.009  22.687  25.651  1.00  0.00     0.201 C 
BRANCH   9  10
ATOM     10  C   UNL A   1      31.398  23.212  26.978  1.00  0.00     0.143 C 
ATOM     11  C   UNL A   1      29.911  22.936  27.145  1.00  0.00     0.041 C 
BRANCH  10  12
ATOM     12  O   UNL A   1      32.049  22.571  28.089  1.00  0.00    -0.391 OA
ATOM     13  H   UNL A   1      31.959  23.124  28.880  1.00  0.00     0.211 HD
ENDBRANCH  10  12
ENDBRANCH   9  10
BRANCH   9  14
ATOM     14  N   UNL A   1      31.766  21.270  25.335  1.00  0.00    -0.323 N 
ATOM     15  C   UNL A   1      32.544  20.293  24.812  1.00  0.00     0.320 C 
ATOM     16  H   UNL A   1      30.852  20.972  25.548  1.00  0.00     0.166 HD
ATOM     17  O   UNL A   1      32.017  19.193  24.627  1.00  0.00    -0.248 OA
ATOM     18  N   UNL A   1      33.780  20.514  24.311  1.00  0.00    -0.305 N 
ATOM     19  H   UNL A   1      34.030  19.904  23.579  1.00  0.00     0.171 HD
BRANCH  18  20
ATOM     20  C   UNL A   1      34.774  21.446  24.637  1.00  0.00     0.079 A 
ATOM     21  C   UNL A   1      35.569  21.313  25.774  1.00  0.00     0.032 A 
ATOM     22  C   UNL A   1      34.932  22.572  23.814  1.00  0.00     0.149 A 
ATOM     23  C   UNL A   1      36.419  22.357  26.146  1.00  0.00     0.041 A 
ATOM     24  C   UNL A   1      35.755  23.625  24.193  1.00  0.00     0.080 A 
ATOM     25  F   UNL A   1      34.166  22.712  22.720  1.00  0.00    -0.205 F 
ATOM     26  C   UNL A   1      36.480  23.512  25.370  1.00  0.00     0.126 A 
ATOM     27  F   UNL A   1      37.246  24.533  25.773  1.00  0.00    -0.207 F 
ENDBRANCH  18  20
ENDBRANCH   9  14
ENDBRANCH   6   9
ENDBRANCH   4   5
ENDBRANCH   3   4
ENDBRANCH   2   3
ENDBRANCH   1   2
BRANCH   1  28
ATOM     28  C   UNL A   1      33.882  29.297  26.809  1.00  0.00     0.021 C 
BRANCH  28  29
ATOM     29  C   UNL A   1      35.223  29.377  27.515  1.00  0.00     0.116 C 
BRANCH  29  30
ATOM     30  N   UNL A   1      35.170  30.164  28.733  1.00  0.00    -0.352 N 
ATOM     31  C   UNL A   1      36.193  30.348  29.636  1.00  0.00     0.251 C 
ATOM     32  H   UNL A   1      34.317  30.612  28.934  1.00  0.00     0.163 HD
ATOM     33  O   UNL A   1      36.011  30.923  30.698  1.00  0.00    -0.269 OA
BRANCH  31  34
ATOM     34  C   UNL A   1      37.515  29.786  29.288  1.00  0.00     0.039 A 
ATOM     35  C   UNL A   1      37.952  29.848  27.965  1.00  0.00     0.014 A 
ATOM     36  C   UNL A   1      38.353  29.310  30.302  1.00  0.00     0.014 A 
ATOM     37  C   UNL A   1      39.260  29.468  27.661  1.00  0.00     0.010 A 
ATOM     38  C   UNL A   1      39.675  29.003  30.007  1.00  0.00     0.010 A 
ATOM     39  C   UNL A   1      40.138  29.068  28.682  1.00  0.00    -0.014 A 
BRANCH  39  40
ATOM     40  C   UNL A   1      41.536  28.663  28.394  1.00  0.00     0.031 A 
ATOM     41  C   UNL A   1      42.616  29.710  28.400  1.00  0.00     0.074 A 
ATOM     42  C   UNL A   1      41.821  27.388  28.064  1.00  0.00     0.049 A 
ATOM     43  N   UNL A   1      43.870  29.607  28.047  1.00  0.00    -0.248 NA
ATOM     44  C   UNL A   1      42.222  31.063  28.831  1.00  0.00     0.031 C 
ATOM     45  C   UNL A   1      40.854  26.291  28.001  1.00  0.00     0.029 A 
ATOM     46  N   UNL A   1      43.011  26.803  27.708  1.00  0.00    -0.354 N 
ATOM     47  C   UNL A   1      44.406  30.881  28.190  1.00  0.00     0.074 A 
ATOM     48  C   UNL A   1      43.331  31.751  28.610  1.00  0.00     0.031 C 
ATOM     49  C   UNL A   1      41.493  25.162  27.652  1.00  0.00     0.029 A 
ATOM     50  C   UNL A   1      42.904  25.461  27.424  1.00  0.00     0.049 A 
ATOM     51  H   UNL A   1      43.861  27.296  27.662  1.00  0.00     0.167 HD
ATOM     52  C   UNL A   1      45.686  31.284  28.014  1.00  0.00     0.037 A 
ATOM     53  C   UNL A   1      43.836  24.577  27.016  1.00  0.00     0.037 A 
ATOM     54  C   UNL A   1      46.756  30.402  27.633  1.00  0.00     0.049 A 
ATOM     55  C   UNL A   1      45.254  25.048  26.822  1.00  0.00     0.074 A 
ATOM     56  C   UNL A   1      48.096  30.700  27.462  1.00  0.00     0.029 A 
ATOM     57  N   UNL A   1      46.610  29.046  27.378  1.00  0.00    -0.354 N 
ATOM     58  N   UNL A   1      45.750  26.252  26.982  1.00  0.00    -0.248 NA
ATOM     59  C   UNL A   1      46.238  24.045  26.393  1.00  0.00     0.031 C 
ATOM     60  C   UNL A   1      48.755  29.531  27.070  1.00  0.00     0.029 A 
ATOM     61  C   UNL A   1      47.835  28.495  27.043  1.00  0.00     0.049 A 
ATOM     62  H   UNL A   1      45.761  28.549  27.428  1.00  0.00     0.167 HD
ATOM     63  C   UNL A   1      47.109  26.144  26.705  1.00  0.00     0.074 A 
ATOM     64  C   UNL A   1      47.357  24.758  26.366  1.00  0.00     0.031 C 
ATOM     65  C   UNL A   1      48.063  27.106  26.732  1.00  0.00     0.037 A 
BRANCH  52  66
ATOM     66  C   UNL A   1      45.997  32.737  28.239  1.00  0.00     0.058 A 
ATOM     67  C   UNL A   1      45.933  33.655  27.178  1.00  0.00     0.135 A 
ATOM     68  C   UNL A   1      46.384  33.218  29.500  1.00  0.00     0.135 A 
ATOM     69  F   UNL A   1      45.564  33.249  25.953  1.00  0.00    -0.206 F 
ATOM     70  C   UNL A   1      46.243  34.999  27.358  1.00  0.00     0.059 A 
ATOM     71  C   UNL A   1      46.670  34.562  29.708  1.00  0.00     0.059 A 
ATOM     72  F   UNL A   1      46.443  32.387  30.552  1.00  0.00    -0.206 F 
ATOM     73  C   UNL A   1      46.597  35.446  28.630  1.00  0.00     0.060 A 
BRANCH  73  74
ATOM     74  S   UNL A   1      46.974  37.187  28.921  1.00  0.00     0.124 S 
ATOM     75  O   UNL A   1      45.734  37.829  28.495  1.00  0.00    -0.237 OA
ATOM     76  O   UNL A   1      47.241  37.212  30.355  1.00  0.00    -0.237 OA
ATOM     77  O   UNL A   1      48.131  37.432  28.065  1.00  0.00    -0.744 OA
ENDBRANCH  73  74
ENDBRANCH  52  66
BRANCH  53  78
ATOM     78  C   UNL A   1      43.464  23.155  26.796  1.00  0.00     0.058 A 
ATOM     79  C   UNL A   1      43.216  22.287  27.871  1.00  0.00     0.135 A 
ATOM     80  C   UNL A   1      43.376  22.628  25.499  1.00  0.00     0.135 A 
ATOM     81  F   UNL A   1      43.303  22.737  29.133  1.00  0.00    -0.206 F 
ATOM     82  C   UNL A   1      42.908  20.944  27.671  1.00  0.00     0.059 A 
ATOM     83  C   UNL A   1      43.046  21.296  25.272  1.00  0.00     0.059 A 
ATOM     84  F   UNL A   1      43.596  23.420  24.438  1.00  0.00    -0.206 F 
ATOM     85  C   UNL A   1      42.820  20.459  26.366  1.00  0.00     0.060 A 
BRANCH  85  86
ATOM     86  S   UNL A   1      42.449  18.719  26.058  1.00  0.00     0.124 S 
ATOM     87  O   UNL A   1      43.379  18.405  24.980  1.00  0.00    -0.237 OA
ATOM     88  O   UNL A   1      42.743  18.113  27.353  1.00  0.00    -0.237 OA
ATOM     89  O   UNL A   1      41.037  18.736  25.688  1.00  0.00    -0.744 OA
ENDBRANCH  85  86
ENDBRANCH  53  78
BRANCH  65  90
ATOM     90  C   UNL A   1      49.478  26.700  26.436  1.00  0.00     0.058 A 
ATOM     91  C   UNL A   1      50.009  26.883  25.148  1.00  0.00     0.135 A 
ATOM     92  C   UNL A   1      50.267  26.032  27.384  1.00  0.00     0.135 A 
ATOM     93  F   UNL A   1      49.289  27.508  24.202  1.00  0.00    -0.206 F 
ATOM     94  C   UNL A   1      51.265  26.397  24.801  1.00  0.00     0.059 A 
ATOM     95  C   UNL A   1      51.535  25.558  27.066  1.00  0.00     0.059 A 
ATOM     96  F   UNL A   1      49.806  25.839  28.630  1.00  0.00    -0.206 F 
ATOM     97  C   UNL A   1      52.021  25.735  25.768  1.00  0.00     0.060 A 
BRANCH  97  98
ATOM     98  S   UNL A   1      53.638  25.048  25.351  1.00  0.00     0.124 S 
ATOM     99  O   UNL A   1      53.847  25.581  24.010  1.00  0.00    -0.237 OA
ATOM    100  O   UNL A   1      54.491  25.609  26.397  1.00  0.00    -0.237 OA
ATOM    101  O   UNL A   1      53.425  23.606  25.429  1.00  0.00    -0.744 OA
ENDBRANCH  97  98
ENDBRANCH  65  90
ENDBRANCH  39  40
ENDBRANCH  31  34
ENDBRANCH  29  30
ENDBRANCH  28  29
ENDBRANCH   1  28
TORSDOF 20
ENDMDL
MODEL 2
REMARK VINA RESULT:     -11.5      2.658      3.433
REMARK SMILES C[C@@H](O)[C@@H](NC(=O)Nc1ccc(F)cc1F)C(=O)NCCCCCCNC(=O)c1ccc(-c2c3nc(c(-c4c(F)cc(S(=O)(=O)[O-])cc4F)c4ccc([nH]4)c(-c4c(F)cc(S(=O)(=O)[O-])cc4F)c4nc(c(-c5c(F)cc(S(=O)(=O)[O-])cc5F)c5ccc2[nH]5)C=C4)C=C3)cc1
REMARK SMILES IDX 23 1 22 2 21 3 20 4 19 5 17 6 18 7 4 9 2 10 1 11 3 12 5 14
REMARK SMILES IDX 6 15 7 17 8 18 9 20 10 21 15 22 11 23 14 24 16 25 12 26
REMARK SMILES IDX 13 27 24 28 25 29 26 30 27 31 28 33 29 34 30 35 94 36 31 37
REMARK SMILES IDX 93 38 32 39 33 40 34 41 87 42 35 43 92 44 86 45 88 46 36 47
REMARK SMILES IDX 91 48 85 49 84 50 37 52 71 53 50 54 70 55 51 56 54 57 69 58
REMARK SMILES IDX 89 59 52 60 53 61 68 63 90 64 55 65 38 66 39 67 48 68 40 69
REMARK SMILES IDX 41 70 47 71 49 72 42 73 43 74 44 75 45 76 46 77 72 78 73 79
REMARK SMILES IDX 82 80 74 81 75 82 81 83 83 84 76 85 77 86 78 87 79 88 80 89
REMARK SMILES IDX 56 90 57 91 66 92 58 93 59 94 65 95 67 96 60 97 61 98 62 99
REMARK SMILES IDX 63 100 64 101
REMARK H PARENT 19 8 3 13 5 16 8 19 26 32 88 51 54 62
REMARK Flexibility Score: inf
ROOT
ATOM      1  C   UNL A   1      32.416  28.318  25.082  1.00  0.00     0.002 C 
ENDROOT
BRANCH   1   2
ATOM      2  C   UNL A   1      31.145  27.466  24.987  1.00  0.00     0.002 C 
BRANCH   2   3
ATOM      3  C   UNL A   1      30.859  26.565  26.204  1.00  0.00     0.021 C 
BRANCH   3   4
ATOM      4  C   UNL A   1      30.051  25.306  25.876  1.00  0.00     0.116 C 
BRANCH   4   5
ATOM      5  N   UNL A   1      30.264  24.318  26.906  1.00  0.00    -0.354 N 
ATOM      6  C   UNL A   1      30.476  22.999  26.619  1.00  0.00     0.245 C 
ATOM      7  O   UNL A   1      29.546  22.195  26.683  1.00  0.00    -0.273 OA
ATOM      8  H   UNL A   1      30.256  24.604  27.848  1.00  0.00     0.163 HD
BRANCH   6   9
ATOM      9  C   UNL A   1      31.879  22.589  26.142  1.00  0.00     0.201 C 
BRANCH   9  10
ATOM     10  C   UNL A   1      32.845  23.087  27.250  1.00  0.00     0.143 C 
ATOM     11  C   UNL A   1      33.937  22.099  27.631  1.00  0.00     0.041 C 
BRANCH  10  12
ATOM     12  O   UNL A   1      33.522  24.273  26.796  1.00  0.00    -0.391 OA
ATOM     13  H   UNL A   1      33.479  24.319  25.828  1.00  0.00     0.211 HD
ENDBRANCH  10  12
ENDBRANCH   9  10
BRANCH   9  14
ATOM     14  N   UNL A   1      31.968  21.162  25.791  1.00  0.00    -0.323 N 
ATOM     15  C   UNL A   1      32.211  20.508  24.631  1.00  0.00     0.320 C 
ATOM     16  H   UNL A   1      31.821  20.560  26.557  1.00  0.00     0.166 HD
ATOM     17  O   UNL A   1      32.174  19.276  24.661  1.00  0.00    -0.248 OA
ATOM     18  N   UNL A   1      32.294  21.128  23.432  1.00  0.00    -0.305 N 
ATOM     19  H   UNL A   1      32.002  20.571  22.674  1.00  0.00     0.171 HD
BRANCH  18  20
ATOM     20  C   UNL A   1      32.717  22.411  23.063  1.00  0.00     0.079 A 
ATOM     21  C   UNL A   1      34.066  22.741  22.950  1.00  0.00     0.032 A 
ATOM     22  C   UNL A   1      31.745  23.402  22.853  1.00  0.00     0.149 A 
ATOM     23  C   UNL A   1      34.435  24.074  22.755  1.00  0.00     0.041 A 
ATOM     24  C   UNL A   1      32.105  24.733  22.685  1.00  0.00     0.080 A 
ATOM     25  F   UNL A   1      30.443  23.094  22.966  1.00  0.00    -0.205 F 
ATOM     26  C   UNL A   1      33.454  25.058  22.655  1.00  0.00     0.126 A 
ATOM     27  F   UNL A   1      33.820  26.341  22.536  1.00  0.00    -0.207 F 
ENDBRANCH  18  20
ENDBRANCH   9  14
ENDBRANCH   6   9
ENDBRANCH   4   5
ENDBRANCH   3   4
ENDBRANCH   2   3
ENDBRANCH   1   2
BRANCH   1  28
ATOM     28  C   UNL A   1      33.673  27.554  25.489  1.00  0.00     0.021 C 
BRANCH  28  29
ATOM     29  C   UNL A   1      34.380  28.127  26.703  1.00  0.00     0.116 C 
BRANCH  29  30
ATOM     30  N   UNL A   1      33.823  29.397  27.131  1.00  0.00    -0.352 N 
ATOM     31  C   UNL A   1      34.449  30.350  27.902  1.00  0.00     0.251 C 
ATOM     32  H   UNL A   1      32.903  29.597  26.841  1.00  0.00     0.163 HD
ATOM     33  O   UNL A   1      33.849  31.330  28.317  1.00  0.00    -0.269 OA
BRANCH  31  34
ATOM     34  C   UNL A   1      35.870  30.123  28.241  1.00  0.00     0.039 A 
ATOM     35  C   UNL A   1      36.195  29.623  29.502  1.00  0.00     0.014 A 
ATOM     36  C   UNL A   1      36.851  30.301  27.262  1.00  0.00     0.014 A 
ATOM     37  C   UNL A   1      37.514  29.256  29.770  1.00  0.00     0.010 A 
ATOM     38  C   UNL A   1      38.148  29.866  27.508  1.00  0.00     0.010 A 
ATOM     39  C   UNL A   1      38.494  29.350  28.767  1.00  0.00    -0.014 A 
BRANCH  39  40
ATOM     40  C   UNL A   1      39.905  28.964  29.017  1.00  0.00     0.031 A 
ATOM     41  C   UNL A   1      40.852  29.986  29.583  1.00  0.00     0.074 A 
ATOM     42  C   UNL A   1      40.345  27.737  28.677  1.00  0.00     0.049 A 
ATOM     43  N   UNL A   1      42.146  29.909  29.753  1.00  0.00    -0.248 NA
ATOM     44  C   UNL A   1      40.269  31.279  29.980  1.00  0.00     0.031 C 
ATOM     45  C   UNL A   1      39.525  26.671  28.097  1.00  0.00     0.029 A 
ATOM     46  N   UNL A   1      41.599  27.183  28.759  1.00  0.00    -0.354 N 
ATOM     47  C   UNL A   1      42.532  31.147  30.253  1.00  0.00     0.074 A 
ATOM     48  C   UNL A   1      41.346  31.973  30.309  1.00  0.00     0.031 C 
ATOM     49  C   UNL A   1      40.292  25.585  27.899  1.00  0.00     0.029 A 
ATOM     50  C   UNL A   1      41.664  25.890  28.295  1.00  0.00     0.049 A 
ATOM     51  H   UNL A   1      42.378  27.666  29.118  1.00  0.00     0.167 HD
ATOM     52  C   UNL A   1      43.760  31.550  30.655  1.00  0.00     0.037 A 
ATOM     53  C   UNL A   1      42.715  25.051  28.191  1.00  0.00     0.037 A 
ATOM     54  C   UNL A   1      44.925  30.708  30.632  1.00  0.00     0.049 A 
ATOM     55  C   UNL A   1      44.073  25.522  28.641  1.00  0.00     0.074 A 
ATOM     56  C   UNL A   1      46.209  31.005  31.050  1.00  0.00     0.029 A 
ATOM     57  N   UNL A   1      44.943  29.397  30.176  1.00  0.00    -0.354 N 
ATOM     58  N   UNL A   1      44.419  26.688  29.131  1.00  0.00    -0.248 NA
ATOM     59  C   UNL A   1      45.184  24.567  28.524  1.00  0.00     0.031 C 
ATOM     60  C   UNL A   1      47.013  29.886  30.816  1.00  0.00     0.029 A 
ATOM     61  C   UNL A   1      46.220  28.875  30.296  1.00  0.00     0.049 A 
ATOM     62  H   UNL A   1      44.165  28.910  29.820  1.00  0.00     0.167 HD
ATOM     63  C   UNL A   1      45.778  26.596  29.412  1.00  0.00     0.074 A 
ATOM     64  C   UNL A   1      46.192  25.261  29.036  1.00  0.00     0.031 C 
ATOM     65  C   UNL A   1      46.605  27.533  29.937  1.00  0.00     0.037 A 
BRANCH  52  66
ATOM     66  C   UNL A   1      43.900  32.958  31.161  1.00  0.00     0.058 A 
ATOM     67  C   UNL A   1      44.217  34.006  30.282  1.00  0.00     0.135 A 
ATOM     68  C   UNL A   1      43.747  33.268  32.522  1.00  0.00     0.135 A 
ATOM     69  F   UNL A   1      44.370  33.766  28.970  1.00  0.00    -0.206 F 
ATOM     70  C   UNL A   1      44.378  35.312  30.732  1.00  0.00     0.059 A 
ATOM     71  C   UNL A   1      43.876  34.570  32.989  1.00  0.00     0.059 A 
ATOM     72  F   UNL A   1      43.425  32.307  33.403  1.00  0.00    -0.206 F 
ATOM     73  C   UNL A   1      44.192  35.587  32.086  1.00  0.00     0.060 A 
BRANCH  73  74
ATOM     74  S   UNL A   1      44.357  37.272  32.713  1.00  0.00     0.124 S 
ATOM     75  O   UNL A   1      45.719  37.255  33.238  1.00  0.00    -0.237 OA
ATOM     76  O   UNL A   1      44.150  38.072  31.511  1.00  0.00    -0.237 OA
ATOM     77  O   UNL A   1      43.301  37.365  33.717  1.00  0.00    -0.744 OA
ENDBRANCH  73  74
ENDBRANCH  52  66
BRANCH  53  78
ATOM     78  C   UNL A   1      42.515  23.674  27.669  1.00  0.00     0.058 A 
ATOM     79  C   UNL A   1      42.347  22.579  28.532  1.00  0.00     0.135 A 
ATOM     80  C   UNL A   1      42.515  23.422  26.289  1.00  0.00     0.135 A 
ATOM     81  F   UNL A   1      42.355  22.764  29.862  1.00  0.00    -0.206 F 
ATOM     82  C   UNL A   1      42.201  21.282  28.048  1.00  0.00     0.059 A 
ATOM     83  C   UNL A   1      42.347  22.138  25.780  1.00  0.00     0.059 A 
ATOM     84  F   UNL A   1      42.663  24.437  25.423  1.00  0.00    -0.206 F 
ATOM     85  C   UNL A   1      42.197  21.073  26.670  1.00  0.00     0.060 A 
BRANCH  85  86
ATOM     86  S   UNL A   1      42.037  19.405  25.997  1.00  0.00     0.124 S 
ATOM     87  O   UNL A   1      42.911  19.471  24.831  1.00  0.00    -0.237 OA
ATOM     88  O   UNL A   1      42.512  18.583  27.106  1.00  0.00    -0.237 OA
ATOM     89  O   UNL A   1      40.610  19.293  25.709  1.00  0.00    -0.744 OA
ENDBRANCH  85  86
ENDBRANCH  53  78
BRANCH  65  90
ATOM     90  C   UNL A   1      48.034  27.146  30.186  1.00  0.00     0.058 A 
ATOM     91  C   UNL A   1      48.405  26.569  31.412  1.00  0.00     0.135 A 
ATOM     92  C   UNL A   1      49.050  27.446  29.266  1.00  0.00     0.135 A 
ATOM     93  F   UNL A   1      47.470  26.273  32.330  1.00  0.00    -0.206 F 
ATOM     94  C   UNL A   1      49.736  26.323  31.730  1.00  0.00     0.059 A 
ATOM     95  C   UNL A   1      50.386  27.186  29.553  1.00  0.00     0.059 A 
ATOM     96  F   UNL A   1      48.745  27.991  28.078  1.00  0.00    -0.206 F 
ATOM     97  C   UNL A   1      50.720  26.635  30.793  1.00  0.00     0.060 A 
BRANCH  97  98
ATOM     98  S   UNL A   1      52.464  26.375  31.178  1.00  0.00     0.124 S 
ATOM     99  O   UNL A   1      52.414  25.139  31.951  1.00  0.00    -0.237 OA
ATOM    100  O   UNL A   1      53.062  26.268  29.850  1.00  0.00    -0.237 OA
ATOM    101  O   UNL A   1      52.830  27.572  31.929  1.00  0.00    -0.744 OA
ENDBRANCH  97  98
ENDBRANCH  65  90
ENDBRANCH  39  40
ENDBRANCH  31  34
ENDBRANCH  29  30
ENDBRANCH  28  29
ENDBRANCH   1  28
TORSDOF 20
ENDMDL
MODEL 3
REMARK VINA RESULT:     -11.4      6.516     11.787
REMARK SMILES C[C@@H](O)[C@@H](NC(=O)Nc1ccc(F)cc1F)C(=O)NCCCCCCNC(=O)c1ccc(-c2c3nc(c(-c4c(F)cc(S(=O)(=O)[O-])cc4F)c4ccc([nH]4)c(-c4c(F)cc(S(=O)(=O)[O-])cc4F)c4nc(c(-c5c(F)cc(S(=O)(=O)[O-])cc5F)c5ccc2[nH]5)C=C4)C=C3)cc1
REMARK SMILES IDX 23 1 22 2 21 3 20 4 19 5 17 6 18 7 4 9 2 10 1 11 3 12 5 14
REMARK SMILES IDX 6 15 7 17 8 18 9 20 10 21 15 22 11 23 14 24 16 25 12 26
REMARK SMILES IDX 13 27 24 28 25 29 26 30 27 31 28 33 29 34 30 35 94 36 31 37
REMARK SMILES IDX 93 38 32 39 33 40 34 41 87 42 35 43 92 44 86 45 88 46 36 47
REMARK SMILES IDX 91 48 85 49 84 50 37 52 71 53 50 54 70 55 51 56 54 57 69 58
REMARK SMILES IDX 89 59 52 60 53 61 68 63 90 64 55 65 38 66 39 67 48 68 40 69
REMARK SMILES IDX 41 70 47 71 49 72 42 73 43 74 44 75 45 76 46 77 72 78 73 79
REMARK SMILES IDX 82 80 74 81 75 82 81 83 83 84 76 85 77 86 78 87 79 88 80 89
REMARK SMILES IDX 56 90 57 91 66 92 58 93 59 94 65 95 67 96 60 97 61 98 62 99
REMARK SMILES IDX 63 100 64 101
REMARK H PARENT 19 8 3 13 5 16 8 19 26 32 88 51 54 62
REMARK Flexibility Score: inf
ROOT
ATOM      1  C   UNL A   1      37.728  22.463  25.513  1.00  0.00     0.002 C 
ENDROOT
BRANCH   1   2
ATOM      2  C   UNL A   1      37.044  22.631  24.152  1.00  0.00     0.002 C 
BRANCH   2   3
ATOM      3  C   UNL A   1      35.504  22.672  24.184  1.00  0.00     0.021 C 
BRANCH   3   4
ATOM      4  C   UNL A   1      34.854  21.407  24.751  1.00  0.00     0.116 C 
BRANCH   4   5
ATOM      5  N   UNL A   1      33.654  21.110  24.008  1.00  0.00    -0.354 N 
ATOM      6  C   UNL A   1      32.411  21.172  24.574  1.00  0.00     0.245 C 
ATOM      7  O   UNL A   1      31.864  20.145  24.977  1.00  0.00    -0.273 OA
ATOM      8  H   UNL A   1      33.732  20.854  23.061  1.00  0.00     0.163 HD
BRANCH   6   9
ATOM      9  C   UNL A   1      31.777  22.560  24.755  1.00  0.00     0.201 C 
BRANCH   9  10
ATOM     10  C   UNL A   1      31.325  22.988  23.332  1.00  0.00     0.143 C 
ATOM     11  C   UNL A   1      32.121  24.137  22.732  1.00  0.00     0.041 C 
BRANCH  10  12
ATOM     12  O   UNL A   1      31.482  21.880  22.428  1.00  0.00    -0.391 OA
ATOM     13  H   UNL A   1      30.635  21.691  21.996  1.00  0.00     0.211 HD
ENDBRANCH  10  12
ENDBRANCH   9  10
BRANCH   9  14
ATOM     14  N   UNL A   1      30.744  22.584  25.803  1.00  0.00    -0.323 N 
ATOM     15  C   UNL A   1      30.402  23.495  26.743  1.00  0.00     0.320 C 
ATOM     16  H   UNL A   1      30.189  21.770  25.825  1.00  0.00     0.166 HD
ATOM     17  O   UNL A   1      29.494  23.188  27.521  1.00  0.00    -0.248 OA
ATOM     18  N   UNL A   1      31.120  24.614  26.991  1.00  0.00    -0.305 N 
ATOM     19  H   UNL A   1      31.075  24.918  27.927  1.00  0.00     0.171 HD
BRANCH  18  20
ATOM     20  C   UNL A   1      31.915  25.422  26.169  1.00  0.00     0.079 A 
ATOM     21  C   UNL A   1      33.303  25.297  26.128  1.00  0.00     0.032 A 
ATOM     22  C   UNL A   1      31.291  26.419  25.404  1.00  0.00     0.149 A 
ATOM     23  C   UNL A   1      34.059  26.241  25.430  1.00  0.00     0.041 A 
ATOM     24  C   UNL A   1      32.037  27.377  24.729  1.00  0.00     0.080 A 
ATOM     25  F   UNL A   1      29.955  26.551  25.442  1.00  0.00    -0.205 F 
ATOM     26  C   UNL A   1      33.422  27.286  24.764  1.00  0.00     0.126 A 
ATOM     27  F   UNL A   1      34.159  28.223  24.156  1.00  0.00    -0.207 F 
ENDBRANCH  18  20
ENDBRANCH   9  14
ENDBRANCH   6   9
ENDBRANCH   4   5
ENDBRANCH   3   4
ENDBRANCH   2   3
ENDBRANCH   1   2
BRANCH   1  28
ATOM     28  C   UNL A   1      37.889  23.751  26.316  1.00  0.00     0.021 C 
BRANCH  28  29
ATOM     29  C   UNL A   1      39.218  23.869  27.039  1.00  0.00     0.116 C 
BRANCH  29  30
ATOM     30  N   UNL A   1      40.338  24.036  26.132  1.00  0.00    -0.352 N 
ATOM     31  C   UNL A   1      41.319  24.999  26.207  1.00  0.00     0.251 C 
ATOM     32  H   UNL A   1      40.403  23.396  25.386  1.00  0.00     0.163 HD
ATOM     33  O   UNL A   1      42.148  25.136  25.321  1.00  0.00    -0.269 OA
BRANCH  31  34
ATOM     34  C   UNL A   1      41.308  25.889  27.388  1.00  0.00     0.039 A 
ATOM     35  C   UNL A   1      42.179  26.977  27.426  1.00  0.00     0.014 A 
ATOM     36  C   UNL A   1      40.351  25.696  28.389  1.00  0.00     0.014 A 
ATOM     37  C   UNL A   1      42.061  27.909  28.458  1.00  0.00     0.010 A 
ATOM     38  C   UNL A   1      40.189  26.664  29.373  1.00  0.00     0.010 A 
ATOM     39  C   UNL A   1      41.049  27.773  29.424  1.00  0.00    -0.014 A 
BRANCH  39  40
ATOM     40  C   UNL A   1      40.892  28.748  30.531  1.00  0.00     0.031 A 
ATOM     41  C   UNL A   1      41.784  28.631  31.737  1.00  0.00     0.074 A 
ATOM     42  C   UNL A   1      39.920  29.679  30.487  1.00  0.00     0.049 A 
ATOM     43  N   UNL A   1      41.733  29.283  32.869  1.00  0.00    -0.248 NA
ATOM     44  C   UNL A   1      42.856  27.623  31.671  1.00  0.00     0.031 C 
ATOM     45  C   UNL A   1      38.979  29.872  29.381  1.00  0.00     0.029 A 
ATOM     46  N   UNL A   1      39.554  30.633  31.403  1.00  0.00    -0.354 N 
ATOM     47  C   UNL A   1      42.747  28.749  33.655  1.00  0.00     0.074 A 
ATOM     48  C   UNL A   1      43.362  27.685  32.892  1.00  0.00     0.031 C 
ATOM     49  C   UNL A   1      38.161  30.896  29.675  1.00  0.00     0.029 A 
ATOM     50  C   UNL A   1      38.488  31.405  31.004  1.00  0.00     0.049 A 
ATOM     51  H   UNL A   1      40.013  30.755  32.265  1.00  0.00     0.167 HD
ATOM     52  C   UNL A   1      43.148  29.130  34.890  1.00  0.00     0.037 A 
ATOM     53  C   UNL A   1      37.842  32.401  31.643  1.00  0.00     0.037 A 
ATOM     54  C   UNL A   1      42.555  30.215  35.624  1.00  0.00     0.049 A 
ATOM     55  C   UNL A   1      38.302  32.805  33.019  1.00  0.00     0.074 A 
ATOM     56  C   UNL A   1      42.908  30.706  36.867  1.00  0.00     0.029 A 
ATOM     57  N   UNL A   1      41.492  30.986  35.174  1.00  0.00    -0.354 N 
ATOM     58  N   UNL A   1      39.276  32.305  33.741  1.00  0.00    -0.248 NA
ATOM     59  C   UNL A   1      37.578  33.907  33.669  1.00  0.00     0.031 C 
ATOM     60  C   UNL A   1      42.037  31.752  37.185  1.00  0.00     0.029 A 
ATOM     61  C   UNL A   1      41.172  31.944  36.120  1.00  0.00     0.049 A 
ATOM     62  H   UNL A   1      41.034  30.868  34.310  1.00  0.00     0.167 HD
ATOM     63  C   UNL A   1      39.304  33.051  34.914  1.00  0.00     0.074 A 
ATOM     64  C   UNL A   1      38.248  34.036  34.807  1.00  0.00     0.031 C 
ATOM     65  C   UNL A   1      40.131  32.932  35.981  1.00  0.00     0.037 A 
BRANCH  52  66
ATOM     66  C   UNL A   1      44.284  28.373  35.518  1.00  0.00     0.058 A 
ATOM     67  C   UNL A   1      44.034  27.312  36.404  1.00  0.00     0.135 A 
ATOM     68  C   UNL A   1      45.622  28.714  35.265  1.00  0.00     0.135 A 
ATOM     69  F   UNL A   1      42.773  26.942  36.678  1.00  0.00    -0.206 F 
ATOM     70  C   UNL A   1      45.070  26.615  37.018  1.00  0.00     0.059 A 
ATOM     71  C   UNL A   1      46.673  28.013  35.845  1.00  0.00     0.059 A 
ATOM     72  F   UNL A   1      45.918  29.707  34.412  1.00  0.00    -0.206 F 
ATOM     73  C   UNL A   1      46.387  26.964  36.721  1.00  0.00     0.060 A 
BRANCH  73  74
ATOM     74  S   UNL A   1      47.766  26.068  37.465  1.00  0.00     0.124 S 
ATOM     75  O   UNL A   1      47.080  24.931  38.072  1.00  0.00    -0.237 OA
ATOM     76  O   UNL A   1      48.598  25.761  36.307  1.00  0.00    -0.237 OA
ATOM     77  O   UNL A   1      48.331  27.032  38.404  1.00  0.00    -0.744 OA
ENDBRANCH  73  74
ENDBRANCH  52  66
BRANCH  53  78
ATOM     78  C   UNL A   1      36.715  33.103  30.975  1.00  0.00     0.058 A 
ATOM     79  C   UNL A   1      35.382  32.874  31.350  1.00  0.00     0.135 A 
ATOM     80  C   UNL A   1      36.952  34.002  29.924  1.00  0.00     0.135 A 
ATOM     81  F   UNL A   1      35.101  32.011  32.339  1.00  0.00    -0.206 F 
ATOM     82  C   UNL A   1      34.321  33.498  30.698  1.00  0.00     0.059 A 
ATOM     83  C   UNL A   1      35.910  34.656  29.273  1.00  0.00     0.059 A 
ATOM     84  F   UNL A   1      38.210  34.261  29.534  1.00  0.00    -0.206 F 
ATOM     85  C   UNL A   1      34.597  34.392  29.665  1.00  0.00     0.060 A 
BRANCH  85  86
ATOM     86  S   UNL A   1      33.252  35.205  28.774  1.00  0.00     0.124 S 
ATOM     87  O   UNL A   1      32.435  35.710  29.871  1.00  0.00    -0.237 OA
ATOM     88  O   UNL A   1      33.968  36.210  27.995  1.00  0.00    -0.237 OA
ATOM     89  O   UNL A   1      32.661  34.121  27.995  1.00  0.00    -0.744 OA
ENDBRANCH  85  86
ENDBRANCH  53  78
BRANCH  65  90
ATOM     90  C   UNL A   1      39.972  33.914  37.106  1.00  0.00     0.058 A 
ATOM     91  C   UNL A   1      39.122  33.618  38.185  1.00  0.00     0.135 A 
ATOM     92  C   UNL A   1      40.565  35.184  37.065  1.00  0.00     0.135 A 
ATOM     93  F   UNL A   1      38.522  32.419  38.264  1.00  0.00    -0.206 F 
ATOM     94  C   UNL A   1      38.845  34.555  39.174  1.00  0.00     0.059 A 
ATOM     95  C   UNL A   1      40.322  36.129  38.056  1.00  0.00     0.059 A 
ATOM     96  F   UNL A   1      41.391  35.511  36.058  1.00  0.00    -0.206 F 
ATOM     97  C   UNL A   1      39.450  35.809  39.101  1.00  0.00     0.060 A 
BRANCH  97  98
ATOM     98  S   UNL A   1      39.087  37.073  40.337  1.00  0.00     0.124 S 
ATOM     99  O   UNL A   1      40.414  37.349  40.876  1.00  0.00    -0.237 OA
ATOM    100  O   UNL A   1      38.497  38.137  39.528  1.00  0.00    -0.237 OA
ATOM    101  O   UNL A   1      38.165  36.403  41.249  1.00  0.00    -0.744 OA
ENDBRANCH  97  98
ENDBRANCH  65  90
ENDBRANCH  39  40
ENDBRANCH  31  34
ENDBRANCH  29  30
ENDBRANCH  28  29
ENDBRANCH   1  28
TORSDOF 20
ENDMDL
