MODEL 1
REMARK VINA RESULT:     -11.8      0.000      0.000
REMARK SMILES CC(C)[C@H](C)CNC(=O)N1CC(n2cc(C(=O)NCCCCCCNC(=O)c3ccc(-c4c5nc(c(-c6c(F)cc(S(=O)(=O)[O-])cc6F)c6ccc([nH]6)c(-c6c(F)cc(S(=O)(=O)[O-])cc6F)c6nc(c(-c7c(F)cc(S(=O)(=O)[O-])cc7F)c7ccc4[nH]7)C=C6)C=C5)cc3)nn2)C1
REMARK SMILES IDX 21 1 20 2 19 3 18 4 16 5 17 6 15 8 13 9 14 10 95 11 94 12
REMARK SMILES IDX 12 13 7 14 8 15 9 17 10 18 11 19 96 20 6 21 4 22 5 23 2 24
REMARK SMILES IDX 1 25 3 26 22 27 23 28 24 29 25 30 26 31 27 33 28 34 29 35
REMARK SMILES IDX 93 36 30 37 92 38 31 39 32 40 33 41 86 42 34 43 91 44 85 45
REMARK SMILES IDX 87 46 35 47 90 48 84 49 83 50 36 52 70 53 49 54 69 55 50 56
REMARK SMILES IDX 53 57 68 58 88 59 51 60 52 61 67 63 89 64 54 65 37 66 38 67
REMARK SMILES IDX 47 68 39 69 40 70 46 71 48 72 41 73 42 74 43 75 44 76 45 77
REMARK SMILES IDX 71 78 72 79 81 80 73 81 74 82 80 83 82 84 75 85 76 86 77 87
REMARK SMILES IDX 78 88 79 89 55 90 56 91 65 92 57 93 58 94 64 95 66 96 59 97
REMARK SMILES IDX 60 98 61 99 62 100 63 101
REMARK H PARENT 18 7 7 16 25 32 87 51 53 62
REMARK Flexibility Score: inf
ROOT
ATOM      1  C   UNL A   1      37.372  22.775  24.778  1.00  0.00     0.002 C 
ENDROOT
BRANCH   1   2
ATOM      2  C   UNL A   1      36.807  21.376  24.495  1.00  0.00     0.021 C 
BRANCH   2   3
ATOM      3  C   UNL A   1      35.736  20.931  25.491  1.00  0.00     0.116 C 
BRANCH   3   4
ATOM      4  N   UNL A   1      34.951  19.839  24.955  1.00  0.00    -0.351 N 
ATOM      5  C   UNL A   1      33.659  19.780  24.487  1.00  0.00     0.273 C 
ATOM      6  O   UNL A   1      33.314  18.723  23.954  1.00  0.00    -0.267 OA
ATOM      7  H   UNL A   1      35.431  18.979  24.917  1.00  0.00     0.163 HD
BRANCH   5   8
ATOM      8  C   UNL A   1      32.767  20.931  24.565  1.00  0.00     0.170 A 
ATOM      9  N   UNL A   1      31.585  22.732  24.279  1.00  0.00    -0.245 N 
ATOM     10  C   UNL A   1      32.683  22.075  23.795  1.00  0.00     0.145 A 
ATOM     11  N   UNL A   1      31.061  22.089  25.331  1.00  0.00    -0.066 NA
ATOM     12  N   UNL A   1      31.796  21.007  25.542  1.00  0.00    -0.125 NA
BRANCH   9  13
ATOM     13  C   UNL A   1      30.991  23.860  23.627  1.00  0.00     0.148 C 
ATOM     14  N   UNL A   1      30.560  28.025  23.856  1.00  0.00    -0.338 N 
ATOM     15  C   UNL A   1      30.960  27.051  22.999  1.00  0.00     0.317 C 
ATOM     16  H   UNL A   1      29.961  28.705  23.470  1.00  0.00     0.165 HD
ATOM     17  O   UNL A   1      30.919  27.280  21.792  1.00  0.00    -0.249 OA
ATOM     18  N   UNL A   1      31.402  25.871  23.503  1.00  0.00    -0.320 N 
ATOM     19  C   UNL A   1      31.929  24.722  22.771  1.00  0.00     0.150 C 
ATOM     20  C   UNL A   1      30.912  25.056  24.601  1.00  0.00     0.150 C 
BRANCH  14  21
ATOM     21  C   UNL A   1      30.885  28.209  25.259  1.00  0.00     0.121 C 
BRANCH  21  22
ATOM     22  C   UNL A   1      32.274  28.870  25.454  1.00  0.00     0.008 C 
ATOM     23  C   UNL A   1      32.063  30.317  25.935  1.00  0.00     0.010 C 
BRANCH  22  24
ATOM     24  C   UNL A   1      33.189  28.047  26.414  1.00  0.00    -0.013 C 
ATOM     25  C   UNL A   1      33.936  26.921  25.680  1.00  0.00     0.008 C 
ATOM     26  C   UNL A   1      34.248  28.916  27.110  1.00  0.00     0.008 C 
ENDBRANCH  22  24
ENDBRANCH  21  22
ENDBRANCH  14  21
ENDBRANCH   9  13
ENDBRANCH   5   8
ENDBRANCH   3   4
ENDBRANCH   2   3
ENDBRANCH   1   2
BRANCH   1  27
ATOM     27  C   UNL A   1      38.358  22.871  25.957  1.00  0.00     0.002 C 
BRANCH  27  28
ATOM     28  C   UNL A   1      39.311  21.680  26.148  1.00  0.00     0.021 C 
BRANCH  28  29
ATOM     29  C   UNL A   1      40.565  22.035  26.927  1.00  0.00     0.116 C 
BRANCH  29  30
ATOM     30  N   UNL A   1      41.761  22.036  26.079  1.00  0.00    -0.352 N 
ATOM     31  C   UNL A   1      42.435  23.115  25.528  1.00  0.00     0.251 C 
ATOM     32  H   UNL A   1      42.136  21.149  25.873  1.00  0.00     0.163 HD
ATOM     33  O   UNL A   1      43.174  22.969  24.571  1.00  0.00    -0.269 OA
BRANCH  31  34
ATOM     34  C   UNL A   1      42.254  24.437  26.154  1.00  0.00     0.039 A 
ATOM     35  C   UNL A   1      41.403  25.419  25.634  1.00  0.00     0.014 A 
ATOM     36  C   UNL A   1      42.972  24.670  27.318  1.00  0.00     0.014 A 
ATOM     37  C   UNL A   1      41.265  26.619  26.332  1.00  0.00     0.010 A 
ATOM     38  C   UNL A   1      42.636  25.712  28.123  1.00  0.00     0.010 A 
ATOM     39  C   UNL A   1      41.896  26.748  27.576  1.00  0.00    -0.014 A 
BRANCH  39  40
ATOM     40  C   UNL A   1      41.798  27.931  28.415  1.00  0.00     0.031 A 
ATOM     41  C   UNL A   1      42.901  28.901  28.200  1.00  0.00     0.074 A 
ATOM     42  C   UNL A   1      40.629  28.239  29.023  1.00  0.00     0.049 A 
ATOM     43  N   UNL A   1      43.880  29.183  28.994  1.00  0.00    -0.248 NA
ATOM     44  C   UNL A   1      43.059  29.473  26.849  1.00  0.00     0.031 C 
ATOM     45  C   UNL A   1      39.349  27.513  28.959  1.00  0.00     0.029 A 
ATOM     46  N   UNL A   1      40.294  29.350  29.730  1.00  0.00    -0.354 N 
ATOM     47  C   UNL A   1      44.608  30.178  28.343  1.00  0.00     0.074 A 
ATOM     48  C   UNL A   1      44.236  30.089  26.960  1.00  0.00     0.031 C 
ATOM     49  C   UNL A   1      38.347  28.309  29.398  1.00  0.00     0.029 A 
ATOM     50  C   UNL A   1      38.923  29.529  29.926  1.00  0.00     0.049 A 
ATOM     51  H   UNL A   1      40.966  29.979  30.076  1.00  0.00     0.167 HD
ATOM     52  C   UNL A   1      45.204  31.186  29.040  1.00  0.00     0.037 A 
ATOM     53  C   UNL A   1      38.329  30.634  30.453  1.00  0.00     0.037 A 
ATOM     54  C   UNL A   1      45.222  30.876  30.452  1.00  0.00     0.049 A 
ATOM     55  C   UNL A   1      39.399  31.382  31.170  1.00  0.00     0.074 A 
ATOM     56  C   UNL A   1      45.758  29.862  31.221  1.00  0.00     0.029 A 
ATOM     57  N   UNL A   1      44.258  31.473  31.231  1.00  0.00    -0.354 N 
ATOM     58  N   UNL A   1      40.030  30.916  32.216  1.00  0.00    -0.248 NA
ATOM     59  C   UNL A   1      40.107  32.411  30.424  1.00  0.00     0.031 C 
ATOM     60  C   UNL A   1      44.777  29.601  32.222  1.00  0.00     0.029 A 
ATOM     61  C   UNL A   1      43.737  30.521  32.068  1.00  0.00     0.049 A 
ATOM     62  H   UNL A   1      43.988  32.419  31.193  1.00  0.00     0.167 HD
ATOM     63  C   UNL A   1      41.357  31.277  32.025  1.00  0.00     0.074 A 
ATOM     64  C   UNL A   1      41.331  32.254  30.937  1.00  0.00     0.031 C 
ATOM     65  C   UNL A   1      42.373  30.532  32.556  1.00  0.00     0.037 A 
BRANCH  52  66
ATOM     66  C   UNL A   1      45.387  32.611  28.544  1.00  0.00     0.058 A 
ATOM     67  C   UNL A   1      46.689  33.160  28.548  1.00  0.00     0.135 A 
ATOM     68  C   UNL A   1      44.347  33.543  28.330  1.00  0.00     0.135 A 
ATOM     69  F   UNL A   1      47.764  32.374  28.714  1.00  0.00    -0.206 F 
ATOM     70  C   UNL A   1      46.926  34.532  28.466  1.00  0.00     0.059 A 
ATOM     71  C   UNL A   1      44.566  34.909  28.194  1.00  0.00     0.059 A 
ATOM     72  F   UNL A   1      43.053  33.206  28.330  1.00  0.00    -0.206 F 
ATOM     73  C   UNL A   1      45.853  35.401  28.312  1.00  0.00     0.060 A 
BRANCH  73  74
ATOM     74  S   UNL A   1      46.141  37.177  28.318  1.00  0.00     0.124 S 
ATOM     75  O   UNL A   1      45.793  37.519  29.692  1.00  0.00    -0.237 OA
ATOM     76  O   UNL A   1      47.557  37.252  27.976  1.00  0.00    -0.237 OA
ATOM     77  O   UNL A   1      45.226  37.667  27.292  1.00  0.00    -0.744 OA
ENDBRANCH  73  74
ENDBRANCH  52  66
BRANCH  53  78
ATOM     78  C   UNL A   1      37.034  31.264  30.072  1.00  0.00     0.058 A 
ATOM     79  C   UNL A   1      36.215  31.899  31.026  1.00  0.00     0.135 A 
ATOM     80  C   UNL A   1      36.714  31.517  28.723  1.00  0.00     0.135 A 
ATOM     81  F   UNL A   1      36.457  31.732  32.336  1.00  0.00    -0.206 F 
ATOM     82  C   UNL A   1      35.178  32.772  30.666  1.00  0.00     0.059 A 
ATOM     83  C   UNL A   1      35.683  32.377  28.339  1.00  0.00     0.059 A 
ATOM     84  F   UNL A   1      37.461  31.008  27.731  1.00  0.00    -0.206 F 
ATOM     85  C   UNL A   1      34.933  33.022  29.316  1.00  0.00     0.060 A 
BRANCH  85  86
ATOM     86  S   UNL A   1      33.721  34.282  28.844  1.00  0.00     0.124 S 
ATOM     87  O   UNL A   1      34.573  35.324  28.280  1.00  0.00    -0.237 OA
ATOM     88  O   UNL A   1      32.880  33.562  27.895  1.00  0.00    -0.237 OA
ATOM     89  O   UNL A   1      33.077  34.620  30.111  1.00  0.00    -0.744 OA
ENDBRANCH  85  86
ENDBRANCH  53  78
BRANCH  65  90
ATOM     90  C   UNL A   1      42.033  29.489  33.592  1.00  0.00     0.058 A 
ATOM     91  C   UNL A   1      41.764  28.136  33.313  1.00  0.00     0.135 A 
ATOM     92  C   UNL A   1      42.175  29.846  34.940  1.00  0.00     0.135 A 
ATOM     93  F   UNL A   1      41.702  27.691  32.051  1.00  0.00    -0.206 F 
ATOM     94  C   UNL A   1      41.622  27.187  34.331  1.00  0.00     0.059 A 
ATOM     95  C   UNL A   1      42.069  28.914  35.968  1.00  0.00     0.059 A 
ATOM     96  F   UNL A   1      42.490  31.110  35.268  1.00  0.00    -0.206 F 
ATOM     97  C   UNL A   1      41.785  27.587  35.657  1.00  0.00     0.060 A 
BRANCH  97  98
ATOM     98  S   UNL A   1      41.696  26.350  36.972  1.00  0.00     0.124 S 
ATOM     99  O   UNL A   1      41.684  25.102  36.217  1.00  0.00    -0.237 OA
ATOM    100  O   UNL A   1      42.910  26.617  37.739  1.00  0.00    -0.237 OA
ATOM    101  O   UNL A   1      40.451  26.675  37.662  1.00  0.00    -0.744 OA
ENDBRANCH  97  98
ENDBRANCH  65  90
ENDBRANCH  39  40
ENDBRANCH  31  34
ENDBRANCH  29  30
ENDBRANCH  28  29
ENDBRANCH  27  28
ENDBRANCH   1  27
TORSDOF 20
ENDMDL
MODEL 2
REMARK VINA RESULT:     -11.3      2.778      9.503
REMARK SMILES CC(C)[C@H](C)CNC(=O)N1CC(n2cc(C(=O)NCCCCCCNC(=O)c3ccc(-c4c5nc(c(-c6c(F)cc(S(=O)(=O)[O-])cc6F)c6ccc([nH]6)c(-c6c(F)cc(S(=O)(=O)[O-])cc6F)c6nc(c(-c7c(F)cc(S(=O)(=O)[O-])cc7F)c7ccc4[nH]7)C=C6)C=C5)cc3)nn2)C1
REMARK SMILES IDX 21 1 20 2 19 3 18 4 16 5 17 6 15 8 13 9 14 10 95 11 94 12
REMARK SMILES IDX 12 13 7 14 8 15 9 17 10 18 11 19 96 20 6 21 4 22 5 23 2 24
REMARK SMILES IDX 1 25 3 26 22 27 23 28 24 29 25 30 26 31 27 33 28 34 29 35
REMARK SMILES IDX 93 36 30 37 92 38 31 39 32 40 33 41 86 42 34 43 91 44 85 45
REMARK SMILES IDX 87 46 35 47 90 48 84 49 83 50 36 52 70 53 49 54 69 55 50 56
REMARK SMILES IDX 53 57 68 58 88 59 51 60 52 61 67 63 89 64 54 65 37 66 38 67
REMARK SMILES IDX 47 68 39 69 40 70 46 71 48 72 41 73 42 74 43 75 44 76 45 77
REMARK SMILES IDX 71 78 72 79 81 80 73 81 74 82 80 83 82 84 75 85 76 86 77 87
REMARK SMILES IDX 78 88 79 89 55 90 56 91 65 92 57 93 58 94 64 95 66 96 59 97
REMARK SMILES IDX 60 98 61 99 62 100 63 101
REMARK H PARENT 18 7 7 16 25 32 87 51 53 62
REMARK Flexibility Score: inf
ROOT
ATOM      1  C   UNL A   1      34.994  31.290  28.368  1.00  0.00     0.002 C 
ENDROOT
BRANCH   1   2
ATOM      2  C   UNL A   1      35.707  30.360  27.376  1.00  0.00     0.021 C 
BRANCH   2   3
ATOM      3  C   UNL A   1      34.890  29.128  26.990  1.00  0.00     0.116 C 
BRANCH   3   4
ATOM      4  N   UNL A   1      33.773  29.491  26.143  1.00  0.00    -0.351 N 
ATOM      5  C   UNL A   1      32.971  28.745  25.312  1.00  0.00     0.273 C 
ATOM      6  O   UNL A   1      31.995  29.321  24.826  1.00  0.00    -0.267 OA
ATOM      7  H   UNL A   1      33.544  30.449  26.169  1.00  0.00     0.163 HD
BRANCH   5   8
ATOM      8  C   UNL A   1      33.229  27.330  25.071  1.00  0.00     0.170 A 
ATOM      9  N   UNL A   1      33.823  25.239  25.092  1.00  0.00    -0.245 N 
ATOM     10  C   UNL A   1      34.116  26.449  25.660  1.00  0.00     0.145 A 
ATOM     11  N   UNL A   1      32.874  25.362  24.154  1.00  0.00    -0.066 NA
ATOM     12  N   UNL A   1      32.529  26.641  24.102  1.00  0.00    -0.125 NA
BRANCH   9  13
ATOM     13  C   UNL A   1      34.347  23.997  25.572  1.00  0.00     0.148 C 
ATOM     14  N   UNL A   1      34.130  19.841  25.057  1.00  0.00    -0.338 N 
ATOM     15  C   UNL A   1      35.031  20.856  25.079  1.00  0.00     0.317 C 
ATOM     16  H   UNL A   1      34.383  19.042  25.573  1.00  0.00     0.165 HD
ATOM     17  O   UNL A   1      36.201  20.594  25.351  1.00  0.00    -0.249 OA
ATOM     18  N   UNL A   1      34.614  22.114  24.790  1.00  0.00    -0.320 N 
ATOM     19  C   UNL A   1      35.419  23.330  24.699  1.00  0.00     0.150 C 
ATOM     20  C   UNL A   1      33.412  22.835  25.170  1.00  0.00     0.150 C 
BRANCH  14  21
ATOM     21  C   UNL A   1      32.845  19.763  24.384  1.00  0.00     0.121 C 
BRANCH  21  22
ATOM     22  C   UNL A   1      32.475  18.308  24.000  1.00  0.00     0.008 C 
ATOM     23  C   UNL A   1      32.307  18.234  22.471  1.00  0.00     0.010 C 
BRANCH  22  24
ATOM     24  C   UNL A   1      33.513  17.274  24.539  1.00  0.00    -0.013 C 
ATOM     25  C   UNL A   1      32.869  16.241  25.478  1.00  0.00     0.008 C 
ATOM     26  C   UNL A   1      34.209  16.493  23.412  1.00  0.00     0.008 C 
ENDBRANCH  22  24
ENDBRANCH  21  22
ENDBRANCH  14  21
ENDBRANCH   9  13
ENDBRANCH   5   8
ENDBRANCH   3   4
ENDBRANCH   2   3
ENDBRANCH   1   2
BRANCH   1  27
ATOM     27  C   UNL A   1      34.963  32.780  27.983  1.00  0.00     0.002 C 
BRANCH  27  28
ATOM     28  C   UNL A   1      33.865  33.632  28.641  1.00  0.00     0.021 C 
BRANCH  28  29
ATOM     29  C   UNL A   1      34.409  34.658  29.620  1.00  0.00     0.116 C 
BRANCH  29  30
ATOM     30  N   UNL A   1      34.000  34.377  31.000  1.00  0.00    -0.352 N 
ATOM     31  C   UNL A   1      34.486  33.415  31.872  1.00  0.00     0.251 C 
ATOM     32  H   UNL A   1      33.282  34.950  31.355  1.00  0.00     0.163 HD
ATOM     33  O   UNL A   1      33.832  33.053  32.833  1.00  0.00    -0.269 OA
BRANCH  31  34
ATOM     34  C   UNL A   1      35.831  32.866  31.618  1.00  0.00     0.039 A 
ATOM     35  C   UNL A   1      36.957  33.670  31.411  1.00  0.00     0.014 A 
ATOM     36  C   UNL A   1      35.937  31.483  31.604  1.00  0.00     0.014 A 
ATOM     37  C   UNL A   1      38.194  33.049  31.228  1.00  0.00     0.010 A 
ATOM     38  C   UNL A   1      37.161  30.898  31.694  1.00  0.00     0.010 A 
ATOM     39  C   UNL A   1      38.274  31.658  31.369  1.00  0.00    -0.014 A 
BRANCH  39  40
ATOM     40  C   UNL A   1      39.507  30.900  31.240  1.00  0.00     0.031 A 
ATOM     41  C   UNL A   1      40.162  30.612  32.541  1.00  0.00     0.074 A 
ATOM     42  C   UNL A   1      39.782  30.238  30.092  1.00  0.00     0.049 A 
ATOM     43  N   UNL A   1      41.254  31.116  33.012  1.00  0.00    -0.248 NA
ATOM     44  C   UNL A   1      39.402  29.828  33.533  1.00  0.00     0.031 C 
ATOM     45  C   UNL A   1      38.967  30.156  28.868  1.00  0.00     0.029 A 
ATOM     46  N   UNL A   1      40.799  29.380  29.817  1.00  0.00    -0.354 N 
ATOM     47  C   UNL A   1      41.450  30.488  34.240  1.00  0.00     0.074 A 
ATOM     48  C   UNL A   1      40.169  29.961  34.616  1.00  0.00     0.031 C 
ATOM     49  C   UNL A   1      39.399  29.134  28.095  1.00  0.00     0.029 A 
ATOM     50  C   UNL A   1      40.614  28.597  28.676  1.00  0.00     0.049 A 
ATOM     51  H   UNL A   1      41.603  29.315  30.380  1.00  0.00     0.167 HD
ATOM     52  C   UNL A   1      42.702  30.182  34.684  1.00  0.00     0.037 A 
ATOM     53  C   UNL A   1      41.399  27.558  28.282  1.00  0.00     0.037 A 
ATOM     54  C   UNL A   1      43.696  30.862  33.884  1.00  0.00     0.049 A 
ATOM     55  C   UNL A   1      42.688  27.709  29.014  1.00  0.00     0.074 A 
ATOM     56  C   UNL A   1      43.986  32.182  33.603  1.00  0.00     0.029 A 
ATOM     57  N   UNL A   1      44.317  30.120  32.906  1.00  0.00    -0.354 N 
ATOM     58  N   UNL A   1      43.503  28.717  28.841  1.00  0.00    -0.248 NA
ATOM     59  C   UNL A   1      42.818  27.015  30.285  1.00  0.00     0.031 C 
ATOM     60  C   UNL A   1      44.357  32.192  32.226  1.00  0.00     0.029 A 
ATOM     61  C   UNL A   1      44.359  30.874  31.762  1.00  0.00     0.049 A 
ATOM     62  H   UNL A   1      44.671  29.207  33.009  1.00  0.00     0.167 HD
ATOM     63  C   UNL A   1      43.946  29.042  30.116  1.00  0.00     0.074 A 
ATOM     64  C   UNL A   1      43.542  27.915  30.956  1.00  0.00     0.031 C 
ATOM     65  C   UNL A   1      44.328  30.318  30.426  1.00  0.00     0.037 A 
BRANCH  52  66
ATOM     66  C   UNL A   1      43.064  28.975  35.534  1.00  0.00     0.058 A 
ATOM     67  C   UNL A   1      43.883  29.175  36.668  1.00  0.00     0.135 A 
ATOM     68  C   UNL A   1      42.888  27.626  35.155  1.00  0.00     0.135 A 
ATOM     69  F   UNL A   1      44.104  30.411  37.144  1.00  0.00    -0.206 F 
ATOM     70  C   UNL A   1      44.564  28.133  37.297  1.00  0.00     0.059 A 
ATOM     71  C   UNL A   1      43.517  26.567  35.801  1.00  0.00     0.059 A 
ATOM     72  F   UNL A   1      42.176  27.254  34.087  1.00  0.00    -0.206 F 
ATOM     73  C   UNL A   1      44.391  26.833  36.840  1.00  0.00     0.060 A 
BRANCH  73  74
ATOM     74  S   UNL A   1      45.350  25.499  37.573  1.00  0.00     0.124 S 
ATOM     75  O   UNL A   1      44.945  24.367  36.749  1.00  0.00    -0.237 OA
ATOM     76  O   UNL A   1      46.716  25.976  37.385  1.00  0.00    -0.237 OA
ATOM     77  O   UNL A   1      44.885  25.475  38.956  1.00  0.00    -0.744 OA
ENDBRANCH  73  74
ENDBRANCH  52  66
BRANCH  53  78
ATOM     78  C   UNL A   1      40.994  26.278  27.637  1.00  0.00     0.058 A 
ATOM     79  C   UNL A   1      41.759  25.698  26.607  1.00  0.00     0.135 A 
ATOM     80  C   UNL A   1      40.014  25.447  28.217  1.00  0.00     0.135 A 
ATOM     81  F   UNL A   1      42.730  26.408  26.011  1.00  0.00    -0.206 F 
ATOM     82  C   UNL A   1      41.600  24.362  26.212  1.00  0.00     0.059 A 
ATOM     83  C   UNL A   1      39.831  24.116  27.836  1.00  0.00     0.059 A 
ATOM     84  F   UNL A   1      39.264  25.878  29.243  1.00  0.00    -0.206 F 
ATOM     85  C   UNL A   1      40.645  23.571  26.850  1.00  0.00     0.060 A 
BRANCH  85  86
ATOM     86  S   UNL A   1      40.553  21.801  26.476  1.00  0.00     0.124 S 
ATOM     87  O   UNL A   1      40.601  21.208  27.809  1.00  0.00    -0.237 OA
ATOM     88  O   UNL A   1      39.278  21.697  25.777  1.00  0.00    -0.237 OA
ATOM     89  O   UNL A   1      41.735  21.570  25.648  1.00  0.00    -0.744 OA
ENDBRANCH  85  86
ENDBRANCH  53  78
BRANCH  65  90
ATOM     90  C   UNL A   1      44.543  31.297  29.297  1.00  0.00     0.058 A 
ATOM     91  C   UNL A   1      45.689  31.342  28.481  1.00  0.00     0.135 A 
ATOM     92  C   UNL A   1      43.454  32.091  28.913  1.00  0.00     0.135 A 
ATOM     93  F   UNL A   1      46.740  30.548  28.722  1.00  0.00    -0.206 F 
ATOM     94  C   UNL A   1      45.754  32.158  27.347  1.00  0.00     0.059 A 
ATOM     95  C   UNL A   1      43.485  32.888  27.772  1.00  0.00     0.059 A 
ATOM     96  F   UNL A   1      42.311  32.047  29.617  1.00  0.00    -0.206 F 
ATOM     97  C   UNL A   1      44.641  32.922  26.997  1.00  0.00     0.060 A 
BRANCH  97  98
ATOM     98  S   UNL A   1      44.683  33.907  25.482  1.00  0.00     0.124 S 
ATOM     99  O   UNL A   1      44.235  32.946  24.480  1.00  0.00    -0.237 OA
ATOM    100  O   UNL A   1      43.753  34.992  25.783  1.00  0.00    -0.237 OA
ATOM    101  O   UNL A   1      46.083  34.311  25.377  1.00  0.00    -0.744 OA
ENDBRANCH  97  98
ENDBRANCH  65  90
ENDBRANCH  39  40
ENDBRANCH  31  34
ENDBRANCH  29  30
ENDBRANCH  28  29
ENDBRANCH  27  28
ENDBRANCH   1  27
TORSDOF 20
ENDMDL
MODEL 3
REMARK VINA RESULT:     -11.1      2.710      9.259
REMARK SMILES CC(C)[C@H](C)CNC(=O)N1CC(n2cc(C(=O)NCCCCCCNC(=O)c3ccc(-c4c5nc(c(-c6c(F)cc(S(=O)(=O)[O-])cc6F)c6ccc([nH]6)c(-c6c(F)cc(S(=O)(=O)[O-])cc6F)c6nc(c(-c7c(F)cc(S(=O)(=O)[O-])cc7F)c7ccc4[nH]7)C=C6)C=C5)cc3)nn2)C1
REMARK SMILES IDX 21 1 20 2 19 3 18 4 16 5 17 6 15 8 13 9 14 10 95 11 94 12
REMARK SMILES IDX 12 13 7 14 8 15 9 17 10 18 11 19 96 20 6 21 4 22 5 23 2 24
REMARK SMILES IDX 1 25 3 26 22 27 23 28 24 29 25 30 26 31 27 33 28 34 29 35
REMARK SMILES IDX 93 36 30 37 92 38 31 39 32 40 33 41 86 42 34 43 91 44 85 45
REMARK SMILES IDX 87 46 35 47 90 48 84 49 83 50 36 52 70 53 49 54 69 55 50 56
REMARK SMILES IDX 53 57 68 58 88 59 51 60 52 61 67 63 89 64 54 65 37 66 38 67
REMARK SMILES IDX 47 68 39 69 40 70 46 71 48 72 41 73 42 74 43 75 44 76 45 77
REMARK SMILES IDX 71 78 72 79 81 80 73 81 74 82 80 83 82 84 75 85 76 86 77 87
REMARK SMILES IDX 78 88 79 89 55 90 56 91 65 92 57 93 58 94 64 95 66 96 59 97
REMARK SMILES IDX 60 98 61 99 62 100 63 101
REMARK H PARENT 18 7 7 16 25 32 87 51 53 62
REMARK Flexibility Score: inf
ROOT
ATOM      1  C   UNL A   1      35.067  30.943  28.367  1.00  0.00     0.002 C 
ENDROOT
BRANCH   1   2
ATOM      2  C   UNL A   1      35.352  29.950  27.231  1.00  0.00     0.021 C 
BRANCH   2   3
ATOM      3  C   UNL A   1      34.098  29.285  26.665  1.00  0.00     0.116 C 
BRANCH   3   4
ATOM      4  N   UNL A   1      33.070  30.266  26.387  1.00  0.00    -0.351 N 
ATOM      5  C   UNL A   1      31.858  30.170  25.745  1.00  0.00     0.273 C 
ATOM      6  O   UNL A   1      31.129  31.163  25.792  1.00  0.00    -0.267 OA
ATOM      7  H   UNL A   1      33.277  31.170  26.721  1.00  0.00     0.163 HD
BRANCH   5   8
ATOM      8  C   UNL A   1      31.435  28.934  25.096  1.00  0.00     0.170 A 
ATOM      9  N   UNL A   1      30.832  26.924  24.531  1.00  0.00    -0.245 N 
ATOM     10  C   UNL A   1      31.459  27.621  25.527  1.00  0.00     0.145 A 
ATOM     11  N   UNL A   1      30.509  27.727  23.507  1.00  0.00    -0.066 NA
ATOM     12  N   UNL A   1      30.906  28.951  23.822  1.00  0.00    -0.125 NA
BRANCH   9  13
ATOM     13  C   UNL A   1      30.433  25.555  24.658  1.00  0.00     0.148 C 
ATOM     14  N   UNL A   1      31.884  21.621  24.651  1.00  0.00    -0.338 N 
ATOM     15  C   UNL A   1      31.151  22.474  25.412  1.00  0.00     0.317 C 
ATOM     16  H   UNL A   1      31.504  20.718  24.547  1.00  0.00     0.165 HD
ATOM     17  O   UNL A   1      30.352  22.001  26.217  1.00  0.00    -0.249 OA
ATOM     18  N   UNL A   1      31.335  23.810  25.265  1.00  0.00    -0.320 N 
ATOM     19  C   UNL A   1      30.702  24.892  26.016  1.00  0.00     0.150 C 
ATOM     20  C   UNL A   1      31.523  24.627  24.079  1.00  0.00     0.150 C 
BRANCH  14  21
ATOM     21  C   UNL A   1      33.145  21.846  23.967  1.00  0.00     0.121 C 
BRANCH  21  22
ATOM     22  C   UNL A   1      34.357  21.732  24.927  1.00  0.00     0.008 C 
ATOM     23  C   UNL A   1      34.846  20.271  24.923  1.00  0.00     0.010 C 
BRANCH  22  24
ATOM     24  C   UNL A   1      35.490  22.744  24.569  1.00  0.00    -0.013 C 
ATOM     25  C   UNL A   1      35.076  23.705  23.442  1.00  0.00     0.008 C 
ATOM     26  C   UNL A   1      35.912  23.606  25.769  1.00  0.00     0.008 C 
ENDBRANCH  22  24
ENDBRANCH  21  22
ENDBRANCH  14  21
ENDBRANCH   9  13
ENDBRANCH   5   8
ENDBRANCH   3   4
ENDBRANCH   2   3
ENDBRANCH   1   2
BRANCH   1  27
ATOM     27  C   UNL A   1      35.107  32.432  27.979  1.00  0.00     0.002 C 
BRANCH  27  28
ATOM     28  C   UNL A   1      33.955  33.305  28.504  1.00  0.00     0.021 C 
BRANCH  28  29
ATOM     29  C   UNL A   1      34.423  34.434  29.406  1.00  0.00     0.116 C 
BRANCH  29  30
ATOM     30  N   UNL A   1      34.020  34.230  30.801  1.00  0.00    -0.352 N 
ATOM     31  C   UNL A   1      34.520  33.329  31.728  1.00  0.00     0.251 C 
ATOM     32  H   UNL A   1      33.295  34.814  31.123  1.00  0.00     0.163 HD
ATOM     33  O   UNL A   1      33.872  33.016  32.710  1.00  0.00    -0.269 OA
BRANCH  31  34
ATOM     34  C   UNL A   1      35.871  32.783  31.504  1.00  0.00     0.039 A 
ATOM     35  C   UNL A   1      37.009  33.588  31.380  1.00  0.00     0.014 A 
ATOM     36  C   UNL A   1      35.972  31.401  31.434  1.00  0.00     0.014 A 
ATOM     37  C   UNL A   1      38.249  32.968  31.220  1.00  0.00     0.010 A 
ATOM     38  C   UNL A   1      37.189  30.805  31.547  1.00  0.00     0.010 A 
ATOM     39  C   UNL A   1      38.317  31.571  31.301  1.00  0.00    -0.014 A 
BRANCH  39  40
ATOM     40  C   UNL A   1      39.551  30.813  31.189  1.00  0.00     0.031 A 
ATOM     41  C   UNL A   1      40.187  30.522  32.498  1.00  0.00     0.074 A 
ATOM     42  C   UNL A   1      39.841  30.152  30.044  1.00  0.00     0.049 A 
ATOM     43  N   UNL A   1      41.273  31.024  32.985  1.00  0.00    -0.248 NA
ATOM     44  C   UNL A   1      39.412  29.737  33.478  1.00  0.00     0.031 C 
ATOM     45  C   UNL A   1      39.043  30.072  28.808  1.00  0.00     0.029 A 
ATOM     46  N   UNL A   1      40.861  29.292  29.782  1.00  0.00    -0.354 N 
ATOM     47  C   UNL A   1      41.450  30.394  34.215  1.00  0.00     0.074 A 
ATOM     48  C   UNL A   1      40.164  29.867  34.572  1.00  0.00     0.031 C 
ATOM     49  C   UNL A   1      39.486  29.051  28.040  1.00  0.00     0.029 A 
ATOM     50  C   UNL A   1      40.691  28.511  28.637  1.00  0.00     0.049 A 
ATOM     51  H   UNL A   1      41.657  29.226  30.356  1.00  0.00     0.167 HD
ATOM     52  C   UNL A   1      42.696  30.086  34.677  1.00  0.00     0.037 A 
ATOM     53  C   UNL A   1      41.481  27.472  28.253  1.00  0.00     0.037 A 
ATOM     54  C   UNL A   1      43.702  30.765  33.892  1.00  0.00     0.049 A 
ATOM     55  C   UNL A   1      42.759  27.621  29.003  1.00  0.00     0.074 A 
ATOM     56  C   UNL A   1      43.997  32.085  33.616  1.00  0.00     0.029 A 
ATOM     57  N   UNL A   1      44.336  30.024  32.921  1.00  0.00    -0.354 N 
ATOM     58  N   UNL A   1      43.578  28.627  28.844  1.00  0.00    -0.248 NA
ATOM     59  C   UNL A   1      42.870  26.925  30.275  1.00  0.00     0.031 C 
ATOM     60  C   UNL A   1      44.388  32.097  32.245  1.00  0.00     0.029 A 
ATOM     61  C   UNL A   1      44.395  30.780  31.779  1.00  0.00     0.049 A 
ATOM     62  H   UNL A   1      44.687  29.110  33.028  1.00  0.00     0.167 HD
ATOM     63  C   UNL A   1      44.004  28.951  30.125  1.00  0.00     0.074 A 
ATOM     64  C   UNL A   1      43.586  27.823  30.958  1.00  0.00     0.031 C 
ATOM     65  C   UNL A   1      44.382  30.226  30.442  1.00  0.00     0.037 A 
BRANCH  52  66
ATOM     66  C   UNL A   1      43.044  28.877  35.530  1.00  0.00     0.058 A 
ATOM     67  C   UNL A   1      43.843  29.075  36.678  1.00  0.00     0.135 A 
ATOM     68  C   UNL A   1      42.877  27.528  35.145  1.00  0.00     0.135 A 
ATOM     69  F   UNL A   1      44.056  30.310  37.161  1.00  0.00    -0.206 F 
ATOM     70  C   UNL A   1      44.515  28.032  37.316  1.00  0.00     0.059 A 
ATOM     71  C   UNL A   1      43.495  26.468  35.799  1.00  0.00     0.059 A 
ATOM     72  F   UNL A   1      42.183  27.158  34.064  1.00  0.00    -0.206 F 
ATOM     73  C   UNL A   1      44.350  26.733  36.853  1.00  0.00     0.060 A 
BRANCH  73  74
ATOM     74  S   UNL A   1      45.299  25.399  37.599  1.00  0.00     0.124 S 
ATOM     75  O   UNL A   1      44.847  25.464  38.983  1.00  0.00    -0.237 OA
ATOM     76  O   UNL A   1      44.848  24.245  36.829  1.00  0.00    -0.237 OA
ATOM     77  O   UNL A   1      46.682  25.801  37.364  1.00  0.00    -0.744 OA
ENDBRANCH  73  74
ENDBRANCH  52  66
BRANCH  53  78
ATOM     78  C   UNL A   1      41.083  26.193  27.600  1.00  0.00     0.058 A 
ATOM     79  C   UNL A   1      41.901  25.573  26.637  1.00  0.00     0.135 A 
ATOM     80  C   UNL A   1      40.040  25.402  28.122  1.00  0.00     0.135 A 
ATOM     81  F   UNL A   1      42.932  26.244  26.100  1.00  0.00    -0.206 F 
ATOM     82  C   UNL A   1      41.729  24.236  26.252  1.00  0.00     0.059 A 
ATOM     83  C   UNL A   1      39.843  24.070  27.750  1.00  0.00     0.059 A 
ATOM     84  F   UNL A   1      39.233  25.873  29.085  1.00  0.00    -0.206 F 
ATOM     85  C   UNL A   1      40.708  23.484  26.832  1.00  0.00     0.060 A 
BRANCH  85  86
ATOM     86  S   UNL A   1      40.589  21.712  26.480  1.00  0.00     0.124 S 
ATOM     87  O   UNL A   1      41.762  21.491  25.641  1.00  0.00    -0.237 OA
ATOM     88  O   UNL A   1      40.638  21.126  27.814  1.00  0.00    -0.237 OA
ATOM     89  O   UNL A   1      39.302  21.590  25.796  1.00  0.00    -0.744 OA
ENDBRANCH  85  86
ENDBRANCH  53  78
BRANCH  65  90
ATOM     90  C   UNL A   1      44.614  31.205  29.317  1.00  0.00     0.058 A 
ATOM     91  C   UNL A   1      45.756  31.228  28.494  1.00  0.00     0.135 A 
ATOM     92  C   UNL A   1      43.543  32.029  28.945  1.00  0.00     0.135 A 
ATOM     93  F   UNL A   1      46.788  30.407  28.724  1.00  0.00    -0.206 F 
ATOM     94  C   UNL A   1      45.834  32.049  27.365  1.00  0.00     0.059 A 
ATOM     95  C   UNL A   1      43.587  32.831  27.809  1.00  0.00     0.059 A 
ATOM     96  F   UNL A   1      42.404  32.008  29.656  1.00  0.00    -0.206 F 
ATOM     97  C   UNL A   1      44.738  32.842  27.027  1.00  0.00     0.060 A 
BRANCH  97  98
ATOM     98  S   UNL A   1      44.796  33.835  25.517  1.00  0.00     0.124 S 
ATOM     99  O   UNL A   1      44.297  32.899  24.516  1.00  0.00    -0.237 OA
ATOM    100  O   UNL A   1      43.911  34.952  25.839  1.00  0.00    -0.237 OA
ATOM    101  O   UNL A   1      46.208  34.187  25.395  1.00  0.00    -0.744 OA
ENDBRANCH  97  98
ENDBRANCH  65  90
ENDBRANCH  39  40
ENDBRANCH  31  34
ENDBRANCH  29  30
ENDBRANCH  28  29
ENDBRANCH  27  28
ENDBRANCH   1  27
TORSDOF 20
ENDMDL
