MODEL 1
REMARK VINA RESULT:     -10.8      0.000      0.000
REMARK SMILES CC[C@H](C(=O)NCCCCCCNC(=O)c1ccc(-c2c3nc(c(-c4c(F)cc(S(=O)(=O)[O-])cc4F)c4ccc([nH]4)c(-c4c(F)cc(S(=O)(=O)[O-])cc4F)c4nc(c(-c5c(F)cc(S(=O)(=O)[O-])cc5F)c5ccc2[nH]5)C=C4)C=C3)cc1)[N@H+](C)[C@H]1CC[C@H]([NH3+])CC1
REMARK SMILES IDX 9 1 8 2 7 3 6 4 4 5 5 6 3 8 2 9 1 10 82 11 83 12 84 14 85 15
REMARK SMILES IDX 90 16 86 17 89 18 87 19 88 20 10 24 11 25 12 26 13 27 14 28
REMARK SMILES IDX 15 30 16 31 17 32 81 33 18 34 80 35 19 36 20 37 21 38 74 39
REMARK SMILES IDX 22 40 79 41 73 42 75 43 23 44 78 45 72 46 71 47 24 49 58 50
REMARK SMILES IDX 37 51 57 52 38 53 41 54 56 55 76 56 39 57 40 58 55 60 77 61
REMARK SMILES IDX 42 62 25 63 26 64 35 65 27 66 28 67 34 68 36 69 29 70 30 71
REMARK SMILES IDX 31 72 32 73 33 74 59 75 60 76 69 77 61 78 62 79 68 80 70 81
REMARK SMILES IDX 63 82 64 83 65 84 66 85 67 86 43 87 44 88 53 89 45 90 46 91
REMARK SMILES IDX 52 92 54 93 47 94 48 95 49 96 50 97 51 98
REMARK H PARENT 6 7 82 13 88 21 88 22 88 23 13 29 75 48 41 59
REMARK Flexibility Score: inf
ROOT
ATOM      1  C   UNL A   1      34.872  22.831  26.324  1.00  0.00     0.002 C 
ENDROOT
BRANCH   1   2
ATOM      2  C   UNL A   1      34.421  24.156  25.699  1.00  0.00     0.021 C 
BRANCH   2   3
ATOM      3  C   UNL A   1      32.990  24.160  25.179  1.00  0.00     0.116 C 
BRANCH   3   4
ATOM      4  N   UNL A   1      32.109  24.915  26.046  1.00  0.00    -0.351 N 
ATOM      5  C   UNL A   1      31.294  25.970  25.746  1.00  0.00     0.278 C 
ATOM      6  O   UNL A   1      30.605  26.420  26.664  1.00  0.00    -0.268 OA
ATOM      7  H   UNL A   1      32.095  24.626  26.987  1.00  0.00     0.163 HD
BRANCH   5   8
ATOM      8  C   UNL A   1      31.257  26.512  24.288  1.00  0.00     0.273 C 
BRANCH   8   9
ATOM      9  C   UNL A   1      29.778  26.755  23.871  1.00  0.00     0.072 C 
ATOM     10  C   UNL A   1      29.447  28.155  23.380  1.00  0.00     0.011 C 
ENDBRANCH   8   9
BRANCH   8  11
ATOM     11  N   UNL A   1      32.226  27.651  24.150  1.00  0.00    -0.325 N 
ATOM     12  C   UNL A   1      33.407  27.320  23.361  1.00  0.00     0.333 C 
ATOM     13  H   UNL A   1      31.748  28.362  23.596  1.00  0.00     0.348 HD
BRANCH  11  14
ATOM     14  C   UNL A   1      32.531  28.310  25.460  1.00  0.00     0.184 C 
ATOM     15  C   UNL A   1      31.902  29.724  25.562  1.00  0.00     0.071 C 
ATOM     16  C   UNL A   1      34.035  28.357  25.828  1.00  0.00     0.071 C 
ATOM     17  C   UNL A   1      32.210  30.428  26.886  1.00  0.00     0.071 C 
ATOM     18  C   UNL A   1      34.304  29.087  27.147  1.00  0.00     0.071 C 
ATOM     19  C   UNL A   1      33.720  30.496  27.125  1.00  0.00     0.181 C 
BRANCH  19  20
ATOM     20  N   UNL A   1      34.024  31.183  28.379  1.00  0.00    -0.355 N 
ATOM     21  H   UNL A   1      34.167  32.176  28.197  1.00  0.00     0.344 HD
ATOM     22  H   UNL A   1      34.871  30.786  28.787  1.00  0.00     0.344 HD
ATOM     23  H   UNL A   1      33.245  31.064  29.027  1.00  0.00     0.344 HD
ENDBRANCH  19  20
ENDBRANCH  11  14
ENDBRANCH   8  11
ENDBRANCH   5   8
ENDBRANCH   3   4
ENDBRANCH   2   3
ENDBRANCH   1   2
BRANCH   1  24
ATOM     24  C   UNL A   1      36.282  22.371  25.937  1.00  0.00     0.002 C 
BRANCH  24  25
ATOM     25  C   UNL A   1      37.185  23.459  25.351  1.00  0.00     0.021 C 
BRANCH  25  26
ATOM     26  C   UNL A   1      38.093  24.154  26.360  1.00  0.00     0.116 C 
BRANCH  26  27
ATOM     27  N   UNL A   1      39.499  23.871  26.129  1.00  0.00    -0.352 N 
ATOM     28  C   UNL A   1      40.604  24.549  26.582  1.00  0.00     0.251 C 
ATOM     29  H   UNL A   1      39.686  23.083  25.569  1.00  0.00     0.163 HD
ATOM     30  O   UNL A   1      41.718  24.267  26.146  1.00  0.00    -0.269 OA
BRANCH  28  31
ATOM     31  C   UNL A   1      40.444  25.635  27.572  1.00  0.00     0.039 A 
ATOM     32  C   UNL A   1      39.464  25.511  28.558  1.00  0.00     0.014 A 
ATOM     33  C   UNL A   1      41.264  26.767  27.534  1.00  0.00     0.014 A 
ATOM     34  C   UNL A   1      39.347  26.493  29.545  1.00  0.00     0.010 A 
ATOM     35  C   UNL A   1      41.197  27.705  28.560  1.00  0.00     0.010 A 
ATOM     36  C   UNL A   1      40.237  27.580  29.576  1.00  0.00    -0.014 A 
BRANCH  36  37
ATOM     37  C   UNL A   1      40.179  28.592  30.663  1.00  0.00     0.031 A 
ATOM     38  C   UNL A   1      41.065  28.457  31.872  1.00  0.00     0.074 A 
ATOM     39  C   UNL A   1      39.286  29.600  30.587  1.00  0.00     0.049 A 
ATOM     40  N   UNL A   1      41.113  29.199  32.948  1.00  0.00    -0.248 NA
ATOM     41  C   UNL A   1      42.008  27.326  31.884  1.00  0.00     0.031 C 
ATOM     42  C   UNL A   1      38.343  29.815  29.487  1.00  0.00     0.029 A 
ATOM     43  N   UNL A   1      39.019  30.630  31.455  1.00  0.00    -0.354 N 
ATOM     44  C   UNL A   1      42.079  28.623  33.765  1.00  0.00     0.074 A 
ATOM     45  C   UNL A   1      42.552  27.436  33.087  1.00  0.00     0.031 C 
ATOM     46  C   UNL A   1      37.620  30.918  29.735  1.00  0.00     0.029 A 
ATOM     47  C   UNL A   1      38.015  31.467  31.029  1.00  0.00     0.049 A 
ATOM     48  H   UNL A   1      39.502  30.758  32.304  1.00  0.00     0.167 HD
ATOM     49  C   UNL A   1      42.548  29.059  34.959  1.00  0.00     0.037 A 
ATOM     50  C   UNL A   1      37.466  32.548  31.617  1.00  0.00     0.037 A 
ATOM     51  C   UNL A   1      42.085  30.252  35.619  1.00  0.00     0.049 A 
ATOM     52  C   UNL A   1      37.989  32.997  32.955  1.00  0.00     0.074 A 
ATOM     53  C   UNL A   1      42.529  30.802  36.810  1.00  0.00     0.029 A 
ATOM     54  N   UNL A   1      41.074  31.077  35.151  1.00  0.00    -0.354 N 
ATOM     55  N   UNL A   1      38.945  32.473  33.685  1.00  0.00    -0.248 NA
ATOM     56  C   UNL A   1      37.364  34.188  33.548  1.00  0.00     0.031 C 
ATOM     57  C   UNL A   1      41.752  31.931  37.087  1.00  0.00     0.029 A 
ATOM     58  C   UNL A   1      40.863  32.119  36.040  1.00  0.00     0.049 A 
ATOM     59  H   UNL A   1      40.578  30.943  34.312  1.00  0.00     0.167 HD
ATOM     60  C   UNL A   1      39.058  33.290  34.807  1.00  0.00     0.074 A 
ATOM     61  C   UNL A   1      38.081  34.348  34.652  1.00  0.00     0.031 C 
ATOM     62  C   UNL A   1      39.895  33.174  35.867  1.00  0.00     0.037 A 
BRANCH  49  63
ATOM     63  C   UNL A   1      43.623  28.245  35.628  1.00  0.00     0.058 A 
ATOM     64  C   UNL A   1      43.312  27.192  36.505  1.00  0.00     0.135 A 
ATOM     65  C   UNL A   1      44.980  28.485  35.352  1.00  0.00     0.135 A 
ATOM     66  F   UNL A   1      42.034  26.927  36.817  1.00  0.00    -0.206 F 
ATOM     67  C   UNL A   1      44.307  26.426  37.104  1.00  0.00     0.059 A 
ATOM     68  C   UNL A   1      45.989  27.710  35.915  1.00  0.00     0.059 A 
ATOM     69  F   UNL A   1      45.335  29.479  34.523  1.00  0.00    -0.206 F 
ATOM     70  C   UNL A   1      45.642  26.690  36.800  1.00  0.00     0.060 A 
BRANCH  70  71
ATOM     71  S   UNL A   1      46.917  25.673  37.575  1.00  0.00     0.124 S 
ATOM     72  O   UNL A   1      48.094  26.526  37.433  1.00  0.00    -0.237 OA
ATOM     73  O   UNL A   1      46.408  25.517  38.933  1.00  0.00    -0.237 OA
ATOM     74  O   UNL A   1      46.924  24.459  36.765  1.00  0.00    -0.744 OA
ENDBRANCH  70  71
ENDBRANCH  49  63
BRANCH  50  75
ATOM     75  C   UNL A   1      36.366  33.290  30.941  1.00  0.00     0.058 A 
ATOM     76  C   UNL A   1      36.616  34.080  29.809  1.00  0.00     0.135 A 
ATOM     77  C   UNL A   1      35.046  33.231  31.416  1.00  0.00     0.135 A 
ATOM     78  F   UNL A   1      37.862  34.175  29.320  1.00  0.00    -0.206 F 
ATOM     79  C   UNL A   1      35.604  34.804  29.185  1.00  0.00     0.059 A 
ATOM     80  C   UNL A   1      34.012  33.921  30.793  1.00  0.00     0.059 A 
ATOM     81  F   UNL A   1      34.748  32.477  32.486  1.00  0.00    -0.206 F 
ATOM     82  C   UNL A   1      34.305  34.717  29.685  1.00  0.00     0.060 A 
BRANCH  82  83
ATOM     83  S   UNL A   1      32.993  35.636  28.850  1.00  0.00     0.124 S 
ATOM     84  O   UNL A   1      33.754  36.670  28.159  1.00  0.00    -0.237 OA
ATOM     85  O   UNL A   1      32.393  34.610  28.004  1.00  0.00    -0.237 OA
ATOM     86  O   UNL A   1      32.154  36.099  29.952  1.00  0.00    -0.744 OA
ENDBRANCH  82  83
ENDBRANCH  50  75
BRANCH  62  87
ATOM     87  C   UNL A   1      39.826  34.240  36.926  1.00  0.00     0.058 A 
ATOM     88  C   UNL A   1      40.491  35.469  36.788  1.00  0.00     0.135 A 
ATOM     89  C   UNL A   1      39.038  34.049  38.074  1.00  0.00     0.135 A 
ATOM     90  F   UNL A   1      41.263  35.701  35.715  1.00  0.00    -0.206 F 
ATOM     91  C   UNL A   1      40.396  36.460  37.759  1.00  0.00     0.059 A 
ATOM     92  C   UNL A   1      38.903  35.038  39.043  1.00  0.00     0.059 A 
ATOM     93  F   UNL A   1      38.372  32.897  38.253  1.00  0.00    -0.206 F 
ATOM     94  C   UNL A   1      39.596  36.237  38.882  1.00  0.00     0.060 A 
BRANCH  94  95
ATOM     95  S   UNL A   1      39.453  37.546  40.116  1.00  0.00     0.124 S 
ATOM     96  O   UNL A   1      40.833  38.010  40.214  1.00  0.00    -0.237 OA
ATOM     97  O   UNL A   1      38.517  38.470  39.482  1.00  0.00    -0.237 OA
ATOM     98  O   UNL A   1      38.939  36.851  41.291  1.00  0.00    -0.744 OA
ENDBRANCH  94  95
ENDBRANCH  62  87
ENDBRANCH  36  37
ENDBRANCH  28  31
ENDBRANCH  26  27
ENDBRANCH  25  26
ENDBRANCH  24  25
ENDBRANCH   1  24
TORSDOF 20
ENDMDL
MODEL 2
REMARK VINA RESULT:     -10.4      4.878     10.024
REMARK SMILES CC[C@H](C(=O)NCCCCCCNC(=O)c1ccc(-c2c3nc(c(-c4c(F)cc(S(=O)(=O)[O-])cc4F)c4ccc([nH]4)c(-c4c(F)cc(S(=O)(=O)[O-])cc4F)c4nc(c(-c5c(F)cc(S(=O)(=O)[O-])cc5F)c5ccc2[nH]5)C=C4)C=C3)cc1)[N@H+](C)[C@H]1CC[C@H]([NH3+])CC1
REMARK SMILES IDX 9 1 8 2 7 3 6 4 4 5 5 6 3 8 2 9 1 10 82 11 83 12 84 14 85 15
REMARK SMILES IDX 90 16 86 17 89 18 87 19 88 20 10 24 11 25 12 26 13 27 14 28
REMARK SMILES IDX 15 30 16 31 17 32 81 33 18 34 80 35 19 36 20 37 21 38 74 39
REMARK SMILES IDX 22 40 79 41 73 42 75 43 23 44 78 45 72 46 71 47 24 49 58 50
REMARK SMILES IDX 37 51 57 52 38 53 41 54 56 55 76 56 39 57 40 58 55 60 77 61
REMARK SMILES IDX 42 62 25 63 26 64 35 65 27 66 28 67 34 68 36 69 29 70 30 71
REMARK SMILES IDX 31 72 32 73 33 74 59 75 60 76 69 77 61 78 62 79 68 80 70 81
REMARK SMILES IDX 63 82 64 83 65 84 66 85 67 86 43 87 44 88 53 89 45 90 46 91
REMARK SMILES IDX 52 92 54 93 47 94 48 95 49 96 50 97 51 98
REMARK H PARENT 6 7 82 13 88 21 88 22 88 23 13 29 75 48 41 59
REMARK Flexibility Score: inf
ROOT
ATOM      1  C   UNL A   1      31.429  27.466  24.829  1.00  0.00     0.002 C 
ENDROOT
BRANCH   1   2
ATOM      2  C   UNL A   1      30.352  26.504  24.315  1.00  0.00     0.021 C 
BRANCH   2   3
ATOM      3  C   UNL A   1      30.734  25.030  24.378  1.00  0.00     0.116 C 
BRANCH   3   4
ATOM      4  N   UNL A   1      30.446  24.460  25.679  1.00  0.00    -0.351 N 
ATOM      5  C   UNL A   1      31.199  23.609  26.437  1.00  0.00     0.278 C 
ATOM      6  O   UNL A   1      30.744  23.295  27.539  1.00  0.00    -0.268 OA
ATOM      7  H   UNL A   1      29.582  24.724  26.072  1.00  0.00     0.163 HD
BRANCH   5   8
ATOM      8  C   UNL A   1      32.574  23.121  25.895  1.00  0.00     0.273 C 
BRANCH   8   9
ATOM      9  C   UNL A   1      33.659  24.187  26.221  1.00  0.00     0.072 C 
ATOM     10  C   UNL A   1      34.577  24.572  25.073  1.00  0.00     0.011 C 
ENDBRANCH   8   9
BRANCH   8  11
ATOM     11  N   UNL A   1      32.816  21.707  26.339  1.00  0.00    -0.325 N 
ATOM     12  C   UNL A   1      33.835  21.589  27.375  1.00  0.00     0.333 C 
ATOM     13  H   UNL A   1      31.958  21.405  26.799  1.00  0.00     0.348 HD
BRANCH  11  14
ATOM     14  C   UNL A   1      33.002  20.766  25.189  1.00  0.00     0.184 C 
ATOM     15  C   UNL A   1      32.106  21.140  23.979  1.00  0.00     0.071 C 
ATOM     16  C   UNL A   1      32.837  19.267  25.543  1.00  0.00     0.071 C 
ATOM     17  C   UNL A   1      32.264  20.186  22.792  1.00  0.00     0.071 C 
ATOM     18  C   UNL A   1      32.980  18.347  24.328  1.00  0.00     0.071 C 
ATOM     19  C   UNL A   1      32.005  18.740  23.223  1.00  0.00     0.181 C 
BRANCH  19  20
ATOM     20  N   UNL A   1      32.136  17.824  22.091  1.00  0.00    -0.355 N 
ATOM     21  H   UNL A   1      32.965  17.244  22.218  1.00  0.00     0.344 HD
ATOM     22  H   UNL A   1      32.226  18.361  21.228  1.00  0.00     0.344 HD
ATOM     23  H   UNL A   1      31.309  17.229  22.038  1.00  0.00     0.344 HD
ENDBRANCH  19  20
ENDBRANCH  11  14
ENDBRANCH   8  11
ENDBRANCH   5   8
ENDBRANCH   3   4
ENDBRANCH   2   3
ENDBRANCH   1   2
BRANCH   1  24
ATOM     24  C   UNL A   1      31.383  27.757  26.332  1.00  0.00     0.002 C 
BRANCH  24  25
ATOM     25  C   UNL A   1      32.634  27.350  27.114  1.00  0.00     0.021 C 
BRANCH  25  26
ATOM     26  C   UNL A   1      33.859  28.226  26.868  1.00  0.00     0.116 C 
BRANCH  26  27
ATOM     27  N   UNL A   1      33.656  29.598  27.299  1.00  0.00    -0.352 N 
ATOM     28  C   UNL A   1      34.510  30.424  27.988  1.00  0.00     0.251 C 
ATOM     29  H   UNL A   1      32.784  29.991  27.066  1.00  0.00     0.163 HD
ATOM     30  O   UNL A   1      34.106  31.502  28.419  1.00  0.00    -0.269 OA
BRANCH  28  31
ATOM     31  C   UNL A   1      35.905  30.000  28.230  1.00  0.00     0.039 A 
ATOM     32  C   UNL A   1      36.840  30.131  27.202  1.00  0.00     0.014 A 
ATOM     33  C   UNL A   1      36.293  29.483  29.470  1.00  0.00     0.014 A 
ATOM     34  C   UNL A   1      38.177  29.803  27.436  1.00  0.00     0.010 A 
ATOM     35  C   UNL A   1      37.637  29.228  29.725  1.00  0.00     0.010 A 
ATOM     36  C   UNL A   1      38.595  29.384  28.710  1.00  0.00    -0.014 A 
BRANCH  36  37
ATOM     37  C   UNL A   1      40.026  29.106  28.999  1.00  0.00     0.031 A 
ATOM     38  C   UNL A   1      40.617  27.759  28.679  1.00  0.00     0.074 A 
ATOM     39  C   UNL A   1      40.778  30.049  29.603  1.00  0.00     0.049 A 
ATOM     40  N   UNL A   1      41.821  27.308  28.916  1.00  0.00    -0.248 NA
ATOM     41  C   UNL A   1      39.730  26.781  28.028  1.00  0.00     0.031 C 
ATOM     42  C   UNL A   1      40.309  31.378  30.002  1.00  0.00     0.029 A 
ATOM     43  N   UNL A   1      42.093  30.033  29.995  1.00  0.00    -0.354 N 
ATOM     44  C   UNL A   1      41.835  25.998  28.452  1.00  0.00     0.074 A 
ATOM     45  C   UNL A   1      40.502  25.706  27.973  1.00  0.00     0.031 C 
ATOM     46  C   UNL A   1      41.326  32.056  30.558  1.00  0.00     0.029 A 
ATOM     47  C   UNL A   1      42.506  31.198  30.596  1.00  0.00     0.049 A 
ATOM     48  H   UNL A   1      42.687  29.259  29.858  1.00  0.00     0.167 HD
ATOM     49  C   UNL A   1      42.872  25.128  28.405  1.00  0.00     0.037 A 
ATOM     50  C   UNL A   1      43.697  31.536  31.129  1.00  0.00     0.037 A 
ATOM     51  C   UNL A   1      44.202  25.432  28.867  1.00  0.00     0.049 A 
ATOM     52  C   UNL A   1      44.827  30.541  31.086  1.00  0.00     0.074 A 
ATOM     53  C   UNL A   1      45.331  24.633  28.821  1.00  0.00     0.029 A 
ATOM     54  N   UNL A   1      44.582  26.626  29.461  1.00  0.00    -0.354 N 
ATOM     55  N   UNL A   1      44.837  29.327  30.589  1.00  0.00    -0.248 NA
ATOM     56  C   UNL A   1      46.108  30.963  31.669  1.00  0.00     0.031 C 
ATOM     57  C   UNL A   1      46.381  25.324  29.433  1.00  0.00     0.029 A 
ATOM     58  C   UNL A   1      45.922  26.577  29.807  1.00  0.00     0.049 A 
ATOM     59  H   UNL A   1      43.987  27.396  29.615  1.00  0.00     0.167 HD
ATOM     60  C   UNL A   1      46.133  28.853  30.770  1.00  0.00     0.074 A 
ATOM     61  C   UNL A   1      46.880  29.916  31.411  1.00  0.00     0.031 C 
ATOM     62  C   UNL A   1      46.657  27.648  30.435  1.00  0.00     0.037 A 
BRANCH  49  63
ATOM     63  C   UNL A   1      42.614  23.762  27.827  1.00  0.00     0.058 A 
ATOM     64  C   UNL A   1      42.619  23.535  26.441  1.00  0.00     0.135 A 
ATOM     65  C   UNL A   1      42.409  22.655  28.668  1.00  0.00     0.135 A 
ATOM     66  F   UNL A   1      42.793  24.557  25.588  1.00  0.00    -0.206 F 
ATOM     67  C   UNL A   1      42.404  22.267  25.910  1.00  0.00     0.059 A 
ATOM     68  C   UNL A   1      42.224  21.373  28.159  1.00  0.00     0.059 A 
ATOM     69  F   UNL A   1      42.393  22.814  30.001  1.00  0.00    -0.206 F 
ATOM     70  C   UNL A   1      42.210  21.192  26.777  1.00  0.00     0.060 A 
BRANCH  70  71
ATOM     71  S   UNL A   1      41.949  19.552  26.069  1.00  0.00     0.124 S 
ATOM     72  O   UNL A   1      42.762  19.626  24.858  1.00  0.00    -0.237 OA
ATOM     73  O   UNL A   1      42.456  18.675  27.120  1.00  0.00    -0.237 OA
ATOM     74  O   UNL A   1      40.507  19.500  25.852  1.00  0.00    -0.744 OA
ENDBRANCH  70  71
ENDBRANCH  49  63
BRANCH  50  75
ATOM     75  C   UNL A   1      43.891  32.881  31.739  1.00  0.00     0.058 A 
ATOM     76  C   UNL A   1      44.390  33.952  30.983  1.00  0.00     0.135 A 
ATOM     77  C   UNL A   1      43.587  33.121  33.088  1.00  0.00     0.135 A 
ATOM     78  F   UNL A   1      44.702  33.773  29.691  1.00  0.00    -0.206 F 
ATOM     79  C   UNL A   1      44.605  35.206  31.548  1.00  0.00     0.059 A 
ATOM     80  C   UNL A   1      43.765  34.372  33.668  1.00  0.00     0.059 A 
ATOM     81  F   UNL A   1      43.090  32.135  33.853  1.00  0.00    -0.206 F 
ATOM     82  C   UNL A   1      44.289  35.406  32.891  1.00  0.00     0.060 A 
BRANCH  82  83
ATOM     83  S   UNL A   1      44.542  37.045  33.606  1.00  0.00     0.124 S 
ATOM     84  O   UNL A   1      45.991  37.183  33.516  1.00  0.00    -0.237 OA
ATOM     85  O   UNL A   1      43.762  37.892  32.711  1.00  0.00    -0.237 OA
ATOM     86  O   UNL A   1      44.003  36.909  34.956  1.00  0.00    -0.744 OA
ENDBRANCH  82  83
ENDBRANCH  50  75
BRANCH  62  87
ATOM     87  C   UNL A   1      48.118  27.424  30.713  1.00  0.00     0.058 A 
ATOM     88  C   UNL A   1      48.568  26.873  31.923  1.00  0.00     0.135 A 
ATOM     89  C   UNL A   1      49.080  27.715  29.730  1.00  0.00     0.135 A 
ATOM     90  F   UNL A   1      47.693  26.583  32.899  1.00  0.00    -0.206 F 
ATOM     91  C   UNL A   1      49.919  26.642  32.159  1.00  0.00     0.059 A 
ATOM     92  C   UNL A   1      50.432  27.462  29.931  1.00  0.00     0.059 A 
ATOM     93  F   UNL A   1      48.704  28.233  28.550  1.00  0.00    -0.206 F 
ATOM     94  C   UNL A   1      50.844  26.936  31.155  1.00  0.00     0.060 A 
BRANCH  94  95
ATOM     95  S   UNL A   1      52.590  26.595  31.461  1.00  0.00     0.124 S 
ATOM     96  O   UNL A   1      53.200  27.039  30.212  1.00  0.00    -0.237 OA
ATOM     97  O   UNL A   1      52.868  27.423  32.631  1.00  0.00    -0.237 OA
ATOM     98  O   UNL A   1      52.619  25.156  31.698  1.00  0.00    -0.744 OA
ENDBRANCH  94  95
ENDBRANCH  62  87
ENDBRANCH  36  37
ENDBRANCH  28  31
ENDBRANCH  26  27
ENDBRANCH  25  26
ENDBRANCH  24  25
ENDBRANCH   1  24
TORSDOF 20
ENDMDL
MODEL 3
REMARK VINA RESULT:     -10.3      4.746     10.583
REMARK SMILES CC[C@H](C(=O)NCCCCCCNC(=O)c1ccc(-c2c3nc(c(-c4c(F)cc(S(=O)(=O)[O-])cc4F)c4ccc([nH]4)c(-c4c(F)cc(S(=O)(=O)[O-])cc4F)c4nc(c(-c5c(F)cc(S(=O)(=O)[O-])cc5F)c5ccc2[nH]5)C=C4)C=C3)cc1)[N@H+](C)[C@H]1CC[C@H]([NH3+])CC1
REMARK SMILES IDX 9 1 8 2 7 3 6 4 4 5 5 6 3 8 2 9 1 10 82 11 83 12 84 14 85 15
REMARK SMILES IDX 90 16 86 17 89 18 87 19 88 20 10 24 11 25 12 26 13 27 14 28
REMARK SMILES IDX 15 30 16 31 17 32 81 33 18 34 80 35 19 36 20 37 21 38 74 39
REMARK SMILES IDX 22 40 79 41 73 42 75 43 23 44 78 45 72 46 71 47 24 49 58 50
REMARK SMILES IDX 37 51 57 52 38 53 41 54 56 55 76 56 39 57 40 58 55 60 77 61
REMARK SMILES IDX 42 62 25 63 26 64 35 65 27 66 28 67 34 68 36 69 29 70 30 71
REMARK SMILES IDX 31 72 32 73 33 74 59 75 60 76 69 77 61 78 62 79 68 80 70 81
REMARK SMILES IDX 63 82 64 83 65 84 66 85 67 86 43 87 44 88 53 89 45 90 46 91
REMARK SMILES IDX 52 92 54 93 47 94 48 95 49 96 50 97 51 98
REMARK H PARENT 6 7 82 13 88 21 88 22 88 23 13 29 75 48 41 59
REMARK Flexibility Score: inf
ROOT
ATOM      1  C   UNL A   1      31.193  25.789  26.366  1.00  0.00     0.002 C 
ENDROOT
BRANCH   1   2
ATOM      2  C   UNL A   1      30.702  24.870  25.242  1.00  0.00     0.021 C 
BRANCH   2   3
ATOM      3  C   UNL A   1      30.668  23.390  25.599  1.00  0.00     0.116 C 
BRANCH   3   4
ATOM      4  N   UNL A   1      31.511  23.097  26.741  1.00  0.00    -0.351 N 
ATOM      5  C   UNL A   1      32.666  22.369  26.800  1.00  0.00     0.278 C 
ATOM      6  O   UNL A   1      33.223  22.297  27.898  1.00  0.00    -0.268 OA
ATOM      7  H   UNL A   1      31.207  23.476  27.597  1.00  0.00     0.163 HD
BRANCH   5   8
ATOM      8  C   UNL A   1      33.219  21.713  25.502  1.00  0.00     0.273 C 
BRANCH   8   9
ATOM      9  C   UNL A   1      32.152  20.737  24.928  1.00  0.00     0.072 C 
ATOM     10  C   UNL A   1      32.633  19.326  24.632  1.00  0.00     0.011 C 
ENDBRANCH   8   9
BRANCH   8  11
ATOM     11  N   UNL A   1      33.765  22.777  24.594  1.00  0.00    -0.325 N 
ATOM     12  C   UNL A   1      33.163  22.775  23.266  1.00  0.00     0.333 C 
ATOM     13  H   UNL A   1      33.476  23.667  24.998  1.00  0.00     0.348 HD
BRANCH  11  14
ATOM     14  C   UNL A   1      35.263  22.814  24.586  1.00  0.00     0.184 C 
ATOM     15  C   UNL A   1      35.881  21.393  24.644  1.00  0.00     0.071 C 
ATOM     16  C   UNL A   1      35.895  23.726  25.666  1.00  0.00     0.071 C 
ATOM     17  C   UNL A   1      37.412  21.400  24.652  1.00  0.00     0.071 C 
ATOM     18  C   UNL A   1      37.426  23.690  25.656  1.00  0.00     0.071 C 
ATOM     19  C   UNL A   1      37.944  22.262  25.800  1.00  0.00     0.181 C 
BRANCH  19  20
ATOM     20  N   UNL A   1      39.405  22.261  25.825  1.00  0.00    -0.355 N 
ATOM     21  H   UNL A   1      39.761  22.014  24.902  1.00  0.00     0.344 HD
ATOM     22  H   UNL A   1      39.732  21.578  26.509  1.00  0.00     0.344 HD
ATOM     23  H   UNL A   1      39.741  23.189  26.084  1.00  0.00     0.344 HD
ENDBRANCH  19  20
ENDBRANCH  11  14
ENDBRANCH   8  11
ENDBRANCH   5   8
ENDBRANCH   3   4
ENDBRANCH   2   3
ENDBRANCH   1   2
BRANCH   1  24
ATOM     24  C   UNL A   1      32.228  26.839  25.949  1.00  0.00     0.002 C 
BRANCH  24  25
ATOM     25  C   UNL A   1      32.916  27.572  27.103  1.00  0.00     0.021 C 
BRANCH  25  26
ATOM     26  C   UNL A   1      34.034  28.522  26.686  1.00  0.00     0.116 C 
BRANCH  26  27
ATOM     27  N   UNL A   1      33.868  29.853  27.244  1.00  0.00    -0.352 N 
ATOM     28  C   UNL A   1      34.721  30.567  28.049  1.00  0.00     0.251 C 
ATOM     29  H   UNL A   1      33.025  30.307  27.014  1.00  0.00     0.163 HD
ATOM     30  O   UNL A   1      34.343  31.615  28.568  1.00  0.00    -0.269 OA
BRANCH  28  31
ATOM     31  C   UNL A   1      36.085  30.057  28.307  1.00  0.00     0.039 A 
ATOM     32  C   UNL A   1      37.036  30.123  27.287  1.00  0.00     0.014 A 
ATOM     33  C   UNL A   1      36.428  29.525  29.553  1.00  0.00     0.014 A 
ATOM     34  C   UNL A   1      38.347  29.712  27.536  1.00  0.00     0.010 A 
ATOM     35  C   UNL A   1      37.751  29.188  29.823  1.00  0.00     0.010 A 
ATOM     36  C   UNL A   1      38.725  29.276  28.817  1.00  0.00    -0.014 A 
BRANCH  36  37
ATOM     37  C   UNL A   1      40.134  28.911  29.121  1.00  0.00     0.031 A 
ATOM     38  C   UNL A   1      41.052  29.910  29.773  1.00  0.00     0.074 A 
ATOM     39  C   UNL A   1      40.601  27.699  28.758  1.00  0.00     0.049 A 
ATOM     40  N   UNL A   1      42.324  29.801  30.056  1.00  0.00    -0.248 NA
ATOM     41  C   UNL A   1      40.469  31.214  30.131  1.00  0.00     0.031 C 
ATOM     42  C   UNL A   1      39.821  26.659  28.083  1.00  0.00     0.029 A 
ATOM     43  N   UNL A   1      41.845  27.138  28.899  1.00  0.00    -0.354 N 
ATOM     44  C   UNL A   1      42.694  31.018  30.618  1.00  0.00     0.074 A 
ATOM     45  C   UNL A   1      41.528  31.872  30.581  1.00  0.00     0.031 C 
ATOM     46  C   UNL A   1      40.598  25.581  27.890  1.00  0.00     0.029 A 
ATOM     47  C   UNL A   1      41.940  25.865  28.388  1.00  0.00     0.049 A 
ATOM     48  H   UNL A   1      42.601  27.603  29.327  1.00  0.00     0.167 HD
ATOM     49  C   UNL A   1      43.891  31.379  31.141  1.00  0.00     0.037 A 
ATOM     50  C   UNL A   1      42.991  25.024  28.316  1.00  0.00     0.037 A 
ATOM     51  C   UNL A   1      45.042  30.516  31.190  1.00  0.00     0.049 A 
ATOM     52  C   UNL A   1      44.316  25.460  28.883  1.00  0.00     0.074 A 
ATOM     53  C   UNL A   1      46.287  30.774  31.740  1.00  0.00     0.029 A 
ATOM     54  N   UNL A   1      45.095  29.231  30.670  1.00  0.00    -0.354 N 
ATOM     55  N   UNL A   1      44.631  26.593  29.464  1.00  0.00    -0.248 NA
ATOM     56  C   UNL A   1      45.426  24.502  28.791  1.00  0.00     0.031 C 
ATOM     57  C   UNL A   1      47.107  29.667  31.507  1.00  0.00     0.029 A 
ATOM     58  C   UNL A   1      46.357  28.693  30.865  1.00  0.00     0.049 A 
ATOM     59  H   UNL A   1      44.347  28.770  30.227  1.00  0.00     0.167 HD
ATOM     60  C   UNL A   1      45.968  26.471  29.836  1.00  0.00     0.074 A 
ATOM     61  C   UNL A   1      46.395  25.150  29.425  1.00  0.00     0.031 C 
ATOM     62  C   UNL A   1      46.766  27.371  30.462  1.00  0.00     0.037 A 
BRANCH  49  63
ATOM     63  C   UNL A   1      44.015  32.768  31.708  1.00  0.00     0.058 A 
ATOM     64  C   UNL A   1      43.737  33.040  33.058  1.00  0.00     0.135 A 
ATOM     65  C   UNL A   1      44.468  33.831  30.909  1.00  0.00     0.135 A 
ATOM     66  F   UNL A   1      43.286  32.067  33.865  1.00  0.00    -0.206 F 
ATOM     67  C   UNL A   1      43.876  34.319  33.586  1.00  0.00     0.059 A 
ATOM     68  C   UNL A   1      44.644  35.111  31.424  1.00  0.00     0.059 A 
ATOM     69  F   UNL A   1      44.748  33.629  29.611  1.00  0.00    -0.206 F 
ATOM     70  C   UNL A   1      44.333  35.348  32.763  1.00  0.00     0.060 A 
BRANCH  70  71
ATOM     71  S   UNL A   1      44.523  36.997  33.472  1.00  0.00     0.124 S 
ATOM     72  O   UNL A   1      45.917  37.292  33.151  1.00  0.00    -0.237 OA
ATOM     73  O   UNL A   1      43.527  37.769  32.735  1.00  0.00    -0.237 OA
ATOM     74  O   UNL A   1      44.236  36.795  34.889  1.00  0.00    -0.744 OA
ENDBRANCH  70  71
ENDBRANCH  49  63
BRANCH  50  75
ATOM     75  C   UNL A   1      42.834  23.679  27.697  1.00  0.00     0.058 A 
ATOM     76  C   UNL A   1      42.505  22.559  28.474  1.00  0.00     0.135 A 
ATOM     77  C   UNL A   1      43.014  23.486  26.318  1.00  0.00     0.135 A 
ATOM     78  F   UNL A   1      42.329  22.690  29.797  1.00  0.00    -0.206 F 
ATOM     79  C   UNL A   1      42.386  21.291  27.913  1.00  0.00     0.059 A 
ATOM     80  C   UNL A   1      42.870  22.234  25.729  1.00  0.00     0.059 A 
ATOM     81  F   UNL A   1      43.312  24.527  25.524  1.00  0.00    -0.206 F 
ATOM     82  C   UNL A   1      42.570  21.139  26.539  1.00  0.00     0.060 A 
BRANCH  82  83
ATOM     83  S   UNL A   1      42.381  19.495  25.816  1.00  0.00     0.124 S 
ATOM     84  O   UNL A   1      42.707  18.638  26.950  1.00  0.00    -0.237 OA
ATOM     85  O   UNL A   1      40.983  19.502  25.401  1.00  0.00    -0.237 OA
ATOM     86  O   UNL A   1      43.351  19.495  24.725  1.00  0.00    -0.744 OA
ENDBRANCH  82  83
ENDBRANCH  50  75
BRANCH  62  87
ATOM     87  C   UNL A   1      48.173  26.946  30.782  1.00  0.00     0.058 A 
ATOM     88  C   UNL A   1      49.251  27.242  29.932  1.00  0.00     0.135 A 
ATOM     89  C   UNL A   1      48.455  26.280  31.987  1.00  0.00     0.135 A 
ATOM     90  F   UNL A   1      49.037  27.871  28.765  1.00  0.00    -0.206 F 
ATOM     91  C   UNL A   1      50.552  26.871  30.253  1.00  0.00     0.059 A 
ATOM     92  C   UNL A   1      49.752  25.928  32.343  1.00  0.00     0.059 A 
ATOM     93  F   UNL A   1      47.464  25.981  32.843  1.00  0.00    -0.206 F 
ATOM     94  C   UNL A   1      50.794  26.217  31.463  1.00  0.00     0.060 A 
BRANCH  94  95
ATOM     95  S   UNL A   1      52.493  25.776  31.882  1.00  0.00     0.124 S 
ATOM     96  O   UNL A   1      52.341  24.387  32.302  1.00  0.00    -0.237 OA
ATOM     97  O   UNL A   1      53.190  25.983  30.617  1.00  0.00    -0.237 OA
ATOM     98  O   UNL A   1      52.838  26.718  32.942  1.00  0.00    -0.744 OA
ENDBRANCH  94  95
ENDBRANCH  62  87
ENDBRANCH  36  37
ENDBRANCH  28  31
ENDBRANCH  26  27
ENDBRANCH  25  26
ENDBRANCH  24  25
ENDBRANCH   1  24
TORSDOF 20
ENDMDL
