MODEL 1
REMARK VINA RESULT:     -11.8      0.000      0.000
REMARK SMILES CC[NH+]1CCN(c2ccc(NC(=O)C3CCCC3)c(C(=O)NCCCCCCNC(=O)c3ccc(-c4c5nc(c(-c6c(F)cc(S(=O)(=O)[O-])cc6F)c6ccc([nH]6)c(-c6c(F)cc(S(=O)(=O)[O-])cc6F)c6nc(c(-c7c(F)cc(S(=O)(=O)[O-])cc7F)c7ccc4[nH]7)C=C6)C=C5)cc3)c2)CC1
REMARK SMILES IDX 26 1 25 2 24 3 23 4 22 5 20 6 21 7 19 9 7 10 8 11 98 12 9 13
REMARK SMILES IDX 10 14 6 15 3 16 4 17 100 18 5 20 99 21 2 22 1 23 11 24 12 25
REMARK SMILES IDX 13 27 14 28 15 29 18 30 16 31 17 32 27 33 28 34 29 35 30 36
REMARK SMILES IDX 31 38 32 39 33 40 97 41 34 42 96 43 35 44 36 45 37 46 90 47
REMARK SMILES IDX 38 48 95 49 89 50 91 51 39 52 94 53 88 54 87 55 40 57 74 58
REMARK SMILES IDX 53 59 73 60 54 61 57 62 72 63 92 64 55 65 56 66 71 68 93 69
REMARK SMILES IDX 58 70 41 71 42 72 51 73 43 74 44 75 50 76 52 77 45 78 46 79
REMARK SMILES IDX 47 80 48 81 49 82 75 83 76 84 85 85 77 86 78 87 84 88 86 89
REMARK SMILES IDX 79 90 80 91 81 92 82 93 83 94 59 95 60 96 69 97 61 98 62 99
REMARK SMILES IDX 68 100 70 101 63 102 64 103 65 104 66 105 67 106
REMARK H PARENT 22 8 3 19 11 26 29 37 91 56 57 67
REMARK Flexibility Score: inf
ROOT
ATOM      1  C   UNL A   1      40.452  22.077  27.576  1.00  0.00     0.002 C 
ENDROOT
BRANCH   1   2
ATOM      2  C   UNL A   1      39.385  22.323  26.507  1.00  0.00     0.002 C 
BRANCH   2   3
ATOM      3  C   UNL A   1      38.607  23.631  26.611  1.00  0.00     0.021 C 
BRANCH   3   4
ATOM      4  C   UNL A   1      37.291  23.712  25.847  1.00  0.00     0.116 C 
BRANCH   4   5
ATOM      5  N   UNL A   1      37.379  23.522  24.404  1.00  0.00    -0.352 N 
ATOM      6  C   UNL A   1      36.399  23.181  23.483  1.00  0.00     0.253 C 
ATOM      7  O   UNL A   1      36.705  23.072  22.296  1.00  0.00    -0.269 OA
ATOM      8  H   UNL A   1      38.277  23.656  24.022  1.00  0.00     0.163 HD
BRANCH   6   9
ATOM      9  C   UNL A   1      35.015  22.828  23.920  1.00  0.00     0.065 A 
ATOM     10  C   UNL A   1      33.510  20.977  24.400  1.00  0.00     0.038 A 
ATOM     11  C   UNL A   1      32.465  21.788  23.973  1.00  0.00     0.028 A 
ATOM     12  C   UNL A   1      34.772  21.562  24.480  1.00  0.00     0.042 A 
ATOM     13  C   UNL A   1      32.680  23.102  23.585  1.00  0.00     0.029 A 
ATOM     14  C   UNL A   1      33.933  23.680  23.626  1.00  0.00     0.054 A 
BRANCH  10  15
ATOM     15  N   UNL A   1      33.321  19.621  24.527  1.00  0.00    -0.360 N 
ATOM     16  N   UNL A   1      33.310  16.746  23.981  1.00  0.00    -0.332 N 
ATOM     17  C   UNL A   1      32.579  17.693  23.135  1.00  0.00     0.283 C 
ATOM     18  C   UNL A   1      34.483  17.428  24.570  1.00  0.00     0.283 C 
ATOM     19  H   UNL A   1      33.611  15.998  23.357  1.00  0.00     0.348 HD
ATOM     20  C   UNL A   1      32.181  19.012  23.819  1.00  0.00     0.178 C 
ATOM     21  C   UNL A   1      34.157  18.730  25.339  1.00  0.00     0.178 C 
BRANCH  16  22
ATOM     22  C   UNL A   1      32.529  15.986  24.966  1.00  0.00     0.258 C 
ATOM     23  C   UNL A   1      32.992  14.596  25.403  1.00  0.00     0.071 C 
ENDBRANCH  16  22
ENDBRANCH  10  15
BRANCH  14  24
ATOM     24  N   UNL A   1      34.116  25.052  23.363  1.00  0.00    -0.325 N 
ATOM     25  C   UNL A   1      33.852  26.197  24.058  1.00  0.00     0.227 C 
ATOM     26  H   UNL A   1      34.523  25.224  22.484  1.00  0.00     0.169 HD
ATOM     27  O   UNL A   1      34.079  27.264  23.466  1.00  0.00    -0.274 OA
BRANCH  25  28
ATOM     28  C   UNL A   1      33.319  26.296  25.501  1.00  0.00     0.079 C 
ATOM     29  C   UNL A   1      33.672  27.596  26.218  1.00  0.00     0.013 C 
ATOM     30  C   UNL A   1      31.845  25.991  25.760  1.00  0.00     0.013 C 
ATOM     31  C   UNL A   1      32.471  27.983  27.075  1.00  0.00     0.001 C 
ATOM     32  C   UNL A   1      31.319  27.052  26.722  1.00  0.00     0.001 C 
ENDBRANCH  25  28
ENDBRANCH  14  24
ENDBRANCH   6   9
ENDBRANCH   4   5
ENDBRANCH   3   4
ENDBRANCH   2   3
ENDBRANCH   1   2
BRANCH   1  33
ATOM     33  C   UNL A   1      41.898  21.959  27.088  1.00  0.00     0.021 C 
BRANCH  33  34
ATOM     34  C   UNL A   1      42.723  23.242  27.128  1.00  0.00     0.116 C 
BRANCH  34  35
ATOM     35  N   UNL A   1      42.508  24.082  25.963  1.00  0.00    -0.352 N 
ATOM     36  C   UNL A   1      42.070  25.384  25.887  1.00  0.00     0.251 C 
ATOM     37  H   UNL A   1      42.707  23.657  25.097  1.00  0.00     0.163 HD
ATOM     38  O   UNL A   1      41.796  25.870  24.796  1.00  0.00    -0.269 OA
BRANCH  36  39
ATOM     39  C   UNL A   1      41.906  26.188  27.120  1.00  0.00     0.039 A 
ATOM     40  C   UNL A   1      42.800  27.233  27.366  1.00  0.00     0.014 A 
ATOM     41  C   UNL A   1      40.888  25.908  28.036  1.00  0.00     0.014 A 
ATOM     42  C   UNL A   1      42.633  28.037  28.496  1.00  0.00     0.010 A 
ATOM     43  C   UNL A   1      40.680  26.755  29.123  1.00  0.00     0.010 A 
ATOM     44  C   UNL A   1      41.551  27.827  29.366  1.00  0.00    -0.014 A 
BRANCH  44  45
ATOM     45  C   UNL A   1      41.315  28.726  30.527  1.00  0.00     0.031 A 
ATOM     46  C   UNL A   1      42.152  28.598  31.771  1.00  0.00     0.074 A 
ATOM     47  C   UNL A   1      40.306  29.620  30.481  1.00  0.00     0.049 A 
ATOM     48  N   UNL A   1      42.061  29.254  32.900  1.00  0.00    -0.248 NA
ATOM     49  C   UNL A   1      43.218  27.583  31.754  1.00  0.00     0.031 C 
ATOM     50  C   UNL A   1      39.394  29.808  29.350  1.00  0.00     0.029 A 
ATOM     51  N   UNL A   1      39.873  30.534  31.410  1.00  0.00    -0.354 N 
ATOM     52  C   UNL A   1      43.046  28.728  33.727  1.00  0.00     0.074 A 
ATOM     53  C   UNL A   1      43.687  27.661  32.991  1.00  0.00     0.031 C 
ATOM     54  C   UNL A   1      38.526  30.789  29.642  1.00  0.00     0.029 A 
ATOM     55  C   UNL A   1      38.790  31.274  30.993  1.00  0.00     0.049 A 
ATOM     56  H   UNL A   1      40.296  30.649  32.291  1.00  0.00     0.167 HD
ATOM     57  C   UNL A   1      43.399  29.115  34.976  1.00  0.00     0.037 A 
ATOM     58  C   UNL A   1      38.082  32.227  31.630  1.00  0.00     0.037 A 
ATOM     59  C   UNL A   1      42.767  30.192  35.696  1.00  0.00     0.049 A 
ATOM     60  C   UNL A   1      38.485  32.629  33.025  1.00  0.00     0.074 A 
ATOM     61  C   UNL A   1      43.091  30.698  36.942  1.00  0.00     0.029 A 
ATOM     62  N   UNL A   1      41.680  30.921  35.237  1.00  0.00    -0.354 N 
ATOM     63  N   UNL A   1      39.465  32.168  33.764  1.00  0.00    -0.248 NA
ATOM     64  C   UNL A   1      37.688  33.683  33.668  1.00  0.00     0.031 C 
ATOM     65  C   UNL A   1      42.166  31.698  37.261  1.00  0.00     0.029 A 
ATOM     66  C   UNL A   1      41.301  31.856  36.189  1.00  0.00     0.049 A 
ATOM     67  H   UNL A   1      41.242  30.795  34.365  1.00  0.00     0.167 HD
ATOM     68  C   UNL A   1      39.418  32.892  34.951  1.00  0.00     0.074 A 
ATOM     69  C   UNL A   1      38.324  33.833  34.823  1.00  0.00     0.031 C 
ATOM     70  C   UNL A   1      40.210  32.787  36.048  1.00  0.00     0.037 A 
BRANCH  57  71
ATOM     71  C   UNL A   1      44.522  28.371  35.648  1.00  0.00     0.058 A 
ATOM     72  C   UNL A   1      45.864  28.756  35.491  1.00  0.00     0.135 A 
ATOM     73  C   UNL A   1      44.253  27.282  36.495  1.00  0.00     0.135 A 
ATOM     74  F   UNL A   1      46.182  29.782  34.683  1.00  0.00    -0.206 F 
ATOM     75  C   UNL A   1      46.898  28.073  36.120  1.00  0.00     0.059 A 
ATOM     76  C   UNL A   1      45.270  26.602  37.159  1.00  0.00     0.059 A 
ATOM     77  F   UNL A   1      42.990  26.869  36.683  1.00  0.00    -0.206 F 
ATOM     78  C   UNL A   1      46.590  26.996  36.954  1.00  0.00     0.060 A 
BRANCH  78  79
ATOM     79  S   UNL A   1      47.946  26.125  37.768  1.00  0.00     0.124 S 
ATOM     80  O   UNL A   1      48.872  27.218  38.042  1.00  0.00    -0.237 OA
ATOM     81  O   UNL A   1      47.288  25.544  38.933  1.00  0.00    -0.237 OA
ATOM     82  O   UNL A   1      48.389  25.167  36.759  1.00  0.00    -0.744 OA
ENDBRANCH  78  79
ENDBRANCH  57  71
BRANCH  58  83
ATOM     83  C   UNL A   1      36.928  32.876  30.951  1.00  0.00     0.058 A 
ATOM     84  C   UNL A   1      35.608  32.531  31.278  1.00  0.00     0.135 A 
ATOM     85  C   UNL A   1      37.120  33.861  29.969  1.00  0.00     0.135 A 
ATOM     86  F   UNL A   1      35.371  31.589  32.204  1.00  0.00    -0.206 F 
ATOM     87  C   UNL A   1      34.520  33.124  30.646  1.00  0.00     0.059 A 
ATOM     88  C   UNL A   1      36.049  34.489  29.343  1.00  0.00     0.059 A 
ATOM     89  F   UNL A   1      38.362  34.240  29.630  1.00  0.00    -0.206 F 
ATOM     90  C   UNL A   1      34.751  34.106  29.681  1.00  0.00     0.060 A 
BRANCH  90  91
ATOM     91  S   UNL A   1      33.332  34.904  28.900  1.00  0.00     0.124 S 
ATOM     92  O   UNL A   1      33.950  36.082  28.302  1.00  0.00    -0.237 OA
ATOM     93  O   UNL A   1      32.877  33.876  27.969  1.00  0.00    -0.237 OA
ATOM     94  O   UNL A   1      32.434  35.164  30.023  1.00  0.00    -0.744 OA
ENDBRANCH  90  91
ENDBRANCH  58  83
BRANCH  70  95
ATOM     95  C   UNL A   1      39.942  33.730  37.190  1.00  0.00     0.058 A 
ATOM     96  C   UNL A   1      40.532  35.002  37.252  1.00  0.00     0.135 A 
ATOM     97  C   UNL A   1      39.040  33.376  38.206  1.00  0.00     0.135 A 
ATOM     98  F   UNL A   1      41.408  35.387  36.311  1.00  0.00    -0.206 F 
ATOM     99  C   UNL A   1      40.255  35.881  38.294  1.00  0.00     0.059 A 
ATOM    100  C   UNL A   1      38.724  34.251  39.241  1.00  0.00     0.059 A 
ATOM    101  F   UNL A   1      38.439  32.176  38.190  1.00  0.00    -0.206 F 
ATOM    102  C   UNL A   1      39.346  35.498  39.282  1.00  0.00     0.060 A 
BRANCH 102 103
ATOM    103  S   UNL A   1      38.967  36.664  40.607  1.00  0.00     0.124 S 
ATOM    104  O   UNL A   1      40.260  36.784  41.272  1.00  0.00    -0.237 OA
ATOM    105  O   UNL A   1      38.524  37.842  39.866  1.00  0.00    -0.237 OA
ATOM    106  O   UNL A   1      37.927  35.984  41.372  1.00  0.00    -0.744 OA
ENDBRANCH 102 103
ENDBRANCH  70  95
ENDBRANCH  44  45
ENDBRANCH  36  39
ENDBRANCH  34  35
ENDBRANCH  33  34
ENDBRANCH   1  33
TORSDOF 20
ENDMDL
MODEL 2
REMARK VINA RESULT:     -11.7      1.516      2.623
REMARK SMILES CC[NH+]1CCN(c2ccc(NC(=O)C3CCCC3)c(C(=O)NCCCCCCNC(=O)c3ccc(-c4c5nc(c(-c6c(F)cc(S(=O)(=O)[O-])cc6F)c6ccc([nH]6)c(-c6c(F)cc(S(=O)(=O)[O-])cc6F)c6nc(c(-c7c(F)cc(S(=O)(=O)[O-])cc7F)c7ccc4[nH]7)C=C6)C=C5)cc3)c2)CC1
REMARK SMILES IDX 26 1 25 2 24 3 23 4 22 5 20 6 21 7 19 9 7 10 8 11 98 12 9 13
REMARK SMILES IDX 10 14 6 15 3 16 4 17 100 18 5 20 99 21 2 22 1 23 11 24 12 25
REMARK SMILES IDX 13 27 14 28 15 29 18 30 16 31 17 32 27 33 28 34 29 35 30 36
REMARK SMILES IDX 31 38 32 39 33 40 97 41 34 42 96 43 35 44 36 45 37 46 90 47
REMARK SMILES IDX 38 48 95 49 89 50 91 51 39 52 94 53 88 54 87 55 40 57 74 58
REMARK SMILES IDX 53 59 73 60 54 61 57 62 72 63 92 64 55 65 56 66 71 68 93 69
REMARK SMILES IDX 58 70 41 71 42 72 51 73 43 74 44 75 50 76 52 77 45 78 46 79
REMARK SMILES IDX 47 80 48 81 49 82 75 83 76 84 85 85 77 86 78 87 84 88 86 89
REMARK SMILES IDX 79 90 80 91 81 92 82 93 83 94 59 95 60 96 69 97 61 98 62 99
REMARK SMILES IDX 68 100 70 101 63 102 64 103 65 104 66 105 67 106
REMARK H PARENT 22 8 3 19 11 26 29 37 91 56 57 67
REMARK Flexibility Score: inf
ROOT
ATOM      1  C   UNL A   1      36.363  23.683  25.003  1.00  0.00     0.002 C 
ENDROOT
BRANCH   1   2
ATOM      2  C   UNL A   1      34.966  23.100  25.228  1.00  0.00     0.002 C 
BRANCH   2   3
ATOM      3  C   UNL A   1      34.245  23.532  26.501  1.00  0.00     0.021 C 
BRANCH   3   4
ATOM      4  C   UNL A   1      33.361  24.769  26.405  1.00  0.00     0.116 C 
BRANCH   4   5
ATOM      5  N   UNL A   1      32.024  24.642  26.974  1.00  0.00    -0.352 N 
ATOM      6  C   UNL A   1      30.931  23.906  26.541  1.00  0.00     0.253 C 
ATOM      7  O   UNL A   1      29.885  23.949  27.187  1.00  0.00    -0.269 OA
ATOM      8  H   UNL A   1      31.873  25.161  27.797  1.00  0.00     0.163 HD
BRANCH   6   9
ATOM      9  C   UNL A   1      30.963  23.161  25.246  1.00  0.00     0.065 A 
ATOM     10  C   UNL A   1      31.844  21.188  24.126  1.00  0.00     0.038 A 
ATOM     11  C   UNL A   1      31.851  21.927  22.949  1.00  0.00     0.028 A 
ATOM     12  C   UNL A   1      31.278  21.790  25.248  1.00  0.00     0.042 A 
ATOM     13  C   UNL A   1      31.373  23.228  22.908  1.00  0.00     0.029 A 
ATOM     14  C   UNL A   1      30.844  23.847  24.023  1.00  0.00     0.054 A 
BRANCH  10  15
ATOM     15  N   UNL A   1      32.553  20.012  24.205  1.00  0.00    -0.360 N 
ATOM     16  N   UNL A   1      33.266  17.215  24.692  1.00  0.00    -0.332 N 
ATOM     17  C   UNL A   1      32.851  18.105  25.781  1.00  0.00     0.283 C 
ATOM     18  C   UNL A   1      32.619  17.652  23.436  1.00  0.00     0.283 C 
ATOM     19  H   UNL A   1      32.936  16.288  24.957  1.00  0.00     0.348 HD
ATOM     20  C   UNL A   1      33.073  19.605  25.523  1.00  0.00     0.178 C 
ATOM     21  C   UNL A   1      32.855  19.136  23.067  1.00  0.00     0.178 C 
BRANCH  16  22
ATOM     22  C   UNL A   1      34.706  16.964  24.544  1.00  0.00     0.258 C 
ATOM     23  C   UNL A   1      35.358  15.792  25.275  1.00  0.00     0.071 C 
ENDBRANCH  16  22
ENDBRANCH  10  15
BRANCH  14  24
ATOM     24  N   UNL A   1      30.236  25.115  23.936  1.00  0.00    -0.325 N 
ATOM     25  C   UNL A   1      30.707  26.395  23.890  1.00  0.00     0.227 C 
ATOM     26  H   UNL A   1      29.253  25.067  23.902  1.00  0.00     0.169 HD
ATOM     27  O   UNL A   1      29.853  27.296  23.896  1.00  0.00    -0.274 OA
BRANCH  25  28
ATOM     28  C   UNL A   1      32.184  26.830  23.815  1.00  0.00     0.079 C 
ATOM     29  C   UNL A   1      32.840  26.610  22.455  1.00  0.00     0.013 C 
ATOM     30  C   UNL A   1      32.563  28.225  24.310  1.00  0.00     0.013 C 
ATOM     31  C   UNL A   1      33.777  27.787  22.206  1.00  0.00     0.001 C 
ATOM     32  C   UNL A   1      33.536  28.822  23.297  1.00  0.00     0.001 C 
ENDBRANCH  25  28
ENDBRANCH  14  24
ENDBRANCH   6   9
ENDBRANCH   4   5
ENDBRANCH   3   4
ENDBRANCH   2   3
ENDBRANCH   1   2
BRANCH   1  33
ATOM     33  C   UNL A   1      37.458  23.234  25.973  1.00  0.00     0.021 C 
BRANCH  33  34
ATOM     34  C   UNL A   1      38.356  24.337  26.524  1.00  0.00     0.116 C 
BRANCH  34  35
ATOM     35  N   UNL A   1      39.726  24.232  26.053  1.00  0.00    -0.352 N 
ATOM     36  C   UNL A   1      40.847  24.923  26.449  1.00  0.00     0.251 C 
ATOM     37  H   UNL A   1      39.875  23.563  25.345  1.00  0.00     0.163 HD
ATOM     38  O   UNL A   1      41.889  24.805  25.814  1.00  0.00    -0.269 OA
BRANCH  36  39
ATOM     39  C   UNL A   1      40.791  25.826  27.621  1.00  0.00     0.039 A 
ATOM     40  C   UNL A   1      41.806  26.769  27.792  1.00  0.00     0.014 A 
ATOM     41  C   UNL A   1      39.753  25.738  28.553  1.00  0.00     0.014 A 
ATOM     42  C   UNL A   1      41.747  27.666  28.862  1.00  0.00     0.010 A 
ATOM     43  C   UNL A   1      39.657  26.679  29.576  1.00  0.00     0.010 A 
ATOM     44  C   UNL A   1      40.654  27.652  29.744  1.00  0.00    -0.014 A 
BRANCH  44  45
ATOM     45  C   UNL A   1      40.537  28.653  30.837  1.00  0.00     0.031 A 
ATOM     46  C   UNL A   1      41.406  28.547  32.061  1.00  0.00     0.074 A 
ATOM     47  C   UNL A   1      39.607  29.625  30.752  1.00  0.00     0.049 A 
ATOM     48  N   UNL A   1      41.412  29.292  33.137  1.00  0.00    -0.248 NA
ATOM     49  C   UNL A   1      42.381  27.445  32.091  1.00  0.00     0.031 C 
ATOM     50  C   UNL A   1      38.672  29.805  29.638  1.00  0.00     0.029 A 
ATOM     51  N   UNL A   1      39.286  30.640  31.618  1.00  0.00    -0.354 N 
ATOM     52  C   UNL A   1      42.380  28.747  33.973  1.00  0.00     0.074 A 
ATOM     53  C   UNL A   1      42.901  27.575  33.303  1.00  0.00     0.031 C 
ATOM     54  C   UNL A   1      37.901  30.877  29.878  1.00  0.00     0.029 A 
ATOM     55  C   UNL A   1      38.255  31.438  31.178  1.00  0.00     0.049 A 
ATOM     56  H   UNL A   1      39.750  30.785  32.474  1.00  0.00     0.167 HD
ATOM     57  C   UNL A   1      42.810  29.195  35.176  1.00  0.00     0.037 A 
ATOM     58  C   UNL A   1      37.654  32.494  31.760  1.00  0.00     0.037 A 
ATOM     59  C   UNL A   1      42.298  30.374  35.828  1.00  0.00     0.049 A 
ATOM     60  C   UNL A   1      38.139  32.964  33.105  1.00  0.00     0.074 A 
ATOM     61  C   UNL A   1      42.708  30.943  37.020  1.00  0.00     0.029 A 
ATOM     62  N   UNL A   1      41.260  31.158  35.347  1.00  0.00    -0.354 N 
ATOM     63  N   UNL A   1      39.104  32.477  33.849  1.00  0.00    -0.248 NA
ATOM     64  C   UNL A   1      37.458  34.129  33.688  1.00  0.00     0.031 C 
ATOM     65  C   UNL A   1      41.883  32.041  37.288  1.00  0.00     0.029 A 
ATOM     66  C   UNL A   1      40.996  32.191  36.234  1.00  0.00     0.049 A 
ATOM     67  H   UNL A   1      40.781  31.004  34.501  1.00  0.00     0.167 HD
ATOM     68  C   UNL A   1      39.162  33.290  34.976  1.00  0.00     0.074 A 
ATOM     69  C   UNL A   1      38.147  34.310  34.808  1.00  0.00     0.031 C 
ATOM     70  C   UNL A   1      39.982  33.200  36.053  1.00  0.00     0.037 A 
BRANCH  57  71
ATOM     71  C   UNL A   1      43.891  28.409  35.870  1.00  0.00     0.058 A 
ATOM     72  C   UNL A   1      43.591  27.346  36.738  1.00  0.00     0.135 A 
ATOM     73  C   UNL A   1      45.246  28.694  35.635  1.00  0.00     0.135 A 
ATOM     74  F   UNL A   1      42.311  27.036  37.011  1.00  0.00    -0.206 F 
ATOM     75  C   UNL A   1      44.591  26.615  37.370  1.00  0.00     0.059 A 
ATOM     76  C   UNL A   1      46.264  27.956  36.233  1.00  0.00     0.059 A 
ATOM     77  F   UNL A   1      45.592  29.699  34.815  1.00  0.00    -0.206 F 
ATOM     78  C   UNL A   1      45.926  26.928  37.110  1.00  0.00     0.060 A 
BRANCH  78  79
ATOM     79  S   UNL A   1      47.211  25.965  37.935  1.00  0.00     0.124 S 
ATOM     80  O   UNL A   1      48.148  25.733  36.841  1.00  0.00    -0.237 OA
ATOM     81  O   UNL A   1      47.666  26.881  38.976  1.00  0.00    -0.237 OA
ATOM     82  O   UNL A   1      46.498  24.784  38.411  1.00  0.00    -0.744 OA
ENDBRANCH  78  79
ENDBRANCH  57  71
BRANCH  58  83
ATOM     83  C   UNL A   1      36.534  33.188  31.066  1.00  0.00     0.058 A 
ATOM     84  C   UNL A   1      35.215  33.077  31.533  1.00  0.00     0.135 A 
ATOM     85  C   UNL A   1      36.760  33.982  29.931  1.00  0.00     0.135 A 
ATOM     86  F   UNL A   1      34.945  32.322  32.609  1.00  0.00    -0.206 F 
ATOM     87  C   UNL A   1      34.158  33.714  30.891  1.00  0.00     0.059 A 
ATOM     88  C   UNL A   1      35.724  34.652  29.289  1.00  0.00     0.059 A 
ATOM     89  F   UNL A   1      38.004  34.136  29.454  1.00  0.00    -0.206 F 
ATOM     90  C   UNL A   1      34.423  34.503  29.770  1.00  0.00     0.060 A 
BRANCH  90  91
ATOM     91  S   UNL A   1      33.051  35.364  28.972  1.00  0.00     0.124 S 
ATOM     92  O   UNL A   1      32.616  34.376  27.991  1.00  0.00    -0.237 OA
ATOM     93  O   UNL A   1      32.145  35.598  30.091  1.00  0.00    -0.237 OA
ATOM     94  O   UNL A   1      33.681  36.562  28.424  1.00  0.00    -0.744 OA
ENDBRANCH  90  91
ENDBRANCH  58  83
BRANCH  70  95
ATOM     95  C   UNL A   1      39.837  34.246  37.125  1.00  0.00     0.058 A 
ATOM     96  C   UNL A   1      39.069  34.019  38.278  1.00  0.00     0.135 A 
ATOM     97  C   UNL A   1      40.519  35.469  37.023  1.00  0.00     0.135 A 
ATOM     98  F   UNL A   1      38.390  32.870  38.423  1.00  0.00    -0.206 F 
ATOM     99  C   UNL A   1      38.965  34.977  39.281  1.00  0.00     0.059 A 
ATOM    100  C   UNL A   1      40.454  36.430  38.028  1.00  0.00     0.059 A 
ATOM    101  F   UNL A   1      41.275  35.734  35.945  1.00  0.00    -0.206 F 
ATOM    102  C   UNL A   1      39.664  36.178  39.148  1.00  0.00     0.060 A 
BRANCH 102 103
ATOM    103  S   UNL A   1      39.549  37.397  40.476  1.00  0.00     0.124 S 
ATOM    104  O   UNL A   1      40.956  37.656  40.760  1.00  0.00    -0.237 OA
ATOM    105  O   UNL A   1      38.821  38.488  39.834  1.00  0.00    -0.237 OA
ATOM    106  O   UNL A   1      38.816  36.691  41.523  1.00  0.00    -0.744 OA
ENDBRANCH 102 103
ENDBRANCH  70  95
ENDBRANCH  44  45
ENDBRANCH  36  39
ENDBRANCH  34  35
ENDBRANCH  33  34
ENDBRANCH   1  33
TORSDOF 20
ENDMDL
MODEL 3
REMARK VINA RESULT:     -11.5      6.444     12.087
REMARK SMILES CC[NH+]1CCN(c2ccc(NC(=O)C3CCCC3)c(C(=O)NCCCCCCNC(=O)c3ccc(-c4c5nc(c(-c6c(F)cc(S(=O)(=O)[O-])cc6F)c6ccc([nH]6)c(-c6c(F)cc(S(=O)(=O)[O-])cc6F)c6nc(c(-c7c(F)cc(S(=O)(=O)[O-])cc7F)c7ccc4[nH]7)C=C6)C=C5)cc3)c2)CC1
REMARK SMILES IDX 26 1 25 2 24 3 23 4 22 5 20 6 21 7 19 9 7 10 8 11 98 12 9 13
REMARK SMILES IDX 10 14 6 15 3 16 4 17 100 18 5 20 99 21 2 22 1 23 11 24 12 25
REMARK SMILES IDX 13 27 14 28 15 29 18 30 16 31 17 32 27 33 28 34 29 35 30 36
REMARK SMILES IDX 31 38 32 39 33 40 97 41 34 42 96 43 35 44 36 45 37 46 90 47
REMARK SMILES IDX 38 48 95 49 89 50 91 51 39 52 94 53 88 54 87 55 40 57 74 58
REMARK SMILES IDX 53 59 73 60 54 61 57 62 72 63 92 64 55 65 56 66 71 68 93 69
REMARK SMILES IDX 58 70 41 71 42 72 51 73 43 74 44 75 50 76 52 77 45 78 46 79
REMARK SMILES IDX 47 80 48 81 49 82 75 83 76 84 85 85 77 86 78 87 84 88 86 89
REMARK SMILES IDX 79 90 80 91 81 92 82 93 83 94 59 95 60 96 69 97 61 98 62 99
REMARK SMILES IDX 68 100 70 101 63 102 64 103 65 104 66 105 67 106
REMARK H PARENT 22 8 3 19 11 26 29 37 91 56 57 67
REMARK Flexibility Score: inf
ROOT
ATOM      1  C   UNL A   1      34.161  28.431  26.885  1.00  0.00     0.002 C 
ENDROOT
BRANCH   1   2
ATOM      2  C   UNL A   1      32.977  27.935  26.052  1.00  0.00     0.002 C 
BRANCH   2   3
ATOM      3  C   UNL A   1      33.252  26.773  25.103  1.00  0.00     0.021 C 
BRANCH   3   4
ATOM      4  C   UNL A   1      33.948  27.107  23.789  1.00  0.00     0.116 C 
BRANCH   4   5
ATOM      5  N   UNL A   1      33.977  26.040  22.795  1.00  0.00    -0.352 N 
ATOM      6  C   UNL A   1      32.938  25.398  22.138  1.00  0.00     0.253 C 
ATOM      7  O   UNL A   1      33.199  24.511  21.326  1.00  0.00    -0.269 OA
ATOM      8  H   UNL A   1      34.877  25.726  22.550  1.00  0.00     0.163 HD
BRANCH   6   9
ATOM      9  C   UNL A   1      31.511  25.678  22.485  1.00  0.00     0.065 A 
ATOM     10  C   UNL A   1      29.893  27.448  22.901  1.00  0.00     0.038 A 
ATOM     11  C   UNL A   1      29.254  26.580  23.779  1.00  0.00     0.028 A 
ATOM     12  C   UNL A   1      30.959  26.931  22.167  1.00  0.00     0.042 A 
ATOM     13  C   UNL A   1      29.695  25.279  23.962  1.00  0.00     0.029 A 
ATOM     14  C   UNL A   1      30.773  24.769  23.266  1.00  0.00     0.054 A 
BRANCH  10  15
ATOM     15  N   UNL A   1      29.606  28.792  22.930  1.00  0.00    -0.360 N 
ATOM     16  N   UNL A   1      28.506  31.390  23.707  1.00  0.00    -0.332 N 
ATOM     17  C   UNL A   1      27.642  30.282  23.292  1.00  0.00     0.283 C 
ATOM     18  C   UNL A   1      29.735  30.843  24.322  1.00  0.00     0.283 C 
ATOM     19  H   UNL A   1      27.967  31.913  24.397  1.00  0.00     0.348 HD
ATOM     20  C   UNL A   1      28.309  29.234  22.385  1.00  0.00     0.178 C 
ATOM     21  C   UNL A   1      30.506  29.832  23.441  1.00  0.00     0.178 C 
BRANCH  16  22
ATOM     22  C   UNL A   1      28.775  32.439  22.714  1.00  0.00     0.258 C 
ATOM     23  C   UNL A   1      29.003  33.881  23.165  1.00  0.00     0.071 C 
ENDBRANCH  16  22
ENDBRANCH  10  15
BRANCH  14  24
ATOM     24  N   UNL A   1      31.126  23.408  23.356  1.00  0.00    -0.325 N 
ATOM     25  C   UNL A   1      31.955  22.691  24.170  1.00  0.00     0.227 C 
ATOM     26  H   UNL A   1      30.674  22.849  22.683  1.00  0.00     0.169 HD
ATOM     27  O   UNL A   1      32.083  21.486  23.900  1.00  0.00    -0.274 OA
BRANCH  25  28
ATOM     28  C   UNL A   1      32.730  23.223  25.391  1.00  0.00     0.079 C 
ATOM     29  C   UNL A   1      32.326  22.592  26.721  1.00  0.00     0.013 C 
ATOM     30  C   UNL A   1      34.256  23.271  25.327  1.00  0.00     0.013 C 
ATOM     31  C   UNL A   1      33.595  22.433  27.552  1.00  0.00     0.001 C 
ATOM     32  C   UNL A   1      34.787  22.760  26.663  1.00  0.00     0.001 C 
ENDBRANCH  25  28
ENDBRANCH  14  24
ENDBRANCH   6   9
ENDBRANCH   4   5
ENDBRANCH   3   4
ENDBRANCH   2   3
ENDBRANCH   1   2
BRANCH   1  33
ATOM     33  C   UNL A   1      34.182  29.923  27.226  1.00  0.00     0.021 C 
BRANCH  33  34
ATOM     34  C   UNL A   1      35.484  30.454  27.820  1.00  0.00     0.116 C 
BRANCH  34  35
ATOM     35  N   UNL A   1      35.398  30.663  29.255  1.00  0.00    -0.352 N 
ATOM     36  C   UNL A   1      36.355  30.487  30.227  1.00  0.00     0.251 C 
ATOM     37  H   UNL A   1      34.524  30.981  29.581  1.00  0.00     0.163 HD
ATOM     38  O   UNL A   1      36.040  30.562  31.410  1.00  0.00    -0.269 OA
BRANCH  36  39
ATOM     39  C   UNL A   1      37.754  30.183  29.849  1.00  0.00     0.039 A 
ATOM     40  C   UNL A   1      38.651  29.796  30.848  1.00  0.00     0.014 A 
ATOM     41  C   UNL A   1      38.185  30.292  28.524  1.00  0.00     0.014 A 
ATOM     42  C   UNL A   1      39.963  29.455  30.507  1.00  0.00     0.010 A 
ATOM     43  C   UNL A   1      39.471  29.881  28.178  1.00  0.00     0.010 A 
ATOM     44  C   UNL A   1      40.375  29.461  29.165  1.00  0.00    -0.014 A 
BRANCH  44  45
ATOM     45  C   UNL A   1      41.742  29.022  28.780  1.00  0.00     0.031 A 
ATOM     46  C   UNL A   1      42.874  30.012  28.734  1.00  0.00     0.074 A 
ATOM     47  C   UNL A   1      41.951  27.740  28.417  1.00  0.00     0.049 A 
ATOM     48  N   UNL A   1      44.119  29.828  28.374  1.00  0.00    -0.248 NA
ATOM     49  C   UNL A   1      42.562  31.397  29.123  1.00  0.00     0.031 C 
ATOM     50  C   UNL A   1      40.925  26.696  28.374  1.00  0.00     0.029 A 
ATOM     51  N   UNL A   1      43.093  27.097  28.006  1.00  0.00    -0.354 N 
ATOM     52  C   UNL A   1      44.735  31.070  28.482  1.00  0.00     0.074 A 
ATOM     53  C   UNL A   1      43.714  32.011  28.889  1.00  0.00     0.031 C 
ATOM     54  C   UNL A   1      41.487  25.541  27.984  1.00  0.00     0.029 A 
ATOM     55  C   UNL A   1      42.902  25.768  27.708  1.00  0.00     0.049 A 
ATOM     56  H   UNL A   1      43.966  27.546  27.932  1.00  0.00     0.167 HD
ATOM     57  C   UNL A   1      46.035  31.391  28.284  1.00  0.00     0.037 A 
ATOM     58  C   UNL A   1      43.765  24.839  27.253  1.00  0.00     0.037 A 
ATOM     59  C   UNL A   1      47.050  30.444  27.897  1.00  0.00     0.049 A 
ATOM     60  C   UNL A   1      45.203  25.224  27.025  1.00  0.00     0.074 A 
ATOM     61  C   UNL A   1      48.406  30.659  27.728  1.00  0.00     0.029 A 
ATOM     62  N   UNL A   1      46.818  29.106  27.612  1.00  0.00    -0.354 N 
ATOM     63  N   UNL A   1      45.782  26.388  27.200  1.00  0.00    -0.248 NA
ATOM     64  C   UNL A   1      46.105  24.169  26.542  1.00  0.00     0.031 C 
ATOM     65  C   UNL A   1      48.987  29.464  27.288  1.00  0.00     0.029 A 
ATOM     66  C   UNL A   1      48.003  28.489  27.239  1.00  0.00     0.049 A 
ATOM     67  H   UNL A   1      45.943  28.660  27.666  1.00  0.00     0.167 HD
ATOM     68  C   UNL A   1      47.121  26.200  26.873  1.00  0.00     0.074 A 
ATOM     69  C   UNL A   1      47.268  24.807  26.505  1.00  0.00     0.031 C 
ATOM     70  C   UNL A   1      48.136  27.100  26.877  1.00  0.00     0.037 A 
BRANCH  57  71
ATOM     71  C   UNL A   1      46.440  32.828  28.483  1.00  0.00     0.058 A 
ATOM     72  C   UNL A   1      46.951  33.290  29.707  1.00  0.00     0.135 A 
ATOM     73  C   UNL A   1      46.355  33.748  27.425  1.00  0.00     0.135 A 
ATOM     74  F   UNL A   1      47.043  32.458  30.759  1.00  0.00    -0.206 F 
ATOM     75  C   UNL A   1      47.333  34.615  29.885  1.00  0.00     0.059 A 
ATOM     76  C   UNL A   1      46.759  35.072  27.571  1.00  0.00     0.059 A 
ATOM     77  F   UNL A   1      45.874  33.363  26.232  1.00  0.00    -0.206 F 
ATOM     78  C   UNL A   1      47.233  35.499  28.809  1.00  0.00     0.060 A 
BRANCH  78  79
ATOM     79  S   UNL A   1      47.739  37.214  29.057  1.00  0.00     0.124 S 
ATOM     80  O   UNL A   1      47.559  37.366  30.497  1.00  0.00    -0.237 OA
ATOM     81  O   UNL A   1      49.121  37.202  28.588  1.00  0.00    -0.237 OA
ATOM     82  O   UNL A   1      46.805  37.968  28.226  1.00  0.00    -0.744 OA
ENDBRANCH  78  79
ENDBRANCH  57  71
BRANCH  58  83
ATOM     83  C   UNL A   1      43.296  23.450  26.994  1.00  0.00     0.058 A 
ATOM     84  C   UNL A   1      43.084  22.990  25.686  1.00  0.00     0.135 A 
ATOM     85  C   UNL A   1      43.059  22.553  28.047  1.00  0.00     0.135 A 
ATOM     86  F   UNL A   1      43.288  23.812  24.644  1.00  0.00    -0.206 F 
ATOM     87  C   UNL A   1      42.639  21.697  25.430  1.00  0.00     0.059 A 
ATOM     88  C   UNL A   1      42.641  21.247  27.816  1.00  0.00     0.059 A 
ATOM     89  F   UNL A   1      43.262  22.937  29.317  1.00  0.00    -0.206 F 
ATOM     90  C   UNL A   1      42.423  20.831  26.503  1.00  0.00     0.060 A 
BRANCH  90  91
ATOM     91  S   UNL A   1      41.891  19.140  26.158  1.00  0.00     0.124 S 
ATOM     92  O   UNL A   1      42.174  18.479  27.427  1.00  0.00    -0.237 OA
ATOM     93  O   UNL A   1      40.480  19.324  25.832  1.00  0.00    -0.237 OA
ATOM     94  O   UNL A   1      42.739  18.744  25.037  1.00  0.00    -0.744 OA
ENDBRANCH  90  91
ENDBRANCH  58  83
BRANCH  70  95
ATOM     95  C   UNL A   1      49.504  26.604  26.496  1.00  0.00     0.058 A 
ATOM     96  C   UNL A   1      49.996  26.726  25.186  1.00  0.00     0.135 A 
ATOM     97  C   UNL A   1      50.355  26.050  27.465  1.00  0.00     0.135 A 
ATOM     98  F   UNL A   1      49.221  27.241  24.218  1.00  0.00    -0.206 F 
ATOM     99  C   UNL A   1      51.274  26.295  24.848  1.00  0.00     0.059 A 
ATOM    100  C   UNL A   1      51.649  25.640  27.156  1.00  0.00     0.059 A 
ATOM    101  F   UNL A   1      49.939  25.920  28.735  1.00  0.00    -0.206 F 
ATOM    102  C   UNL A   1      52.095  25.757  25.841  1.00  0.00     0.060 A 
BRANCH 102 103
ATOM    103  S   UNL A   1      53.765  25.237  25.394  1.00  0.00     0.124 S 
ATOM    104  O   UNL A   1      53.912  25.826  24.068  1.00  0.00    -0.237 OA
ATOM    105  O   UNL A   1      54.572  25.843  26.449  1.00  0.00    -0.237 OA
ATOM    106  O   UNL A   1      53.689  23.780  25.430  1.00  0.00    -0.744 OA
ENDBRANCH 102 103
ENDBRANCH  70  95
ENDBRANCH  44  45
ENDBRANCH  36  39
ENDBRANCH  34  35
ENDBRANCH  33  34
ENDBRANCH   1  33
TORSDOF 20
ENDMDL
