MODEL 1
REMARK VINA RESULT:     -12.4      0.000      0.000
REMARK SMILES COc1cc([C@H]2[NH2+]CCC3=c4ccccc4=N[C@H]32)ccc1OCC(=O)NCCCCCCNC(=O)c1ccc(-c2c3nc(c(-c4c(F)cc(S(=O)(=O)[O-])cc4F)c4ccc([nH]4)c(-c4c(F)cc(S(=O)(=O)[O-])cc4F)c4nc(c(-c5c(F)cc(S(=O)(=O)[O-])cc5F)c5ccc2[nH]5)C=C4)C=C3)cc1
REMARK SMILES IDX 29 1 28 2 27 3 26 4 24 5 25 6 23 8 22 9 21 10 3 11 4 12 5 13
REMARK SMILES IDX 20 14 19 15 2 16 1 17 6 18 7 19 18 20 8 21 10 24 17 25 9 26
REMARK SMILES IDX 11 27 16 28 12 29 15 30 13 31 14 32 30 33 31 34 32 35 33 36
REMARK SMILES IDX 34 37 35 39 36 40 37 41 101 42 38 43 100 44 39 45 40 46
REMARK SMILES IDX 41 47 94 48 42 49 99 50 93 51 95 52 43 53 98 54 92 55 91 56
REMARK SMILES IDX 44 58 78 59 57 60 77 61 58 62 61 63 76 64 96 65 59 66 60 67
REMARK SMILES IDX 75 69 97 70 62 71 45 72 46 73 55 74 47 75 48 76 54 77 56 78
REMARK SMILES IDX 49 79 50 80 51 81 52 82 53 83 79 84 80 85 89 86 81 87 82 88
REMARK SMILES IDX 88 89 90 90 83 91 84 92 85 93 86 94 87 95 63 96 64 97 73 98
REMARK SMILES IDX 65 99 66 100 72 101 74 102 67 103 68 104 69 105 70 106
REMARK SMILES IDX 71 107
REMARK H PARENT 26 7 7 22 7 23 33 38 95 57 61 68
REMARK Flexibility Score: inf
ROOT
ATOM      1  C   UNL A   1      37.655  21.625  25.381  1.00  0.00     0.002 C 
ENDROOT
BRANCH   1   2
ATOM      2  C   UNL A   1      36.605  20.521  25.198  1.00  0.00     0.021 C 
BRANCH   2   3
ATOM      3  C   UNL A   1      35.144  20.978  25.241  1.00  0.00     0.116 C 
BRANCH   3   4
ATOM      4  N   UNL A   1      34.230  19.886  25.508  1.00  0.00    -0.353 N 
ATOM      5  C   UNL A   1      32.900  19.776  25.249  1.00  0.00     0.257 C 
ATOM      6  O   UNL A   1      32.391  18.657  25.367  1.00  0.00    -0.271 OA
ATOM      7  H   UNL A   1      34.635  19.102  25.945  1.00  0.00     0.163 HD
BRANCH   5   8
ATOM      8  C   UNL A   1      32.078  20.974  24.755  1.00  0.00     0.329 C 
BRANCH   8   9
ATOM      9  O   UNL A   1      31.960  22.130  25.549  1.00  0.00    -0.480 OA
BRANCH   9  10
ATOM     10  C   UNL A   1      32.191  23.363  25.020  1.00  0.00     0.161 A 
ATOM     11  C   UNL A   1      31.665  24.602  25.385  1.00  0.00     0.161 A 
ATOM     12  C   UNL A   1      31.887  25.735  24.565  1.00  0.00     0.060 A 
ATOM     13  C   UNL A   1      32.682  25.667  23.397  1.00  0.00     0.016 A 
ATOM     14  C   UNL A   1      33.009  23.303  23.900  1.00  0.00     0.051 A 
ATOM     15  C   UNL A   1      33.292  24.439  23.146  1.00  0.00     0.014 A 
BRANCH  11  16
ATOM     16  O   UNL A   1      30.788  24.718  26.429  1.00  0.00    -0.493 OA
ATOM     17  C   UNL A   1      29.717  25.613  26.121  1.00  0.00     0.278 C 
ENDBRANCH  11  16
BRANCH  13  18
ATOM     18  C   UNL A   1      32.765  26.864  22.424  1.00  0.00     0.243 C 
ATOM     19  N   UNL A   1      31.518  26.989  21.609  1.00  0.00    -0.338 N 
ATOM     20  C   UNL A   1      33.212  28.304  22.928  1.00  0.00     0.196 C 
ATOM     21  C   UNL A   1      30.429  27.663  22.336  1.00  0.00     0.265 C 
ATOM     22  H   UNL A   1      31.205  26.053  21.347  1.00  0.00     0.346 HD
ATOM     23  H   UNL A   1      31.739  27.555  20.791  1.00  0.00     0.346 HD
ATOM     24  C   UNL A   1      32.069  29.014  23.596  1.00  0.00    -0.025 C 
ATOM     25  N   UNL A   1      34.313  28.300  23.935  1.00  0.00    -0.270 NA
ATOM     26  C   UNL A   1      30.792  29.071  22.836  1.00  0.00     0.095 C 
ATOM     27  C   UNL A   1      32.364  29.325  24.851  1.00  0.00     0.001 A 
ATOM     28  C   UNL A   1      33.762  28.862  24.973  1.00  0.00     0.066 A 
ATOM     29  C   UNL A   1      31.612  29.774  25.976  1.00  0.00     0.010 A 
ATOM     30  C   UNL A   1      34.361  28.952  26.325  1.00  0.00     0.028 A 
ATOM     31  C   UNL A   1      32.195  29.745  27.186  1.00  0.00     0.001 A 
ATOM     32  C   UNL A   1      33.581  29.334  27.352  1.00  0.00     0.002 A 
ENDBRANCH  13  18
ENDBRANCH   9  10
ENDBRANCH   8   9
ENDBRANCH   5   8
ENDBRANCH   3   4
ENDBRANCH   2   3
ENDBRANCH   1   2
BRANCH   1  33
ATOM     33  C   UNL A   1      37.156  23.061  25.204  1.00  0.00     0.002 C 
BRANCH  33  34
ATOM     34  C   UNL A   1      37.980  24.136  25.911  1.00  0.00     0.021 C 
BRANCH  34  35
ATOM     35  C   UNL A   1      39.066  23.609  26.838  1.00  0.00     0.116 C 
BRANCH  35  36
ATOM     36  N   UNL A   1      40.394  23.727  26.259  1.00  0.00    -0.352 N 
ATOM     37  C   UNL A   1      41.320  24.728  26.419  1.00  0.00     0.251 C 
ATOM     38  H   UNL A   1      40.668  22.987  25.670  1.00  0.00     0.163 HD
ATOM     39  O   UNL A   1      42.325  24.754  25.710  1.00  0.00    -0.269 OA
BRANCH  37  40
ATOM     40  C   UNL A   1      41.094  25.785  27.428  1.00  0.00     0.039 A 
ATOM     41  C   UNL A   1      40.106  25.598  28.397  1.00  0.00     0.014 A 
ATOM     42  C   UNL A   1      41.861  26.954  27.425  1.00  0.00     0.014 A 
ATOM     43  C   UNL A   1      39.930  26.554  29.399  1.00  0.00     0.010 A 
ATOM     44  C   UNL A   1      41.738  27.867  28.469  1.00  0.00     0.010 A 
ATOM     45  C   UNL A   1      40.768  27.680  29.466  1.00  0.00    -0.014 A 
BRANCH  45  46
ATOM     46  C   UNL A   1      40.647  28.666  30.571  1.00  0.00     0.031 A 
ATOM     47  C   UNL A   1      41.505  28.533  31.802  1.00  0.00     0.074 A 
ATOM     48  C   UNL A   1      39.722  29.643  30.494  1.00  0.00     0.049 A 
ATOM     49  N   UNL A   1      41.500  29.257  32.892  1.00  0.00    -0.248 NA
ATOM     50  C   UNL A   1      42.475  27.427  31.823  1.00  0.00     0.031 C 
ATOM     51  C   UNL A   1      38.795  29.844  29.376  1.00  0.00     0.029 A 
ATOM     52  N   UNL A   1      39.396  30.645  31.374  1.00  0.00    -0.354 N 
ATOM     53  C   UNL A   1      42.450  28.686  33.731  1.00  0.00     0.074 A 
ATOM     54  C   UNL A   1      42.976  27.526  33.046  1.00  0.00     0.031 C 
ATOM     55  C   UNL A   1      38.022  30.912  29.630  1.00  0.00     0.029 A 
ATOM     56  C   UNL A   1      38.366  31.448  30.944  1.00  0.00     0.049 A 
ATOM     57  H   UNL A   1      39.858  30.777  32.234  1.00  0.00     0.167 HD
ATOM     58  C   UNL A   1      42.862  29.104  34.952  1.00  0.00     0.037 A 
ATOM     59  C   UNL A   1      37.757  32.490  31.544  1.00  0.00     0.037 A 
ATOM     60  C   UNL A   1      42.353  30.277  35.615  1.00  0.00     0.049 A 
ATOM     61  C   UNL A   1      38.234  32.935  32.900  1.00  0.00     0.074 A 
ATOM     62  C   UNL A   1      42.757  30.825  36.819  1.00  0.00     0.029 A 
ATOM     63  N   UNL A   1      41.327  31.078  35.137  1.00  0.00    -0.354 N 
ATOM     64  N   UNL A   1      39.189  32.430  33.644  1.00  0.00    -0.248 NA
ATOM     65  C   UNL A   1      37.557  34.096  33.496  1.00  0.00     0.031 C 
ATOM     66  C   UNL A   1      41.936  31.921  37.099  1.00  0.00     0.029 A 
ATOM     67  C   UNL A   1      41.063  32.096  36.037  1.00  0.00     0.049 A 
ATOM     68  H   UNL A   1      40.855  30.942  34.283  1.00  0.00     0.167 HD
ATOM     69  C   UNL A   1      39.247  33.229  34.782  1.00  0.00     0.074 A 
ATOM     70  C   UNL A   1      38.241  34.257  34.621  1.00  0.00     0.031 C 
ATOM     71  C   UNL A   1      40.061  33.120  35.861  1.00  0.00     0.037 A 
BRANCH  58  72
ATOM     72  C   UNL A   1      43.914  28.290  35.657  1.00  0.00     0.058 A 
ATOM     73  C   UNL A   1      43.581  27.261  36.551  1.00  0.00     0.135 A 
ATOM     74  C   UNL A   1      45.276  28.509  35.392  1.00  0.00     0.135 A 
ATOM     75  F   UNL A   1      42.296  27.017  36.854  1.00  0.00    -0.206 F 
ATOM     76  C   UNL A   1      44.560  26.495  37.178  1.00  0.00     0.059 A 
ATOM     77  C   UNL A   1      46.271  27.734  35.983  1.00  0.00     0.059 A 
ATOM     78  F   UNL A   1      45.655  29.480  34.546  1.00  0.00    -0.206 F 
ATOM     79  C   UNL A   1      45.902  26.738  36.884  1.00  0.00     0.060 A 
BRANCH  79  80
ATOM     80  S   UNL A   1      47.157  25.725  37.694  1.00  0.00     0.124 S 
ATOM     81  O   UNL A   1      47.478  26.539  38.863  1.00  0.00    -0.237 OA
ATOM     82  O   UNL A   1      46.432  24.488  37.964  1.00  0.00    -0.237 OA
ATOM     83  O   UNL A   1      48.213  25.624  36.692  1.00  0.00    -0.744 OA
ENDBRANCH  79  80
ENDBRANCH  58  72
BRANCH  59  84
ATOM     84  C   UNL A   1      36.632  33.190  30.862  1.00  0.00     0.058 A 
ATOM     85  C   UNL A   1      35.307  33.022  31.290  1.00  0.00     0.135 A 
ATOM     86  C   UNL A   1      36.863  34.045  29.772  1.00  0.00     0.135 A 
ATOM     87  F   UNL A   1      35.033  32.212  32.323  1.00  0.00    -0.206 F 
ATOM     88  C   UNL A   1      34.248  33.656  30.648  1.00  0.00     0.059 A 
ATOM     89  C   UNL A   1      35.823  34.713  29.133  1.00  0.00     0.059 A 
ATOM     90  F   UNL A   1      38.114  34.254  29.334  1.00  0.00    -0.206 F 
ATOM     91  C   UNL A   1      34.516  34.502  29.571  1.00  0.00     0.060 A 
BRANCH  91  92
ATOM     92  S   UNL A   1      33.138  35.351  28.771  1.00  0.00     0.124 S 
ATOM     93  O   UNL A   1      32.524  34.266  28.015  1.00  0.00    -0.237 OA
ATOM     94  O   UNL A   1      32.378  35.845  29.914  1.00  0.00    -0.237 OA
ATOM     95  O   UNL A   1      33.797  36.383  27.975  1.00  0.00    -0.744 OA
ENDBRANCH  91  92
ENDBRANCH  59  84
BRANCH  71  96
ATOM     96  C   UNL A   1      39.927  34.159  36.941  1.00  0.00     0.058 A 
ATOM     97  C   UNL A   1      40.621  35.378  36.889  1.00  0.00     0.135 A 
ATOM     98  C   UNL A   1      39.048  33.952  38.018  1.00  0.00     0.135 A 
ATOM     99  F   UNL A   1      41.478  35.625  35.885  1.00  0.00    -0.206 F 
ATOM    100  C   UNL A   1      40.467  36.345  37.877  1.00  0.00     0.059 A 
ATOM    101  C   UNL A   1      38.854  34.919  39.000  1.00  0.00     0.059 A 
ATOM    102  F   UNL A   1      38.351  32.808  38.112  1.00  0.00    -0.206 F 
ATOM    103  C   UNL A   1      39.578  36.107  38.927  1.00  0.00     0.060 A 
BRANCH 103 104
ATOM    104  S   UNL A   1      39.361  37.385  40.183  1.00  0.00     0.124 S 
ATOM    105  O   UNL A   1      38.821  36.614  41.297  1.00  0.00    -0.237 OA
ATOM    106  O   UNL A   1      40.721  37.884  40.357  1.00  0.00    -0.237 OA
ATOM    107  O   UNL A   1      38.431  38.322  39.559  1.00  0.00    -0.744 OA
ENDBRANCH 103 104
ENDBRANCH  71  96
ENDBRANCH  45  46
ENDBRANCH  37  40
ENDBRANCH  35  36
ENDBRANCH  34  35
ENDBRANCH  33  34
ENDBRANCH   1  33
TORSDOF 20
ENDMDL
MODEL 2
REMARK VINA RESULT:     -11.9      4.560      7.435
REMARK SMILES COc1cc([C@H]2[NH2+]CCC3=c4ccccc4=N[C@H]32)ccc1OCC(=O)NCCCCCCNC(=O)c1ccc(-c2c3nc(c(-c4c(F)cc(S(=O)(=O)[O-])cc4F)c4ccc([nH]4)c(-c4c(F)cc(S(=O)(=O)[O-])cc4F)c4nc(c(-c5c(F)cc(S(=O)(=O)[O-])cc5F)c5ccc2[nH]5)C=C4)C=C3)cc1
REMARK SMILES IDX 29 1 28 2 27 3 26 4 24 5 25 6 23 8 22 9 21 10 3 11 4 12 5 13
REMARK SMILES IDX 20 14 19 15 2 16 1 17 6 18 7 19 18 20 8 21 10 24 17 25 9 26
REMARK SMILES IDX 11 27 16 28 12 29 15 30 13 31 14 32 30 33 31 34 32 35 33 36
REMARK SMILES IDX 34 37 35 39 36 40 37 41 101 42 38 43 100 44 39 45 40 46
REMARK SMILES IDX 41 47 94 48 42 49 99 50 93 51 95 52 43 53 98 54 92 55 91 56
REMARK SMILES IDX 44 58 78 59 57 60 77 61 58 62 61 63 76 64 96 65 59 66 60 67
REMARK SMILES IDX 75 69 97 70 62 71 45 72 46 73 55 74 47 75 48 76 54 77 56 78
REMARK SMILES IDX 49 79 50 80 51 81 52 82 53 83 79 84 80 85 89 86 81 87 82 88
REMARK SMILES IDX 88 89 90 90 83 91 84 92 85 93 86 94 87 95 63 96 64 97 73 98
REMARK SMILES IDX 65 99 66 100 72 101 74 102 67 103 68 104 69 105 70 106
REMARK SMILES IDX 71 107
REMARK H PARENT 26 7 7 22 7 23 33 38 95 57 61 68
REMARK Flexibility Score: inf
ROOT
ATOM      1  C   UNL A   1      42.069  20.280  26.611  1.00  0.00     0.002 C 
ENDROOT
BRANCH   1   2
ATOM      2  C   UNL A   1      42.396  18.853  26.150  1.00  0.00     0.021 C 
BRANCH   2   3
ATOM      3  C   UNL A   1      43.885  18.513  26.044  1.00  0.00     0.116 C 
BRANCH   3   4
ATOM      4  N   UNL A   1      44.328  18.394  24.670  1.00  0.00    -0.353 N 
ATOM      5  C   UNL A   1      45.288  19.083  23.998  1.00  0.00     0.257 C 
ATOM      6  O   UNL A   1      45.636  18.643  22.898  1.00  0.00    -0.271 OA
ATOM      7  H   UNL A   1      43.862  17.707  24.140  1.00  0.00     0.163 HD
BRANCH   5   8
ATOM      8  C   UNL A   1      45.970  20.313  24.612  1.00  0.00     0.329 C 
BRANCH   8   9
ATOM      9  O   UNL A   1      45.207  21.285  25.287  1.00  0.00    -0.480 OA
BRANCH   9  10
ATOM     10  C   UNL A   1      45.690  22.544  25.472  1.00  0.00     0.161 A 
ATOM     11  C   UNL A   1      45.461  23.443  26.513  1.00  0.00     0.161 A 
ATOM     12  C   UNL A   1      45.907  24.783  26.403  1.00  0.00     0.060 A 
ATOM     13  C   UNL A   1      46.637  25.237  25.281  1.00  0.00     0.016 A 
ATOM     14  C   UNL A   1      46.446  22.974  24.390  1.00  0.00     0.051 A 
ATOM     15  C   UNL A   1      46.954  24.269  24.328  1.00  0.00     0.014 A 
BRANCH  11  16
ATOM     16  O   UNL A   1      44.658  23.110  27.570  1.00  0.00    -0.493 OA
ATOM     17  C   UNL A   1      44.941  23.911  28.719  1.00  0.00     0.278 C 
ENDBRANCH  11  16
BRANCH  13  18
ATOM     18  C   UNL A   1      46.957  26.737  25.097  1.00  0.00     0.243 C 
ATOM     19  N   UNL A   1      45.800  27.470  24.498  1.00  0.00    -0.338 N 
ATOM     20  C   UNL A   1      47.569  27.598  26.285  1.00  0.00     0.196 C 
ATOM     21  C   UNL A   1      44.771  27.818  25.492  1.00  0.00     0.265 C 
ATOM     22  H   UNL A   1      45.376  26.879  23.782  1.00  0.00     0.346 HD
ATOM     23  H   UNL A   1      46.157  28.340  24.106  1.00  0.00     0.346 HD
ATOM     24  C   UNL A   1      46.495  28.016  27.250  1.00  0.00    -0.025 C 
ATOM     25  N   UNL A   1      48.585  26.886  27.114  1.00  0.00    -0.270 NA
ATOM     26  C   UNL A   1      45.296  28.667  26.661  1.00  0.00     0.095 C 
ATOM     27  C   UNL A   1      46.744  27.562  28.471  1.00  0.00     0.001 A 
ATOM     28  C   UNL A   1      48.050  26.890  28.301  1.00  0.00     0.066 A 
ATOM     29  C   UNL A   1      45.987  27.457  29.675  1.00  0.00     0.010 A 
ATOM     30  C   UNL A   1      48.560  26.154  29.481  1.00  0.00     0.028 A 
ATOM     31  C   UNL A   1      46.475  26.699  30.671  1.00  0.00     0.001 A 
ATOM     32  C   UNL A   1      47.773  26.050  30.566  1.00  0.00     0.002 A 
ENDBRANCH  13  18
ENDBRANCH   9  10
ENDBRANCH   8   9
ENDBRANCH   5   8
ENDBRANCH   3   4
ENDBRANCH   2   3
ENDBRANCH   1   2
BRANCH   1  33
ATOM     33  C   UNL A   1      40.584  20.599  26.804  1.00  0.00     0.002 C 
BRANCH  33  34
ATOM     34  C   UNL A   1      40.276  21.992  27.353  1.00  0.00     0.021 C 
BRANCH  34  35
ATOM     35  C   UNL A   1      41.483  22.909  27.495  1.00  0.00     0.116 C 
BRANCH  35  36
ATOM     36  N   UNL A   1      41.701  23.726  26.313  1.00  0.00    -0.352 N 
ATOM     37  C   UNL A   1      41.638  25.092  26.183  1.00  0.00     0.251 C 
ATOM     38  H   UNL A   1      41.924  23.233  25.491  1.00  0.00     0.163 HD
ATOM     39  O   UNL A   1      41.673  25.604  25.065  1.00  0.00    -0.269 OA
BRANCH  37  40
ATOM     40  C   UNL A   1      41.504  25.939  27.387  1.00  0.00     0.039 A 
ATOM     41  C   UNL A   1      42.597  26.699  27.807  1.00  0.00     0.014 A 
ATOM     42  C   UNL A   1      40.298  25.992  28.095  1.00  0.00     0.014 A 
ATOM     43  C   UNL A   1      42.462  27.560  28.899  1.00  0.00     0.010 A 
ATOM     44  C   UNL A   1      40.144  26.907  29.132  1.00  0.00     0.010 A 
ATOM     45  C   UNL A   1      41.224  27.699  29.549  1.00  0.00    -0.014 A 
BRANCH  45  46
ATOM     46  C   UNL A   1      41.043  28.668  30.661  1.00  0.00     0.031 A 
ATOM     47  C   UNL A   1      41.879  28.555  31.909  1.00  0.00     0.074 A 
ATOM     48  C   UNL A   1      40.082  29.610  30.574  1.00  0.00     0.049 A 
ATOM     49  N   UNL A   1      41.824  29.267  33.006  1.00  0.00    -0.248 NA
ATOM     50  C   UNL A   1      42.890  27.486  31.939  1.00  0.00     0.031 C 
ATOM     51  C   UNL A   1      39.172  29.786  29.439  1.00  0.00     0.029 A 
ATOM     52  N   UNL A   1      39.700  30.589  31.457  1.00  0.00    -0.354 N 
ATOM     53  C   UNL A   1      42.777  28.723  33.858  1.00  0.00     0.074 A 
ATOM     54  C   UNL A   1      43.361  27.591  33.173  1.00  0.00     0.031 C 
ATOM     55  C   UNL A   1      38.353  30.822  29.687  1.00  0.00     0.029 A 
ATOM     56  C   UNL A   1      38.649  31.356  31.013  1.00  0.00     0.049 A 
ATOM     57  H   UNL A   1      40.138  30.729  32.328  1.00  0.00     0.167 HD
ATOM     58  C   UNL A   1      43.148  29.143  35.092  1.00  0.00     0.037 A 
ATOM     59  C   UNL A   1      37.988  32.368  31.610  1.00  0.00     0.037 A 
ATOM     60  C   UNL A   1      42.580  30.289  35.755  1.00  0.00     0.049 A 
ATOM     61  C   UNL A   1      38.419  32.817  32.980  1.00  0.00     0.074 A 
ATOM     62  C   UNL A   1      42.938  30.840  36.974  1.00  0.00     0.029 A 
ATOM     63  N   UNL A   1      41.534  31.055  35.264  1.00  0.00    -0.354 N 
ATOM     64  N   UNL A   1      39.378  32.341  33.739  1.00  0.00    -0.248 NA
ATOM     65  C   UNL A   1      37.686  33.944  33.573  1.00  0.00     0.031 C 
ATOM     66  C   UNL A   1      42.069  31.901  37.246  1.00  0.00     0.029 A 
ATOM     67  C   UNL A   1      41.213  32.053  36.168  1.00  0.00     0.049 A 
ATOM     68  H   UNL A   1      41.086  30.910  34.399  1.00  0.00     0.167 HD
ATOM     69  C   UNL A   1      39.381  33.129  34.886  1.00  0.00     0.074 A 
ATOM     70  C   UNL A   1      38.340  34.119  34.714  1.00  0.00     0.031 C 
ATOM     71  C   UNL A   1      40.176  33.039  35.981  1.00  0.00     0.037 A 
BRANCH  58  72
ATOM     72  C   UNL A   1      44.215  28.363  35.811  1.00  0.00     0.058 A 
ATOM     73  C   UNL A   1      45.579  28.663  35.665  1.00  0.00     0.135 A 
ATOM     74  C   UNL A   1      43.866  27.334  36.701  1.00  0.00     0.135 A 
ATOM     75  F   UNL A   1      45.974  29.627  34.817  1.00  0.00    -0.206 F 
ATOM     76  C   UNL A   1      46.559  27.955  36.355  1.00  0.00     0.059 A 
ATOM     77  C   UNL A   1      44.826  26.633  37.425  1.00  0.00     0.059 A 
ATOM     78  F   UNL A   1      42.577  27.003  36.880  1.00  0.00    -0.206 F 
ATOM     79  C   UNL A   1      46.171  26.943  37.234  1.00  0.00     0.060 A 
BRANCH  79  80
ATOM     80  S   UNL A   1      47.454  26.045  38.132  1.00  0.00     0.124 S 
ATOM     81  O   UNL A   1      48.628  26.315  37.307  1.00  0.00    -0.237 OA
ATOM     82  O   UNL A   1      47.435  26.697  39.437  1.00  0.00    -0.237 OA
ATOM     83  O   UNL A   1      46.980  24.665  38.116  1.00  0.00    -0.744 OA
ENDBRANCH  79  80
ENDBRANCH  58  72
BRANCH  59  84
ATOM     84  C   UNL A   1      36.852  33.032  30.911  1.00  0.00     0.058 A 
ATOM     85  C   UNL A   1      35.523  32.782  31.286  1.00  0.00     0.135 A 
ATOM     86  C   UNL A   1      37.073  33.933  29.858  1.00  0.00     0.135 A 
ATOM     87  F   UNL A   1      35.258  31.924  32.283  1.00  0.00    -0.206 F 
ATOM     88  C   UNL A   1      34.454  33.381  30.628  1.00  0.00     0.059 A 
ATOM     89  C   UNL A   1      36.022  34.568  29.205  1.00  0.00     0.059 A 
ATOM     90  F   UNL A   1      38.326  34.221  29.471  1.00  0.00    -0.206 F 
ATOM     91  C   UNL A   1      34.714  34.276  29.589  1.00  0.00     0.060 A 
BRANCH  91  92
ATOM     92  S   UNL A   1      33.321  35.079  28.768  1.00  0.00     0.124 S 
ATOM     93  O   UNL A   1      33.995  36.118  27.997  1.00  0.00    -0.237 OA
ATOM     94  O   UNL A   1      32.746  33.982  27.997  1.00  0.00    -0.237 OA
ATOM     95  O   UNL A   1      32.502  35.549  29.881  1.00  0.00    -0.744 OA
ENDBRANCH  91  92
ENDBRANCH  59  84
BRANCH  71  96
ATOM     96  C   UNL A   1      39.980  34.062  37.068  1.00  0.00     0.058 A 
ATOM     97  C   UNL A   1      40.621  35.310  37.038  1.00  0.00     0.135 A 
ATOM     98  C   UNL A   1      39.093  33.807  38.128  1.00  0.00     0.135 A 
ATOM     99  F   UNL A   1      41.483  35.603  36.051  1.00  0.00    -0.206 F 
ATOM    100  C   UNL A   1      40.409  36.259  38.032  1.00  0.00     0.059 A 
ATOM    101  C   UNL A   1      38.842  34.754  39.115  1.00  0.00     0.059 A 
ATOM    102  F   UNL A   1      38.445  32.633  38.200  1.00  0.00    -0.206 F 
ATOM    103  C   UNL A   1      39.514  35.973  39.065  1.00  0.00     0.060 A 
BRANCH 103 104
ATOM    104  S   UNL A   1      39.223  37.228  40.329  1.00  0.00     0.124 S 
ATOM    105  O   UNL A   1      40.583  37.655  40.640  1.00  0.00    -0.237 OA
ATOM    106  O   UNL A   1      38.401  38.202  39.618  1.00  0.00    -0.237 OA
ATOM    107  O   UNL A   1      38.538  36.493  41.389  1.00  0.00    -0.744 OA
ENDBRANCH 103 104
ENDBRANCH  71  96
ENDBRANCH  45  46
ENDBRANCH  37  40
ENDBRANCH  35  36
ENDBRANCH  34  35
ENDBRANCH  33  34
ENDBRANCH   1  33
TORSDOF 20
ENDMDL
MODEL 3
REMARK VINA RESULT:     -11.8      1.495      3.046
REMARK SMILES COc1cc([C@H]2[NH2+]CCC3=c4ccccc4=N[C@H]32)ccc1OCC(=O)NCCCCCCNC(=O)c1ccc(-c2c3nc(c(-c4c(F)cc(S(=O)(=O)[O-])cc4F)c4ccc([nH]4)c(-c4c(F)cc(S(=O)(=O)[O-])cc4F)c4nc(c(-c5c(F)cc(S(=O)(=O)[O-])cc5F)c5ccc2[nH]5)C=C4)C=C3)cc1
REMARK SMILES IDX 29 1 28 2 27 3 26 4 24 5 25 6 23 8 22 9 21 10 3 11 4 12 5 13
REMARK SMILES IDX 20 14 19 15 2 16 1 17 6 18 7 19 18 20 8 21 10 24 17 25 9 26
REMARK SMILES IDX 11 27 16 28 12 29 15 30 13 31 14 32 30 33 31 34 32 35 33 36
REMARK SMILES IDX 34 37 35 39 36 40 37 41 101 42 38 43 100 44 39 45 40 46
REMARK SMILES IDX 41 47 94 48 42 49 99 50 93 51 95 52 43 53 98 54 92 55 91 56
REMARK SMILES IDX 44 58 78 59 57 60 77 61 58 62 61 63 76 64 96 65 59 66 60 67
REMARK SMILES IDX 75 69 97 70 62 71 45 72 46 73 55 74 47 75 48 76 54 77 56 78
REMARK SMILES IDX 49 79 50 80 51 81 52 82 53 83 79 84 80 85 89 86 81 87 82 88
REMARK SMILES IDX 88 89 90 90 83 91 84 92 85 93 86 94 87 95 63 96 64 97 73 98
REMARK SMILES IDX 65 99 66 100 72 101 74 102 67 103 68 104 69 105 70 106
REMARK SMILES IDX 71 107
REMARK H PARENT 26 7 7 22 7 23 33 38 95 57 61 68
REMARK Flexibility Score: inf
ROOT
ATOM      1  C   UNL A   1      42.596  21.266  27.283  1.00  0.00     0.002 C 
ENDROOT
BRANCH   1   2
ATOM      2  C   UNL A   1      41.873  20.383  26.257  1.00  0.00     0.021 C 
BRANCH   2   3
ATOM      3  C   UNL A   1      40.352  20.549  26.191  1.00  0.00     0.116 C 
BRANCH   3   4
ATOM      4  N   UNL A   1      39.946  21.939  26.207  1.00  0.00    -0.353 N 
ATOM      5  C   UNL A   1      38.731  22.498  25.961  1.00  0.00     0.257 C 
ATOM      6  O   UNL A   1      38.584  23.687  26.257  1.00  0.00    -0.271 OA
ATOM      7  H   UNL A   1      40.660  22.579  26.429  1.00  0.00     0.163 HD
BRANCH   5   8
ATOM      8  C   UNL A   1      37.563  21.668  25.410  1.00  0.00     0.329 C 
BRANCH   8   9
ATOM      9  O   UNL A   1      36.781  22.160  24.349  1.00  0.00    -0.480 OA
BRANCH   9  10
ATOM     10  C   UNL A   1      35.437  22.325  24.493  1.00  0.00     0.161 A 
ATOM     11  C   UNL A   1      34.423  21.370  24.556  1.00  0.00     0.161 A 
ATOM     12  C   UNL A   1      33.067  21.773  24.505  1.00  0.00     0.060 A 
ATOM     13  C   UNL A   1      32.694  23.135  24.447  1.00  0.00     0.016 A 
ATOM     14  C   UNL A   1      35.074  23.665  24.482  1.00  0.00     0.051 A 
ATOM     15  C   UNL A   1      33.738  24.056  24.519  1.00  0.00     0.014 A 
BRANCH  11  16
ATOM     16  O   UNL A   1      34.707  20.032  24.489  1.00  0.00    -0.493 OA
ATOM     17  C   UNL A   1      33.539  19.235  24.691  1.00  0.00     0.278 C 
ENDBRANCH  11  16
BRANCH  13  18
ATOM     18  C   UNL A   1      31.223  23.546  24.212  1.00  0.00     0.243 C 
ATOM     19  N   UNL A   1      30.421  23.434  25.468  1.00  0.00    -0.338 N 
ATOM     20  C   UNL A   1      30.858  24.906  23.473  1.00  0.00     0.196 C 
ATOM     21  C   UNL A   1      30.596  24.592  26.361  1.00  0.00     0.265 C 
ATOM     22  H   UNL A   1      30.711  22.591  25.965  1.00  0.00     0.346 HD
ATOM     23  H   UNL A   1      29.438  23.395  25.203  1.00  0.00     0.346 HD
ATOM     24  C   UNL A   1      30.963  26.071  24.417  1.00  0.00    -0.025 C 
ATOM     25  N   UNL A   1      31.747  25.252  22.325  1.00  0.00    -0.270 NA
ATOM     26  C   UNL A   1      30.242  25.939  25.711  1.00  0.00     0.095 C 
ATOM     27  C   UNL A   1      31.843  26.963  23.983  1.00  0.00     0.001 A 
ATOM     28  C   UNL A   1      32.268  26.388  22.689  1.00  0.00     0.066 A 
ATOM     29  C   UNL A   1      32.490  28.095  24.560  1.00  0.00     0.010 A 
ATOM     30  C   UNL A   1      33.366  27.098  21.992  1.00  0.00     0.028 A 
ATOM     31  C   UNL A   1      33.536  28.632  23.910  1.00  0.00     0.001 A 
ATOM     32  C   UNL A   1      33.967  28.126  22.615  1.00  0.00     0.002 A 
ENDBRANCH  13  18
ENDBRANCH   9  10
ENDBRANCH   8   9
ENDBRANCH   5   8
ENDBRANCH   3   4
ENDBRANCH   2   3
ENDBRANCH   1   2
BRANCH   1  33
ATOM     33  C   UNL A   1      43.671  22.201  26.724  1.00  0.00     0.002 C 
BRANCH  33  34
ATOM     34  C   UNL A   1      44.192  23.260  27.695  1.00  0.00     0.021 C 
BRANCH  34  35
ATOM     35  C   UNL A   1      44.298  24.665  27.120  1.00  0.00     0.116 C 
BRANCH  35  36
ATOM     36  N   UNL A   1      43.417  24.865  25.980  1.00  0.00    -0.352 N 
ATOM     37  C   UNL A   1      42.276  25.624  25.893  1.00  0.00     0.251 C 
ATOM     38  H   UNL A   1      43.674  24.391  25.157  1.00  0.00     0.163 HD
ATOM     39  O   UNL A   1      41.554  25.535  24.901  1.00  0.00    -0.269 OA
BRANCH  37  40
ATOM     40  C   UNL A   1      41.908  26.528  27.004  1.00  0.00     0.039 A 
ATOM     41  C   UNL A   1      41.033  26.069  27.990  1.00  0.00     0.014 A 
ATOM     42  C   UNL A   1      42.432  27.823  27.078  1.00  0.00     0.014 A 
ATOM     43  C   UNL A   1      40.733  26.885  29.083  1.00  0.00     0.010 A 
ATOM     44  C   UNL A   1      42.194  28.603  28.206  1.00  0.00     0.010 A 
ATOM     45  C   UNL A   1      41.339  28.145  29.220  1.00  0.00    -0.014 A 
BRANCH  45  46
ATOM     46  C   UNL A   1      41.094  28.993  30.416  1.00  0.00     0.031 A 
ATOM     47  C   UNL A   1      41.914  28.799  31.663  1.00  0.00     0.074 A 
ATOM     48  C   UNL A   1      40.091  29.893  30.399  1.00  0.00     0.049 A 
ATOM     49  N   UNL A   1      41.808  29.398  32.822  1.00  0.00    -0.248 NA
ATOM     50  C   UNL A   1      42.975  27.781  31.612  1.00  0.00     0.031 C 
ATOM     51  C   UNL A   1      39.191  30.137  29.268  1.00  0.00     0.029 A 
ATOM     52  N   UNL A   1      39.648  30.764  31.364  1.00  0.00    -0.354 N 
ATOM     53  C   UNL A   1      42.772  28.819  33.638  1.00  0.00     0.074 A 
ATOM     54  C   UNL A   1      43.421  27.787  32.860  1.00  0.00     0.031 C 
ATOM     55  C   UNL A   1      38.320  31.104  29.597  1.00  0.00     0.029 A 
ATOM     56  C   UNL A   1      38.568  31.521  30.974  1.00  0.00     0.049 A 
ATOM     57  H   UNL A   1      40.065  30.839  32.253  1.00  0.00     0.167 HD
ATOM     58  C   UNL A   1      43.102  29.135  34.914  1.00  0.00     0.037 A 
ATOM     59  C   UNL A   1      37.850  32.439  31.651  1.00  0.00     0.037 A 
ATOM     60  C   UNL A   1      42.470  30.184  35.672  1.00  0.00     0.049 A 
ATOM     61  C   UNL A   1      38.237  32.772  33.067  1.00  0.00     0.074 A 
ATOM     62  C   UNL A   1      42.781  30.630  36.944  1.00  0.00     0.029 A 
ATOM     63  N   UNL A   1      41.396  30.945  35.235  1.00  0.00    -0.354 N 
ATOM     64  N   UNL A   1      39.205  32.271  33.796  1.00  0.00    -0.248 NA
ATOM     65  C   UNL A   1      37.442  33.802  33.750  1.00  0.00     0.031 C 
ATOM     66  C   UNL A   1      41.858  31.618  37.300  1.00  0.00     0.029 A 
ATOM     67  C   UNL A   1      41.013  31.835  36.224  1.00  0.00     0.049 A 
ATOM     68  H   UNL A   1      40.969  30.863  34.351  1.00  0.00     0.167 HD
ATOM     69  C   UNL A   1      39.152  32.943  35.013  1.00  0.00     0.074 A 
ATOM     70  C   UNL A   1      38.067  33.896  34.915  1.00  0.00     0.031 C 
ATOM     71  C   UNL A   1      39.933  32.785  36.111  1.00  0.00     0.037 A 
BRANCH  58  72
ATOM     72  C   UNL A   1      44.194  28.340  35.576  1.00  0.00     0.058 A 
ATOM     73  C   UNL A   1      43.923  27.172  36.309  1.00  0.00     0.135 A 
ATOM     74  C   UNL A   1      45.539  28.721  35.432  1.00  0.00     0.135 A 
ATOM     75  F   UNL A   1      42.656  26.768  36.493  1.00  0.00    -0.206 F 
ATOM     76  C   UNL A   1      44.942  26.427  36.895  1.00  0.00     0.059 A 
ATOM     77  C   UNL A   1      46.576  27.973  35.983  1.00  0.00     0.059 A 
ATOM     78  F   UNL A   1      45.858  29.828  34.743  1.00  0.00    -0.206 F 
ATOM     79  C   UNL A   1      46.266  26.835  36.723  1.00  0.00     0.060 A 
BRANCH  79  80
ATOM     80  S   UNL A   1      47.575  25.848  37.478  1.00  0.00     0.124 S 
ATOM     81  O   UNL A   1      48.753  26.337  36.769  1.00  0.00    -0.237 OA
ATOM     82  O   UNL A   1      47.479  26.227  38.884  1.00  0.00    -0.237 OA
ATOM     83  O   UNL A   1      47.185  24.474  37.174  1.00  0.00    -0.744 OA
ENDBRANCH  79  80
ENDBRANCH  58  72
BRANCH  59  84
ATOM     84  C   UNL A   1      36.694  33.114  30.996  1.00  0.00     0.058 A 
ATOM     85  C   UNL A   1      35.375  32.819  31.370  1.00  0.00     0.135 A 
ATOM     86  C   UNL A   1      36.889  34.070  29.986  1.00  0.00     0.135 A 
ATOM     87  F   UNL A   1      35.136  31.909  32.326  1.00  0.00    -0.206 F 
ATOM     88  C   UNL A   1      34.288  33.429  30.752  1.00  0.00     0.059 A 
ATOM     89  C   UNL A   1      35.819  34.716  29.375  1.00  0.00     0.059 A 
ATOM     90  F   UNL A   1      38.131  34.401  29.604  1.00  0.00    -0.206 F 
ATOM     91  C   UNL A   1      34.521  34.379  29.755  1.00  0.00     0.060 A 
BRANCH  91  92
ATOM     92  S   UNL A   1      33.104  35.194  28.987  1.00  0.00     0.124 S 
ATOM     93  O   UNL A   1      33.726  36.382  28.413  1.00  0.00    -0.237 OA
ATOM     94  O   UNL A   1      32.651  34.186  28.035  1.00  0.00    -0.237 OA
ATOM     95  O   UNL A   1      32.205  35.433  30.112  1.00  0.00    -0.744 OA
ENDBRANCH  91  92
ENDBRANCH  59  84
BRANCH  71  96
ATOM     96  C   UNL A   1      39.671  33.687  37.286  1.00  0.00     0.058 A 
ATOM     97  C   UNL A   1      38.893  33.275  38.380  1.00  0.00     0.135 A 
ATOM     98  C   UNL A   1      40.253  34.965  37.342  1.00  0.00     0.135 A 
ATOM     99  F   UNL A   1      38.309  32.066  38.375  1.00  0.00    -0.206 F 
ATOM    100  C   UNL A   1      38.682  34.105  39.475  1.00  0.00     0.059 A 
ATOM    101  C   UNL A   1      40.080  35.800  38.442  1.00  0.00     0.059 A 
ATOM    102  F   UNL A   1      41.014  35.407  36.328  1.00  0.00    -0.206 F 
ATOM    103  C   UNL A   1      39.283  35.365  39.499  1.00  0.00     0.060 A 
BRANCH 103 104
ATOM    104  S   UNL A   1      39.028  36.418  40.942  1.00  0.00     0.124 S 
ATOM    105  O   UNL A   1      40.320  36.317  41.612  1.00  0.00    -0.237 OA
ATOM    106  O   UNL A   1      38.727  37.711  40.337  1.00  0.00    -0.237 OA
ATOM    107  O   UNL A   1      37.912  35.781  41.636  1.00  0.00    -0.744 OA
ENDBRANCH 103 104
ENDBRANCH  71  96
ENDBRANCH  45  46
ENDBRANCH  37  40
ENDBRANCH  35  36
ENDBRANCH  34  35
ENDBRANCH  33  34
ENDBRANCH   1  33
TORSDOF 20
ENDMDL
