MODEL 1
REMARK VINA RESULT:     -11.6      0.000      0.000
REMARK SMILES CCc1nc(=O)n([C@H]2CCCOC2)c(CC)c1CC(=O)NCCCCCCNC(=O)c1ccc(-c2c3nc(c(-c4c(F)cc(S(=O)(=O)[O-])cc4F)c4ccc([nH]4)c(-c4c(F)cc(S(=O)(=O)[O-])cc4F)c4nc(c(-c5c(F)cc(S(=O)(=O)[O-])cc5F)c5ccc2[nH]5)C=C4)C=C3)cc1
REMARK SMILES IDX 25 1 24 2 23 3 22 4 21 5 19 6 20 7 18 9 17 10 3 11 4 12 5 13
REMARK SMILES IDX 14 14 6 15 7 16 2 17 1 18 15 19 16 20 8 21 9 22 13 23 10 24
REMARK SMILES IDX 12 25 11 26 26 27 27 28 28 29 29 30 30 32 31 33 32 34 96 35
REMARK SMILES IDX 33 36 95 37 34 38 35 39 36 40 89 41 37 42 94 43 88 44 90 45
REMARK SMILES IDX 38 46 93 47 87 48 86 49 39 51 73 52 52 53 72 54 53 55 56 56
REMARK SMILES IDX 71 57 91 58 54 59 55 60 70 62 92 63 57 64 40 65 41 66 50 67
REMARK SMILES IDX 42 68 43 69 49 70 51 71 44 72 45 73 46 74 47 75 48 76 74 77
REMARK SMILES IDX 75 78 84 79 76 80 77 81 83 82 85 83 78 84 79 85 80 86 81 87
REMARK SMILES IDX 82 88 58 89 59 90 68 91 60 92 61 93 67 94 69 95 62 96 63 97
REMARK SMILES IDX 64 98 65 99 66 100
REMARK H PARENT 21 8 28 31 90 50 56 61
REMARK Flexibility Score: inf
ROOT
ATOM      1  C   UNL A   1      39.483  21.035  25.964  1.00  0.00     0.002 C 
ENDROOT
BRANCH   1   2
ATOM      2  C   UNL A   1      38.165  21.770  25.697  1.00  0.00     0.002 C 
BRANCH   2   3
ATOM      3  C   UNL A   1      37.250  21.085  24.678  1.00  0.00     0.021 C 
BRANCH   3   4
ATOM      4  C   UNL A   1      35.795  21.007  25.123  1.00  0.00     0.116 C 
BRANCH   4   5
ATOM      5  N   UNL A   1      34.886  21.421  24.079  1.00  0.00    -0.356 N 
ATOM      6  C   UNL A   1      34.300  22.634  23.892  1.00  0.00     0.224 C 
ATOM      7  O   UNL A   1      33.575  22.793  22.909  1.00  0.00    -0.275 OA
ATOM      8  H   UNL A   1      34.661  20.731  23.413  1.00  0.00     0.163 HD
BRANCH   6   9
ATOM      9  C   UNL A   1      34.598  23.775  24.859  1.00  0.00     0.139 C 
BRANCH   9  10
ATOM     10  C   UNL A   1      33.415  24.541  25.415  1.00  0.00     0.003 A 
ATOM     11  C   UNL A   1      32.498  23.832  26.365  1.00  0.00     0.051 A 
ATOM     12  N   UNL A   1      31.357  24.302  26.726  1.00  0.00    -0.198 NA
ATOM     13  C   UNL A   1      30.947  25.525  26.286  1.00  0.00     0.348 A 
ATOM     14  C   UNL A   1      33.068  25.826  25.129  1.00  0.00     0.028 A 
ATOM     15  O   UNL A   1      29.778  25.864  26.428  1.00  0.00    -0.246 OA
ATOM     16  N   UNL A   1      31.908  26.393  25.709  1.00  0.00    -0.291 N 
BRANCH  11  17
ATOM     17  C   UNL A   1      32.798  22.424  26.913  1.00  0.00     0.053 C 
ATOM     18  C   UNL A   1      33.898  22.309  27.951  1.00  0.00     0.011 C 
ENDBRANCH  11  17
BRANCH  14  19
ATOM     19  C   UNL A   1      33.866  26.597  24.092  1.00  0.00     0.051 C 
ATOM     20  C   UNL A   1      33.373  26.343  22.667  1.00  0.00     0.010 C 
ENDBRANCH  14  19
BRANCH  16  21
ATOM     21  C   UNL A   1      31.462  27.828  25.719  1.00  0.00     0.118 C 
ATOM     22  C   UNL A   1      31.561  28.425  27.156  1.00  0.00     0.030 C 
ATOM     23  C   UNL A   1      32.127  28.913  24.846  1.00  0.00     0.185 C 
ATOM     24  C   UNL A   1      33.018  28.665  27.537  1.00  0.00     0.031 C 
ATOM     25  O   UNL A   1      33.500  29.134  25.184  1.00  0.00    -0.379 OA
ATOM     26  C   UNL A   1      33.699  29.570  26.523  1.00  0.00     0.160 C 
ENDBRANCH  16  21
ENDBRANCH   9  10
ENDBRANCH   6   9
ENDBRANCH   4   5
ENDBRANCH   3   4
ENDBRANCH   2   3
ENDBRANCH   1   2
BRANCH   1  27
ATOM     27  C   UNL A   1      40.424  21.740  26.940  1.00  0.00     0.021 C 
BRANCH  27  28
ATOM     28  C   UNL A   1      40.076  23.199  27.197  1.00  0.00     0.116 C 
BRANCH  28  29
ATOM     29  N   UNL A   1      40.578  24.076  26.148  1.00  0.00    -0.352 N 
ATOM     30  C   UNL A   1      40.880  25.417  26.218  1.00  0.00     0.251 C 
ATOM     31  H   UNL A   1      40.721  23.653  25.271  1.00  0.00     0.163 HD
ATOM     32  O   UNL A   1      41.119  26.054  25.198  1.00  0.00    -0.269 OA
BRANCH  30  33
ATOM     33  C   UNL A   1      40.875  26.081  27.539  1.00  0.00     0.039 A 
ATOM     34  C   UNL A   1      39.796  25.899  28.405  1.00  0.00     0.014 A 
ATOM     35  C   UNL A   1      41.915  26.949  27.877  1.00  0.00     0.014 A 
ATOM     36  C   UNL A   1      39.656  26.735  29.503  1.00  0.00     0.010 A 
ATOM     37  C   UNL A   1      41.821  27.712  29.046  1.00  0.00     0.010 A 
ATOM     38  C   UNL A   1      40.660  27.661  29.835  1.00  0.00    -0.014 A 
BRANCH  38  39
ATOM     39  C   UNL A   1      40.438  28.586  30.980  1.00  0.00     0.031 A 
ATOM     40  C   UNL A   1      41.340  28.542  32.191  1.00  0.00     0.074 A 
ATOM     41  C   UNL A   1      39.483  29.535  30.884  1.00  0.00     0.049 A 
ATOM     42  N   UNL A   1      41.331  29.312  33.249  1.00  0.00    -0.248 NA
ATOM     43  C   UNL A   1      42.385  27.505  32.223  1.00  0.00     0.031 C 
ATOM     44  C   UNL A   1      38.558  29.688  29.757  1.00  0.00     0.029 A 
ATOM     45  N   UNL A   1      39.155  30.573  31.720  1.00  0.00    -0.354 N 
ATOM     46  C   UNL A   1      42.357  28.853  34.068  1.00  0.00     0.074 A 
ATOM     47  C   UNL A   1      42.941  27.706  33.411  1.00  0.00     0.031 C 
ATOM     48  C   UNL A   1      37.820  30.793  29.938  1.00  0.00     0.029 A 
ATOM     49  C   UNL A   1      38.164  31.389  31.223  1.00  0.00     0.049 A 
ATOM     50  H   UNL A   1      39.586  30.719  32.592  1.00  0.00     0.167 HD
ATOM     51  C   UNL A   1      42.794  29.360  35.246  1.00  0.00     0.037 A 
ATOM     52  C   UNL A   1      37.586  32.488  31.748  1.00  0.00     0.037 A 
ATOM     53  C   UNL A   1      42.235  30.524  35.880  1.00  0.00     0.049 A 
ATOM     54  C   UNL A   1      38.043  32.978  33.095  1.00  0.00     0.074 A 
ATOM     55  C   UNL A   1      42.626  31.123  37.066  1.00  0.00     0.029 A 
ATOM     56  N   UNL A   1      41.180  31.273  35.382  1.00  0.00    -0.354 N 
ATOM     57  N   UNL A   1      39.031  32.541  33.838  1.00  0.00    -0.248 NA
ATOM     58  C   UNL A   1      37.295  34.098  33.685  1.00  0.00     0.031 C 
ATOM     59  C   UNL A   1      41.777  32.206  37.308  1.00  0.00     0.029 A 
ATOM     60  C   UNL A   1      40.887  32.309  36.251  1.00  0.00     0.049 A 
ATOM     61  H   UNL A   1      40.710  31.093  34.536  1.00  0.00     0.167 HD
ATOM     62  C   UNL A   1      39.030  33.341  34.976  1.00  0.00     0.074 A 
ATOM     63  C   UNL A   1      37.963  34.305  34.812  1.00  0.00     0.031 C 
ATOM     64  C   UNL A   1      39.832  33.272  36.066  1.00  0.00     0.037 A 
BRANCH  51  65
ATOM     65  C   UNL A   1      43.952  28.686  35.932  1.00  0.00     0.058 A 
ATOM     66  C   UNL A   1      43.757  27.573  36.763  1.00  0.00     0.135 A 
ATOM     67  C   UNL A   1      45.272  29.079  35.660  1.00  0.00     0.135 A 
ATOM     68  F   UNL A   1      42.515  27.166  37.070  1.00  0.00    -0.206 F 
ATOM     69  C   UNL A   1      44.831  26.869  37.297  1.00  0.00     0.059 A 
ATOM     70  C   UNL A   1      46.362  28.376  36.164  1.00  0.00     0.059 A 
ATOM     71  F   UNL A   1      45.513  30.139  34.871  1.00  0.00    -0.206 F 
ATOM     72  C   UNL A   1      46.131  27.270  36.982  1.00  0.00     0.060 A 
BRANCH  72  73
ATOM     73  S   UNL A   1      47.506  26.304  37.640  1.00  0.00     0.124 S 
ATOM     74  O   UNL A   1      47.266  26.395  39.077  1.00  0.00    -0.237 OA
ATOM     75  O   UNL A   1      47.276  24.994  37.041  1.00  0.00    -0.237 OA
ATOM     76  O   UNL A   1      48.687  27.015  37.156  1.00  0.00    -0.744 OA
ENDBRANCH  72  73
ENDBRANCH  51  65
BRANCH  52  77
ATOM     77  C   UNL A   1      36.499  33.192  31.014  1.00  0.00     0.058 A 
ATOM     78  C   UNL A   1      36.783  34.002  29.904  1.00  0.00     0.135 A 
ATOM     79  C   UNL A   1      35.160  33.093  31.422  1.00  0.00     0.135 A 
ATOM     80  F   UNL A   1      38.049  34.136  29.476  1.00  0.00    -0.206 F 
ATOM     81  C   UNL A   1      35.785  34.713  29.246  1.00  0.00     0.059 A 
ATOM     82  C   UNL A   1      34.139  33.767  30.760  1.00  0.00     0.059 A 
ATOM     83  F   UNL A   1      34.829  32.321  32.470  1.00  0.00    -0.206 F 
ATOM     84  C   UNL A   1      34.465  34.591  29.685  1.00  0.00     0.060 A 
BRANCH  84  85
ATOM     85  S   UNL A   1      33.179  35.521  28.826  1.00  0.00     0.124 S 
ATOM     86  O   UNL A   1      32.528  34.472  28.048  1.00  0.00    -0.237 OA
ATOM     87  O   UNL A   1      32.403  36.068  29.934  1.00  0.00    -0.237 OA
ATOM     88  O   UNL A   1      33.933  36.503  28.051  1.00  0.00    -0.744 OA
ENDBRANCH  84  85
ENDBRANCH  52  77
BRANCH  64  89
ATOM     89  C   UNL A   1      39.599  34.258  37.174  1.00  0.00     0.058 A 
ATOM     90  C   UNL A   1      38.825  33.920  38.294  1.00  0.00     0.135 A 
ATOM     91  C   UNL A   1      40.248  35.503  37.174  1.00  0.00     0.135 A 
ATOM     92  F   UNL A   1      38.177  32.744  38.336  1.00  0.00    -0.206 F 
ATOM     93  C   UNL A   1      38.708  34.778  39.380  1.00  0.00     0.059 A 
ATOM     94  C   UNL A   1      40.166  36.368  38.261  1.00  0.00     0.059 A 
ATOM     95  F   UNL A   1      41.006  35.871  36.128  1.00  0.00    -0.206 F 
ATOM     96  C   UNL A   1      39.396  35.993  39.362  1.00  0.00     0.060 A 
BRANCH  96  97
ATOM     97  S   UNL A   1      39.304  37.051  40.820  1.00  0.00     0.124 S 
ATOM     98  O   UNL A   1      40.713  37.335  41.071  1.00  0.00    -0.237 OA
ATOM     99  O   UNL A   1      38.507  38.174  40.336  1.00  0.00    -0.237 OA
ATOM    100  O   UNL A   1      38.648  36.208  41.815  1.00  0.00    -0.744 OA
ENDBRANCH  96  97
ENDBRANCH  64  89
ENDBRANCH  38  39
ENDBRANCH  30  33
ENDBRANCH  28  29
ENDBRANCH  27  28
ENDBRANCH   1  27
TORSDOF 20
ENDMDL
MODEL 2
REMARK VINA RESULT:     -11.5      5.216     10.223
REMARK SMILES CCc1nc(=O)n([C@H]2CCCOC2)c(CC)c1CC(=O)NCCCCCCNC(=O)c1ccc(-c2c3nc(c(-c4c(F)cc(S(=O)(=O)[O-])cc4F)c4ccc([nH]4)c(-c4c(F)cc(S(=O)(=O)[O-])cc4F)c4nc(c(-c5c(F)cc(S(=O)(=O)[O-])cc5F)c5ccc2[nH]5)C=C4)C=C3)cc1
REMARK SMILES IDX 25 1 24 2 23 3 22 4 21 5 19 6 20 7 18 9 17 10 3 11 4 12 5 13
REMARK SMILES IDX 14 14 6 15 7 16 2 17 1 18 15 19 16 20 8 21 9 22 13 23 10 24
REMARK SMILES IDX 12 25 11 26 26 27 27 28 28 29 29 30 30 32 31 33 32 34 96 35
REMARK SMILES IDX 33 36 95 37 34 38 35 39 36 40 89 41 37 42 94 43 88 44 90 45
REMARK SMILES IDX 38 46 93 47 87 48 86 49 39 51 73 52 52 53 72 54 53 55 56 56
REMARK SMILES IDX 71 57 91 58 54 59 55 60 70 62 92 63 57 64 40 65 41 66 50 67
REMARK SMILES IDX 42 68 43 69 49 70 51 71 44 72 45 73 46 74 47 75 48 76 74 77
REMARK SMILES IDX 75 78 84 79 76 80 77 81 83 82 85 83 78 84 79 85 80 86 81 87
REMARK SMILES IDX 82 88 58 89 59 90 68 91 60 92 61 93 67 94 69 95 62 96 63 97
REMARK SMILES IDX 64 98 65 99 66 100
REMARK H PARENT 21 8 28 31 90 50 56 61
REMARK Flexibility Score: inf
ROOT
ATOM      1  C   UNL A   1      32.050  29.063  25.357  1.00  0.00     0.002 C 
ENDROOT
BRANCH   1   2
ATOM      2  C   UNL A   1      33.269  29.407  24.492  1.00  0.00     0.002 C 
BRANCH   2   3
ATOM      3  C   UNL A   1      33.152  28.972  23.028  1.00  0.00     0.021 C 
BRANCH   3   4
ATOM      4  C   UNL A   1      31.968  28.051  22.761  1.00  0.00     0.116 C 
BRANCH   4   5
ATOM      5  N   UNL A   1      32.365  26.843  22.074  1.00  0.00    -0.356 N 
ATOM      6  C   UNL A   1      33.186  25.850  22.508  1.00  0.00     0.224 C 
ATOM      7  O   UNL A   1      33.372  24.877  21.775  1.00  0.00    -0.275 OA
ATOM      8  H   UNL A   1      31.989  26.723  21.172  1.00  0.00     0.163 HD
BRANCH   6   9
ATOM      9  C   UNL A   1      33.805  25.932  23.899  1.00  0.00     0.139 C 
BRANCH   9  10
ATOM     10  C   UNL A   1      33.479  24.817  24.871  1.00  0.00     0.003 A 
ATOM     11  C   UNL A   1      32.133  24.825  25.531  1.00  0.00     0.051 A 
ATOM     12  N   UNL A   1      31.830  24.065  26.522  1.00  0.00    -0.198 NA
ATOM     13  C   UNL A   1      32.732  23.158  26.995  1.00  0.00     0.348 A 
ATOM     14  C   UNL A   1      34.297  23.792  25.240  1.00  0.00     0.028 A 
ATOM     15  O   UNL A   1      32.539  22.612  28.074  1.00  0.00    -0.246 OA
ATOM     16  N   UNL A   1      33.855  22.840  26.190  1.00  0.00    -0.291 N 
BRANCH  11  17
ATOM     17  C   UNL A   1      31.025  25.822  25.142  1.00  0.00     0.053 C 
ATOM     18  C   UNL A   1      29.738  25.766  25.942  1.00  0.00     0.011 C 
ENDBRANCH  11  17
BRANCH  14  19
ATOM     19  C   UNL A   1      35.721  23.753  24.716  1.00  0.00     0.051 C 
ATOM     20  C   UNL A   1      36.743  24.192  25.766  1.00  0.00     0.010 C 
ENDBRANCH  14  19
BRANCH  16  21
ATOM     21  C   UNL A   1      34.479  21.528  26.572  1.00  0.00     0.118 C 
ATOM     22  C   UNL A   1      33.388  20.425  26.730  1.00  0.00     0.030 C 
ATOM     23  C   UNL A   1      35.553  20.833  25.709  1.00  0.00     0.185 C 
ATOM     24  C   UNL A   1      32.853  20.002  25.366  1.00  0.00     0.031 C 
ATOM     25  O   UNL A   1      35.064  20.448  24.420  1.00  0.00    -0.379 OA
ATOM     26  C   UNL A   1      33.982  19.527  24.466  1.00  0.00     0.160 C 
ENDBRANCH  16  21
ENDBRANCH   9  10
ENDBRANCH   6   9
ENDBRANCH   4   5
ENDBRANCH   3   4
ENDBRANCH   2   3
ENDBRANCH   1   2
BRANCH   1  27
ATOM     27  C   UNL A   1      32.383  28.569  26.765  1.00  0.00     0.021 C 
BRANCH  27  28
ATOM     28  C   UNL A   1      33.781  28.937  27.240  1.00  0.00     0.116 C 
BRANCH  28  29
ATOM     29  N   UNL A   1      33.820  30.250  27.869  1.00  0.00    -0.352 N 
ATOM     30  C   UNL A   1      34.832  30.824  28.602  1.00  0.00     0.251 C 
ATOM     31  H   UNL A   1      33.012  30.803  27.753  1.00  0.00     0.163 HD
ATOM     32  O   UNL A   1      34.639  31.867  29.219  1.00  0.00    -0.269 OA
BRANCH  30  33
ATOM     33  C   UNL A   1      36.143  30.144  28.661  1.00  0.00     0.039 A 
ATOM     34  C   UNL A   1      36.567  29.554  29.853  1.00  0.00     0.014 A 
ATOM     35  C   UNL A   1      36.982  30.166  27.546  1.00  0.00     0.014 A 
ATOM     36  C   UNL A   1      37.895  29.175  29.989  1.00  0.00     0.010 A 
ATOM     37  C   UNL A   1      38.289  29.681  27.657  1.00  0.00     0.010 A 
ATOM     38  C   UNL A   1      38.779  29.242  28.899  1.00  0.00    -0.014 A 
BRANCH  38  39
ATOM     39  C   UNL A   1      40.211  28.892  29.108  1.00  0.00     0.031 A 
ATOM     40  C   UNL A   1      40.734  27.529  28.721  1.00  0.00     0.074 A 
ATOM     41  C   UNL A   1      41.061  29.839  29.555  1.00  0.00     0.049 A 
ATOM     42  N   UNL A   1      41.960  27.075  28.774  1.00  0.00    -0.248 NA
ATOM     43  C   UNL A   1      39.762  26.547  28.207  1.00  0.00     0.031 C 
ATOM     44  C   UNL A   1      40.677  31.198  29.948  1.00  0.00     0.029 A 
ATOM     45  N   UNL A   1      42.424  29.824  29.717  1.00  0.00    -0.354 N 
ATOM     46  C   UNL A   1      41.907  25.764  28.310  1.00  0.00     0.074 A 
ATOM     47  C   UNL A   1      40.521  25.475  28.023  1.00  0.00     0.031 C 
ATOM     48  C   UNL A   1      41.781  31.904  30.235  1.00  0.00     0.029 A 
ATOM     49  C   UNL A   1      42.945  31.034  30.118  1.00  0.00     0.049 A 
ATOM     50  H   UNL A   1      42.977  29.025  29.562  1.00  0.00     0.167 HD
ATOM     51  C   UNL A   1      42.923  24.892  28.112  1.00  0.00     0.037 A 
ATOM     52  C   UNL A   1      44.216  31.400  30.376  1.00  0.00     0.037 A 
ATOM     53  C   UNL A   1      44.307  25.196  28.363  1.00  0.00     0.049 A 
ATOM     54  C   UNL A   1      45.313  30.382  30.221  1.00  0.00     0.074 A 
ATOM     55  C   UNL A   1      45.411  24.381  28.173  1.00  0.00     0.029 A 
ATOM     56  N   UNL A   1      44.782  26.406  28.846  1.00  0.00    -0.354 N 
ATOM     57  N   UNL A   1      45.240  29.157  29.757  1.00  0.00    -0.248 NA
ATOM     58  C   UNL A   1      46.662  30.788  30.640  1.00  0.00     0.031 C 
ATOM     59  C   UNL A   1      46.547  25.082  28.585  1.00  0.00     0.029 A 
ATOM     60  C   UNL A   1      46.157  26.349  28.988  1.00  0.00     0.049 A 
ATOM     61  H   UNL A   1      44.223  27.189  29.055  1.00  0.00     0.167 HD
ATOM     62  C   UNL A   1      46.534  28.653  29.818  1.00  0.00     0.074 A 
ATOM     63  C   UNL A   1      47.375  29.711  30.336  1.00  0.00     0.031 C 
ATOM     64  C   UNL A   1      46.983  27.417  29.489  1.00  0.00     0.037 A 
BRANCH  51  65
ATOM     65  C   UNL A   1      42.602  23.526  27.571  1.00  0.00     0.058 A 
ATOM     66  C   UNL A   1      42.633  23.263  26.193  1.00  0.00     0.135 A 
ATOM     67  C   UNL A   1      42.382  22.444  28.440  1.00  0.00     0.135 A 
ATOM     68  F   UNL A   1      42.821  24.263  25.317  1.00  0.00    -0.206 F 
ATOM     69  C   UNL A   1      42.462  21.976  25.696  1.00  0.00     0.059 A 
ATOM     70  C   UNL A   1      42.233  21.145  27.966  1.00  0.00     0.059 A 
ATOM     71  F   UNL A   1      42.342  22.642  29.768  1.00  0.00    -0.206 F 
ATOM     72  C   UNL A   1      42.276  20.920  26.591  1.00  0.00     0.060 A 
BRANCH  72  73
ATOM     73  S   UNL A   1      42.116  19.251  25.922  1.00  0.00     0.124 S 
ATOM     74  O   UNL A   1      40.687  19.190  25.625  1.00  0.00    -0.237 OA
ATOM     75  O   UNL A   1      43.002  19.297  24.764  1.00  0.00    -0.237 OA
ATOM     76  O   UNL A   1      42.564  18.398  27.019  1.00  0.00    -0.744 OA
ENDBRANCH  72  73
ENDBRANCH  51  65
BRANCH  52  77
ATOM     77  C   UNL A   1      44.525  32.784  30.829  1.00  0.00     0.058 A 
ATOM     78  C   UNL A   1      44.449  33.134  32.186  1.00  0.00     0.135 A 
ATOM     79  C   UNL A   1      44.874  33.791  29.915  1.00  0.00     0.135 A 
ATOM     80  F   UNL A   1      44.113  32.211  33.100  1.00  0.00    -0.206 F 
ATOM     81  C   UNL A   1      44.676  34.438  32.616  1.00  0.00     0.059 A 
ATOM     82  C   UNL A   1      45.138  35.093  30.324  1.00  0.00     0.059 A 
ATOM     83  F   UNL A   1      44.974  33.508  28.606  1.00  0.00    -0.206 F 
ATOM     84  C   UNL A   1      45.017  35.412  31.675  1.00  0.00     0.060 A 
BRANCH  84  85
ATOM     85  S   UNL A   1      45.305  37.100  32.244  1.00  0.00     0.124 S 
ATOM     86  O   UNL A   1      43.942  37.604  32.366  1.00  0.00    -0.237 OA
ATOM     87  O   UNL A   1      46.020  36.883  33.498  1.00  0.00    -0.237 OA
ATOM     88  O   UNL A   1      46.100  37.687  31.169  1.00  0.00    -0.744 OA
ENDBRANCH  84  85
ENDBRANCH  52  77
BRANCH  64  89
ATOM     89  C   UNL A   1      48.445  27.128  29.673  1.00  0.00     0.058 A 
ATOM     90  C   UNL A   1      49.386  27.507  28.705  1.00  0.00     0.135 A 
ATOM     91  C   UNL A   1      48.921  26.576  30.874  1.00  0.00     0.135 A 
ATOM     92  F   UNL A   1      48.980  28.029  27.537  1.00  0.00    -0.206 F 
ATOM     93  C   UNL A   1      50.751  27.357  28.922  1.00  0.00     0.059 A 
ATOM     94  C   UNL A   1      50.283  26.440  31.124  1.00  0.00     0.059 A 
ATOM     95  F   UNL A   1      48.060  26.203  31.835  1.00  0.00    -0.206 F 
ATOM     96  C   UNL A   1      51.190  26.838  30.142  1.00  0.00     0.060 A 
BRANCH  96  97
ATOM     97  S   UNL A   1      52.966  26.736  30.439  1.00  0.00     0.124 S 
ATOM     98  O   UNL A   1      53.271  28.092  30.887  1.00  0.00    -0.237 OA
ATOM     99  O   UNL A   1      53.049  25.698  31.462  1.00  0.00    -0.237 OA
ATOM    100  O   UNL A   1      53.512  26.370  29.137  1.00  0.00    -0.744 OA
ENDBRANCH  96  97
ENDBRANCH  64  89
ENDBRANCH  38  39
ENDBRANCH  30  33
ENDBRANCH  28  29
ENDBRANCH  27  28
ENDBRANCH   1  27
TORSDOF 20
ENDMDL
MODEL 3
REMARK VINA RESULT:     -11.4      4.825     10.505
REMARK SMILES CCc1nc(=O)n([C@H]2CCCOC2)c(CC)c1CC(=O)NCCCCCCNC(=O)c1ccc(-c2c3nc(c(-c4c(F)cc(S(=O)(=O)[O-])cc4F)c4ccc([nH]4)c(-c4c(F)cc(S(=O)(=O)[O-])cc4F)c4nc(c(-c5c(F)cc(S(=O)(=O)[O-])cc5F)c5ccc2[nH]5)C=C4)C=C3)cc1
REMARK SMILES IDX 25 1 24 2 23 3 22 4 21 5 19 6 20 7 18 9 17 10 3 11 4 12 5 13
REMARK SMILES IDX 14 14 6 15 7 16 2 17 1 18 15 19 16 20 8 21 9 22 13 23 10 24
REMARK SMILES IDX 12 25 11 26 26 27 27 28 28 29 29 30 30 32 31 33 32 34 96 35
REMARK SMILES IDX 33 36 95 37 34 38 35 39 36 40 89 41 37 42 94 43 88 44 90 45
REMARK SMILES IDX 38 46 93 47 87 48 86 49 39 51 73 52 52 53 72 54 53 55 56 56
REMARK SMILES IDX 71 57 91 58 54 59 55 60 70 62 92 63 57 64 40 65 41 66 50 67
REMARK SMILES IDX 42 68 43 69 49 70 51 71 44 72 45 73 46 74 47 75 48 76 74 77
REMARK SMILES IDX 75 78 84 79 76 80 77 81 83 82 85 83 78 84 79 85 80 86 81 87
REMARK SMILES IDX 82 88 58 89 59 90 68 91 60 92 61 93 67 94 69 95 62 96 63 97
REMARK SMILES IDX 64 98 65 99 66 100
REMARK H PARENT 21 8 28 31 90 50 56 61
REMARK Flexibility Score: inf
ROOT
ATOM      1  C   UNL A   1      31.738  29.130  25.529  1.00  0.00     0.002 C 
ENDROOT
BRANCH   1   2
ATOM      2  C   UNL A   1      31.053  29.662  24.265  1.00  0.00     0.002 C 
BRANCH   2   3
ATOM      3  C   UNL A   1      31.208  28.767  23.033  1.00  0.00     0.021 C 
BRANCH   3   4
ATOM      4  C   UNL A   1      32.653  28.610  22.575  1.00  0.00     0.116 C 
BRANCH   4   5
ATOM      5  N   UNL A   1      32.917  27.286  22.061  1.00  0.00    -0.356 N 
ATOM      6  C   UNL A   1      33.414  26.202  22.716  1.00  0.00     0.224 C 
ATOM      7  O   UNL A   1      33.533  25.144  22.098  1.00  0.00    -0.275 OA
ATOM      8  H   UNL A   1      32.708  27.149  21.108  1.00  0.00     0.163 HD
BRANCH   6   9
ATOM      9  C   UNL A   1      33.753  26.305  24.199  1.00  0.00     0.139 C 
BRANCH   9  10
ATOM     10  C   UNL A   1      33.414  25.116  25.074  1.00  0.00     0.003 A 
ATOM     11  C   UNL A   1      32.000  24.968  25.547  1.00  0.00     0.051 A 
ATOM     12  N   UNL A   1      31.646  24.132  26.458  1.00  0.00    -0.198 NA
ATOM     13  C   UNL A   1      32.562  23.287  27.010  1.00  0.00     0.348 A 
ATOM     14  C   UNL A   1      34.272  24.151  25.507  1.00  0.00     0.028 A 
ATOM     15  O   UNL A   1      32.286  22.670  28.032  1.00  0.00    -0.246 OA
ATOM     16  N   UNL A   1      33.806  23.115  26.351  1.00  0.00    -0.291 N 
BRANCH  11  17
ATOM     17  C   UNL A   1      30.860  25.879  25.055  1.00  0.00     0.053 C 
ATOM     18  C   UNL A   1      30.065  25.400  23.856  1.00  0.00     0.011 C 
ENDBRANCH  11  17
BRANCH  14  19
ATOM     19  C   UNL A   1      35.750  24.268  25.177  1.00  0.00     0.051 C 
ATOM     20  C   UNL A   1      36.090  23.696  23.800  1.00  0.00     0.010 C 
ENDBRANCH  14  19
BRANCH  16  21
ATOM     21  C   UNL A   1      34.498  21.846  26.760  1.00  0.00     0.118 C 
ATOM     22  C   UNL A   1      33.477  20.673  26.877  1.00  0.00     0.030 C 
ATOM     23  C   UNL A   1      35.649  21.223  25.940  1.00  0.00     0.185 C 
ATOM     24  C   UNL A   1      33.024  20.217  25.494  1.00  0.00     0.031 C 
ATOM     25  O   UNL A   1      35.237  20.808  24.634  1.00  0.00    -0.379 OA
ATOM     26  C   UNL A   1      34.217  19.818  24.640  1.00  0.00     0.160 C 
ENDBRANCH  16  21
ENDBRANCH   9  10
ENDBRANCH   6   9
ENDBRANCH   4   5
ENDBRANCH   3   4
ENDBRANCH   2   3
ENDBRANCH   1   2
BRANCH   1  27
ATOM     27  C   UNL A   1      33.170  29.622  25.738  1.00  0.00     0.021 C 
BRANCH  27  28
ATOM     28  C   UNL A   1      33.724  29.355  27.130  1.00  0.00     0.116 C 
BRANCH  28  29
ATOM     29  N   UNL A   1      33.733  30.554  27.957  1.00  0.00    -0.352 N 
ATOM     30  C   UNL A   1      34.728  31.021  28.784  1.00  0.00     0.251 C 
ATOM     31  H   UNL A   1      32.918  31.105  27.918  1.00  0.00     0.163 HD
ATOM     32  O   UNL A   1      34.511  31.951  29.554  1.00  0.00    -0.269 OA
BRANCH  30  33
ATOM     33  C   UNL A   1      36.050  30.359  28.754  1.00  0.00     0.039 A 
ATOM     34  C   UNL A   1      36.533  29.718  29.896  1.00  0.00     0.014 A 
ATOM     35  C   UNL A   1      36.839  30.449  27.606  1.00  0.00     0.014 A 
ATOM     36  C   UNL A   1      37.870  29.354  29.957  1.00  0.00     0.010 A 
ATOM     37  C   UNL A   1      38.156  29.980  27.638  1.00  0.00     0.010 A 
ATOM     38  C   UNL A   1      38.705  29.489  28.835  1.00  0.00    -0.014 A 
BRANCH  38  39
ATOM     39  C   UNL A   1      40.150  29.151  28.966  1.00  0.00     0.031 A 
ATOM     40  C   UNL A   1      41.109  30.117  29.618  1.00  0.00     0.074 A 
ATOM     41  C   UNL A   1      40.576  27.929  28.586  1.00  0.00     0.049 A 
ATOM     42  N   UNL A   1      42.384  29.963  29.872  1.00  0.00    -0.248 NA
ATOM     43  C   UNL A   1      40.577  31.424  30.042  1.00  0.00     0.031 C 
ATOM     44  C   UNL A   1      39.739  26.903  27.957  1.00  0.00     0.029 A 
ATOM     45  N   UNL A   1      41.802  27.323  28.707  1.00  0.00    -0.354 N 
ATOM     46  C   UNL A   1      42.803  31.144  30.475  1.00  0.00     0.074 A 
ATOM     47  C   UNL A   1      41.661  32.029  30.509  1.00  0.00     0.031 C 
ATOM     48  C   UNL A   1      40.454  25.776  27.814  1.00  0.00     0.029 A 
ATOM     49  C   UNL A   1      41.817  26.017  28.272  1.00  0.00     0.049 A 
ATOM     50  H   UNL A   1      42.595  27.779  29.070  1.00  0.00     0.167 HD
ATOM     51  C   UNL A   1      44.020  31.452  30.983  1.00  0.00     0.037 A 
ATOM     52  C   UNL A   1      42.818  25.116  28.234  1.00  0.00     0.037 A 
ATOM     53  C   UNL A   1      45.145  30.555  30.982  1.00  0.00     0.049 A 
ATOM     54  C   UNL A   1      44.179  25.518  28.735  1.00  0.00     0.074 A 
ATOM     55  C   UNL A   1      46.414  30.773  31.492  1.00  0.00     0.029 A 
ATOM     56  N   UNL A   1      45.139  29.271  30.458  1.00  0.00    -0.354 N 
ATOM     57  N   UNL A   1      44.544  26.632  29.323  1.00  0.00    -0.248 NA
ATOM     58  C   UNL A   1      45.269  24.549  28.551  1.00  0.00     0.031 C 
ATOM     59  C   UNL A   1      47.188  29.639  31.235  1.00  0.00     0.029 A 
ATOM     60  C   UNL A   1      46.390  28.697  30.606  1.00  0.00     0.049 A 
ATOM     61  H   UNL A   1      44.361  28.834  30.044  1.00  0.00     0.167 HD
ATOM     62  C   UNL A   1      45.901  26.491  29.589  1.00  0.00     0.074 A 
ATOM     63  C   UNL A   1      46.288  25.176  29.125  1.00  0.00     0.031 C 
ATOM     64  C   UNL A   1      46.755  27.379  30.154  1.00  0.00     0.037 A 
BRANCH  51  65
ATOM     65  C   UNL A   1      44.214  32.804  31.613  1.00  0.00     0.058 A 
ATOM     66  C   UNL A   1      44.629  33.908  30.853  1.00  0.00     0.135 A 
ATOM     67  C   UNL A   1      43.866  33.026  32.956  1.00  0.00     0.135 A 
ATOM     68  F   UNL A   1      44.991  33.750  29.570  1.00  0.00    -0.206 F 
ATOM     69  C   UNL A   1      44.687  35.185  31.400  1.00  0.00     0.059 A 
ATOM     70  C   UNL A   1      43.893  34.299  33.518  1.00  0.00     0.059 A 
ATOM     71  F   UNL A   1      43.464  32.002  33.727  1.00  0.00    -0.206 F 
ATOM     72  C   UNL A   1      44.305  35.374  32.730  1.00  0.00     0.060 A 
BRANCH  72  73
ATOM     73  S   UNL A   1      44.333  37.050  33.399  1.00  0.00     0.124 S 
ATOM     74  O   UNL A   1      45.758  37.239  33.655  1.00  0.00    -0.237 OA
ATOM     75  O   UNL A   1      43.779  37.830  32.297  1.00  0.00    -0.237 OA
ATOM     76  O   UNL A   1      43.490  36.960  34.588  1.00  0.00    -0.744 OA
ENDBRANCH  72  73
ENDBRANCH  51  65
BRANCH  52  77
ATOM     77  C   UNL A   1      42.585  23.752  27.684  1.00  0.00     0.058 A 
ATOM     78  C   UNL A   1      42.394  22.653  28.535  1.00  0.00     0.135 A 
ATOM     79  C   UNL A   1      42.577  23.514  26.301  1.00  0.00     0.135 A 
ATOM     80  F   UNL A   1      42.399  22.825  29.866  1.00  0.00    -0.206 F 
ATOM     81  C   UNL A   1      42.235  21.364  28.037  1.00  0.00     0.059 A 
ATOM     82  C   UNL A   1      42.388  22.240  25.777  1.00  0.00     0.059 A 
ATOM     83  F   UNL A   1      42.743  24.531  25.440  1.00  0.00    -0.206 F 
ATOM     84  C   UNL A   1      42.237  21.168  26.654  1.00  0.00     0.060 A 
BRANCH  84  85
ATOM     85  S   UNL A   1      42.034  19.491  26.018  1.00  0.00     0.124 S 
ATOM     86  O   UNL A   1      40.598  19.446  25.764  1.00  0.00    -0.237 OA
ATOM     87  O   UNL A   1      42.892  19.505  24.838  1.00  0.00    -0.237 OA
ATOM     88  O   UNL A   1      42.505  18.654  27.119  1.00  0.00    -0.744 OA
ENDBRANCH  84  85
ENDBRANCH  52  77
BRANCH  64  89
ATOM     89  C   UNL A   1      48.192  26.973  30.308  1.00  0.00     0.058 A 
ATOM     90  C   UNL A   1      49.150  27.318  29.343  1.00  0.00     0.135 A 
ATOM     91  C   UNL A   1      48.637  26.341  31.480  1.00  0.00     0.135 A 
ATOM     92  F   UNL A   1      48.772  27.915  28.201  1.00  0.00    -0.206 F 
ATOM     93  C   UNL A   1      50.501  27.058  29.536  1.00  0.00     0.059 A 
ATOM     94  C   UNL A   1      49.987  26.094  31.708  1.00  0.00     0.059 A 
ATOM     95  F   UNL A   1      47.761  25.997  32.438  1.00  0.00    -0.206 F 
ATOM     96  C   UNL A   1      50.912  26.460  30.729  1.00  0.00     0.060 A 
BRANCH  96  97
ATOM     97  S   UNL A   1      52.679  26.214  31.000  1.00  0.00     0.124 S 
ATOM     98  O   UNL A   1      53.041  27.430  31.721  1.00  0.00    -0.237 OA
ATOM     99  O   UNL A   1      52.702  24.982  31.782  1.00  0.00    -0.237 OA
ATOM    100  O   UNL A   1      53.220  26.103  29.649  1.00  0.00    -0.744 OA
ENDBRANCH  96  97
ENDBRANCH  64  89
ENDBRANCH  38  39
ENDBRANCH  30  33
ENDBRANCH  28  29
ENDBRANCH  27  28
ENDBRANCH   1  27
TORSDOF 20
ENDMDL
