MODEL 1
REMARK VINA RESULT:     -12.6      0.000      0.000
REMARK SMILES O=C(NCCCCCCNC(=O)c1cc(-c2ccccc2)nc(Nc2nc3ccccc3s2)n1)c1ccc(-c2c3nc(c(-c4c(F)cc(S(=O)(=O)[O-])cc4F)c4ccc([nH]4)c(-c4c(F)cc(S(=O)(=O)[O-])cc4F)c4nc(c(-c5c(F)cc(S(=O)(=O)[O-])cc5F)c5ccc2[nH]5)C=C4)C=C3)cc1
REMARK SMILES IDX 6 1 5 2 4 3 3 4 1 5 2 6 35 8 36 9 100 10 37 11 99 12 38 13
REMARK SMILES IDX 39 14 40 15 93 16 41 17 98 18 92 19 94 20 42 21 97 22 91 23
REMARK SMILES IDX 90 24 43 26 77 27 56 28 76 29 57 30 60 31 75 32 95 33 58 34
REMARK SMILES IDX 59 35 74 37 96 38 61 39 44 40 45 41 54 42 46 43 47 44 53 45
REMARK SMILES IDX 55 46 48 47 49 48 50 49 51 50 52 51 78 52 79 53 88 54 80 55
REMARK SMILES IDX 81 56 87 57 89 58 82 59 83 60 84 61 85 62 86 63 62 64 63 65
REMARK SMILES IDX 72 66 64 67 65 68 71 69 73 70 66 71 67 72 68 73 69 74 70 75
REMARK SMILES IDX 7 76 8 77 9 78 10 79 11 80 12 82 13 83 14 84 34 85 15 86
REMARK SMILES IDX 23 87 22 88 16 89 17 90 21 91 18 92 20 93 19 94 24 95 25 97
REMARK SMILES IDX 26 98 33 99 27 100 32 101 28 102 31 103 29 104 30 105
REMARK H PARENT 3 7 94 25 60 36 10 81 24 96
REMARK Flexibility Score: inf
ROOT
ATOM      1  C   UNL A   1      41.111  22.069  27.055  1.00  0.00     0.002 C 
ENDROOT
BRANCH   1   2
ATOM      2  C   UNL A   1      42.112  22.602  28.078  1.00  0.00     0.021 C 
BRANCH   2   3
ATOM      3  C   UNL A   1      43.105  23.625  27.545  1.00  0.00     0.116 C 
BRANCH   3   4
ATOM      4  N   UNL A   1      42.683  24.232  26.295  1.00  0.00    -0.352 N 
ATOM      5  O   UNL A   1      41.593  25.708  24.981  1.00  0.00    -0.269 OA
ATOM      6  C   UNL A   1      41.981  25.402  26.099  1.00  0.00     0.251 C 
ATOM      7  H   UNL A   1      42.931  23.742  25.478  1.00  0.00     0.163 HD
BRANCH   6   8
ATOM      8  C   UNL A   1      41.675  26.267  27.263  1.00  0.00     0.039 A 
ATOM      9  C   UNL A   1      42.496  27.351  27.576  1.00  0.00     0.014 A 
ATOM     10  C   UNL A   1      40.561  25.980  28.060  1.00  0.00     0.014 A 
ATOM     11  C   UNL A   1      42.298  28.045  28.763  1.00  0.00     0.010 A 
ATOM     12  C   UNL A   1      40.307  26.744  29.205  1.00  0.00     0.010 A 
ATOM     13  C   UNL A   1      41.191  27.765  29.583  1.00  0.00    -0.014 A 
BRANCH  13  14
ATOM     14  C   UNL A   1      40.960  28.616  30.779  1.00  0.00     0.031 A 
ATOM     15  C   UNL A   1      41.834  28.522  32.000  1.00  0.00     0.074 A 
ATOM     16  C   UNL A   1      39.977  29.538  30.719  1.00  0.00     0.049 A 
ATOM     17  N   UNL A   1      41.807  29.254  33.086  1.00  0.00    -0.248 NA
ATOM     18  C   UNL A   1      42.864  27.473  32.014  1.00  0.00     0.031 C 
ATOM     19  C   UNL A   1      39.044  29.698  29.597  1.00  0.00     0.029 A 
ATOM     20  N   UNL A   1      39.616  30.531  31.591  1.00  0.00    -0.354 N 
ATOM     21  C   UNL A   1      42.805  28.754  33.913  1.00  0.00     0.074 A 
ATOM     22  C   UNL A   1      43.403  27.634  33.216  1.00  0.00     0.031 C 
ATOM     23  C   UNL A   1      38.263  30.762  29.822  1.00  0.00     0.029 A 
ATOM     24  C   UNL A   1      38.596  31.325  31.124  1.00  0.00     0.049 A 
ATOM     25  H   UNL A   1      40.046  30.663  32.466  1.00  0.00     0.167 HD
ATOM     26  C   UNL A   1      43.192  29.195  35.135  1.00  0.00     0.037 A 
ATOM     27  C   UNL A   1      37.986  32.387  31.683  1.00  0.00     0.037 A 
ATOM     28  C   UNL A   1      42.594  30.317  35.818  1.00  0.00     0.049 A 
ATOM     29  C   UNL A   1      38.448  32.864  33.027  1.00  0.00     0.074 A 
ATOM     30  C   UNL A   1      42.918  30.843  37.058  1.00  0.00     0.029 A 
ATOM     31  N   UNL A   1      41.554  31.088  35.321  1.00  0.00    -0.354 N 
ATOM     32  N   UNL A   1      39.404  32.384  33.786  1.00  0.00    -0.248 NA
ATOM     33  C   UNL A   1      37.751  34.026  33.593  1.00  0.00     0.031 C 
ATOM     34  C   UNL A   1      42.055  31.914  37.321  1.00  0.00     0.029 A 
ATOM     35  C   UNL A   1      41.220  32.080  36.230  1.00  0.00     0.049 A 
ATOM     36  H   UNL A   1      41.117  30.951  34.449  1.00  0.00     0.167 HD
ATOM     37  C   UNL A   1      39.420  33.181  34.923  1.00  0.00     0.074 A 
ATOM     38  C   UNL A   1      38.405  34.199  34.734  1.00  0.00     0.031 C 
ATOM     39  C   UNL A   1      40.196  33.074  36.030  1.00  0.00     0.037 A 
BRANCH  26  40
ATOM     40  C   UNL A   1      44.318  28.469  35.821  1.00  0.00     0.058 A 
ATOM     41  C   UNL A   1      45.655  28.854  35.641  1.00  0.00     0.135 A 
ATOM     42  C   UNL A   1      44.054  27.423  36.720  1.00  0.00     0.135 A 
ATOM     43  F   UNL A   1      45.966  29.839  34.783  1.00  0.00    -0.206 F 
ATOM     44  C   UNL A   1      46.693  28.219  36.317  1.00  0.00     0.059 A 
ATOM     45  C   UNL A   1      45.076  26.787  37.423  1.00  0.00     0.059 A 
ATOM     46  F   UNL A   1      42.794  27.015  36.930  1.00  0.00    -0.206 F 
ATOM     47  C   UNL A   1      46.393  27.187  37.206  1.00  0.00     0.060 A 
BRANCH  47  48
ATOM     48  S   UNL A   1      47.750  26.389  38.091  1.00  0.00     0.124 S 
ATOM     49  O   UNL A   1      47.315  26.528  39.478  1.00  0.00    -0.237 OA
ATOM     50  O   UNL A   1      47.721  25.032  37.554  1.00  0.00    -0.237 OA
ATOM     51  O   UNL A   1      48.915  27.184  37.717  1.00  0.00    -0.744 OA
ENDBRANCH  47  48
ENDBRANCH  26  40
BRANCH  27  52
ATOM     52  C   UNL A   1      36.865  33.052  30.970  1.00  0.00     0.058 A 
ATOM     53  C   UNL A   1      37.101  33.990  29.955  1.00  0.00     0.135 A 
ATOM     54  C   UNL A   1      35.531  32.738  31.276  1.00  0.00     0.135 A 
ATOM     55  F   UNL A   1      38.358  34.323  29.627  1.00  0.00    -0.206 F 
ATOM     56  C   UNL A   1      36.053  34.609  29.281  1.00  0.00     0.059 A 
ATOM     57  C   UNL A   1      34.469  33.321  30.598  1.00  0.00     0.059 A 
ATOM     58  F   UNL A   1      35.256  31.829  32.225  1.00  0.00    -0.206 F 
ATOM     59  C   UNL A   1      34.740  34.267  29.610  1.00  0.00     0.060 A 
BRANCH  59  60
ATOM     60  S   UNL A   1      33.382  35.036  28.701  1.00  0.00     0.124 S 
ATOM     61  O   UNL A   1      34.101  35.960  27.833  1.00  0.00    -0.237 OA
ATOM     62  O   UNL A   1      32.761  33.891  28.042  1.00  0.00    -0.237 OA
ATOM     63  O   UNL A   1      32.582  35.649  29.757  1.00  0.00    -0.744 OA
ENDBRANCH  59  60
ENDBRANCH  27  52
BRANCH  39  64
ATOM     64  C   UNL A   1      39.966  34.089  37.113  1.00  0.00     0.058 A 
ATOM     65  C   UNL A   1      39.052  33.854  38.152  1.00  0.00     0.135 A 
ATOM     66  C   UNL A   1      40.662  35.306  37.111  1.00  0.00     0.135 A 
ATOM     67  F   UNL A   1      38.356  32.706  38.194  1.00  0.00    -0.206 F 
ATOM     68  C   UNL A   1      38.806  34.809  39.132  1.00  0.00     0.059 A 
ATOM     69  C   UNL A   1      40.450  36.267  38.095  1.00  0.00     0.059 A 
ATOM     70  F   UNL A   1      41.554  35.575  36.144  1.00  0.00    -0.206 F 
ATOM     71  C   UNL A   1      39.505  36.016  39.091  1.00  0.00     0.060 A 
BRANCH  71  72
ATOM     72  S   UNL A   1      39.176  37.255  40.362  1.00  0.00     0.124 S 
ATOM     73  O   UNL A   1      38.612  36.435  41.429  1.00  0.00    -0.237 OA
ATOM     74  O   UNL A   1      40.505  37.803  40.619  1.00  0.00    -0.237 OA
ATOM     75  O   UNL A   1      38.244  38.170  39.710  1.00  0.00    -0.744 OA
ENDBRANCH  71  72
ENDBRANCH  39  64
ENDBRANCH  13  14
ENDBRANCH   6   8
ENDBRANCH   3   4
ENDBRANCH   2   3
ENDBRANCH   1   2
BRANCH   1  76
ATOM     76  C   UNL A   1      39.716  22.697  27.092  1.00  0.00     0.002 C 
BRANCH  76  77
ATOM     77  C   UNL A   1      38.678  22.098  26.137  1.00  0.00     0.021 C 
BRANCH  77  78
ATOM     78  C   UNL A   1      37.545  23.030  25.721  1.00  0.00     0.116 C 
BRANCH  78  79
ATOM     79  N   UNL A   1      37.310  23.025  24.288  1.00  0.00    -0.351 N 
ATOM     80  C   UNL A   1      36.128  23.209  23.611  1.00  0.00     0.270 C 
ATOM     81  H   UNL A   1      38.104  22.869  23.726  1.00  0.00     0.163 HD
ATOM     82  O   UNL A   1      36.104  23.151  22.384  1.00  0.00    -0.268 OA
BRANCH  80  83
ATOM     83  C   UNL A   1      34.894  23.504  24.377  1.00  0.00     0.134 A 
ATOM     84  C   UNL A   1      34.564  24.796  24.677  1.00  0.00     0.063 A 
ATOM     85  N   UNL A   1      34.182  22.442  24.768  1.00  0.00    -0.207 NA
ATOM     86  C   UNL A   1      33.451  24.945  25.472  1.00  0.00     0.077 A 
ATOM     87  C   UNL A   1      33.100  22.660  25.517  1.00  0.00     0.230 A 
ATOM     88  N   UNL A   1      32.706  23.891  25.887  1.00  0.00    -0.213 NA
BRANCH  86  89
ATOM     89  C   UNL A   1      33.084  26.277  25.972  1.00  0.00     0.000 A 
ATOM     90  C   UNL A   1      31.812  26.515  26.518  1.00  0.00     0.010 A 
ATOM     91  C   UNL A   1      34.028  27.320  26.022  1.00  0.00     0.010 A 
ATOM     92  C   UNL A   1      31.510  27.734  27.133  1.00  0.00     0.001 A 
ATOM     93  C   UNL A   1      33.726  28.539  26.631  1.00  0.00     0.001 A 
ATOM     94  C   UNL A   1      32.470  28.741  27.195  1.00  0.00     0.000 A 
ENDBRANCH  86  89
BRANCH  87  95
ATOM     95  N   UNL A   1      32.287  21.587  25.873  1.00  0.00    -0.300 N 
ATOM     96  H   UNL A   1      31.575  21.735  26.536  1.00  0.00     0.172 HD
BRANCH  95  97
ATOM     97  C   UNL A   1      32.432  20.352  25.349  1.00  0.00     0.190 A 
ATOM     98  N   UNL A   1      32.527  19.243  26.047  1.00  0.00    -0.220 NA
ATOM     99  S   UNL A   1      32.525  20.114  23.641  1.00  0.00    -0.097 S 
ATOM    100  C   UNL A   1      32.909  18.188  25.252  1.00  0.00     0.084 A 
ATOM    101  C   UNL A   1      32.993  18.472  23.890  1.00  0.00     0.056 A 
ATOM    102  C   UNL A   1      33.233  16.895  25.707  1.00  0.00     0.030 A 
ATOM    103  C   UNL A   1      33.411  17.503  22.962  1.00  0.00     0.021 A 
ATOM    104  C   UNL A   1      33.662  15.928  24.796  1.00  0.00     0.002 A 
ATOM    105  C   UNL A   1      33.754  16.232  23.442  1.00  0.00     0.002 A 
ENDBRANCH  95  97
ENDBRANCH  87  95
ENDBRANCH  80  83
ENDBRANCH  78  79
ENDBRANCH  77  78
ENDBRANCH  76  77
ENDBRANCH   1  76
TORSDOF 19
ENDMDL
MODEL 2
REMARK VINA RESULT:     -12.5      1.071      4.027
REMARK SMILES O=C(NCCCCCCNC(=O)c1cc(-c2ccccc2)nc(Nc2nc3ccccc3s2)n1)c1ccc(-c2c3nc(c(-c4c(F)cc(S(=O)(=O)[O-])cc4F)c4ccc([nH]4)c(-c4c(F)cc(S(=O)(=O)[O-])cc4F)c4nc(c(-c5c(F)cc(S(=O)(=O)[O-])cc5F)c5ccc2[nH]5)C=C4)C=C3)cc1
REMARK SMILES IDX 6 1 5 2 4 3 3 4 1 5 2 6 35 8 36 9 100 10 37 11 99 12 38 13
REMARK SMILES IDX 39 14 40 15 93 16 41 17 98 18 92 19 94 20 42 21 97 22 91 23
REMARK SMILES IDX 90 24 43 26 77 27 56 28 76 29 57 30 60 31 75 32 95 33 58 34
REMARK SMILES IDX 59 35 74 37 96 38 61 39 44 40 45 41 54 42 46 43 47 44 53 45
REMARK SMILES IDX 55 46 48 47 49 48 50 49 51 50 52 51 78 52 79 53 88 54 80 55
REMARK SMILES IDX 81 56 87 57 89 58 82 59 83 60 84 61 85 62 86 63 62 64 63 65
REMARK SMILES IDX 72 66 64 67 65 68 71 69 73 70 66 71 67 72 68 73 69 74 70 75
REMARK SMILES IDX 7 76 8 77 9 78 10 79 11 80 12 82 13 83 14 84 34 85 15 86
REMARK SMILES IDX 23 87 22 88 16 89 17 90 21 91 18 92 20 93 19 94 24 95 25 97
REMARK SMILES IDX 26 98 33 99 27 100 32 101 28 102 31 103 29 104 30 105
REMARK H PARENT 3 7 94 25 60 36 10 81 24 96
REMARK Flexibility Score: inf
ROOT
ATOM      1  C   UNL A   1      41.680  21.924  26.896  1.00  0.00     0.002 C 
ENDROOT
BRANCH   1   2
ATOM      2  C   UNL A   1      42.570  22.541  27.973  1.00  0.00     0.021 C 
BRANCH   2   3
ATOM      3  C   UNL A   1      43.498  23.648  27.494  1.00  0.00     0.116 C 
BRANCH   3   4
ATOM      4  N   UNL A   1      43.070  24.249  26.243  1.00  0.00    -0.352 N 
ATOM      5  O   UNL A   1      41.952  25.702  24.927  1.00  0.00    -0.269 OA
ATOM      6  C   UNL A   1      42.339  25.401  26.046  1.00  0.00     0.251 C 
ATOM      7  H   UNL A   1      43.339  23.771  25.426  1.00  0.00     0.163 HD
BRANCH   6   8
ATOM      8  C   UNL A   1      41.999  26.252  27.212  1.00  0.00     0.039 A 
ATOM      9  C   UNL A   1      42.755  27.387  27.506  1.00  0.00     0.014 A 
ATOM     10  C   UNL A   1      40.919  25.899  28.029  1.00  0.00     0.014 A 
ATOM     11  C   UNL A   1      42.534  28.074  28.693  1.00  0.00     0.010 A 
ATOM     12  C   UNL A   1      40.638  26.652  29.175  1.00  0.00     0.010 A 
ATOM     13  C   UNL A   1      41.462  27.729  29.533  1.00  0.00    -0.014 A 
BRANCH  13  14
ATOM     14  C   UNL A   1      41.198  28.570  30.730  1.00  0.00     0.031 A 
ATOM     15  C   UNL A   1      42.073  28.508  31.952  1.00  0.00     0.074 A 
ATOM     16  C   UNL A   1      40.182  29.456  30.668  1.00  0.00     0.049 A 
ATOM     17  N   UNL A   1      42.018  29.237  33.038  1.00  0.00    -0.248 NA
ATOM     18  C   UNL A   1      43.140  27.496  31.967  1.00  0.00     0.031 C 
ATOM     19  C   UNL A   1      39.246  29.582  29.545  1.00  0.00     0.029 A 
ATOM     20  N   UNL A   1      39.784  30.435  31.540  1.00  0.00    -0.354 N 
ATOM     21  C   UNL A   1      43.032  28.773  33.866  1.00  0.00     0.074 A 
ATOM     22  C   UNL A   1      43.671  27.676  33.170  1.00  0.00     0.031 C 
ATOM     23  C   UNL A   1      38.427  30.618  29.769  1.00  0.00     0.029 A 
ATOM     24  C   UNL A   1      38.737  31.192  31.072  1.00  0.00     0.049 A 
ATOM     25  H   UNL A   1      40.208  30.582  32.416  1.00  0.00     0.167 HD
ATOM     26  C   UNL A   1      43.401  29.228  35.090  1.00  0.00     0.037 A 
ATOM     27  C   UNL A   1      38.088  32.230  31.630  1.00  0.00     0.037 A 
ATOM     28  C   UNL A   1      42.761  30.326  35.772  1.00  0.00     0.049 A 
ATOM     29  C   UNL A   1      38.530  32.723  32.976  1.00  0.00     0.074 A 
ATOM     30  C   UNL A   1      43.064  30.864  37.013  1.00  0.00     0.029 A 
ATOM     31  N   UNL A   1      41.694  31.060  35.273  1.00  0.00    -0.354 N 
ATOM     32  N   UNL A   1      39.502  32.277  33.735  1.00  0.00    -0.248 NA
ATOM     33  C   UNL A   1      37.790  33.859  33.542  1.00  0.00     0.031 C 
ATOM     34  C   UNL A   1      42.162  31.902  37.275  1.00  0.00     0.029 A 
ATOM     35  C   UNL A   1      41.323  32.038  36.182  1.00  0.00     0.049 A 
ATOM     36  H   UNL A   1      41.265  30.907  34.401  1.00  0.00     0.167 HD
ATOM     37  C   UNL A   1      39.487  33.075  34.873  1.00  0.00     0.074 A 
ATOM     38  C   UNL A   1      38.436  34.054  34.683  1.00  0.00     0.031 C 
ATOM     39  C   UNL A   1      40.265  32.994  35.981  1.00  0.00     0.037 A 
BRANCH  26  40
ATOM     40  C   UNL A   1      44.551  28.542  35.777  1.00  0.00     0.058 A 
ATOM     41  C   UNL A   1      45.860  29.039  35.685  1.00  0.00     0.135 A 
ATOM     42  C   UNL A   1      44.334  27.419  36.590  1.00  0.00     0.135 A 
ATOM     43  F   UNL A   1      46.127  30.103  34.910  1.00  0.00    -0.206 F 
ATOM     44  C   UNL A   1      46.916  28.439  36.364  1.00  0.00     0.059 A 
ATOM     45  C   UNL A   1      45.373  26.814  37.296  1.00  0.00     0.059 A 
ATOM     46  F   UNL A   1      43.102  26.903  36.714  1.00  0.00    -0.206 F 
ATOM     47  C   UNL A   1      46.662  27.327  37.168  1.00  0.00     0.060 A 
BRANCH  47  48
ATOM     48  S   UNL A   1      48.041  26.574  38.059  1.00  0.00     0.124 S 
ATOM     49  O   UNL A   1      48.432  27.657  38.956  1.00  0.00    -0.237 OA
ATOM     50  O   UNL A   1      47.410  25.423  38.698  1.00  0.00    -0.237 OA
ATOM     51  O   UNL A   1      48.997  26.257  37.004  1.00  0.00    -0.744 OA
ENDBRANCH  47  48
ENDBRANCH  26  40
BRANCH  27  52
ATOM     52  C   UNL A   1      36.945  32.854  30.916  1.00  0.00     0.058 A 
ATOM     53  C   UNL A   1      35.619  32.570  31.271  1.00  0.00     0.135 A 
ATOM     54  C   UNL A   1      37.162  33.772  29.875  1.00  0.00     0.135 A 
ATOM     55  F   UNL A   1      35.361  31.699  32.259  1.00  0.00    -0.206 F 
ATOM     56  C   UNL A   1      34.547  33.158  30.609  1.00  0.00     0.059 A 
ATOM     57  C   UNL A   1      36.109  34.395  29.218  1.00  0.00     0.059 A 
ATOM     58  F   UNL A   1      38.415  34.094  29.514  1.00  0.00    -0.206 F 
ATOM     59  C   UNL A   1      34.803  34.071  29.583  1.00  0.00     0.060 A 
BRANCH  59  60
ATOM     60  S   UNL A   1      33.411  34.870  28.756  1.00  0.00     0.124 S 
ATOM     61  O   UNL A   1      34.047  36.057  28.198  1.00  0.00    -0.237 OA
ATOM     62  O   UNL A   1      32.997  33.853  27.793  1.00  0.00    -0.237 OA
ATOM     63  O   UNL A   1      32.470  35.107  29.846  1.00  0.00    -0.744 OA
ENDBRANCH  59  60
ENDBRANCH  27  52
BRANCH  39  64
ATOM     64  C   UNL A   1      39.996  34.000  37.065  1.00  0.00     0.058 A 
ATOM     65  C   UNL A   1      39.180  33.689  38.164  1.00  0.00     0.135 A 
ATOM     66  C   UNL A   1      40.557  35.284  37.002  1.00  0.00     0.135 A 
ATOM     67  F   UNL A   1      38.615  32.475  38.265  1.00  0.00    -0.206 F 
ATOM     68  C   UNL A   1      38.896  34.632  39.145  1.00  0.00     0.059 A 
ATOM     69  C   UNL A   1      40.306  36.235  37.986  1.00  0.00     0.059 A 
ATOM     70  F   UNL A   1      41.352  35.627  35.977  1.00  0.00    -0.206 F 
ATOM     71  C   UNL A   1      39.458  35.905  39.044  1.00  0.00     0.060 A 
BRANCH  71  72
ATOM     72  S   UNL A   1      39.080  37.126  40.319  1.00  0.00     0.124 S 
ATOM     73  O   UNL A   1      40.407  37.411  40.854  1.00  0.00    -0.237 OA
ATOM     74  O   UNL A   1      38.461  38.202  39.551  1.00  0.00    -0.237 OA
ATOM     75  O   UNL A   1      38.179  36.410  41.217  1.00  0.00    -0.744 OA
ENDBRANCH  71  72
ENDBRANCH  39  64
ENDBRANCH  13  14
ENDBRANCH   6   8
ENDBRANCH   3   4
ENDBRANCH   2   3
ENDBRANCH   1   2
BRANCH   1  76
ATOM     76  C   UNL A   1      40.196  22.294  26.959  1.00  0.00     0.002 C 
BRANCH  76  77
ATOM     77  C   UNL A   1      39.245  21.421  26.132  1.00  0.00     0.021 C 
BRANCH  77  78
ATOM     78  C   UNL A   1      37.837  21.975  25.938  1.00  0.00     0.116 C 
BRANCH  78  79
ATOM     79  N   UNL A   1      37.649  22.589  24.635  1.00  0.00    -0.351 N 
ATOM     80  C   UNL A   1      36.516  22.619  23.857  1.00  0.00     0.270 C 
ATOM     81  H   UNL A   1      38.438  23.043  24.260  1.00  0.00     0.163 HD
ATOM     82  O   UNL A   1      36.538  23.169  22.759  1.00  0.00    -0.268 OA
BRANCH  80  83
ATOM     83  C   UNL A   1      35.269  22.006  24.371  1.00  0.00     0.134 A 
ATOM     84  C   UNL A   1      35.139  20.646  24.414  1.00  0.00     0.063 A 
ATOM     85  N   UNL A   1      34.308  22.860  24.739  1.00  0.00    -0.207 NA
ATOM     86  C   UNL A   1      33.906  20.190  24.820  1.00  0.00     0.077 A 
ATOM     87  C   UNL A   1      33.144  22.350  25.145  1.00  0.00     0.230 A 
ATOM     88  N   UNL A   1      32.908  21.027  25.198  1.00  0.00    -0.213 NA
BRANCH  86  89
ATOM     89  C   UNL A   1      33.606  18.752  24.771  1.00  0.00     0.000 A 
ATOM     90  C   UNL A   1      34.285  17.907  23.878  1.00  0.00     0.010 A 
ATOM     91  C   UNL A   1      32.718  18.164  25.690  1.00  0.00     0.010 A 
ATOM     92  C   UNL A   1      34.115  16.520  23.932  1.00  0.00     0.001 A 
ATOM     93  C   UNL A   1      32.543  16.780  25.742  1.00  0.00     0.001 A 
ATOM     94  C   UNL A   1      33.250  15.958  24.868  1.00  0.00     0.000 A 
ENDBRANCH  86  89
BRANCH  87  95
ATOM     95  N   UNL A   1      32.149  23.203  25.614  1.00  0.00    -0.300 N 
ATOM     96  H   UNL A   1      31.605  22.914  26.381  1.00  0.00     0.172 HD
BRANCH  95  97
ATOM     97  C   UNL A   1      31.898  24.409  25.064  1.00  0.00     0.190 A 
ATOM     98  N   UNL A   1      32.216  25.564  25.602  1.00  0.00    -0.220 NA
ATOM     99  S   UNL A   1      31.086  24.543  23.546  1.00  0.00    -0.097 S 
ATOM    100  C   UNL A   1      31.618  26.605  24.930  1.00  0.00     0.084 A 
ATOM    101  C   UNL A   1      30.920  26.245  23.780  1.00  0.00     0.056 A 
ATOM    102  C   UNL A   1      31.641  27.956  25.327  1.00  0.00     0.030 A 
ATOM    103  C   UNL A   1      30.224  27.196  23.015  1.00  0.00     0.021 A 
ATOM    104  C   UNL A   1      30.941  28.908  24.583  1.00  0.00     0.002 A 
ATOM    105  C   UNL A   1      30.238  28.530  23.444  1.00  0.00     0.002 A 
ENDBRANCH  95  97
ENDBRANCH  87  95
ENDBRANCH  80  83
ENDBRANCH  78  79
ENDBRANCH  77  78
ENDBRANCH  76  77
ENDBRANCH   1  76
TORSDOF 19
ENDMDL
MODEL 3
REMARK VINA RESULT:     -11.7      5.549     12.847
REMARK SMILES O=C(NCCCCCCNC(=O)c1cc(-c2ccccc2)nc(Nc2nc3ccccc3s2)n1)c1ccc(-c2c3nc(c(-c4c(F)cc(S(=O)(=O)[O-])cc4F)c4ccc([nH]4)c(-c4c(F)cc(S(=O)(=O)[O-])cc4F)c4nc(c(-c5c(F)cc(S(=O)(=O)[O-])cc5F)c5ccc2[nH]5)C=C4)C=C3)cc1
REMARK SMILES IDX 6 1 5 2 4 3 3 4 1 5 2 6 35 8 36 9 100 10 37 11 99 12 38 13
REMARK SMILES IDX 39 14 40 15 93 16 41 17 98 18 92 19 94 20 42 21 97 22 91 23
REMARK SMILES IDX 90 24 43 26 77 27 56 28 76 29 57 30 60 31 75 32 95 33 58 34
REMARK SMILES IDX 59 35 74 37 96 38 61 39 44 40 45 41 54 42 46 43 47 44 53 45
REMARK SMILES IDX 55 46 48 47 49 48 50 49 51 50 52 51 78 52 79 53 88 54 80 55
REMARK SMILES IDX 81 56 87 57 89 58 82 59 83 60 84 61 85 62 86 63 62 64 63 65
REMARK SMILES IDX 72 66 64 67 65 68 71 69 73 70 66 71 67 72 68 73 69 74 70 75
REMARK SMILES IDX 7 76 8 77 9 78 10 79 11 80 12 82 13 83 14 84 34 85 15 86
REMARK SMILES IDX 23 87 22 88 16 89 17 90 21 91 18 92 20 93 19 94 24 95 25 97
REMARK SMILES IDX 26 98 33 99 27 100 32 101 28 102 31 103 29 104 30 105
REMARK H PARENT 3 7 94 25 60 36 10 81 24 96
REMARK Flexibility Score: inf
ROOT
ATOM      1  C   UNL A   1      34.895  33.995  30.143  1.00  0.00     0.002 C 
ENDROOT
BRANCH   1   2
ATOM      2  C   UNL A   1      33.953  33.444  29.075  1.00  0.00     0.021 C 
BRANCH   2   3
ATOM      3  C   UNL A   1      34.591  32.495  28.071  1.00  0.00     0.116 C 
BRANCH   3   4
ATOM      4  N   UNL A   1      33.887  31.230  27.954  1.00  0.00    -0.352 N 
ATOM      5  O   UNL A   1      33.683  28.992  27.746  1.00  0.00    -0.269 OA
ATOM      6  C   UNL A   1      34.401  29.951  27.988  1.00  0.00     0.251 C 
ATOM      7  H   UNL A   1      32.912  31.294  27.836  1.00  0.00     0.163 HD
BRANCH   6   8
ATOM      8  C   UNL A   1      35.840  29.756  28.288  1.00  0.00     0.039 A 
ATOM      9  C   UNL A   1      36.804  29.965  27.302  1.00  0.00     0.014 A 
ATOM     10  C   UNL A   1      36.225  29.343  29.568  1.00  0.00     0.014 A 
ATOM     11  C   UNL A   1      38.126  29.614  27.545  1.00  0.00     0.010 A 
ATOM     12  C   UNL A   1      37.574  29.081  29.839  1.00  0.00     0.010 A 
ATOM     13  C   UNL A   1      38.532  29.186  28.820  1.00  0.00    -0.014 A 
BRANCH  13  14
ATOM     14  C   UNL A   1      39.978  28.936  29.058  1.00  0.00     0.031 A 
ATOM     15  C   UNL A   1      40.628  27.631  28.689  1.00  0.00     0.074 A 
ATOM     16  C   UNL A   1      40.721  29.946  29.556  1.00  0.00     0.049 A 
ATOM     17  N   UNL A   1      41.892  27.296  28.760  1.00  0.00    -0.248 NA
ATOM     18  C   UNL A   1      39.755  26.560  28.184  1.00  0.00     0.031 C 
ATOM     19  C   UNL A   1      40.190  31.247  29.981  1.00  0.00     0.029 A 
ATOM     20  N   UNL A   1      42.070  30.060  29.759  1.00  0.00    -0.354 N 
ATOM     21  C   UNL A   1      41.968  25.981  28.319  1.00  0.00     0.074 A 
ATOM     22  C   UNL A   1      40.616  25.566  28.008  1.00  0.00     0.031 C 
ATOM     23  C   UNL A   1      41.207  32.044  30.333  1.00  0.00     0.029 A 
ATOM     24  C   UNL A   1      42.454  31.298  30.216  1.00  0.00     0.049 A 
ATOM     25  H   UNL A   1      42.705  29.326  29.591  1.00  0.00     0.167 HD
ATOM     26  C   UNL A   1      43.066  25.197  28.176  1.00  0.00     0.037 A 
ATOM     27  C   UNL A   1      43.672  31.782  30.518  1.00  0.00     0.037 A 
ATOM     28  C   UNL A   1      44.410  25.623  28.482  1.00  0.00     0.049 A 
ATOM     29  C   UNL A   1      44.870  30.899  30.332  1.00  0.00     0.074 A 
ATOM     30  C   UNL A   1      45.589  24.904  28.367  1.00  0.00     0.029 A 
ATOM     31  N   UNL A   1      44.758  26.880  28.956  1.00  0.00    -0.354 N 
ATOM     32  N   UNL A   1      44.920  29.662  29.900  1.00  0.00    -0.248 NA
ATOM     33  C   UNL A   1      46.177  31.474  30.675  1.00  0.00     0.031 C 
ATOM     34  C   UNL A   1      46.644  25.716  28.800  1.00  0.00     0.029 A 
ATOM     35  C   UNL A   1      46.129  26.954  29.146  1.00  0.00     0.049 A 
ATOM     36  H   UNL A   1      44.123  27.611  29.132  1.00  0.00     0.167 HD
ATOM     37  C   UNL A   1      46.263  29.307  29.923  1.00  0.00     0.074 A 
ATOM     38  C   UNL A   1      46.995  30.474  30.375  1.00  0.00     0.031 C 
ATOM     39  C   UNL A   1      46.837  28.119  29.612  1.00  0.00     0.037 A 
BRANCH  26  40
ATOM     40  C   UNL A   1      42.868  23.796  27.665  1.00  0.00     0.058 A 
ATOM     41  C   UNL A   1      42.637  22.723  28.539  1.00  0.00     0.135 A 
ATOM     42  C   UNL A   1      42.841  23.532  26.286  1.00  0.00     0.135 A 
ATOM     43  F   UNL A   1      42.665  22.915  29.869  1.00  0.00    -0.206 F 
ATOM     44  C   UNL A   1      42.400  21.435  28.067  1.00  0.00     0.059 A 
ATOM     45  C   UNL A   1      42.585  22.255  25.789  1.00  0.00     0.059 A 
ATOM     46  F   UNL A   1      43.056  24.521  25.405  1.00  0.00    -0.206 F 
ATOM     47  C   UNL A   1      42.375  21.212  26.689  1.00  0.00     0.060 A 
BRANCH  47  48
ATOM     48  S   UNL A   1      42.043  19.540  26.093  1.00  0.00     0.124 S 
ATOM     49  O   UNL A   1      40.600  19.590  25.875  1.00  0.00    -0.237 OA
ATOM     50  O   UNL A   1      42.861  19.469  24.886  1.00  0.00    -0.237 OA
ATOM     51  O   UNL A   1      42.482  18.691  27.196  1.00  0.00    -0.744 OA
ENDBRANCH  47  48
ENDBRANCH  26  40
BRANCH  27  52
ATOM     52  C   UNL A   1      43.807  33.166  31.039  1.00  0.00     0.058 A 
ATOM     53  C   UNL A   1      44.013  34.253  30.179  1.00  0.00     0.135 A 
ATOM     54  C   UNL A   1      43.704  33.429  32.415  1.00  0.00     0.135 A 
ATOM     55  F   UNL A   1      44.118  34.052  28.856  1.00  0.00    -0.206 F 
ATOM     56  C   UNL A   1      44.132  35.551  30.663  1.00  0.00     0.059 A 
ATOM     57  C   UNL A   1      43.791  34.720  32.921  1.00  0.00     0.059 A 
ATOM     58  F   UNL A   1      43.484  32.423  33.277  1.00  0.00    -0.206 F 
ATOM     59  C   UNL A   1      44.019  35.774  32.038  1.00  0.00     0.060 A 
BRANCH  59  60
ATOM     60  S   UNL A   1      44.126  37.465  32.661  1.00  0.00     0.124 S 
ATOM     61  O   UNL A   1      43.107  37.456  33.703  1.00  0.00    -0.237 OA
ATOM     62  O   UNL A   1      45.510  37.541  33.120  1.00  0.00    -0.237 OA
ATOM     63  O   UNL A   1      43.822  38.272  31.483  1.00  0.00    -0.744 OA
ENDBRANCH  59  60
ENDBRANCH  27  52
BRANCH  39  64
ATOM     64  C   UNL A   1      48.331  28.037  29.753  1.00  0.00     0.058 A 
ATOM     65  C   UNL A   1      48.933  27.769  30.992  1.00  0.00     0.135 A 
ATOM     66  C   UNL A   1      49.165  28.230  28.643  1.00  0.00     0.135 A 
ATOM     67  F   UNL A   1      48.176  27.584  32.086  1.00  0.00    -0.206 F 
ATOM     68  C   UNL A   1      50.315  27.735  31.135  1.00  0.00     0.059 A 
ATOM     69  C   UNL A   1      50.551  28.175  28.757  1.00  0.00     0.059 A 
ATOM     70  F   UNL A   1      48.638  28.479  27.434  1.00  0.00    -0.206 F 
ATOM     71  C   UNL A   1      51.117  27.947  30.012  1.00  0.00     0.060 A 
BRANCH  71  72
ATOM     72  S   UNL A   1      52.911  27.907  30.204  1.00  0.00     0.124 S 
ATOM     73  O   UNL A   1      53.088  26.733  31.053  1.00  0.00    -0.237 OA
ATOM     74  O   UNL A   1      53.373  27.769  28.827  1.00  0.00    -0.237 OA
ATOM     75  O   UNL A   1      53.212  29.190  30.833  1.00  0.00    -0.744 OA
ENDBRANCH  71  72
ENDBRANCH  39  64
ENDBRANCH  13  14
ENDBRANCH   6   8
ENDBRANCH   3   4
ENDBRANCH   2   3
ENDBRANCH   1   2
BRANCH   1  76
ATOM     76  C   UNL A   1      36.190  33.209  30.365  1.00  0.00     0.002 C 
BRANCH  76  77
ATOM     77  C   UNL A   1      36.253  32.354  31.636  1.00  0.00     0.021 C 
BRANCH  77  78
ATOM     78  C   UNL A   1      35.712  33.009  32.903  1.00  0.00     0.116 C 
BRANCH  78  79
ATOM     79  N   UNL A   1      36.514  34.138  33.339  1.00  0.00    -0.351 N 
ATOM     80  C   UNL A   1      37.605  34.143  34.177  1.00  0.00     0.270 C 
ATOM     81  H   UNL A   1      36.241  35.017  32.989  1.00  0.00     0.163 HD
ATOM     82  O   UNL A   1      38.158  35.201  34.462  1.00  0.00    -0.268 OA
BRANCH  80  83
ATOM     83  C   UNL A   1      38.116  32.856  34.705  1.00  0.00     0.134 A 
ATOM     84  C   UNL A   1      38.988  32.108  33.965  1.00  0.00     0.063 A 
ATOM     85  N   UNL A   1      37.643  32.487  35.899  1.00  0.00    -0.207 NA
ATOM     86  C   UNL A   1      39.322  30.890  34.512  1.00  0.00     0.077 A 
ATOM     87  C   UNL A   1      38.026  31.303  36.382  1.00  0.00     0.230 A 
ATOM     88  N   UNL A   1      38.860  30.482  35.720  1.00  0.00    -0.213 NA
BRANCH  86  89
ATOM     89  C   UNL A   1      40.140  29.943  33.741  1.00  0.00     0.000 A 
ATOM     90  C   UNL A   1      41.542  30.031  33.749  1.00  0.00     0.010 A 
ATOM     91  C   UNL A   1      39.552  28.857  33.067  1.00  0.00     0.010 A 
ATOM     92  C   UNL A   1      42.327  29.045  33.144  1.00  0.00     0.001 A 
ATOM     93  C   UNL A   1      40.334  27.874  32.459  1.00  0.00     0.001 A 
ATOM     94  C   UNL A   1      41.723  27.964  32.507  1.00  0.00     0.000 A 
ENDBRANCH  86  89
BRANCH  87  95
ATOM     95  N   UNL A   1      37.622  30.921  37.658  1.00  0.00    -0.300 N 
ATOM     96  H   UNL A   1      37.407  29.975  37.820  1.00  0.00     0.172 HD
BRANCH  95  97
ATOM     97  C   UNL A   1      37.511  31.791  38.684  1.00  0.00     0.190 A 
ATOM     98  N   UNL A   1      38.469  32.583  39.108  1.00  0.00    -0.220 NA
ATOM     99  S   UNL A   1      36.039  31.933  39.575  1.00  0.00    -0.097 S 
ATOM    100  C   UNL A   1      38.135  33.166  40.309  1.00  0.00     0.084 A 
ATOM    101  C   UNL A   1      36.841  32.905  40.754  1.00  0.00     0.056 A 
ATOM    102  C   UNL A   1      38.990  33.957  41.100  1.00  0.00     0.030 A 
ATOM    103  C   UNL A   1      36.374  33.400  41.983  1.00  0.00     0.021 A 
ATOM    104  C   UNL A   1      38.542  34.443  42.330  1.00  0.00     0.002 A 
ATOM    105  C   UNL A   1      37.251  34.163  42.767  1.00  0.00     0.002 A 
ENDBRANCH  95  97
ENDBRANCH  87  95
ENDBRANCH  80  83
ENDBRANCH  78  79
ENDBRANCH  77  78
ENDBRANCH  76  77
ENDBRANCH   1  76
TORSDOF 19
ENDMDL
