MODEL 1
REMARK VINA RESULT:     -10.0      0.000      0.000
REMARK SMILES C[C@@H](Cc1ccco1)C(=O)NCCCCCCNC(=O)c1ccc(-c2c3nc(c(-c4c(F)cc(S(=O)(=O)[O-])cc4F)c4ccc([nH]4)c(-c4c(F)cc(S(=O)(=O)[O-])cc4F)c4nc(c(-c5c(F)cc(S(=O)(=O)[O-])cc5F)c5ccc2[nH]5)C=C4)C=C3)cc1
REMARK SMILES IDX 15 1 14 2 13 3 12 4 11 5 9 6 10 7 2 9 1 10 3 11 4 12 5 13
REMARK SMILES IDX 8 14 6 15 7 16 16 17 17 18 18 19 19 20 20 22 21 23 22 24
REMARK SMILES IDX 86 25 23 26 85 27 24 28 25 29 26 30 79 31 27 32 84 33 78 34
REMARK SMILES IDX 80 35 28 36 83 37 77 38 76 39 29 41 63 42 42 43 62 44 43 45
REMARK SMILES IDX 46 46 61 47 81 48 44 49 45 50 60 52 82 53 47 54 30 55 31 56
REMARK SMILES IDX 40 57 32 58 33 59 39 60 41 61 34 62 35 63 36 64 37 65 38 66
REMARK SMILES IDX 64 67 65 68 74 69 66 70 67 71 73 72 75 73 68 74 69 75 70 76
REMARK SMILES IDX 71 77 72 78 48 79 49 80 58 81 50 82 51 83 57 84 59 85 52 86
REMARK SMILES IDX 53 87 54 88 55 89 56 90
REMARK H PARENT 11 8 18 21 80 40 46 51
REMARK Flexibility Score: inf
ROOT
ATOM      1  C   UNL A   1      34.345  24.848  24.710  1.00  0.00     0.002 C 
ENDROOT
BRANCH   1   2
ATOM      2  C   UNL A   1      34.147  25.843  25.861  1.00  0.00     0.002 C 
BRANCH   2   3
ATOM      3  C   UNL A   1      32.738  26.420  26.011  1.00  0.00     0.021 C 
BRANCH   3   4
ATOM      4  C   UNL A   1      31.661  25.692  25.222  1.00  0.00     0.116 C 
BRANCH   4   5
ATOM      5  N   UNL A   1      30.750  24.919  26.035  1.00  0.00    -0.356 N 
ATOM      6  C   UNL A   1      30.923  23.694  26.596  1.00  0.00     0.223 C 
ATOM      7  O   UNL A   1      30.094  23.344  27.444  1.00  0.00    -0.275 OA
ATOM      8  H   UNL A   1      29.877  25.342  26.206  1.00  0.00     0.163 HD
BRANCH   6   9
ATOM      9  C   UNL A   1      32.068  22.749  26.224  1.00  0.00     0.083 C 
ATOM     10  C   UNL A   1      32.865  22.208  27.409  1.00  0.00     0.018 C 
BRANCH   9  11
ATOM     11  C   UNL A   1      31.751  21.743  25.108  1.00  0.00     0.088 C 
BRANCH  11  12
ATOM     12  C   UNL A   1      32.637  20.559  24.970  1.00  0.00     0.104 A 
ATOM     13  C   UNL A   1      33.965  20.413  24.620  1.00  0.00     0.045 A 
ATOM     14  O   UNL A   1      32.104  19.342  25.275  1.00  0.00    -0.469 OA
ATOM     15  C   UNL A   1      34.243  19.025  24.667  1.00  0.00     0.042 A 
ATOM     16  C   UNL A   1      33.079  18.416  25.073  1.00  0.00     0.195 A 
ENDBRANCH  11  12
ENDBRANCH   9  11
ENDBRANCH   6   9
ENDBRANCH   4   5
ENDBRANCH   3   4
ENDBRANCH   2   3
ENDBRANCH   1   2
BRANCH   1  17
ATOM     17  C   UNL A   1      35.637  24.025  24.744  1.00  0.00     0.021 C 
BRANCH  17  18
ATOM     18  C   UNL A   1      36.122  23.625  26.134  1.00  0.00     0.116 C 
BRANCH  18  19
ATOM     19  N   UNL A   1      37.139  22.589  26.087  1.00  0.00    -0.352 N 
ATOM     20  C   UNL A   1      38.499  22.684  26.237  1.00  0.00     0.251 C 
ATOM     21  H   UNL A   1      36.800  21.680  25.924  1.00  0.00     0.163 HD
ATOM     22  O   UNL A   1      39.205  21.713  25.983  1.00  0.00    -0.269 OA
BRANCH  20  23
ATOM     23  C   UNL A   1      39.118  23.953  26.684  1.00  0.00     0.039 A 
ATOM     24  C   UNL A   1      39.047  24.293  28.037  1.00  0.00     0.014 A 
ATOM     25  C   UNL A   1      39.737  24.818  25.778  1.00  0.00     0.014 A 
ATOM     26  C   UNL A   1      39.637  25.476  28.488  1.00  0.00     0.010 A 
ATOM     27  C   UNL A   1      40.390  25.960  26.240  1.00  0.00     0.010 A 
ATOM     28  C   UNL A   1      40.339  26.306  27.598  1.00  0.00    -0.014 A 
BRANCH  28  29
ATOM     29  C   UNL A   1      41.012  27.544  28.073  1.00  0.00     0.031 A 
ATOM     30  C   UNL A   1      42.510  27.669  27.996  1.00  0.00     0.074 A 
ATOM     31  C   UNL A   1      40.278  28.535  28.615  1.00  0.00     0.049 A 
ATOM     32  N   UNL A   1      43.280  28.646  28.403  1.00  0.00    -0.248 NA
ATOM     33  C   UNL A   1      43.243  26.536  27.407  1.00  0.00     0.031 C 
ATOM     34  C   UNL A   1      38.822  28.513  28.787  1.00  0.00     0.029 A 
ATOM     35  N   UNL A   1      40.652  29.752  29.129  1.00  0.00    -0.354 N 
ATOM     36  C   UNL A   1      44.582  28.244  28.126  1.00  0.00     0.074 A 
ATOM     37  C   UNL A   1      44.503  26.910  27.573  1.00  0.00     0.031 C 
ATOM     38  C   UNL A   1      38.427  29.670  29.343  1.00  0.00     0.029 A 
ATOM     39  C   UNL A   1      39.599  30.499  29.604  1.00  0.00     0.049 A 
ATOM     40  H   UNL A   1      41.586  30.060  29.156  1.00  0.00     0.167 HD
ATOM     41  C   UNL A   1      45.736  28.935  28.291  1.00  0.00     0.037 A 
ATOM     42  C   UNL A   1      39.582  31.712  30.190  1.00  0.00     0.037 A 
ATOM     43  C   UNL A   1      45.806  30.271  28.825  1.00  0.00     0.049 A 
ATOM     44  C   UNL A   1      40.877  32.456  30.372  1.00  0.00     0.074 A 
ATOM     45  C   UNL A   1      46.920  31.074  28.994  1.00  0.00     0.029 A 
ATOM     46  N   UNL A   1      44.717  31.002  29.278  1.00  0.00    -0.354 N 
ATOM     47  N   UNL A   1      42.094  32.084  30.051  1.00  0.00    -0.248 NA
ATOM     48  C   UNL A   1      40.799  33.788  30.987  1.00  0.00     0.031 C 
ATOM     49  C   UNL A   1      46.511  32.271  29.591  1.00  0.00     0.029 A 
ATOM     50  C   UNL A   1      45.134  32.237  29.743  1.00  0.00     0.049 A 
ATOM     51  H   UNL A   1      43.783  30.687  29.271  1.00  0.00     0.167 HD
ATOM     52  C   UNL A   1      42.920  33.149  30.393  1.00  0.00     0.074 A 
ATOM     53  C   UNL A   1      42.063  34.183  30.935  1.00  0.00     0.031 C 
ATOM     54  C   UNL A   1      44.267  33.262  30.269  1.00  0.00     0.037 A 
BRANCH  41  55
ATOM     55  C   UNL A   1      47.018  28.261  27.879  1.00  0.00     0.058 A 
ATOM     56  C   UNL A   1      47.768  27.489  28.781  1.00  0.00     0.135 A 
ATOM     57  C   UNL A   1      47.487  28.358  26.558  1.00  0.00     0.135 A 
ATOM     58  F   UNL A   1      47.376  27.373  30.060  1.00  0.00    -0.206 F 
ATOM     59  C   UNL A   1      48.951  26.866  28.400  1.00  0.00     0.059 A 
ATOM     60  C   UNL A   1      48.652  27.718  26.145  1.00  0.00     0.059 A 
ATOM     61  F   UNL A   1      46.811  29.082  25.652  1.00  0.00    -0.206 F 
ATOM     62  C   UNL A   1      49.386  26.986  27.079  1.00  0.00     0.060 A 
BRANCH  62  63
ATOM     63  S   UNL A   1      50.922  26.168  26.600  1.00  0.00     0.124 S 
ATOM     64  O   UNL A   1      50.843  26.228  25.144  1.00  0.00    -0.237 OA
ATOM     65  O   UNL A   1      51.934  27.020  27.216  1.00  0.00    -0.237 OA
ATOM     66  O   UNL A   1      50.792  24.834  27.180  1.00  0.00    -0.744 OA
ENDBRANCH  62  63
ENDBRANCH  41  55
BRANCH  42  67
ATOM     67  C   UNL A   1      38.291  32.310  30.630  1.00  0.00     0.058 A 
ATOM     68  C   UNL A   1      37.785  32.074  31.917  1.00  0.00     0.135 A 
ATOM     69  C   UNL A   1      37.538  33.128  29.773  1.00  0.00     0.135 A 
ATOM     70  F   UNL A   1      38.466  31.295  32.772  1.00  0.00    -0.206 F 
ATOM     71  C   UNL A   1      36.568  32.604  32.331  1.00  0.00     0.059 A 
ATOM     72  C   UNL A   1      36.332  33.694  30.176  1.00  0.00     0.059 A 
ATOM     73  F   UNL A   1      37.986  33.403  28.539  1.00  0.00    -0.206 F 
ATOM     74  C   UNL A   1      35.848  33.414  31.452  1.00  0.00     0.060 A 
BRANCH  74  75
ATOM     75  S   UNL A   1      34.285  34.126  32.012  1.00  0.00     0.124 S 
ATOM     76  O   UNL A   1      33.644  34.458  30.745  1.00  0.00    -0.237 OA
ATOM     77  O   UNL A   1      33.694  33.019  32.758  1.00  0.00    -0.237 OA
ATOM     78  O   UNL A   1      34.707  35.264  32.823  1.00  0.00    -0.744 OA
ENDBRANCH  74  75
ENDBRANCH  42  67
BRANCH  54  79
ATOM     79  C   UNL A   1      44.893  34.565  30.686  1.00  0.00     0.058 A 
ATOM     80  C   UNL A   1      45.032  35.641  29.795  1.00  0.00     0.135 A 
ATOM     81  C   UNL A   1      45.322  34.752  32.010  1.00  0.00     0.135 A 
ATOM     82  F   UNL A   1      44.643  35.514  28.516  1.00  0.00    -0.206 F 
ATOM     83  C   UNL A   1      45.604  36.845  30.194  1.00  0.00     0.059 A 
ATOM     84  C   UNL A   1      45.867  35.958  32.439  1.00  0.00     0.059 A 
ATOM     85  F   UNL A   1      45.201  33.761  32.907  1.00  0.00    -0.206 F 
ATOM     86  C   UNL A   1      46.017  36.994  31.519  1.00  0.00     0.060 A 
BRANCH  86  87
ATOM     87  S   UNL A   1      46.735  38.570  32.030  1.00  0.00     0.124 S 
ATOM     88  O   UNL A   1      45.635  39.166  32.781  1.00  0.00    -0.237 OA
ATOM     89  O   UNL A   1      47.886  38.146  32.821  1.00  0.00    -0.237 OA
ATOM     90  O   UNL A   1      47.058  39.223  30.765  1.00  0.00    -0.744 OA
ENDBRANCH  86  87
ENDBRANCH  54  79
ENDBRANCH  28  29
ENDBRANCH  20  23
ENDBRANCH  18  19
ENDBRANCH  17  18
ENDBRANCH   1  17
TORSDOF 18
ENDMDL
MODEL 2
REMARK VINA RESULT:      -9.9      5.084      6.453
REMARK SMILES C[C@@H](Cc1ccco1)C(=O)NCCCCCCNC(=O)c1ccc(-c2c3nc(c(-c4c(F)cc(S(=O)(=O)[O-])cc4F)c4ccc([nH]4)c(-c4c(F)cc(S(=O)(=O)[O-])cc4F)c4nc(c(-c5c(F)cc(S(=O)(=O)[O-])cc5F)c5ccc2[nH]5)C=C4)C=C3)cc1
REMARK SMILES IDX 15 1 14 2 13 3 12 4 11 5 9 6 10 7 2 9 1 10 3 11 4 12 5 13
REMARK SMILES IDX 8 14 6 15 7 16 16 17 17 18 18 19 19 20 20 22 21 23 22 24
REMARK SMILES IDX 86 25 23 26 85 27 24 28 25 29 26 30 79 31 27 32 84 33 78 34
REMARK SMILES IDX 80 35 28 36 83 37 77 38 76 39 29 41 63 42 42 43 62 44 43 45
REMARK SMILES IDX 46 46 61 47 81 48 44 49 45 50 60 52 82 53 47 54 30 55 31 56
REMARK SMILES IDX 40 57 32 58 33 59 39 60 41 61 34 62 35 63 36 64 37 65 38 66
REMARK SMILES IDX 64 67 65 68 74 69 66 70 67 71 73 72 75 73 68 74 69 75 70 76
REMARK SMILES IDX 71 77 72 78 48 79 49 80 58 81 50 82 51 83 57 84 59 85 52 86
REMARK SMILES IDX 53 87 54 88 55 89 56 90
REMARK H PARENT 11 8 18 21 80 40 46 51
REMARK Flexibility Score: inf
ROOT
ATOM      1  C   UNL A   1      38.375  23.623  26.439  1.00  0.00     0.002 C 
ENDROOT
BRANCH   1   2
ATOM      2  C   UNL A   1      37.013  23.064  26.009  1.00  0.00     0.002 C 
BRANCH   2   3
ATOM      3  C   UNL A   1      36.419  23.661  24.731  1.00  0.00     0.021 C 
BRANCH   3   4
ATOM      4  C   UNL A   1      36.009  22.642  23.680  1.00  0.00     0.116 C 
BRANCH   4   5
ATOM      5  N   UNL A   1      34.685  22.847  23.139  1.00  0.00    -0.356 N 
ATOM      6  C   UNL A   1      33.493  22.354  23.566  1.00  0.00     0.223 C 
ATOM      7  O   UNL A   1      32.473  22.860  23.087  1.00  0.00    -0.275 OA
ATOM      8  H   UNL A   1      34.640  23.429  22.345  1.00  0.00     0.163 HD
BRANCH   6   9
ATOM      9  C   UNL A   1      33.366  21.218  24.585  1.00  0.00     0.083 C 
ATOM     10  C   UNL A   1      33.425  21.657  26.047  1.00  0.00     0.018 C 
BRANCH   9  11
ATOM     11  C   UNL A   1      32.322  20.145  24.242  1.00  0.00     0.088 C 
BRANCH  11  12
ATOM     12  C   UNL A   1      32.716  18.721  24.396  1.00  0.00     0.104 A 
ATOM     13  C   UNL A   1      33.471  17.865  23.619  1.00  0.00     0.045 A 
ATOM     14  O   UNL A   1      32.318  18.083  25.533  1.00  0.00    -0.469 OA
ATOM     15  C   UNL A   1      33.493  16.621  24.297  1.00  0.00     0.042 A 
ATOM     16  C   UNL A   1      32.778  16.806  25.457  1.00  0.00     0.195 A 
ENDBRANCH  11  12
ENDBRANCH   9  11
ENDBRANCH   6   9
ENDBRANCH   4   5
ENDBRANCH   3   4
ENDBRANCH   2   3
ENDBRANCH   1   2
BRANCH   1  17
ATOM     17  C   UNL A   1      39.504  22.599  26.599  1.00  0.00     0.021 C 
BRANCH  17  18
ATOM     18  C   UNL A   1      40.840  23.166  27.069  1.00  0.00     0.116 C 
BRANCH  18  19
ATOM     19  N   UNL A   1      41.514  23.926  26.031  1.00  0.00    -0.352 N 
ATOM     20  C   UNL A   1      41.815  25.264  25.976  1.00  0.00     0.251 C 
ATOM     21  H   UNL A   1      41.798  23.402  25.249  1.00  0.00     0.163 HD
ATOM     22  O   UNL A   1      42.230  25.747  24.927  1.00  0.00    -0.269 OA
BRANCH  20  23
ATOM     23  C   UNL A   1      41.626  26.125  27.165  1.00  0.00     0.039 A 
ATOM     24  C   UNL A   1      42.524  27.172  27.384  1.00  0.00     0.014 A 
ATOM     25  C   UNL A   1      40.592  25.889  28.075  1.00  0.00     0.014 A 
ATOM     26  C   UNL A   1      42.357  28.010  28.489  1.00  0.00     0.010 A 
ATOM     27  C   UNL A   1      40.382  26.771  29.135  1.00  0.00     0.010 A 
ATOM     28  C   UNL A   1      41.268  27.835  29.359  1.00  0.00    -0.014 A 
BRANCH  28  29
ATOM     29  C   UNL A   1      41.052  28.748  30.512  1.00  0.00     0.031 A 
ATOM     30  C   UNL A   1      41.892  28.611  31.754  1.00  0.00     0.074 A 
ATOM     31  C   UNL A   1      40.070  29.669  30.458  1.00  0.00     0.049 A 
ATOM     32  N   UNL A   1      41.822  29.279  32.877  1.00  0.00    -0.248 NA
ATOM     33  C   UNL A   1      42.933  27.570  31.742  1.00  0.00     0.031 C 
ATOM     34  C   UNL A   1      39.159  29.868  29.327  1.00  0.00     0.029 A 
ATOM     35  N   UNL A   1      39.666  30.606  31.376  1.00  0.00    -0.354 N 
ATOM     36  C   UNL A   1      42.799  28.737  33.704  1.00  0.00     0.074 A 
ATOM     37  C   UNL A   1      43.408  27.645  32.977  1.00  0.00     0.031 C 
ATOM     38  C   UNL A   1      38.321  30.879  29.610  1.00  0.00     0.029 A 
ATOM     39  C   UNL A   1      38.606  31.374  30.952  1.00  0.00     0.049 A 
ATOM     40  H   UNL A   1      40.095  30.718  32.254  1.00  0.00     0.167 HD
ATOM     41  C   UNL A   1      43.174  29.131  34.945  1.00  0.00     0.037 A 
ATOM     42  C   UNL A   1      37.935  32.360  31.580  1.00  0.00     0.037 A 
ATOM     43  C   UNL A   1      42.575  30.231  35.657  1.00  0.00     0.049 A 
ATOM     44  C   UNL A   1      38.363  32.773  32.962  1.00  0.00     0.074 A 
ATOM     45  C   UNL A   1      42.910  30.737  36.900  1.00  0.00     0.029 A 
ATOM     46  N   UNL A   1      41.517  30.996  35.188  1.00  0.00    -0.354 N 
ATOM     47  N   UNL A   1      39.329  32.287  33.706  1.00  0.00    -0.248 NA
ATOM     48  C   UNL A   1      37.620  33.874  33.588  1.00  0.00     0.031 C 
ATOM     49  C   UNL A   1      42.025  31.777  37.203  1.00  0.00     0.029 A 
ATOM     50  C   UNL A   1      41.174  31.957  36.124  1.00  0.00     0.049 A 
ATOM     51  H   UNL A   1      41.073  30.873  34.317  1.00  0.00     0.167 HD
ATOM     52  C   UNL A   1      39.330  33.045  34.872  1.00  0.00     0.074 A 
ATOM     53  C   UNL A   1      38.276  34.028  34.729  1.00  0.00     0.031 C 
ATOM     54  C   UNL A   1      40.130  32.938  35.962  1.00  0.00     0.037 A 
BRANCH  41  55
ATOM     55  C   UNL A   1      44.293  28.373  35.610  1.00  0.00     0.058 A 
ATOM     56  C   UNL A   1      44.042  27.279  36.454  1.00  0.00     0.135 A 
ATOM     57  C   UNL A   1      45.634  28.721  35.374  1.00  0.00     0.135 A 
ATOM     58  F   UNL A   1      42.780  26.911  36.727  1.00  0.00    -0.206 F 
ATOM     59  C   UNL A   1      45.075  26.579  37.066  1.00  0.00     0.059 A 
ATOM     60  C   UNL A   1      46.685  28.015  35.952  1.00  0.00     0.059 A 
ATOM     61  F   UNL A   1      45.933  29.757  34.576  1.00  0.00    -0.206 F 
ATOM     62  C   UNL A   1      46.395  26.954  36.810  1.00  0.00     0.060 A 
BRANCH  62  63
ATOM     63  S   UNL A   1      47.724  26.031  37.610  1.00  0.00     0.124 S 
ATOM     64  O   UNL A   1      48.372  27.076  38.396  1.00  0.00    -0.237 OA
ATOM     65  O   UNL A   1      46.990  25.027  38.374  1.00  0.00    -0.237 OA
ATOM     66  O   UNL A   1      48.504  25.515  36.489  1.00  0.00    -0.744 OA
ENDBRANCH  62  63
ENDBRANCH  41  55
BRANCH  42  67
ATOM     67  C   UNL A   1      36.800  33.040  30.899  1.00  0.00     0.058 A 
ATOM     68  C   UNL A   1      35.473  32.791  31.279  1.00  0.00     0.135 A 
ATOM     69  C   UNL A   1      37.018  33.952  29.853  1.00  0.00     0.135 A 
ATOM     70  F   UNL A   1      35.211  31.925  32.271  1.00  0.00    -0.206 F 
ATOM     71  C   UNL A   1      34.401  33.399  30.633  1.00  0.00     0.059 A 
ATOM     72  C   UNL A   1      35.964  34.595  29.211  1.00  0.00     0.059 A 
ATOM     73  F   UNL A   1      38.268  34.241  29.462  1.00  0.00    -0.206 F 
ATOM     74  C   UNL A   1      34.658  34.300  29.599  1.00  0.00     0.060 A 
BRANCH  74  75
ATOM     75  S   UNL A   1      33.261  35.111  28.790  1.00  0.00     0.124 S 
ATOM     76  O   UNL A   1      32.462  35.530  29.934  1.00  0.00    -0.237 OA
ATOM     77  O   UNL A   1      33.918  36.179  28.043  1.00  0.00    -0.237 OA
ATOM     78  O   UNL A   1      32.686  34.048  27.972  1.00  0.00    -0.744 OA
ENDBRANCH  74  75
ENDBRANCH  42  67
BRANCH  54  79
ATOM     79  C   UNL A   1      39.929  33.937  37.069  1.00  0.00     0.058 A 
ATOM     80  C   UNL A   1      40.554  35.194  37.057  1.00  0.00     0.135 A 
ATOM     81  C   UNL A   1      39.063  33.646  38.137  1.00  0.00     0.135 A 
ATOM     82  F   UNL A   1      41.395  35.522  36.064  1.00  0.00    -0.206 F 
ATOM     83  C   UNL A   1      40.352  36.114  38.081  1.00  0.00     0.059 A 
ATOM     84  C   UNL A   1      38.823  34.563  39.154  1.00  0.00     0.059 A 
ATOM     85  F   UNL A   1      38.430  32.463  38.191  1.00  0.00    -0.206 F 
ATOM     86  C   UNL A   1      39.483  35.790  39.125  1.00  0.00     0.060 A 
BRANCH  86  87
ATOM     87  S   UNL A   1      39.212  37.003  40.435  1.00  0.00     0.124 S 
ATOM     88  O   UNL A   1      38.457  36.221  41.408  1.00  0.00    -0.237 OA
ATOM     89  O   UNL A   1      40.576  37.351  40.823  1.00  0.00    -0.237 OA
ATOM     90  O   UNL A   1      38.466  38.065  39.767  1.00  0.00    -0.744 OA
ENDBRANCH  86  87
ENDBRANCH  54  79
ENDBRANCH  28  29
ENDBRANCH  20  23
ENDBRANCH  18  19
ENDBRANCH  17  18
ENDBRANCH   1  17
TORSDOF 18
ENDMDL
MODEL 3
REMARK VINA RESULT:      -9.9      3.334      9.110
REMARK SMILES C[C@@H](Cc1ccco1)C(=O)NCCCCCCNC(=O)c1ccc(-c2c3nc(c(-c4c(F)cc(S(=O)(=O)[O-])cc4F)c4ccc([nH]4)c(-c4c(F)cc(S(=O)(=O)[O-])cc4F)c4nc(c(-c5c(F)cc(S(=O)(=O)[O-])cc5F)c5ccc2[nH]5)C=C4)C=C3)cc1
REMARK SMILES IDX 15 1 14 2 13 3 12 4 11 5 9 6 10 7 2 9 1 10 3 11 4 12 5 13
REMARK SMILES IDX 8 14 6 15 7 16 16 17 17 18 18 19 19 20 20 22 21 23 22 24
REMARK SMILES IDX 86 25 23 26 85 27 24 28 25 29 26 30 79 31 27 32 84 33 78 34
REMARK SMILES IDX 80 35 28 36 83 37 77 38 76 39 29 41 63 42 42 43 62 44 43 45
REMARK SMILES IDX 46 46 61 47 81 48 44 49 45 50 60 52 82 53 47 54 30 55 31 56
REMARK SMILES IDX 40 57 32 58 33 59 39 60 41 61 34 62 35 63 36 64 37 65 38 66
REMARK SMILES IDX 64 67 65 68 74 69 66 70 67 71 73 72 75 73 68 74 69 75 70 76
REMARK SMILES IDX 71 77 72 78 48 79 49 80 58 81 50 82 51 83 57 84 59 85 52 86
REMARK SMILES IDX 53 87 54 88 55 89 56 90
REMARK H PARENT 11 8 18 21 80 40 46 51
REMARK Flexibility Score: inf
ROOT
ATOM      1  C   UNL A   1      32.538  29.120  24.645  1.00  0.00     0.002 C 
ENDROOT
BRANCH   1   2
ATOM      2  C   UNL A   1      32.055  28.937  23.201  1.00  0.00     0.002 C 
BRANCH   2   3
ATOM      3  C   UNL A   1      30.749  28.159  23.026  1.00  0.00     0.021 C 
BRANCH   3   4
ATOM      4  C   UNL A   1      30.921  26.693  22.662  1.00  0.00     0.116 C 
BRANCH   4   5
ATOM      5  N   UNL A   1      31.837  26.456  21.571  1.00  0.00    -0.356 N 
ATOM      6  C   UNL A   1      32.683  25.412  21.367  1.00  0.00     0.223 C 
ATOM      7  O   UNL A   1      33.191  25.313  20.245  1.00  0.00    -0.275 OA
ATOM      8  H   UNL A   1      31.851  27.151  20.874  1.00  0.00     0.163 HD
BRANCH   6   9
ATOM      9  C   UNL A   1      33.030  24.383  22.447  1.00  0.00     0.083 C 
ATOM     10  C   UNL A   1      32.919  22.925  22.004  1.00  0.00     0.018 C 
BRANCH   9  11
ATOM     11  C   UNL A   1      34.244  24.734  23.319  1.00  0.00     0.088 C 
BRANCH  11  12
ATOM     12  C   UNL A   1      35.132  23.624  23.748  1.00  0.00     0.104 A 
ATOM     13  C   UNL A   1      36.331  23.138  23.265  1.00  0.00     0.045 A 
ATOM     14  O   UNL A   1      34.769  22.930  24.864  1.00  0.00    -0.469 OA
ATOM     15  C   UNL A   1      36.694  22.055  24.103  1.00  0.00     0.042 A 
ATOM     16  C   UNL A   1      35.712  21.970  25.062  1.00  0.00     0.195 A 
ENDBRANCH  11  12
ENDBRANCH   9  11
ENDBRANCH   6   9
ENDBRANCH   4   5
ENDBRANCH   3   4
ENDBRANCH   2   3
ENDBRANCH   1   2
BRANCH   1  17
ATOM     17  C   UNL A   1      33.342  27.960  25.240  1.00  0.00     0.021 C 
BRANCH  17  18
ATOM     18  C   UNL A   1      33.864  28.184  26.656  1.00  0.00     0.116 C 
BRANCH  18  19
ATOM     19  N   UNL A   1      33.661  29.547  27.112  1.00  0.00    -0.352 N 
ATOM     20  C   UNL A   1      34.482  30.360  27.852  1.00  0.00     0.251 C 
ATOM     21  H   UNL A   1      32.802  29.951  26.849  1.00  0.00     0.163 HD
ATOM     22  O   UNL A   1      34.050  31.421  28.289  1.00  0.00    -0.269 OA
BRANCH  20  23
ATOM     23  C   UNL A   1      35.877  29.953  28.140  1.00  0.00     0.039 A 
ATOM     24  C   UNL A   1      36.835  30.082  27.132  1.00  0.00     0.014 A 
ATOM     25  C   UNL A   1      36.236  29.420  29.381  1.00  0.00     0.014 A 
ATOM     26  C   UNL A   1      38.161  29.723  27.383  1.00  0.00     0.010 A 
ATOM     27  C   UNL A   1      37.573  29.133  29.655  1.00  0.00     0.010 A 
ATOM     28  C   UNL A   1      38.548  29.271  28.656  1.00  0.00    -0.014 A 
BRANCH  28  29
ATOM     29  C   UNL A   1      39.964  28.929  28.950  1.00  0.00     0.031 A 
ATOM     30  C   UNL A   1      40.883  29.959  29.551  1.00  0.00     0.074 A 
ATOM     31  C   UNL A   1      40.434  27.706  28.634  1.00  0.00     0.049 A 
ATOM     32  N   UNL A   1      42.157  29.866  29.834  1.00  0.00    -0.248 NA
ATOM     33  C   UNL A   1      40.299  31.277  29.852  1.00  0.00     0.031 C 
ATOM     34  C   UNL A   1      39.653  26.637  28.006  1.00  0.00     0.029 A 
ATOM     35  N   UNL A   1      41.681  27.156  28.790  1.00  0.00    -0.354 N 
ATOM     36  C   UNL A   1      42.527  31.108  30.337  1.00  0.00     0.074 A 
ATOM     37  C   UNL A   1      41.359  31.957  30.264  1.00  0.00     0.031 C 
ATOM     38  C   UNL A   1      40.433  25.554  27.852  1.00  0.00     0.029 A 
ATOM     39  C   UNL A   1      41.776  25.862  28.333  1.00  0.00     0.049 A 
ATOM     40  H   UNL A   1      42.437  27.642  29.191  1.00  0.00     0.167 HD
ATOM     41  C   UNL A   1      43.724  31.497  30.840  1.00  0.00     0.037 A 
ATOM     42  C   UNL A   1      42.829  25.021  28.299  1.00  0.00     0.037 A 
ATOM     43  C   UNL A   1      44.879  30.641  30.926  1.00  0.00     0.049 A 
ATOM     44  C   UNL A   1      44.151  25.480  28.853  1.00  0.00     0.074 A 
ATOM     45  C   UNL A   1      46.125  30.925  31.456  1.00  0.00     0.029 A 
ATOM     46  N   UNL A   1      44.930  29.331  30.469  1.00  0.00    -0.354 N 
ATOM     47  N   UNL A   1      44.467  26.640  29.379  1.00  0.00    -0.248 NA
ATOM     48  C   UNL A   1      45.257  24.514  28.820  1.00  0.00     0.031 C 
ATOM     49  C   UNL A   1      46.943  29.805  31.279  1.00  0.00     0.029 A 
ATOM     50  C   UNL A   1      46.191  28.801  30.689  1.00  0.00     0.049 A 
ATOM     51  H   UNL A   1      44.181  28.849  30.049  1.00  0.00     0.167 HD
ATOM     52  C   UNL A   1      45.797  26.531  29.769  1.00  0.00     0.074 A 
ATOM     53  C   UNL A   1      46.221  25.189  29.429  1.00  0.00     0.031 C 
ATOM     54  C   UNL A   1      46.595  27.458  30.356  1.00  0.00     0.037 A 
BRANCH  41  55
ATOM     55  C   UNL A   1      43.842  32.911  31.346  1.00  0.00     0.058 A 
ATOM     56  C   UNL A   1      43.507  33.251  32.667  1.00  0.00     0.135 A 
ATOM     57  C   UNL A   1      44.328  33.932  30.513  1.00  0.00     0.135 A 
ATOM     58  F   UNL A   1      43.024  32.319  33.504  1.00  0.00    -0.206 F 
ATOM     59  C   UNL A   1      43.618  34.556  33.134  1.00  0.00     0.059 A 
ATOM     60  C   UNL A   1      44.476  35.240  30.967  1.00  0.00     0.059 A 
ATOM     61  F   UNL A   1      44.664  33.665  29.241  1.00  0.00    -0.206 F 
ATOM     62  C   UNL A   1      44.104  35.545  32.276  1.00  0.00     0.060 A 
BRANCH  62  63
ATOM     63  S   UNL A   1      44.244  37.233  32.901  1.00  0.00     0.124 S 
ATOM     64  O   UNL A   1      43.249  37.232  33.968  1.00  0.00    -0.237 OA
ATOM     65  O   UNL A   1      45.637  37.291  33.333  1.00  0.00    -0.237 OA
ATOM     66  O   UNL A   1      43.916  38.054  31.739  1.00  0.00    -0.744 OA
ENDBRANCH  62  63
ENDBRANCH  41  55
BRANCH  42  67
ATOM     67  C   UNL A   1      42.672  23.652  27.736  1.00  0.00     0.058 A 
ATOM     68  C   UNL A   1      42.804  23.415  26.360  1.00  0.00     0.135 A 
ATOM     69  C   UNL A   1      42.387  22.553  28.562  1.00  0.00     0.135 A 
ATOM     70  F   UNL A   1      43.071  24.433  25.527  1.00  0.00    -0.206 F 
ATOM     71  C   UNL A   1      42.633  22.146  25.817  1.00  0.00     0.059 A 
ATOM     72  C   UNL A   1      42.242  21.269  28.047  1.00  0.00     0.059 A 
ATOM     73  F   UNL A   1      42.271  22.721  29.888  1.00  0.00    -0.206 F 
ATOM     74  C   UNL A   1      42.352  21.078  26.671  1.00  0.00     0.060 A 
BRANCH  74  75
ATOM     75  S   UNL A   1      42.166  19.427  25.961  1.00  0.00     0.124 S 
ATOM     76  O   UNL A   1      42.669  18.586  27.040  1.00  0.00    -0.237 OA
ATOM     77  O   UNL A   1      40.729  19.360  25.714  1.00  0.00    -0.237 OA
ATOM     78  O   UNL A   1      42.998  19.482  24.763  1.00  0.00    -0.744 OA
ENDBRANCH  74  75
ENDBRANCH  42  67
BRANCH  54  79
ATOM     79  C   UNL A   1      47.996  27.039  30.711  1.00  0.00     0.058 A 
ATOM     80  C   UNL A   1      49.072  27.221  29.828  1.00  0.00     0.135 A 
ATOM     81  C   UNL A   1      48.271  26.484  31.972  1.00  0.00     0.135 A 
ATOM     82  F   UNL A   1      48.865  27.742  28.608  1.00  0.00    -0.206 F 
ATOM     83  C   UNL A   1      50.365  26.839  30.171  1.00  0.00     0.059 A 
ATOM     84  C   UNL A   1      49.561  26.125  32.348  1.00  0.00     0.059 A 
ATOM     85  F   UNL A   1      47.280  26.299  32.860  1.00  0.00    -0.206 F 
ATOM     86  C   UNL A   1      50.600  26.293  31.435  1.00  0.00     0.060 A 
BRANCH  86  87
ATOM     87  S   UNL A   1      52.286  25.823  31.876  1.00  0.00     0.124 S 
ATOM     88  O   UNL A   1      52.550  26.704  33.008  1.00  0.00    -0.237 OA
ATOM     89  O   UNL A   1      52.141  24.406  32.195  1.00  0.00    -0.237 OA
ATOM     90  O   UNL A   1      53.048  26.112  30.664  1.00  0.00    -0.744 OA
ENDBRANCH  86  87
ENDBRANCH  54  79
ENDBRANCH  28  29
ENDBRANCH  20  23
ENDBRANCH  18  19
ENDBRANCH  17  18
ENDBRANCH   1  17
TORSDOF 18
ENDMDL
