MODEL 1
REMARK VINA RESULT:     -10.8      0.000      0.000
REMARK SMILES COCC[C@]1(C(=O)NCCCCCCNC(=O)c2ccc(-c3c4nc(c(-c5c(F)cc(S(=O)(=O)[O-])cc5F)c5ccc([nH]5)c(-c5c(F)cc(S(=O)(=O)[O-])cc5F)c5nc(c(-c6c(F)cc(S(=O)(=O)[O-])cc6F)c6ccc3[nH]6)C=C5)C=C4)cc2)CCCN(C(=O)Cc2c(C)nc(C)[nH]c2=O)C1
REMARK SMILES IDX 11 1 10 2 9 3 8 4 6 5 7 6 5 8 84 9 100 10 85 11 87 12 86 13
REMARK SMILES IDX 4 14 3 15 2 16 1 17 88 18 89 19 90 20 91 21 92 22 98 23
REMARK SMILES IDX 93 24 94 25 97 26 99 27 95 28 96 30 12 31 13 32 14 33 15 34
REMARK SMILES IDX 16 35 17 37 18 38 19 39 83 40 20 41 82 42 21 43 22 44 23 45
REMARK SMILES IDX 76 46 24 47 81 48 75 49 77 50 25 51 80 52 74 53 73 54 26 56
REMARK SMILES IDX 60 57 39 58 59 59 40 60 43 61 58 62 78 63 41 64 42 65 57 67
REMARK SMILES IDX 79 68 44 69 27 70 28 71 37 72 29 73 30 74 36 75 38 76 31 77
REMARK SMILES IDX 32 78 33 79 34 80 35 81 61 82 62 83 71 84 63 85 64 86 70 87
REMARK SMILES IDX 72 88 65 89 66 90 67 91 68 92 69 93 45 94 46 95 55 96 47 97
REMARK SMILES IDX 48 98 54 99 56 100 49 101 50 102 51 103 52 104 53 105
REMARK H PARENT 8 7 97 29 15 36 77 55 43 66
REMARK Flexibility Score: inf
ROOT
ATOM      1  C   UNL A   1      35.339  31.905  27.815  1.00  0.00     0.002 C 
ENDROOT
BRANCH   1   2
ATOM      2  C   UNL A   1      35.033  30.424  27.562  1.00  0.00     0.021 C 
BRANCH   2   3
ATOM      3  C   UNL A   1      33.661  30.151  26.940  1.00  0.00     0.116 C 
BRANCH   3   4
ATOM      4  N   UNL A   1      33.008  29.043  27.608  1.00  0.00    -0.356 N 
ATOM      5  C   UNL A   1      32.092  28.152  27.141  1.00  0.00     0.228 C 
ATOM      6  O   UNL A   1      31.228  27.829  27.959  1.00  0.00    -0.274 OA
ATOM      7  H   UNL A   1      33.267  28.915  28.549  1.00  0.00     0.163 HD
BRANCH   5   8
ATOM      8  C   UNL A   1      32.069  27.669  25.676  1.00  0.00     0.069 C 
ATOM      9  C   UNL A   1      33.356  28.282  25.019  1.00  0.00     0.021 C 
ATOM     10  C   UNL A   1      32.021  26.117  25.551  1.00  0.00     0.136 C 
ATOM     11  C   UNL A   1      33.905  27.552  23.793  1.00  0.00     0.023 C 
ATOM     12  N   UNL A   1      32.490  25.673  24.234  1.00  0.00    -0.341 N 
ATOM     13  C   UNL A   1      33.869  26.042  23.973  1.00  0.00     0.119 C 
BRANCH   8  14
ATOM     14  C   UNL A   1      30.810  28.270  24.949  1.00  0.00     0.047 C 
BRANCH  14  15
ATOM     15  C   UNL A   1      30.935  29.684  24.337  1.00  0.00     0.161 C 
BRANCH  15  16
ATOM     16  O   UNL A   1      29.824  30.010  23.509  1.00  0.00    -0.385 OA
ATOM     17  C   UNL A   1      30.012  29.682  22.139  1.00  0.00     0.194 C 
ENDBRANCH  15  16
ENDBRANCH  14  15
ENDBRANCH   8  14
BRANCH  12  18
ATOM     18  C   UNL A   1      31.587  25.232  23.270  1.00  0.00     0.227 C 
ATOM     19  O   UNL A   1      31.532  25.771  22.159  1.00  0.00    -0.275 OA
BRANCH  18  20
ATOM     20  C   UNL A   1      30.653  24.048  23.582  1.00  0.00     0.143 C 
BRANCH  20  21
ATOM     21  C   UNL A   1      31.399  22.857  24.130  1.00  0.00     0.048 A 
ATOM     22  C   UNL A   1      31.312  22.332  25.370  1.00  0.00     0.049 A 
ATOM     23  C   UNL A   1      32.324  22.163  23.196  1.00  0.00     0.254 A 
ATOM     24  C   UNL A   1      30.547  22.982  26.494  1.00  0.00     0.067 C 
ATOM     25  N   UNL A   1      31.867  21.121  25.731  1.00  0.00    -0.240 NA
ATOM     26  N   UNL A   1      32.759  20.936  23.588  1.00  0.00    -0.311 N 
ATOM     27  O   UNL A   1      32.661  22.639  22.119  1.00  0.00    -0.269 OA
ATOM     28  C   UNL A   1      32.515  20.456  24.834  1.00  0.00     0.105 A 
ATOM     29  H   UNL A   1      33.264  20.382  22.951  1.00  0.00     0.171 HD
ATOM     30  C   UNL A   1      33.044  19.083  25.132  1.00  0.00     0.087 C 
ENDBRANCH  20  21
ENDBRANCH  18  20
ENDBRANCH  12  18
ENDBRANCH   5   8
ENDBRANCH   3   4
ENDBRANCH   2   3
ENDBRANCH   1   2
BRANCH   1  31
ATOM     31  C   UNL A   1      34.407  32.602  28.808  1.00  0.00     0.002 C 
BRANCH  31  32
ATOM     32  C   UNL A   1      33.567  33.736  28.220  1.00  0.00     0.021 C 
BRANCH  32  33
ATOM     33  C   UNL A   1      33.983  35.131  28.667  1.00  0.00     0.116 C 
BRANCH  33  34
ATOM     34  N   UNL A   1      33.027  35.723  29.588  1.00  0.00    -0.352 N 
ATOM     35  C   UNL A   1      32.942  35.545  30.949  1.00  0.00     0.251 C 
ATOM     36  H   UNL A   1      32.358  36.325  29.188  1.00  0.00     0.163 HD
ATOM     37  O   UNL A   1      31.988  35.974  31.581  1.00  0.00    -0.269 OA
BRANCH  35  38
ATOM     38  C   UNL A   1      34.022  34.798  31.628  1.00  0.00     0.039 A 
ATOM     39  C   UNL A   1      33.735  33.566  32.218  1.00  0.00     0.014 A 
ATOM     40  C   UNL A   1      35.327  35.299  31.623  1.00  0.00     0.014 A 
ATOM     41  C   UNL A   1      34.773  32.800  32.754  1.00  0.00     0.010 A 
ATOM     42  C   UNL A   1      36.365  34.510  32.102  1.00  0.00     0.010 A 
ATOM     43  C   UNL A   1      36.100  33.253  32.671  1.00  0.00    -0.014 A 
BRANCH  43  44
ATOM     44  C   UNL A   1      37.240  32.456  33.189  1.00  0.00     0.031 A 
ATOM     45  C   UNL A   1      37.882  32.853  34.489  1.00  0.00     0.074 A 
ATOM     46  C   UNL A   1      37.762  31.458  32.449  1.00  0.00     0.049 A 
ATOM     47  N   UNL A   1      38.999  32.435  35.022  1.00  0.00    -0.248 NA
ATOM     48  C   UNL A   1      37.188  33.886  35.275  1.00  0.00     0.031 C 
ATOM     49  C   UNL A   1      37.240  30.994  31.162  1.00  0.00     0.029 A 
ATOM     50  N   UNL A   1      38.866  30.671  32.662  1.00  0.00    -0.354 N 
ATOM     51  C   UNL A   1      39.159  33.176  36.187  1.00  0.00     0.074 A 
ATOM     52  C   UNL A   1      38.044  34.093  36.264  1.00  0.00     0.031 C 
ATOM     53  C   UNL A   1      38.023  30.004  30.701  1.00  0.00     0.029 A 
ATOM     54  C   UNL A   1      39.126  29.794  31.635  1.00  0.00     0.049 A 
ATOM     55  H   UNL A   1      39.420  30.729  33.474  1.00  0.00     0.167 HD
ATOM     56  C   UNL A   1      40.143  33.088  37.114  1.00  0.00     0.037 A 
ATOM     57  C   UNL A   1      40.150  28.936  31.456  1.00  0.00     0.037 A 
ATOM     58  C   UNL A   1      41.226  32.143  37.049  1.00  0.00     0.049 A 
ATOM     59  C   UNL A   1      41.230  28.851  32.502  1.00  0.00     0.074 A 
ATOM     60  C   UNL A   1      42.245  31.940  37.962  1.00  0.00     0.029 A 
ATOM     61  N   UNL A   1      41.424  31.239  36.015  1.00  0.00    -0.354 N 
ATOM     62  N   UNL A   1      41.353  29.538  33.613  1.00  0.00    -0.248 NA
ATOM     63  C   UNL A   1      42.309  27.879  32.273  1.00  0.00     0.031 C 
ATOM     64  C   UNL A   1      43.078  30.933  37.465  1.00  0.00     0.029 A 
ATOM     65  C   UNL A   1      42.554  30.481  36.264  1.00  0.00     0.049 A 
ATOM     66  H   UNL A   1      40.847  31.150  35.223  1.00  0.00     0.167 HD
ATOM     67  C   UNL A   1      42.501  29.057  34.232  1.00  0.00     0.074 A 
ATOM     68  C   UNL A   1      43.040  28.025  33.371  1.00  0.00     0.031 C 
ATOM     69  C   UNL A   1      43.057  29.435  35.409  1.00  0.00     0.037 A 
BRANCH  56  70
ATOM     70  C   UNL A   1      40.088  34.038  38.277  1.00  0.00     0.058 A 
ATOM     71  C   UNL A   1      39.333  33.753  39.426  1.00  0.00     0.135 A 
ATOM     72  C   UNL A   1      40.818  35.237  38.251  1.00  0.00     0.135 A 
ATOM     73  F   UNL A   1      38.604  32.629  39.495  1.00  0.00    -0.206 F 
ATOM     74  C   UNL A   1      39.277  34.640  40.496  1.00  0.00     0.059 A 
ATOM     75  C   UNL A   1      40.799  36.126  39.322  1.00  0.00     0.059 A 
ATOM     76  F   UNL A   1      41.556  35.557  37.177  1.00  0.00    -0.206 F 
ATOM     77  C   UNL A   1      40.011  35.826  40.433  1.00  0.00     0.060 A 
BRANCH  77  78
ATOM     78  S   UNL A   1      39.924  36.971  41.826  1.00  0.00     0.124 S 
ATOM     79  O   UNL A   1      39.295  38.132  41.207  1.00  0.00    -0.237 OA
ATOM     80  O   UNL A   1      39.099  36.239  42.782  1.00  0.00    -0.237 OA
ATOM     81  O   UNL A   1      41.321  37.143  42.211  1.00  0.00    -0.744 OA
ENDBRANCH  77  78
ENDBRANCH  56  70
BRANCH  57  82
ATOM     82  C   UNL A   1      40.198  28.079  30.242  1.00  0.00     0.058 A 
ATOM     83  C   UNL A   1      41.099  28.355  29.203  1.00  0.00     0.135 A 
ATOM     84  C   UNL A   1      39.361  26.961  30.101  1.00  0.00     0.135 A 
ATOM     85  F   UNL A   1      41.914  29.417  29.288  1.00  0.00    -0.206 F 
ATOM     86  C   UNL A   1      41.161  27.563  28.061  1.00  0.00     0.059 A 
ATOM     87  C   UNL A   1      39.419  26.141  28.979  1.00  0.00     0.059 A 
ATOM     88  F   UNL A   1      38.492  26.645  31.075  1.00  0.00    -0.206 F 
ATOM     89  C   UNL A   1      40.317  26.455  27.959  1.00  0.00     0.060 A 
BRANCH  89  90
ATOM     90  S   UNL A   1      40.441  25.403  26.498  1.00  0.00     0.124 S 
ATOM     91  O   UNL A   1      40.789  26.374  25.466  1.00  0.00    -0.237 OA
ATOM     92  O   UNL A   1      41.496  24.469  26.879  1.00  0.00    -0.237 OA
ATOM     93  O   UNL A   1      39.107  24.819  26.393  1.00  0.00    -0.744 OA
ENDBRANCH  89  90
ENDBRANCH  57  82
BRANCH  69  94
ATOM     94  C   UNL A   1      44.279  28.700  35.877  1.00  0.00     0.058 A 
ATOM     95  C   UNL A   1      44.187  27.524  36.635  1.00  0.00     0.135 A 
ATOM     96  C   UNL A   1      45.554  29.120  35.462  1.00  0.00     0.135 A 
ATOM     97  F   UNL A   1      42.991  27.088  37.062  1.00  0.00    -0.206 F 
ATOM     98  C   UNL A   1      45.319  26.783  36.961  1.00  0.00     0.059 A 
ATOM     99  C   UNL A   1      46.695  28.384  35.759  1.00  0.00     0.059 A 
ATOM    100  F   UNL A   1      45.692  30.236  34.728  1.00  0.00    -0.206 F 
ATOM    101  C   UNL A   1      46.567  27.216  36.509  1.00  0.00     0.060 A 
BRANCH 101 102
ATOM    102  S   UNL A   1      48.016  26.198  36.862  1.00  0.00     0.124 S 
ATOM    103  O   UNL A   1      48.886  26.525  35.736  1.00  0.00    -0.237 OA
ATOM    104  O   UNL A   1      48.445  26.704  38.163  1.00  0.00    -0.237 OA
ATOM    105  O   UNL A   1      47.482  24.839  36.871  1.00  0.00    -0.744 OA
ENDBRANCH 101 102
ENDBRANCH  69  94
ENDBRANCH  43  44
ENDBRANCH  35  38
ENDBRANCH  33  34
ENDBRANCH  32  33
ENDBRANCH  31  32
ENDBRANCH   1  31
TORSDOF 22
ENDMDL
MODEL 2
REMARK VINA RESULT:     -10.7      6.533     12.219
REMARK SMILES COCC[C@]1(C(=O)NCCCCCCNC(=O)c2ccc(-c3c4nc(c(-c5c(F)cc(S(=O)(=O)[O-])cc5F)c5ccc([nH]5)c(-c5c(F)cc(S(=O)(=O)[O-])cc5F)c5nc(c(-c6c(F)cc(S(=O)(=O)[O-])cc6F)c6ccc3[nH]6)C=C5)C=C4)cc2)CCCN(C(=O)Cc2c(C)nc(C)[nH]c2=O)C1
REMARK SMILES IDX 11 1 10 2 9 3 8 4 6 5 7 6 5 8 84 9 100 10 85 11 87 12 86 13
REMARK SMILES IDX 4 14 3 15 2 16 1 17 88 18 89 19 90 20 91 21 92 22 98 23
REMARK SMILES IDX 93 24 94 25 97 26 99 27 95 28 96 30 12 31 13 32 14 33 15 34
REMARK SMILES IDX 16 35 17 37 18 38 19 39 83 40 20 41 82 42 21 43 22 44 23 45
REMARK SMILES IDX 76 46 24 47 81 48 75 49 77 50 25 51 80 52 74 53 73 54 26 56
REMARK SMILES IDX 60 57 39 58 59 59 40 60 43 61 58 62 78 63 41 64 42 65 57 67
REMARK SMILES IDX 79 68 44 69 27 70 28 71 37 72 29 73 30 74 36 75 38 76 31 77
REMARK SMILES IDX 32 78 33 79 34 80 35 81 61 82 62 83 71 84 63 85 64 86 70 87
REMARK SMILES IDX 72 88 65 89 66 90 67 91 68 92 69 93 45 94 46 95 55 96 47 97
REMARK SMILES IDX 48 98 54 99 56 100 49 101 50 102 51 103 52 104 53 105
REMARK H PARENT 8 7 97 29 15 36 77 55 43 66
REMARK Flexibility Score: inf
ROOT
ATOM      1  C   UNL A   1      37.630  22.504  25.361  1.00  0.00     0.002 C 
ENDROOT
BRANCH   1   2
ATOM      2  C   UNL A   1      36.852  21.337  24.741  1.00  0.00     0.021 C 
BRANCH   2   3
ATOM      3  C   UNL A   1      35.640  20.873  25.554  1.00  0.00     0.116 C 
BRANCH   3   4
ATOM      4  N   UNL A   1      34.511  20.609  24.683  1.00  0.00    -0.356 N 
ATOM      5  C   UNL A   1      33.359  21.308  24.502  1.00  0.00     0.228 C 
ATOM      6  O   UNL A   1      32.358  20.609  24.323  1.00  0.00    -0.274 OA
ATOM      7  H   UNL A   1      34.592  19.795  24.136  1.00  0.00     0.163 HD
BRANCH   5   8
ATOM      8  C   UNL A   1      33.286  22.845  24.621  1.00  0.00     0.069 C 
ATOM      9  C   UNL A   1      34.429  23.385  23.691  1.00  0.00     0.021 C 
ATOM     10  C   UNL A   1      31.889  23.416  24.237  1.00  0.00     0.136 C 
ATOM     11  C   UNL A   1      34.255  24.809  23.159  1.00  0.00     0.023 C 
ATOM     12  N   UNL A   1      31.973  24.836  23.880  1.00  0.00    -0.341 N 
ATOM     13  C   UNL A   1      32.822  25.078  22.728  1.00  0.00     0.119 C 
BRANCH   8  14
ATOM     14  C   UNL A   1      33.613  23.268  26.101  1.00  0.00     0.047 C 
BRANCH  14  15
ATOM     15  C   UNL A   1      32.810  22.600  27.239  1.00  0.00     0.161 C 
BRANCH  15  16
ATOM     16  O   UNL A   1      31.708  23.397  27.659  1.00  0.00    -0.385 OA
ATOM     17  C   UNL A   1      30.475  23.040  27.050  1.00  0.00     0.194 C 
ENDBRANCH  15  16
ENDBRANCH  14  15
ENDBRANCH   8  14
BRANCH  12  18
ATOM     18  C   UNL A   1      31.526  25.818  24.760  1.00  0.00     0.227 C 
ATOM     19  O   UNL A   1      30.389  26.291  24.659  1.00  0.00    -0.275 OA
BRANCH  18  20
ATOM     20  C   UNL A   1      32.453  26.314  25.886  1.00  0.00     0.143 C 
BRANCH  20  21
ATOM     21  C   UNL A   1      32.408  27.813  26.049  1.00  0.00     0.048 A 
ATOM     22  C   UNL A   1      32.884  28.746  25.198  1.00  0.00     0.049 A 
ATOM     23  C   UNL A   1      31.744  28.331  27.274  1.00  0.00     0.254 A 
ATOM     24  C   UNL A   1      33.716  28.417  23.986  1.00  0.00     0.067 C 
ATOM     25  N   UNL A   1      32.621  30.096  25.315  1.00  0.00    -0.240 NA
ATOM     26  N   UNL A   1      31.442  29.656  27.275  1.00  0.00    -0.311 N 
ATOM     27  O   UNL A   1      31.452  27.615  28.224  1.00  0.00    -0.269 OA
ATOM     28  C   UNL A   1      31.884  30.490  26.299  1.00  0.00     0.105 A 
ATOM     29  H   UNL A   1      30.887  30.019  28.002  1.00  0.00     0.171 HD
ATOM     30  C   UNL A   1      31.468  31.928  26.417  1.00  0.00     0.087 C 
ENDBRANCH  20  21
ENDBRANCH  18  20
ENDBRANCH  12  18
ENDBRANCH   5   8
ENDBRANCH   3   4
ENDBRANCH   2   3
ENDBRANCH   1   2
BRANCH   1  31
ATOM     31  C   UNL A   1      38.937  22.118  26.056  1.00  0.00     0.002 C 
BRANCH  31  32
ATOM     32  C   UNL A   1      39.482  20.738  25.690  1.00  0.00     0.021 C 
BRANCH  32  33
ATOM     33  C   UNL A   1      40.262  20.048  26.801  1.00  0.00     0.116 C 
BRANCH  33  34
ATOM     34  N   UNL A   1      41.242  19.107  26.285  1.00  0.00    -0.352 N 
ATOM     35  C   UNL A   1      42.506  19.377  25.815  1.00  0.00     0.251 C 
ATOM     36  H   UNL A   1      40.968  18.162  26.270  1.00  0.00     0.163 HD
ATOM     37  O   UNL A   1      43.167  18.513  25.257  1.00  0.00    -0.269 OA
BRANCH  35  38
ATOM     38  C   UNL A   1      43.039  20.746  25.977  1.00  0.00     0.039 A 
ATOM     39  C   UNL A   1      43.317  21.511  24.842  1.00  0.00     0.014 A 
ATOM     40  C   UNL A   1      43.203  21.284  27.257  1.00  0.00     0.014 A 
ATOM     41  C   UNL A   1      43.704  22.845  24.989  1.00  0.00     0.010 A 
ATOM     42  C   UNL A   1      43.530  22.627  27.398  1.00  0.00     0.010 A 
ATOM     43  C   UNL A   1      43.782  23.421  26.268  1.00  0.00    -0.014 A 
BRANCH  43  44
ATOM     44  C   UNL A   1      44.149  24.846  26.470  1.00  0.00     0.031 A 
ATOM     45  C   UNL A   1      45.587  25.259  26.329  1.00  0.00     0.074 A 
ATOM     46  C   UNL A   1      43.223  25.733  26.882  1.00  0.00     0.049 A 
ATOM     47  N   UNL A   1      46.159  26.388  26.654  1.00  0.00    -0.248 NA
ATOM     48  C   UNL A   1      46.510  24.252  25.780  1.00  0.00     0.031 C 
ATOM     49  C   UNL A   1      41.800  25.446  27.076  1.00  0.00     0.029 A 
ATOM     50  N   UNL A   1      43.347  27.052  27.240  1.00  0.00    -0.354 N 
ATOM     51  C   UNL A   1      47.511  26.216  26.382  1.00  0.00     0.074 A 
ATOM     52  C   UNL A   1      47.679  24.863  25.900  1.00  0.00     0.031 C 
ATOM     53  C   UNL A   1      41.183  26.556  27.515  1.00  0.00     0.029 A 
ATOM     54  C   UNL A   1      42.172  27.618  27.679  1.00  0.00     0.049 A 
ATOM     55  H   UNL A   1      44.195  27.547  27.187  1.00  0.00     0.167 HD
ATOM     56  C   UNL A   1      48.519  27.111  26.512  1.00  0.00     0.037 A 
ATOM     57  C   UNL A   1      41.926  28.845  28.180  1.00  0.00     0.037 A 
ATOM     58  C   UNL A   1      48.336  28.467  26.955  1.00  0.00     0.049 A 
ATOM     59  C   UNL A   1      43.060  29.827  28.311  1.00  0.00     0.074 A 
ATOM     60  C   UNL A   1      49.284  29.468  27.075  1.00  0.00     0.029 A 
ATOM     61  N   UNL A   1      47.121  29.014  27.344  1.00  0.00    -0.354 N 
ATOM     62  N   UNL A   1      44.329  29.658  28.023  1.00  0.00    -0.248 NA
ATOM     63  C   UNL A   1      42.734  31.160  28.835  1.00  0.00     0.031 C 
ATOM     64  C   UNL A   1      48.647  30.613  27.565  1.00  0.00     0.029 A 
ATOM     65  C   UNL A   1      47.297  30.337  27.710  1.00  0.00     0.049 A 
ATOM     66  H   UNL A   1      46.263  28.533  27.356  1.00  0.00     0.167 HD
ATOM     67  C   UNL A   1      44.946  30.875  28.296  1.00  0.00     0.074 A 
ATOM     68  C   UNL A   1      43.913  31.768  28.777  1.00  0.00     0.031 C 
ATOM     69  C   UNL A   1      46.249  31.220  28.157  1.00  0.00     0.037 A 
BRANCH  56  70
ATOM     70  C   UNL A   1      49.908  26.650  26.170  1.00  0.00     0.058 A 
ATOM     71  C   UNL A   1      50.454  26.846  24.892  1.00  0.00     0.135 A 
ATOM     72  C   UNL A   1      50.709  26.024  27.138  1.00  0.00     0.135 A 
ATOM     73  F   UNL A   1      49.725  27.424  23.925  1.00  0.00    -0.206 F 
ATOM     74  C   UNL A   1      51.736  26.408  24.576  1.00  0.00     0.059 A 
ATOM     75  C   UNL A   1      52.004  25.603  26.852  1.00  0.00     0.059 A 
ATOM     76  F   UNL A   1      50.234  25.812  28.375  1.00  0.00    -0.206 F 
ATOM     77  C   UNL A   1      52.503  25.784  25.561  1.00  0.00     0.060 A 
BRANCH  77  78
ATOM     78  S   UNL A   1      54.162  25.215  25.135  1.00  0.00     0.124 S 
ATOM     79  O   UNL A   1      53.934  23.789  24.928  1.00  0.00    -0.237 OA
ATOM     80  O   UNL A   1      54.460  25.990  23.936  1.00  0.00    -0.237 OA
ATOM     81  O   UNL A   1      54.951  25.560  26.314  1.00  0.00    -0.744 OA
ENDBRANCH  77  78
ENDBRANCH  56  70
BRANCH  57  82
ATOM     82  C   UNL A   1      40.545  29.219  28.584  1.00  0.00     0.058 A 
ATOM     83  C   UNL A   1      39.560  29.477  27.620  1.00  0.00     0.135 A 
ATOM     84  C   UNL A   1      40.177  29.310  29.936  1.00  0.00     0.135 A 
ATOM     85  F   UNL A   1      39.865  29.410  26.315  1.00  0.00    -0.206 F 
ATOM     86  C   UNL A   1      38.261  29.824  27.978  1.00  0.00     0.059 A 
ATOM     87  C   UNL A   1      38.879  29.634  30.319  1.00  0.00     0.059 A 
ATOM     88  F   UNL A   1      41.079  29.056  30.897  1.00  0.00    -0.206 F 
ATOM     89  C   UNL A   1      37.930  29.899  29.333  1.00  0.00     0.060 A 
BRANCH  89  90
ATOM     90  S   UNL A   1      36.229  30.299  29.788  1.00  0.00     0.124 S 
ATOM     91  O   UNL A   1      36.026  29.436  30.946  1.00  0.00    -0.237 OA
ATOM     92  O   UNL A   1      36.312  31.729  30.063  1.00  0.00    -0.237 OA
ATOM     93  O   UNL A   1      35.472  29.941  28.592  1.00  0.00    -0.744 OA
ENDBRANCH  89  90
ENDBRANCH  57  82
BRANCH  69  94
ATOM     94  C   UNL A   1      46.638  32.635  28.472  1.00  0.00     0.058 A 
ATOM     95  C   UNL A   1      46.586  33.646  27.502  1.00  0.00     0.135 A 
ATOM     96  C   UNL A   1      46.956  33.000  29.791  1.00  0.00     0.135 A 
ATOM     97  F   UNL A   1      46.296  33.345  26.227  1.00  0.00    -0.206 F 
ATOM     98  C   UNL A   1      46.831  34.976  27.831  1.00  0.00     0.059 A 
ATOM     99  C   UNL A   1      47.184  34.325  30.145  1.00  0.00     0.059 A 
ATOM    100  F   UNL A   1      47.010  32.068  30.755  1.00  0.00    -0.206 F 
ATOM    101  C   UNL A   1      47.119  35.306  29.157  1.00  0.00     0.060 A 
BRANCH 101 102
ATOM    102  S   UNL A   1      47.345  37.046  29.586  1.00  0.00     0.124 S 
ATOM    103  O   UNL A   1      47.716  37.621  28.297  1.00  0.00    -0.237 OA
ATOM    104  O   UNL A   1      46.026  37.418  30.089  1.00  0.00    -0.237 OA
ATOM    105  O   UNL A   1      48.405  37.013  30.589  1.00  0.00    -0.744 OA
ENDBRANCH 101 102
ENDBRANCH  69  94
ENDBRANCH  43  44
ENDBRANCH  35  38
ENDBRANCH  33  34
ENDBRANCH  32  33
ENDBRANCH  31  32
ENDBRANCH   1  31
TORSDOF 22
ENDMDL
MODEL 3
REMARK VINA RESULT:     -10.5      5.054      6.951
REMARK SMILES COCC[C@]1(C(=O)NCCCCCCNC(=O)c2ccc(-c3c4nc(c(-c5c(F)cc(S(=O)(=O)[O-])cc5F)c5ccc([nH]5)c(-c5c(F)cc(S(=O)(=O)[O-])cc5F)c5nc(c(-c6c(F)cc(S(=O)(=O)[O-])cc6F)c6ccc3[nH]6)C=C5)C=C4)cc2)CCCN(C(=O)Cc2c(C)nc(C)[nH]c2=O)C1
REMARK SMILES IDX 11 1 10 2 9 3 8 4 6 5 7 6 5 8 84 9 100 10 85 11 87 12 86 13
REMARK SMILES IDX 4 14 3 15 2 16 1 17 88 18 89 19 90 20 91 21 92 22 98 23
REMARK SMILES IDX 93 24 94 25 97 26 99 27 95 28 96 30 12 31 13 32 14 33 15 34
REMARK SMILES IDX 16 35 17 37 18 38 19 39 83 40 20 41 82 42 21 43 22 44 23 45
REMARK SMILES IDX 76 46 24 47 81 48 75 49 77 50 25 51 80 52 74 53 73 54 26 56
REMARK SMILES IDX 60 57 39 58 59 59 40 60 43 61 58 62 78 63 41 64 42 65 57 67
REMARK SMILES IDX 79 68 44 69 27 70 28 71 37 72 29 73 30 74 36 75 38 76 31 77
REMARK SMILES IDX 32 78 33 79 34 80 35 81 61 82 62 83 71 84 63 85 64 86 70 87
REMARK SMILES IDX 72 88 65 89 66 90 67 91 68 92 69 93 45 94 46 95 55 96 47 97
REMARK SMILES IDX 48 98 54 99 56 100 49 101 50 102 51 103 52 104 53 105
REMARK H PARENT 8 7 97 29 15 36 77 55 43 66
REMARK Flexibility Score: inf
ROOT
ATOM      1  C   UNL A   1      31.388  28.746  25.097  1.00  0.00     0.002 C 
ENDROOT
BRANCH   1   2
ATOM      2  C   UNL A   1      31.025  27.404  24.452  1.00  0.00     0.021 C 
BRANCH   2   3
ATOM      3  C   UNL A   1      30.391  26.387  25.405  1.00  0.00     0.116 C 
BRANCH   3   4
ATOM      4  N   UNL A   1      29.920  25.226  24.674  1.00  0.00    -0.356 N 
ATOM      5  C   UNL A   1      30.613  24.190  24.129  1.00  0.00     0.228 C 
ATOM      6  O   UNL A   1      30.165  23.783  23.055  1.00  0.00    -0.274 OA
ATOM      7  H   UNL A   1      28.945  25.181  24.552  1.00  0.00     0.163 HD
BRANCH   5   8
ATOM      8  C   UNL A   1      31.917  23.642  24.745  1.00  0.00     0.069 C 
ATOM      9  C   UNL A   1      32.064  24.380  26.123  1.00  0.00     0.021 C 
ATOM     10  C   UNL A   1      31.908  22.093  24.901  1.00  0.00     0.136 C 
ATOM     11  C   UNL A   1      32.901  23.670  27.188  1.00  0.00     0.023 C 
ATOM     12  N   UNL A   1      32.886  21.651  25.902  1.00  0.00    -0.341 N 
ATOM     13  C   UNL A   1      32.613  22.177  27.227  1.00  0.00     0.119 C 
BRANCH   8  14
ATOM     14  C   UNL A   1      33.134  24.049  23.836  1.00  0.00     0.047 C 
BRANCH  14  15
ATOM     15  C   UNL A   1      34.274  24.872  24.478  1.00  0.00     0.161 C 
BRANCH  15  16
ATOM     16  O   UNL A   1      35.523  24.190  24.428  1.00  0.00    -0.385 OA
ATOM     17  C   UNL A   1      36.200  24.137  25.676  1.00  0.00     0.194 C 
ENDBRANCH  15  16
ENDBRANCH  14  15
ENDBRANCH   8  14
BRANCH  12  18
ATOM     18  C   UNL A   1      34.084  21.058  25.512  1.00  0.00     0.227 C 
ATOM     19  O   UNL A   1      35.089  21.130  26.226  1.00  0.00    -0.275 OA
BRANCH  18  20
ATOM     20  C   UNL A   1      34.158  20.289  24.180  1.00  0.00     0.143 C 
BRANCH  20  21
ATOM     21  C   UNL A   1      33.904  18.812  24.355  1.00  0.00     0.048 A 
ATOM     22  C   UNL A   1      34.785  17.867  24.741  1.00  0.00     0.049 A 
ATOM     23  C   UNL A   1      32.518  18.339  24.095  1.00  0.00     0.254 A 
ATOM     24  C   UNL A   1      36.261  18.125  24.903  1.00  0.00     0.067 C 
ATOM     25  N   UNL A   1      34.429  16.577  25.078  1.00  0.00    -0.240 NA
ATOM     26  N   UNL A   1      32.222  17.088  24.535  1.00  0.00    -0.311 N 
ATOM     27  O   UNL A   1      31.671  19.034  23.545  1.00  0.00    -0.269 OA
ATOM     28  C   UNL A   1      33.180  16.254  25.013  1.00  0.00     0.105 A 
ATOM     29  H   UNL A   1      31.288  16.779  24.506  1.00  0.00     0.171 HD
ATOM     30  C   UNL A   1      32.714  14.903  25.475  1.00  0.00     0.087 C 
ENDBRANCH  20  21
ENDBRANCH  18  20
ENDBRANCH  12  18
ENDBRANCH   5   8
ENDBRANCH   3   4
ENDBRANCH   2   3
ENDBRANCH   1   2
BRANCH   1  31
ATOM     31  C   UNL A   1      31.758  28.677  26.579  1.00  0.00     0.002 C 
BRANCH  31  32
ATOM     32  C   UNL A   1      33.028  27.885  26.893  1.00  0.00     0.021 C 
BRANCH  32  33
ATOM     33  C   UNL A   1      34.308  28.710  26.889  1.00  0.00     0.116 C 
BRANCH  33  34
ATOM     34  N   UNL A   1      34.131  30.006  27.524  1.00  0.00    -0.352 N 
ATOM     35  C   UNL A   1      35.001  30.660  28.365  1.00  0.00     0.251 C 
ATOM     36  H   UNL A   1      33.286  30.471  27.329  1.00  0.00     0.163 HD
ATOM     37  O   UNL A   1      34.658  31.672  28.960  1.00  0.00    -0.269 OA
BRANCH  35  38
ATOM     38  C   UNL A   1      36.354  30.097  28.553  1.00  0.00     0.039 A 
ATOM     39  C   UNL A   1      37.248  30.093  27.479  1.00  0.00     0.014 A 
ATOM     40  C   UNL A   1      36.748  29.630  29.810  1.00  0.00     0.014 A 
ATOM     41  C   UNL A   1      38.565  29.675  27.682  1.00  0.00     0.010 A 
ATOM     42  C   UNL A   1      38.074  29.273  30.023  1.00  0.00     0.010 A 
ATOM     43  C   UNL A   1      38.996  29.292  28.963  1.00  0.00    -0.014 A 
BRANCH  43  44
ATOM     44  C   UNL A   1      40.396  28.881  29.235  1.00  0.00     0.031 A 
ATOM     45  C   UNL A   1      41.365  29.894  29.778  1.00  0.00     0.074 A 
ATOM     46  C   UNL A   1      40.819  27.648  28.895  1.00  0.00     0.049 A 
ATOM     47  N   UNL A   1      42.664  29.816  29.897  1.00  0.00    -0.248 NA
ATOM     48  C   UNL A   1      40.796  31.181  30.212  1.00  0.00     0.031 C 
ATOM     49  C   UNL A   1      39.978  26.585  28.341  1.00  0.00     0.029 A 
ATOM     50  N   UNL A   1      42.072  27.089  28.943  1.00  0.00    -0.354 N 
ATOM     51  C   UNL A   1      43.071  31.051  30.386  1.00  0.00     0.074 A 
ATOM     52  C   UNL A   1      41.887  31.871  30.508  1.00  0.00     0.031 C 
ATOM     53  C   UNL A   1      40.738  25.504  28.100  1.00  0.00     0.029 A 
ATOM     54  C   UNL A   1      42.125  25.809  28.439  1.00  0.00     0.049 A 
ATOM     55  H   UNL A   1      42.858  27.559  29.302  1.00  0.00     0.167 HD
ATOM     56  C   UNL A   1      44.320  31.458  30.716  1.00  0.00     0.037 A 
ATOM     57  C   UNL A   1      43.177  24.988  28.250  1.00  0.00     0.037 A 
ATOM     58  C   UNL A   1      45.487  30.621  30.629  1.00  0.00     0.049 A 
ATOM     59  C   UNL A   1      44.556  25.458  28.628  1.00  0.00     0.074 A 
ATOM     60  C   UNL A   1      46.790  30.922  30.984  1.00  0.00     0.029 A 
ATOM     61  N   UNL A   1      45.489  29.315  30.160  1.00  0.00    -0.354 N 
ATOM     62  N   UNL A   1      44.921  26.620  29.117  1.00  0.00    -0.248 NA
ATOM     63  C   UNL A   1      45.664  24.514  28.429  1.00  0.00     0.031 C 
ATOM     64  C   UNL A   1      47.585  29.807  30.702  1.00  0.00     0.029 A 
ATOM     65  C   UNL A   1      46.771  28.799  30.210  1.00  0.00     0.049 A 
ATOM     66  H   UNL A   1      44.695  28.828  29.840  1.00  0.00     0.167 HD
ATOM     67  C   UNL A   1      46.295  26.533  29.317  1.00  0.00     0.074 A 
ATOM     68  C   UNL A   1      46.696  25.207  28.893  1.00  0.00     0.031 C 
ATOM     69  C   UNL A   1      47.145  27.465  29.812  1.00  0.00     0.037 A 
BRANCH  56  70
ATOM     70  C   UNL A   1      44.486  32.871  31.201  1.00  0.00     0.058 A 
ATOM     71  C   UNL A   1      44.320  33.209  32.553  1.00  0.00     0.135 A 
ATOM     72  C   UNL A   1      44.837  33.895  30.306  1.00  0.00     0.135 A 
ATOM     73  F   UNL A   1      43.968  32.272  33.447  1.00  0.00    -0.206 F 
ATOM     74  C   UNL A   1      44.464  34.519  32.996  1.00  0.00     0.059 A 
ATOM     75  C   UNL A   1      45.013  35.207  30.732  1.00  0.00     0.059 A 
ATOM     76  F   UNL A   1      45.007  33.624  29.002  1.00  0.00    -0.206 F 
ATOM     77  C   UNL A   1      44.807  35.513  32.078  1.00  0.00     0.060 A 
BRANCH  77  78
ATOM     78  S   UNL A   1      44.984  37.210  32.666  1.00  0.00     0.124 S 
ATOM     79  O   UNL A   1      46.339  37.528  32.228  1.00  0.00    -0.237 OA
ATOM     80  O   UNL A   1      43.912  37.901  31.957  1.00  0.00    -0.237 OA
ATOM     81  O   UNL A   1      44.802  37.090  34.109  1.00  0.00    -0.744 OA
ENDBRANCH  77  78
ENDBRANCH  56  70
BRANCH  57  82
ATOM     82  C   UNL A   1      42.965  23.629  27.685  1.00  0.00     0.058 A 
ATOM     83  C   UNL A   1      42.585  22.560  28.510  1.00  0.00     0.135 A 
ATOM     84  C   UNL A   1      43.118  23.374  26.313  1.00  0.00     0.135 A 
ATOM     85  F   UNL A   1      42.433  22.752  29.828  1.00  0.00    -0.206 F 
ATOM     86  C   UNL A   1      42.378  21.282  27.999  1.00  0.00     0.059 A 
ATOM     87  C   UNL A   1      42.895  22.110  25.776  1.00  0.00     0.059 A 
ATOM     88  F   UNL A   1      43.464  24.368  25.479  1.00  0.00    -0.206 F 
ATOM     89  C   UNL A   1      42.534  21.068  26.628  1.00  0.00     0.060 A 
BRANCH  89  90
ATOM     90  S   UNL A   1      42.212  19.419  25.967  1.00  0.00     0.124 S 
ATOM     91  O   UNL A   1      42.670  18.570  27.061  1.00  0.00    -0.237 OA
ATOM     92  O   UNL A   1      40.771  19.453  25.743  1.00  0.00    -0.237 OA
ATOM     93  O   UNL A   1      43.026  19.382  24.755  1.00  0.00    -0.744 OA
ENDBRANCH  89  90
ENDBRANCH  57  82
BRANCH  69  94
ATOM     94  C   UNL A   1      48.587  27.082  29.980  1.00  0.00     0.058 A 
ATOM     95  C   UNL A   1      49.540  27.344  28.986  1.00  0.00     0.135 A 
ATOM     96  C   UNL A   1      49.035  26.552  31.202  1.00  0.00     0.135 A 
ATOM     97  F   UNL A   1      49.159  27.843  27.799  1.00  0.00    -0.206 F 
ATOM     98  C   UNL A   1      50.893  27.097  29.198  1.00  0.00     0.059 A 
ATOM     99  C   UNL A   1      50.384  26.317  31.442  1.00  0.00     0.059 A 
ATOM    100  F   UNL A   1      48.161  26.292  32.186  1.00  0.00    -0.206 F 
ATOM    101  C   UNL A   1      51.306  26.594  30.433  1.00  0.00     0.060 A 
BRANCH 101 102
ATOM    102  S   UNL A   1      53.073  26.364  30.727  1.00  0.00     0.124 S 
ATOM    103  O   UNL A   1      53.575  26.179  29.369  1.00  0.00    -0.237 OA
ATOM    104  O   UNL A   1      53.447  27.616  31.377  1.00  0.00    -0.237 OA
ATOM    105  O   UNL A   1      53.123  25.182  31.583  1.00  0.00    -0.744 OA
ENDBRANCH 101 102
ENDBRANCH  69  94
ENDBRANCH  43  44
ENDBRANCH  35  38
ENDBRANCH  33  34
ENDBRANCH  32  33
ENDBRANCH  31  32
ENDBRANCH   1  31
TORSDOF 22
ENDMDL
