MODEL 1
REMARK VINA RESULT:     -11.9      0.000      0.000
REMARK SMILES COc1ccc(-c2ccc(CCC(=O)NCCCCCCNC(=O)c3ccc(-c4c5nc(c(-c6c(F)cc(S(=O)(=O)[O-])cc6F)c6ccc([nH]6)c(-c6c(F)cc(S(=O)(=O)[O-])cc6F)c6nc(c(-c7c(F)cc(S(=O)(=O)[O-])cc7F)c7ccc4[nH]7)C=C6)C=C5)cc3)n2-c2ccc(C(C)=O)cc2)cc1
REMARK SMILES IDX 18 1 17 2 16 3 15 4 13 5 14 6 12 8 11 9 10 10 7 11 8 12
REMARK SMILES IDX 91 13 9 14 6 15 3 16 4 17 102 18 5 19 101 20 2 21 1 22 92 23
REMARK SMILES IDX 93 24 100 25 94 26 99 27 95 28 96 29 97 30 98 31 19 32 20 33
REMARK SMILES IDX 21 34 22 35 23 36 24 38 25 39 26 40 90 41 27 42 89 43 28 44
REMARK SMILES IDX 29 45 30 46 83 47 31 48 88 49 82 50 84 51 32 52 87 53 81 54
REMARK SMILES IDX 80 55 33 57 67 58 46 59 66 60 47 61 50 62 65 63 85 64 48 65
REMARK SMILES IDX 49 66 64 68 86 69 51 70 34 71 35 72 44 73 36 74 37 75 43 76
REMARK SMILES IDX 45 77 38 78 39 79 40 80 41 81 42 82 68 83 69 84 78 85 70 86
REMARK SMILES IDX 71 87 77 88 79 89 72 90 73 91 74 92 75 93 76 94 52 95 53 96
REMARK SMILES IDX 62 97 54 98 55 99 61 100 63 101 56 102 57 103 58 104 59 105
REMARK SMILES IDX 60 106
REMARK H PARENT 15 7 22 37 84 56 50 67
REMARK Flexibility Score: inf
ROOT
ATOM      1  C   UNL A   1      31.445  28.240  27.018  1.00  0.00     0.002 C 
ENDROOT
BRANCH   1   2
ATOM      2  C   UNL A   1      31.629  27.761  25.583  1.00  0.00     0.021 C 
BRANCH   2   3
ATOM      3  C   UNL A   1      31.302  28.786  24.501  1.00  0.00     0.116 C 
BRANCH   3   4
ATOM      4  N   UNL A   1      32.515  29.225  23.837  1.00  0.00    -0.356 N 
ATOM      5  C   UNL A   1      33.269  28.574  22.907  1.00  0.00     0.220 C 
ATOM      6  O   UNL A   1      34.358  29.059  22.594  1.00  0.00    -0.275 OA
ATOM      7  H   UNL A   1      32.838  30.118  24.095  1.00  0.00     0.163 HD
BRANCH   5   8
ATOM      8  C   UNL A   1      32.753  27.314  22.238  1.00  0.00     0.106 C 
BRANCH   8   9
ATOM      9  C   UNL A   1      33.548  26.061  22.605  1.00  0.00     0.064 C 
BRANCH   9  10
ATOM     10  C   UNL A   1      32.695  24.890  23.011  1.00  0.00     0.024 A 
ATOM     11  C   UNL A   1      32.144  22.731  23.405  1.00  0.00     0.053 A 
ATOM     12  C   UNL A   1      30.979  23.487  23.400  1.00  0.00     0.029 A 
ATOM     13  N   UNL A   1      33.191  23.652  23.427  1.00  0.00    -0.314 N 
ATOM     14  C   UNL A   1      31.322  24.832  23.152  1.00  0.00     0.024 A 
BRANCH  11  15
ATOM     15  C   UNL A   1      32.244  21.297  23.687  1.00  0.00    -0.001 A 
ATOM     16  C   UNL A   1      32.606  18.556  24.165  1.00  0.00     0.118 A 
ATOM     17  C   UNL A   1      32.362  19.016  22.873  1.00  0.00     0.047 A 
ATOM     18  C   UNL A   1      32.683  19.463  25.223  1.00  0.00     0.047 A 
ATOM     19  C   UNL A   1      32.174  20.379  22.635  1.00  0.00     0.014 A 
ATOM     20  C   UNL A   1      32.501  20.833  24.984  1.00  0.00     0.014 A 
BRANCH  16  21
ATOM     21  O   UNL A   1      32.850  17.216  24.287  1.00  0.00    -0.497 OA
ATOM     22  C   UNL A   1      32.802  16.728  25.622  1.00  0.00     0.278 C 
ENDBRANCH  16  21
ENDBRANCH  11  15
BRANCH  13  23
ATOM     23  C   UNL A   1      34.402  23.473  24.140  1.00  0.00     0.046 A 
ATOM     24  C   UNL A   1      35.499  23.003  23.406  1.00  0.00     0.027 A 
ATOM     25  C   UNL A   1      34.556  23.875  25.464  1.00  0.00     0.027 A 
ATOM     26  C   UNL A   1      36.757  22.927  23.994  1.00  0.00     0.014 A 
ATOM     27  C   UNL A   1      35.819  23.770  26.058  1.00  0.00     0.014 A 
ATOM     28  C   UNL A   1      36.930  23.306  25.327  1.00  0.00     0.017 A 
BRANCH  28  29
ATOM     29  C   UNL A   1      38.254  23.229  26.014  1.00  0.00     0.159 C 
ATOM     30  C   UNL A   1      39.033  21.935  26.060  1.00  0.00     0.093 C 
ATOM     31  O   UNL A   1      38.709  24.241  26.553  1.00  0.00    -0.295 OA
ENDBRANCH  28  29
ENDBRANCH  13  23
ENDBRANCH   9  10
ENDBRANCH   8   9
ENDBRANCH   5   8
ENDBRANCH   3   4
ENDBRANCH   2   3
ENDBRANCH   1   2
BRANCH   1  32
ATOM     32  C   UNL A   1      32.105  29.586  27.324  1.00  0.00     0.002 C 
BRANCH  32  33
ATOM     33  C   UNL A   1      33.617  29.540  27.613  1.00  0.00     0.021 C 
BRANCH  33  34
ATOM     34  C   UNL A   1      34.367  30.848  27.331  1.00  0.00     0.116 C 
BRANCH  34  35
ATOM     35  N   UNL A   1      34.161  31.778  28.424  1.00  0.00    -0.352 N 
ATOM     36  C   UNL A   1      34.835  31.938  29.604  1.00  0.00     0.251 C 
ATOM     37  H   UNL A   1      33.409  32.401  28.295  1.00  0.00     0.163 HD
ATOM     38  O   UNL A   1      34.244  32.486  30.528  1.00  0.00    -0.269 OA
BRANCH  36  39
ATOM     39  C   UNL A   1      36.239  31.506  29.788  1.00  0.00     0.039 A 
ATOM     40  C   UNL A   1      36.479  30.543  30.780  1.00  0.00     0.014 A 
ATOM     41  C   UNL A   1      37.316  32.118  29.135  1.00  0.00     0.014 A 
ATOM     42  C   UNL A   1      37.781  30.179  31.103  1.00  0.00     0.010 A 
ATOM     43  C   UNL A   1      38.624  31.755  29.455  1.00  0.00     0.010 A 
ATOM     44  C   UNL A   1      38.853  30.776  30.430  1.00  0.00    -0.014 A 
BRANCH  44  45
ATOM     45  C   UNL A   1      40.201  30.189  30.613  1.00  0.00     0.031 A 
ATOM     46  C   UNL A   1      41.130  31.212  31.361  1.00  0.00     0.074 A 
ATOM     47  C   UNL A   1      40.389  28.936  30.076  1.00  0.00     0.049 A 
ATOM     48  N   UNL A   1      42.415  31.418  31.300  1.00  0.00    -0.248 NA
ATOM     49  C   UNL A   1      40.492  32.225  32.261  1.00  0.00     0.031 C 
ATOM     50  C   UNL A   1      39.341  28.100  29.433  1.00  0.00     0.029 A 
ATOM     51  N   UNL A   1      41.478  28.098  29.954  1.00  0.00    -0.354 N 
ATOM     52  C   UNL A   1      42.747  32.391  32.287  1.00  0.00     0.074 A 
ATOM     53  C   UNL A   1      41.510  32.935  32.749  1.00  0.00     0.031 C 
ATOM     54  C   UNL A   1      39.857  26.954  28.926  1.00  0.00     0.029 A 
ATOM     55  C   UNL A   1      41.282  26.910  29.179  1.00  0.00     0.049 A 
ATOM     56  H   UNL A   1      42.343  28.306  30.377  1.00  0.00     0.167 HD
ATOM     57  C   UNL A   1      44.013  32.588  32.768  1.00  0.00     0.037 A 
ATOM     58  C   UNL A   1      42.226  26.015  28.729  1.00  0.00     0.037 A 
ATOM     59  C   UNL A   1      44.907  31.692  32.128  1.00  0.00     0.049 A 
ATOM     60  C   UNL A   1      43.467  26.537  29.309  1.00  0.00     0.074 A 
ATOM     61  C   UNL A   1      45.641  31.720  30.977  1.00  0.00     0.029 A 
ATOM     62  N   UNL A   1      44.991  30.440  32.678  1.00  0.00    -0.354 N 
ATOM     63  N   UNL A   1      43.805  26.460  30.557  1.00  0.00    -0.248 NA
ATOM     64  C   UNL A   1      44.319  27.350  28.440  1.00  0.00     0.031 C 
ATOM     65  C   UNL A   1      45.901  30.364  30.688  1.00  0.00     0.029 A 
ATOM     66  C   UNL A   1      45.295  29.567  31.665  1.00  0.00     0.049 A 
ATOM     67  H   UNL A   1      44.858  30.209  33.626  1.00  0.00     0.167 HD
ATOM     68  C   UNL A   1      44.747  27.451  30.687  1.00  0.00     0.074 A 
ATOM     69  C   UNL A   1      45.193  27.769  29.345  1.00  0.00     0.031 C 
ATOM     70  C   UNL A   1      44.804  28.215  31.805  1.00  0.00     0.037 A 
BRANCH  57  71
ATOM     71  C   UNL A   1      44.593  33.323  33.965  1.00  0.00     0.058 A 
ATOM     72  C   UNL A   1      44.106  32.968  35.254  1.00  0.00     0.135 A 
ATOM     73  C   UNL A   1      45.245  34.562  33.888  1.00  0.00     0.135 A 
ATOM     74  F   UNL A   1      43.557  31.760  35.472  1.00  0.00    -0.206 F 
ATOM     75  C   UNL A   1      44.086  33.850  36.328  1.00  0.00     0.059 A 
ATOM     76  C   UNL A   1      45.291  35.446  34.979  1.00  0.00     0.059 A 
ATOM     77  F   UNL A   1      45.781  34.986  32.735  1.00  0.00    -0.206 F 
ATOM     78  C   UNL A   1      44.645  35.108  36.170  1.00  0.00     0.060 A 
BRANCH  78  79
ATOM     79  S   UNL A   1      44.482  36.289  37.529  1.00  0.00     0.124 S 
ATOM     80  O   UNL A   1      43.614  37.304  36.943  1.00  0.00    -0.237 OA
ATOM     81  O   UNL A   1      43.878  35.475  38.580  1.00  0.00    -0.237 OA
ATOM     82  O   UNL A   1      45.859  36.701  37.783  1.00  0.00    -0.744 OA
ENDBRANCH  78  79
ENDBRANCH  57  71
BRANCH  58  83
ATOM     83  C   UNL A   1      42.403  24.862  27.740  1.00  0.00     0.058 A 
ATOM     84  C   UNL A   1      42.342  24.931  26.343  1.00  0.00     0.135 A 
ATOM     85  C   UNL A   1      42.799  23.575  28.228  1.00  0.00     0.135 A 
ATOM     86  F   UNL A   1      41.847  26.017  25.734  1.00  0.00    -0.206 F 
ATOM     87  C   UNL A   1      42.801  23.880  25.510  1.00  0.00     0.059 A 
ATOM     88  C   UNL A   1      43.309  22.548  27.433  1.00  0.00     0.059 A 
ATOM     89  F   UNL A   1      42.742  23.265  29.531  1.00  0.00    -0.206 F 
ATOM     90  C   UNL A   1      43.342  22.719  26.066  1.00  0.00     0.060 A 
BRANCH  90  91
ATOM     91  S   UNL A   1      44.202  21.491  25.050  1.00  0.00     0.124 S 
ATOM     92  O   UNL A   1      45.512  21.423  25.688  1.00  0.00    -0.237 OA
ATOM     93  O   UNL A   1      43.359  20.308  25.201  1.00  0.00    -0.237 OA
ATOM     94  O   UNL A   1      44.184  22.087  23.716  1.00  0.00    -0.744 OA
ENDBRANCH  90  91
ENDBRANCH  58  83
BRANCH  70  95
ATOM     95  C   UNL A   1      43.971  27.691  32.980  1.00  0.00     0.058 A 
ATOM     96  C   UNL A   1      44.414  26.609  33.752  1.00  0.00     0.135 A 
ATOM     97  C   UNL A   1      42.694  28.183  33.314  1.00  0.00     0.135 A 
ATOM     98  F   UNL A   1      45.612  26.060  33.500  1.00  0.00    -0.206 F 
ATOM     99  C   UNL A   1      43.649  26.074  34.800  1.00  0.00     0.059 A 
ATOM    100  C   UNL A   1      41.911  27.680  34.358  1.00  0.00     0.059 A 
ATOM    101  F   UNL A   1      42.163  29.192  32.629  1.00  0.00    -0.206 F 
ATOM    102  C   UNL A   1      42.400  26.620  35.103  1.00  0.00     0.060 A 
BRANCH 102 103
ATOM    103  S   UNL A   1      41.441  25.950  36.483  1.00  0.00     0.124 S 
ATOM    104  O   UNL A   1      40.409  25.174  35.803  1.00  0.00    -0.237 OA
ATOM    105  O   UNL A   1      42.443  25.173  37.204  1.00  0.00    -0.237 OA
ATOM    106  O   UNL A   1      40.958  27.139  37.183  1.00  0.00    -0.744 OA
ENDBRANCH 102 103
ENDBRANCH  70  95
ENDBRANCH  44  45
ENDBRANCH  36  39
ENDBRANCH  34  35
ENDBRANCH  33  34
ENDBRANCH  32  33
ENDBRANCH   1  32
TORSDOF 22
ENDMDL
MODEL 2
REMARK VINA RESULT:     -11.3      2.853      8.886
REMARK SMILES COc1ccc(-c2ccc(CCC(=O)NCCCCCCNC(=O)c3ccc(-c4c5nc(c(-c6c(F)cc(S(=O)(=O)[O-])cc6F)c6ccc([nH]6)c(-c6c(F)cc(S(=O)(=O)[O-])cc6F)c6nc(c(-c7c(F)cc(S(=O)(=O)[O-])cc7F)c7ccc4[nH]7)C=C6)C=C5)cc3)n2-c2ccc(C(C)=O)cc2)cc1
REMARK SMILES IDX 18 1 17 2 16 3 15 4 13 5 14 6 12 8 11 9 10 10 7 11 8 12
REMARK SMILES IDX 91 13 9 14 6 15 3 16 4 17 102 18 5 19 101 20 2 21 1 22 92 23
REMARK SMILES IDX 93 24 100 25 94 26 99 27 95 28 96 29 97 30 98 31 19 32 20 33
REMARK SMILES IDX 21 34 22 35 23 36 24 38 25 39 26 40 90 41 27 42 89 43 28 44
REMARK SMILES IDX 29 45 30 46 83 47 31 48 88 49 82 50 84 51 32 52 87 53 81 54
REMARK SMILES IDX 80 55 33 57 67 58 46 59 66 60 47 61 50 62 65 63 85 64 48 65
REMARK SMILES IDX 49 66 64 68 86 69 51 70 34 71 35 72 44 73 36 74 37 75 43 76
REMARK SMILES IDX 45 77 38 78 39 79 40 80 41 81 42 82 68 83 69 84 78 85 70 86
REMARK SMILES IDX 71 87 77 88 79 89 72 90 73 91 74 92 75 93 76 94 52 95 53 96
REMARK SMILES IDX 62 97 54 98 55 99 61 100 63 101 56 102 57 103 58 104 59 105
REMARK SMILES IDX 60 106
REMARK H PARENT 15 7 22 37 84 56 50 67
REMARK Flexibility Score: inf
ROOT
ATOM      1  C   UNL A   1      33.020  28.174  27.166  1.00  0.00     0.002 C 
ENDROOT
BRANCH   1   2
ATOM      2  C   UNL A   1      31.757  28.663  26.468  1.00  0.00     0.021 C 
BRANCH   2   3
ATOM      3  C   UNL A   1      31.978  29.646  25.323  1.00  0.00     0.116 C 
BRANCH   3   4
ATOM      4  N   UNL A   1      31.254  29.217  24.141  1.00  0.00    -0.356 N 
ATOM      5  C   UNL A   1      31.625  28.320  23.185  1.00  0.00     0.220 C 
ATOM      6  O   UNL A   1      30.929  28.224  22.172  1.00  0.00    -0.275 OA
ATOM      7  H   UNL A   1      30.371  29.632  24.013  1.00  0.00     0.163 HD
BRANCH   5   8
ATOM      8  C   UNL A   1      32.834  27.427  23.390  1.00  0.00     0.106 C 
BRANCH   8   9
ATOM      9  C   UNL A   1      32.915  26.273  22.391  1.00  0.00     0.064 C 
BRANCH   9  10
ATOM     10  C   UNL A   1      32.223  25.017  22.847  1.00  0.00     0.024 A 
ATOM     11  C   UNL A   1      31.927  22.808  23.239  1.00  0.00     0.053 A 
ATOM     12  C   UNL A   1      30.698  23.444  23.358  1.00  0.00     0.029 A 
ATOM     13  N   UNL A   1      32.876  23.830  23.186  1.00  0.00    -0.314 N 
ATOM     14  C   UNL A   1      30.883  24.820  23.111  1.00  0.00     0.024 A 
BRANCH  11  15
ATOM     15  C   UNL A   1      32.195  21.388  23.477  1.00  0.00    -0.001 A 
ATOM     16  C   UNL A   1      32.537  18.651  23.994  1.00  0.00     0.118 A 
ATOM     17  C   UNL A   1      32.568  19.571  25.039  1.00  0.00     0.047 A 
ATOM     18  C   UNL A   1      32.322  19.091  22.686  1.00  0.00     0.047 A 
ATOM     19  C   UNL A   1      32.405  20.934  24.783  1.00  0.00     0.014 A 
ATOM     20  C   UNL A   1      32.153  20.459  22.429  1.00  0.00     0.014 A 
BRANCH  16  21
ATOM     21  O   UNL A   1      32.631  17.335  24.351  1.00  0.00    -0.497 OA
ATOM     22  C   UNL A   1      32.702  17.109  25.754  1.00  0.00     0.278 C 
ENDBRANCH  16  21
ENDBRANCH  11  15
BRANCH  13  23
ATOM     23  C   UNL A   1      34.160  23.763  23.780  1.00  0.00     0.046 A 
ATOM     24  C   UNL A   1      34.248  24.126  25.130  1.00  0.00     0.027 A 
ATOM     25  C   UNL A   1      35.262  23.227  23.118  1.00  0.00     0.027 A 
ATOM     26  C   UNL A   1      35.440  23.961  25.826  1.00  0.00     0.014 A 
ATOM     27  C   UNL A   1      36.467  23.089  23.818  1.00  0.00     0.014 A 
ATOM     28  C   UNL A   1      36.564  23.445  25.177  1.00  0.00     0.017 A 
BRANCH  28  29
ATOM     29  C   UNL A   1      37.874  23.261  25.871  1.00  0.00     0.159 C 
ATOM     30  C   UNL A   1      38.588  24.432  26.506  1.00  0.00     0.093 C 
ATOM     31  O   UNL A   1      38.375  22.135  25.917  1.00  0.00    -0.295 OA
ENDBRANCH  28  29
ENDBRANCH  13  23
ENDBRANCH   9  10
ENDBRANCH   8   9
ENDBRANCH   5   8
ENDBRANCH   3   4
ENDBRANCH   2   3
ENDBRANCH   1   2
BRANCH   1  32
ATOM     32  C   UNL A   1      34.251  29.053  26.934  1.00  0.00     0.002 C 
BRANCH  32  33
ATOM     33  C   UNL A   1      34.568  30.069  28.047  1.00  0.00     0.021 C 
BRANCH  33  34
ATOM     34  C   UNL A   1      34.286  31.532  27.684  1.00  0.00     0.116 C 
BRANCH  34  35
ATOM     35  N   UNL A   1      34.037  32.298  28.889  1.00  0.00    -0.352 N 
ATOM     36  C   UNL A   1      34.781  32.444  30.028  1.00  0.00     0.251 C 
ATOM     37  H   UNL A   1      33.188  32.799  28.888  1.00  0.00     0.163 HD
ATOM     38  O   UNL A   1      34.198  32.790  31.050  1.00  0.00    -0.269 OA
BRANCH  36  39
ATOM     39  C   UNL A   1      36.245  32.233  30.059  1.00  0.00     0.039 A 
ATOM     40  C   UNL A   1      36.729  31.287  30.976  1.00  0.00     0.014 A 
ATOM     41  C   UNL A   1      37.145  33.027  29.338  1.00  0.00     0.014 A 
ATOM     42  C   UNL A   1      38.096  31.122  31.158  1.00  0.00     0.010 A 
ATOM     43  C   UNL A   1      38.518  32.865  29.516  1.00  0.00     0.010 A 
ATOM     44  C   UNL A   1      38.991  31.902  30.417  1.00  0.00    -0.014 A 
BRANCH  44  45
ATOM     45  C   UNL A   1      40.425  31.528  30.444  1.00  0.00     0.031 A 
ATOM     46  C   UNL A   1      40.625  30.138  29.737  1.00  0.00     0.074 A 
ATOM     47  C   UNL A   1      41.264  32.404  31.093  1.00  0.00     0.049 A 
ATOM     48  N   UNL A   1      41.488  29.183  29.937  1.00  0.00    -0.248 NA
ATOM     49  C   UNL A   1      39.635  29.723  28.693  1.00  0.00     0.031 C 
ATOM     50  C   UNL A   1      40.871  33.718  31.667  1.00  0.00     0.029 A 
ATOM     51  N   UNL A   1      42.606  32.391  31.409  1.00  0.00    -0.354 N 
ATOM     52  C   UNL A   1      41.289  28.198  28.926  1.00  0.00     0.074 A 
ATOM     53  C   UNL A   1      40.060  28.528  28.278  1.00  0.00     0.031 C 
ATOM     54  C   UNL A   1      41.903  34.308  32.318  1.00  0.00     0.029 A 
ATOM     55  C   UNL A   1      43.073  33.458  32.243  1.00  0.00     0.049 A 
ATOM     56  H   UNL A   1      43.211  31.687  31.079  1.00  0.00     0.167 HD
ATOM     57  C   UNL A   1      42.219  27.253  28.588  1.00  0.00     0.037 A 
ATOM     58  C   UNL A   1      44.292  33.584  32.871  1.00  0.00     0.037 A 
ATOM     59  C   UNL A   1      43.373  27.415  29.397  1.00  0.00     0.049 A 
ATOM     60  C   UNL A   1      45.017  32.398  32.406  1.00  0.00     0.074 A 
ATOM     61  C   UNL A   1      43.763  26.956  30.623  1.00  0.00     0.029 A 
ATOM     62  N   UNL A   1      44.285  28.339  28.958  1.00  0.00    -0.354 N 
ATOM     63  N   UNL A   1      45.505  32.231  31.217  1.00  0.00    -0.248 NA
ATOM     64  C   UNL A   1      45.058  31.246  33.308  1.00  0.00     0.031 C 
ATOM     65  C   UNL A   1      44.755  27.866  31.043  1.00  0.00     0.029 A 
ATOM     66  C   UNL A   1      44.913  28.852  30.065  1.00  0.00     0.049 A 
ATOM     67  H   UNL A   1      44.458  28.588  28.022  1.00  0.00     0.167 HD
ATOM     68  C   UNL A   1      45.647  30.868  31.128  1.00  0.00     0.074 A 
ATOM     69  C   UNL A   1      45.608  30.362  32.485  1.00  0.00     0.031 C 
ATOM     70  C   UNL A   1      45.381  30.216  29.969  1.00  0.00     0.037 A 
BRANCH  57  71
ATOM     71  C   UNL A   1      42.389  26.300  27.417  1.00  0.00     0.058 A 
ATOM     72  C   UNL A   1      42.174  24.914  27.661  1.00  0.00     0.135 A 
ATOM     73  C   UNL A   1      43.115  26.601  26.256  1.00  0.00     0.135 A 
ATOM     74  F   UNL A   1      41.404  24.508  28.685  1.00  0.00    -0.206 F 
ATOM     75  C   UNL A   1      42.793  23.908  26.927  1.00  0.00     0.059 A 
ATOM     76  C   UNL A   1      43.700  25.599  25.465  1.00  0.00     0.059 A 
ATOM     77  F   UNL A   1      43.346  27.872  25.901  1.00  0.00    -0.206 F 
ATOM     78  C   UNL A   1      43.593  24.262  25.852  1.00  0.00     0.060 A 
BRANCH  78  79
ATOM     79  S   UNL A   1      44.503  22.951  25.001  1.00  0.00     0.124 S 
ATOM     80  O   UNL A   1      45.147  23.687  23.920  1.00  0.00    -0.237 OA
ATOM     81  O   UNL A   1      45.396  22.461  26.048  1.00  0.00    -0.237 OA
ATOM     82  O   UNL A   1      43.453  22.020  24.600  1.00  0.00    -0.744 OA
ENDBRANCH  78  79
ENDBRANCH  57  71
BRANCH  58  83
ATOM     83  C   UNL A   1      44.997  34.396  33.958  1.00  0.00     0.058 A 
ATOM     84  C   UNL A   1      46.200  35.102  33.838  1.00  0.00     0.135 A 
ATOM     85  C   UNL A   1      44.345  34.596  35.218  1.00  0.00     0.135 A 
ATOM     86  F   UNL A   1      47.003  34.907  32.784  1.00  0.00    -0.206 F 
ATOM     87  C   UNL A   1      46.623  36.052  34.802  1.00  0.00     0.059 A 
ATOM     88  C   UNL A   1      44.708  35.565  36.153  1.00  0.00     0.059 A 
ATOM     89  F   UNL A   1      43.280  33.869  35.585  1.00  0.00    -0.206 F 
ATOM     90  C   UNL A   1      45.836  36.321  35.924  1.00  0.00     0.060 A 
BRANCH  90  91
ATOM     91  S   UNL A   1      46.187  37.724  37.015  1.00  0.00     0.124 S 
ATOM     92  O   UNL A   1      45.507  37.337  38.246  1.00  0.00    -0.237 OA
ATOM     93  O   UNL A   1      47.647  37.725  37.069  1.00  0.00    -0.237 OA
ATOM     94  O   UNL A   1      45.601  38.858  36.303  1.00  0.00    -0.744 OA
ENDBRANCH  90  91
ENDBRANCH  58  83
BRANCH  70  95
ATOM     95  C   UNL A   1      45.222  31.125  28.746  1.00  0.00     0.058 A 
ATOM     96  C   UNL A   1      46.340  31.672  28.105  1.00  0.00     0.135 A 
ATOM     97  C   UNL A   1      43.976  31.541  28.237  1.00  0.00     0.135 A 
ATOM     98  F   UNL A   1      47.573  31.350  28.527  1.00  0.00    -0.206 F 
ATOM     99  C   UNL A   1      46.225  32.550  27.015  1.00  0.00     0.059 A 
ATOM    100  C   UNL A   1      43.826  32.404  27.148  1.00  0.00     0.059 A 
ATOM    101  F   UNL A   1      42.846  31.103  28.787  1.00  0.00    -0.206 F 
ATOM    102  C   UNL A   1      44.962  32.906  26.536  1.00  0.00     0.060 A 
BRANCH 102 103
ATOM    103  S   UNL A   1      44.825  34.004  25.105  1.00  0.00     0.124 S 
ATOM    104  O   UNL A   1      46.167  34.568  25.010  1.00  0.00    -0.237 OA
ATOM    105  O   UNL A   1      44.453  33.078  24.041  1.00  0.00    -0.237 OA
ATOM    106  O   UNL A   1      43.783  34.954  25.492  1.00  0.00    -0.744 OA
ENDBRANCH 102 103
ENDBRANCH  70  95
ENDBRANCH  44  45
ENDBRANCH  36  39
ENDBRANCH  34  35
ENDBRANCH  33  34
ENDBRANCH  32  33
ENDBRANCH   1  32
TORSDOF 22
ENDMDL
MODEL 3
REMARK VINA RESULT:     -11.3      3.306      9.093
REMARK SMILES COc1ccc(-c2ccc(CCC(=O)NCCCCCCNC(=O)c3ccc(-c4c5nc(c(-c6c(F)cc(S(=O)(=O)[O-])cc6F)c6ccc([nH]6)c(-c6c(F)cc(S(=O)(=O)[O-])cc6F)c6nc(c(-c7c(F)cc(S(=O)(=O)[O-])cc7F)c7ccc4[nH]7)C=C6)C=C5)cc3)n2-c2ccc(C(C)=O)cc2)cc1
REMARK SMILES IDX 18 1 17 2 16 3 15 4 13 5 14 6 12 8 11 9 10 10 7 11 8 12
REMARK SMILES IDX 91 13 9 14 6 15 3 16 4 17 102 18 5 19 101 20 2 21 1 22 92 23
REMARK SMILES IDX 93 24 100 25 94 26 99 27 95 28 96 29 97 30 98 31 19 32 20 33
REMARK SMILES IDX 21 34 22 35 23 36 24 38 25 39 26 40 90 41 27 42 89 43 28 44
REMARK SMILES IDX 29 45 30 46 83 47 31 48 88 49 82 50 84 51 32 52 87 53 81 54
REMARK SMILES IDX 80 55 33 57 67 58 46 59 66 60 47 61 50 62 65 63 85 64 48 65
REMARK SMILES IDX 49 66 64 68 86 69 51 70 34 71 35 72 44 73 36 74 37 75 43 76
REMARK SMILES IDX 45 77 38 78 39 79 40 80 41 81 42 82 68 83 69 84 78 85 70 86
REMARK SMILES IDX 71 87 77 88 79 89 72 90 73 91 74 92 75 93 76 94 52 95 53 96
REMARK SMILES IDX 62 97 54 98 55 99 61 100 63 101 56 102 57 103 58 104 59 105
REMARK SMILES IDX 60 106
REMARK H PARENT 15 7 22 37 84 56 50 67
REMARK Flexibility Score: inf
ROOT
ATOM      1  C   UNL A   1      33.212  28.357  27.584  1.00  0.00     0.002 C 
ENDROOT
BRANCH   1   2
ATOM      2  C   UNL A   1      32.824  27.826  26.209  1.00  0.00     0.021 C 
BRANCH   2   3
ATOM      3  C   UNL A   1      33.987  27.429  25.305  1.00  0.00     0.116 C 
BRANCH   3   4
ATOM      4  N   UNL A   1      34.090  28.343  24.183  1.00  0.00    -0.356 N 
ATOM      5  C   UNL A   1      33.581  28.220  22.926  1.00  0.00     0.220 C 
ATOM      6  O   UNL A   1      33.928  29.039  22.072  1.00  0.00    -0.275 OA
ATOM      7  H   UNL A   1      34.599  29.168  24.356  1.00  0.00     0.163 HD
BRANCH   5   8
ATOM      8  C   UNL A   1      32.572  27.134  22.603  1.00  0.00     0.106 C 
BRANCH   8   9
ATOM      9  C   UNL A   1      33.215  25.799  22.227  1.00  0.00     0.064 C 
BRANCH   9  10
ATOM     10  C   UNL A   1      32.485  24.595  22.759  1.00  0.00     0.024 A 
ATOM     11  C   UNL A   1      32.121  22.425  23.288  1.00  0.00     0.053 A 
ATOM     12  C   UNL A   1      30.912  23.105  23.366  1.00  0.00     0.029 A 
ATOM     13  N   UNL A   1      33.100  23.412  23.173  1.00  0.00    -0.314 N 
ATOM     14  C   UNL A   1      31.139  24.457  23.034  1.00  0.00     0.024 A 
BRANCH  11  15
ATOM     15  C   UNL A   1      32.344  21.015  23.615  1.00  0.00    -0.001 A 
ATOM     16  C   UNL A   1      32.604  18.308  24.307  1.00  0.00     0.118 A 
ATOM     17  C   UNL A   1      32.709  19.295  25.285  1.00  0.00     0.047 A 
ATOM     18  C   UNL A   1      32.357  18.666  22.981  1.00  0.00     0.047 A 
ATOM     19  C   UNL A   1      32.587  20.643  24.940  1.00  0.00     0.014 A 
ATOM     20  C   UNL A   1      32.229  20.020  22.635  1.00  0.00     0.014 A 
BRANCH  16  21
ATOM     21  O   UNL A   1      32.663  17.017  24.752  1.00  0.00    -0.497 OA
ATOM     22  C   UNL A   1      33.958  16.593  25.160  1.00  0.00     0.278 C 
ENDBRANCH  16  21
ENDBRANCH  11  15
BRANCH  13  23
ATOM     23  C   UNL A   1      34.383  23.342  23.771  1.00  0.00     0.046 A 
ATOM     24  C   UNL A   1      34.465  23.701  25.123  1.00  0.00     0.027 A 
ATOM     25  C   UNL A   1      35.487  22.809  23.112  1.00  0.00     0.027 A 
ATOM     26  C   UNL A   1      35.655  23.533  25.823  1.00  0.00     0.014 A 
ATOM     27  C   UNL A   1      36.689  22.668  23.815  1.00  0.00     0.014 A 
ATOM     28  C   UNL A   1      36.781  23.018  25.176  1.00  0.00     0.017 A 
BRANCH  28  29
ATOM     29  C   UNL A   1      38.088  22.832  25.874  1.00  0.00     0.159 C 
ATOM     30  C   UNL A   1      38.746  23.975  26.612  1.00  0.00     0.093 C 
ATOM     31  O   UNL A   1      38.634  21.727  25.838  1.00  0.00    -0.295 OA
ENDBRANCH  28  29
ENDBRANCH  13  23
ENDBRANCH   9  10
ENDBRANCH   8   9
ENDBRANCH   5   8
ENDBRANCH   3   4
ENDBRANCH   2   3
ENDBRANCH   1   2
BRANCH   1  32
ATOM     32  C   UNL A   1      34.371  29.355  27.571  1.00  0.00     0.002 C 
BRANCH  32  33
ATOM     33  C   UNL A   1      34.043  30.757  27.023  1.00  0.00     0.021 C 
BRANCH  33  34
ATOM     34  C   UNL A   1      32.611  31.235  27.293  1.00  0.00     0.116 C 
BRANCH  34  35
ATOM     35  N   UNL A   1      32.559  32.683  27.248  1.00  0.00    -0.352 N 
ATOM     36  C   UNL A   1      33.150  33.626  28.044  1.00  0.00     0.251 C 
ATOM     37  H   UNL A   1      32.004  33.050  26.521  1.00  0.00     0.163 HD
ATOM     38  O   UNL A   1      32.644  34.742  28.078  1.00  0.00    -0.269 OA
BRANCH  36  39
ATOM     39  C   UNL A   1      34.376  33.356  28.828  1.00  0.00     0.039 A 
ATOM     40  C   UNL A   1      34.211  32.686  30.049  1.00  0.00     0.014 A 
ATOM     41  C   UNL A   1      35.632  33.866  28.475  1.00  0.00     0.014 A 
ATOM     42  C   UNL A   1      35.293  32.509  30.903  1.00  0.00     0.010 A 
ATOM     43  C   UNL A   1      36.721  33.689  29.328  1.00  0.00     0.010 A 
ATOM     44  C   UNL A   1      36.552  32.999  30.535  1.00  0.00    -0.014 A 
BRANCH  44  45
ATOM     45  C   UNL A   1      37.724  32.574  31.337  1.00  0.00     0.031 A 
ATOM     46  C   UNL A   1      38.368  31.291  30.697  1.00  0.00     0.074 A 
ATOM     47  C   UNL A   1      37.985  33.319  32.463  1.00  0.00     0.049 A 
ATOM     48  N   UNL A   1      39.007  30.287  31.229  1.00  0.00    -0.248 NA
ATOM     49  C   UNL A   1      38.188  31.062  29.228  1.00  0.00     0.031 C 
ATOM     50  C   UNL A   1      37.264  34.554  32.875  1.00  0.00     0.029 A 
ATOM     51  N   UNL A   1      38.896  33.215  33.493  1.00  0.00    -0.354 N 
ATOM     52  C   UNL A   1      39.480  29.463  30.168  1.00  0.00     0.074 A 
ATOM     53  C   UNL A   1      38.837  29.924  28.979  1.00  0.00     0.031 C 
ATOM     54  C   UNL A   1      37.697  35.008  34.076  1.00  0.00     0.029 A 
ATOM     55  C   UNL A   1      38.738  34.136  34.578  1.00  0.00     0.049 A 
ATOM     56  H   UNL A   1      39.616  32.543  33.483  1.00  0.00     0.167 HD
ATOM     57  C   UNL A   1      40.484  28.542  30.307  1.00  0.00     0.037 A 
ATOM     58  C   UNL A   1      39.361  34.129  35.805  1.00  0.00     0.037 A 
ATOM     59  C   UNL A   1      40.947  28.547  31.648  1.00  0.00     0.049 A 
ATOM     60  C   UNL A   1      40.283  32.995  35.693  1.00  0.00     0.074 A 
ATOM     61  C   UNL A   1      40.580  27.907  32.797  1.00  0.00     0.029 A 
ATOM     62  N   UNL A   1      41.894  29.490  31.948  1.00  0.00    -0.354 N 
ATOM     63  N   UNL A   1      41.376  32.981  34.996  1.00  0.00    -0.248 NA
ATOM     64  C   UNL A   1      39.856  31.727  36.285  1.00  0.00     0.031 C 
ATOM     65  C   UNL A   1      41.097  28.712  33.833  1.00  0.00     0.029 A 
ATOM     66  C   UNL A   1      41.739  29.820  33.270  1.00  0.00     0.049 A 
ATOM     67  H   UNL A   1      42.563  29.863  31.329  1.00  0.00     0.167 HD
ATOM     68  C   UNL A   1      41.616  31.640  34.823  1.00  0.00     0.074 A 
ATOM     69  C   UNL A   1      40.826  30.949  35.823  1.00  0.00     0.031 C 
ATOM     70  C   UNL A   1      42.103  31.167  33.649  1.00  0.00     0.037 A 
BRANCH  57  71
ATOM     71  C   UNL A   1      41.349  27.757  29.336  1.00  0.00     0.058 A 
ATOM     72  C   UNL A   1      42.457  28.431  28.750  1.00  0.00     0.135 A 
ATOM     73  C   UNL A   1      40.932  26.595  28.672  1.00  0.00     0.135 A 
ATOM     74  F   UNL A   1      43.011  29.497  29.354  1.00  0.00    -0.206 F 
ATOM     75  C   UNL A   1      42.978  28.097  27.504  1.00  0.00     0.059 A 
ATOM     76  C   UNL A   1      41.485  26.203  27.442  1.00  0.00     0.059 A 
ATOM     77  F   UNL A   1      39.924  25.854  29.152  1.00  0.00    -0.206 F 
ATOM     78  C   UNL A   1      42.456  27.002  26.834  1.00  0.00     0.060 A 
BRANCH  78  79
ATOM     79  S   UNL A   1      43.046  26.669  25.158  1.00  0.00     0.124 S 
ATOM     80  O   UNL A   1      42.653  27.885  24.455  1.00  0.00    -0.237 OA
ATOM     81  O   UNL A   1      44.481  26.496  25.360  1.00  0.00    -0.237 OA
ATOM     82  O   UNL A   1      42.325  25.457  24.782  1.00  0.00    -0.744 OA
ENDBRANCH  78  79
ENDBRANCH  57  71
BRANCH  58  83
ATOM     83  C   UNL A   1      39.263  34.755  37.198  1.00  0.00     0.058 A 
ATOM     84  C   UNL A   1      38.577  34.244  38.306  1.00  0.00     0.135 A 
ATOM     85  C   UNL A   1      40.037  35.922  37.499  1.00  0.00     0.135 A 
ATOM     86  F   UNL A   1      37.694  33.246  38.162  1.00  0.00    -0.206 F 
ATOM     87  C   UNL A   1      38.780  34.737  39.619  1.00  0.00     0.059 A 
ATOM     88  C   UNL A   1      40.298  36.390  38.786  1.00  0.00     0.059 A 
ATOM     89  F   UNL A   1      40.616  36.652  36.535  1.00  0.00    -0.206 F 
ATOM     90  C   UNL A   1      39.692  35.769  39.856  1.00  0.00     0.060 A 
BRANCH  90  91
ATOM     91  S   UNL A   1      40.196  36.224  41.535  1.00  0.00     0.124 S 
ATOM     92  O   UNL A   1      38.919  36.524  42.172  1.00  0.00    -0.237 OA
ATOM     93  O   UNL A   1      40.872  35.016  42.000  1.00  0.00    -0.237 OA
ATOM     94  O   UNL A   1      41.077  37.371  41.321  1.00  0.00    -0.744 OA
ENDBRANCH  90  91
ENDBRANCH  58  83
BRANCH  70  95
ATOM     95  C   UNL A   1      42.633  32.244  32.696  1.00  0.00     0.058 A 
ATOM     96  C   UNL A   1      43.865  32.867  32.927  1.00  0.00     0.135 A 
ATOM     97  C   UNL A   1      41.906  32.740  31.596  1.00  0.00     0.135 A 
ATOM     98  F   UNL A   1      44.625  32.475  33.962  1.00  0.00    -0.206 F 
ATOM     99  C   UNL A   1      44.352  33.893  32.103  1.00  0.00     0.059 A 
ATOM    100  C   UNL A   1      42.367  33.753  30.750  1.00  0.00     0.059 A 
ATOM    101  F   UNL A   1      40.710  32.240  31.300  1.00  0.00    -0.206 F 
ATOM    102  C   UNL A   1      43.600  34.326  31.009  1.00  0.00     0.060 A 
BRANCH 102 103
ATOM    103  S   UNL A   1      44.256  35.620  29.928  1.00  0.00     0.124 S 
ATOM    104  O   UNL A   1      44.368  34.934  28.645  1.00  0.00    -0.237 OA
ATOM    105  O   UNL A   1      43.218  36.643  30.008  1.00  0.00    -0.237 OA
ATOM    106  O   UNL A   1      45.530  35.981  30.548  1.00  0.00    -0.744 OA
ENDBRANCH 102 103
ENDBRANCH  70  95
ENDBRANCH  44  45
ENDBRANCH  36  39
ENDBRANCH  34  35
ENDBRANCH  33  34
ENDBRANCH  32  33
ENDBRANCH   1  32
TORSDOF 22
ENDMDL
