MODEL 1
REMARK VINA RESULT:     -11.0      0.000      0.000
REMARK SMILES [NH3+]C[C@H]1CC[C@@H](C(=O)Nc2ccc(O)c(C(=O)NCCCCCCNC(=O)c3ccc(-c4c5nc(c(-c6c(F)cc(S(=O)(=O)[O-])cc6F)c6ccc([nH]6)c(-c6c(F)cc(S(=O)(=O)[O-])cc6F)c6nc(c(-c7c(F)cc(S(=O)(=O)[O-])cc7F)c7ccc4[nH]7)C=C6)C=C5)cc3)c2)O1
REMARK SMILES IDX 21 1 20 2 19 3 18 4 16 5 17 6 15 8 10 9 11 10 94 11 12 12
REMARK SMILES IDX 13 13 9 14 7 15 8 16 6 18 3 19 4 20 95 21 5 22 2 23 1 24
REMARK SMILES IDX 14 28 22 30 23 31 24 32 25 33 26 34 27 36 28 37 29 38 93 39
REMARK SMILES IDX 30 40 92 41 31 42 32 43 33 44 86 45 34 46 91 47 85 48 87 49
REMARK SMILES IDX 35 50 90 51 84 52 83 53 36 55 70 56 49 57 69 58 50 59 53 60
REMARK SMILES IDX 68 61 88 62 51 63 52 64 67 66 89 67 54 68 37 69 38 70 47 71
REMARK SMILES IDX 39 72 40 73 46 74 48 75 41 76 42 77 43 78 44 79 45 80 71 81
REMARK SMILES IDX 72 82 81 83 73 84 74 85 80 86 82 87 75 88 76 89 77 90 78 91
REMARK SMILES IDX 79 92 55 93 56 94 65 95 57 96 58 97 64 98 66 99 59 100
REMARK SMILES IDX 60 101 61 102 62 103 63 104
REMARK H PARENT 18 7 9 17 1 25 1 26 1 27 14 29 25 35 87 54 53 65
REMARK Flexibility Score: inf
ROOT
ATOM      1  C   UNL A   1      34.794  32.175  27.900  1.00  0.00     0.002 C 
ENDROOT
BRANCH   1   2
ATOM      2  C   UNL A   1      34.837  30.647  27.836  1.00  0.00     0.021 C 
BRANCH   2   3
ATOM      3  C   UNL A   1      33.810  30.026  26.884  1.00  0.00     0.116 C 
BRANCH   3   4
ATOM      4  N   UNL A   1      32.759  29.370  27.631  1.00  0.00    -0.352 N 
ATOM      5  C   UNL A   1      31.839  28.418  27.289  1.00  0.00     0.255 C 
ATOM      6  O   UNL A   1      31.047  28.084  28.178  1.00  0.00    -0.269 OA
ATOM      7  H   UNL A   1      32.692  29.669  28.567  1.00  0.00     0.163 HD
BRANCH   5   8
ATOM      8  C   UNL A   1      31.751  27.710  25.974  1.00  0.00     0.083 A 
ATOM      9  C   UNL A   1      31.717  25.483  24.952  1.00  0.00     0.042 A 
ATOM     10  C   UNL A   1      31.401  26.053  23.728  1.00  0.00     0.030 A 
ATOM     11  C   UNL A   1      31.829  26.300  26.075  1.00  0.00     0.043 A 
ATOM     12  C   UNL A   1      31.341  27.432  23.591  1.00  0.00     0.049 A 
ATOM     13  C   UNL A   1      31.524  28.256  24.704  1.00  0.00     0.128 A 
BRANCH   9  14
ATOM     14  N   UNL A   1      31.779  24.096  25.100  1.00  0.00    -0.324 N 
ATOM     15  C   UNL A   1      32.869  23.272  24.950  1.00  0.00     0.253 C 
ATOM     16  O   UNL A   1      32.681  22.114  24.565  1.00  0.00    -0.272 OA
ATOM     17  H   UNL A   1      30.935  23.651  25.341  1.00  0.00     0.170 HD
BRANCH  15  18
ATOM     18  C   UNL A   1      34.240  23.739  25.519  1.00  0.00     0.208 C 
ATOM     19  C   UNL A   1      36.060  22.296  25.888  1.00  0.00     0.174 C 
ATOM     20  C   UNL A   1      36.604  23.549  25.234  1.00  0.00     0.041 C 
ATOM     21  O   UNL A   1      34.766  22.696  26.374  1.00  0.00    -0.359 OA
ATOM     22  C   UNL A   1      35.365  24.094  24.558  1.00  0.00     0.045 C 
BRANCH  19  23
ATOM     23  C   UNL A   1      35.939  21.111  24.899  1.00  0.00     0.291 C 
BRANCH  23  24
ATOM     24  N   UNL A   1      34.894  20.156  25.275  1.00  0.00    -0.355 N 
ATOM     25  H   UNL A   1      35.291  19.438  25.882  1.00  0.00     0.344 HD
ATOM     26  H   UNL A   1      34.513  19.719  24.436  1.00  0.00     0.344 HD
ATOM     27  H   UNL A   1      34.149  20.646  25.771  1.00  0.00     0.344 HD
ENDBRANCH  23  24
ENDBRANCH  19  23
ENDBRANCH  15  18
ENDBRANCH   9  14
BRANCH  13  28
ATOM     28  O   UNL A   1      31.390  29.590  24.474  1.00  0.00    -0.507 OA
ATOM     29  H   UNL A   1      30.542  29.955  24.311  1.00  0.00     0.293 HD
ENDBRANCH  13  28
ENDBRANCH   5   8
ENDBRANCH   3   4
ENDBRANCH   2   3
ENDBRANCH   1   2
BRANCH   1  30
ATOM     30  C   UNL A   1      36.166  32.850  27.984  1.00  0.00     0.002 C 
BRANCH  30  31
ATOM     31  C   UNL A   1      36.321  33.871  29.115  1.00  0.00     0.021 C 
BRANCH  31  32
ATOM     32  C   UNL A   1      37.174  33.395  30.289  1.00  0.00     0.116 C 
BRANCH  32  33
ATOM     33  N   UNL A   1      36.514  32.332  31.030  1.00  0.00    -0.352 N 
ATOM     34  C   UNL A   1      36.818  30.995  31.088  1.00  0.00     0.251 C 
ATOM     35  H   UNL A   1      35.738  32.612  31.568  1.00  0.00     0.163 HD
ATOM     36  O   UNL A   1      36.003  30.201  31.547  1.00  0.00    -0.269 OA
BRANCH  34  37
ATOM     37  C   UNL A   1      38.127  30.516  30.595  1.00  0.00     0.039 A 
ATOM     38  C   UNL A   1      38.306  30.321  29.223  1.00  0.00     0.014 A 
ATOM     39  C   UNL A   1      39.163  30.228  31.489  1.00  0.00     0.014 A 
ATOM     40  C   UNL A   1      39.542  29.882  28.743  1.00  0.00     0.010 A 
ATOM     41  C   UNL A   1      40.413  29.851  31.003  1.00  0.00     0.010 A 
ATOM     42  C   UNL A   1      40.613  29.667  29.627  1.00  0.00    -0.014 A 
BRANCH  42  43
ATOM     43  C   UNL A   1      41.947  29.241  29.132  1.00  0.00     0.031 A 
ATOM     44  C   UNL A   1      43.063  30.243  29.017  1.00  0.00     0.074 A 
ATOM     45  C   UNL A   1      42.130  27.970  28.724  1.00  0.00     0.049 A 
ATOM     46  N   UNL A   1      44.268  30.085  28.533  1.00  0.00    -0.248 NA
ATOM     47  C   UNL A   1      42.779  31.612  29.483  1.00  0.00     0.031 C 
ATOM     48  C   UNL A   1      41.109  26.920  28.740  1.00  0.00     0.029 A 
ATOM     49  N   UNL A   1      43.236  27.347  28.202  1.00  0.00    -0.354 N 
ATOM     50  C   UNL A   1      44.878  31.331  28.620  1.00  0.00     0.074 A 
ATOM     51  C   UNL A   1      43.896  32.246  29.159  1.00  0.00     0.031 C 
ATOM     52  C   UNL A   1      41.640  25.782  28.267  1.00  0.00     0.029 A 
ATOM     53  C   UNL A   1      43.026  26.027  27.879  1.00  0.00     0.049 A 
ATOM     54  H   UNL A   1      44.098  27.803  28.069  1.00  0.00     0.167 HD
ATOM     55  C   UNL A   1      46.150  31.676  28.301  1.00  0.00     0.037 A 
ATOM     56  C   UNL A   1      43.853  25.120  27.327  1.00  0.00     0.037 A 
ATOM     57  C   UNL A   1      47.131  30.751  27.796  1.00  0.00     0.049 A 
ATOM     58  C   UNL A   1      45.264  25.523  26.994  1.00  0.00     0.074 A 
ATOM     59  C   UNL A   1      48.462  30.986  27.501  1.00  0.00     0.029 A 
ATOM     60  N   UNL A   1      46.890  29.414  27.516  1.00  0.00    -0.354 N 
ATOM     61  N   UNL A   1      45.842  26.691  27.140  1.00  0.00    -0.248 NA
ATOM     62  C   UNL A   1      46.138  24.485  26.431  1.00  0.00     0.031 C 
ATOM     63  C   UNL A   1      49.017  29.801  27.006  1.00  0.00     0.029 A 
ATOM     64  C   UNL A   1      48.043  28.816  27.035  1.00  0.00     0.049 A 
ATOM     65  H   UNL A   1      46.027  28.958  27.641  1.00  0.00     0.167 HD
ATOM     66  C   UNL A   1      47.154  26.522  26.710  1.00  0.00     0.074 A 
ATOM     67  C   UNL A   1      47.287  25.135  26.310  1.00  0.00     0.031 C 
ATOM     68  C   UNL A   1      48.158  27.431  26.651  1.00  0.00     0.037 A 
BRANCH  55  69
ATOM     69  C   UNL A   1      46.556  33.110  28.495  1.00  0.00     0.058 A 
ATOM     70  C   UNL A   1      46.364  34.071  27.490  1.00  0.00     0.135 A 
ATOM     71  C   UNL A   1      47.104  33.540  29.715  1.00  0.00     0.135 A 
ATOM     72  F   UNL A   1      45.860  33.712  26.298  1.00  0.00    -0.206 F 
ATOM     73  C   UNL A   1      46.724  35.402  27.676  1.00  0.00     0.059 A 
ATOM     74  C   UNL A   1      47.445  34.872  29.933  1.00  0.00     0.059 A 
ATOM     75  F   UNL A   1      47.309  32.663  30.710  1.00  0.00    -0.206 F 
ATOM     76  C   UNL A   1      47.264  35.793  28.903  1.00  0.00     0.060 A 
BRANCH  76  77
ATOM     77  S   UNL A   1      47.714  37.525  29.134  1.00  0.00     0.124 S 
ATOM     78  O   UNL A   1      48.530  37.454  30.343  1.00  0.00    -0.237 OA
ATOM     79  O   UNL A   1      48.432  37.830  27.901  1.00  0.00    -0.237 OA
ATOM     80  O   UNL A   1      46.425  38.194  29.286  1.00  0.00    -0.744 OA
ENDBRANCH  76  77
ENDBRANCH  55  69
BRANCH  56  81
ATOM     81  C   UNL A   1      43.375  23.735  27.071  1.00  0.00     0.058 A 
ATOM     82  C   UNL A   1      43.035  23.316  25.776  1.00  0.00     0.135 A 
ATOM     83  C   UNL A   1      43.255  22.802  28.113  1.00  0.00     0.135 A 
ATOM     84  F   UNL A   1      43.130  24.174  24.749  1.00  0.00    -0.206 F 
ATOM     85  C   UNL A   1      42.575  22.028  25.523  1.00  0.00     0.059 A 
ATOM     86  C   UNL A   1      42.819  21.501  27.882  1.00  0.00     0.059 A 
ATOM     87  F   UNL A   1      43.584  23.148  29.368  1.00  0.00    -0.206 F 
ATOM     88  C   UNL A   1      42.470  21.128  26.584  1.00  0.00     0.060 A 
BRANCH  88  89
ATOM     89  S   UNL A   1      41.911  19.444  26.243  1.00  0.00     0.124 S 
ATOM     90  O   UNL A   1      40.475  19.639  26.089  1.00  0.00    -0.237 OA
ATOM     91  O   UNL A   1      42.647  19.117  25.025  1.00  0.00    -0.237 OA
ATOM     92  O   UNL A   1      42.326  18.707  27.433  1.00  0.00    -0.744 OA
ENDBRANCH  88  89
ENDBRANCH  56  81
BRANCH  68  93
ATOM     93  C   UNL A   1      49.498  26.951  26.170  1.00  0.00     0.058 A 
ATOM     94  C   UNL A   1      49.842  26.971  24.809  1.00  0.00     0.135 A 
ATOM     95  C   UNL A   1      50.468  26.515  27.087  1.00  0.00     0.135 A 
ATOM     96  F   UNL A   1      48.948  27.372  23.892  1.00  0.00    -0.206 F 
ATOM     97  C   UNL A   1      51.096  26.554  24.373  1.00  0.00     0.059 A 
ATOM     98  C   UNL A   1      51.736  26.119  26.675  1.00  0.00     0.059 A 
ATOM     99  F   UNL A   1      50.191  26.487  28.400  1.00  0.00    -0.206 F 
ATOM    100  C   UNL A   1      52.036  26.131  25.314  1.00  0.00     0.060 A 
BRANCH 100 101
ATOM    101  S   UNL A   1      53.671  25.627  24.738  1.00  0.00     0.124 S 
ATOM    102  O   UNL A   1      54.540  26.291  25.704  1.00  0.00    -0.237 OA
ATOM    103  O   UNL A   1      53.604  24.173  24.840  1.00  0.00    -0.237 OA
ATOM    104  O   UNL A   1      53.729  26.151  23.377  1.00  0.00    -0.744 OA
ENDBRANCH 100 101
ENDBRANCH  68  93
ENDBRANCH  42  43
ENDBRANCH  34  37
ENDBRANCH  32  33
ENDBRANCH  31  32
ENDBRANCH  30  31
ENDBRANCH   1  30
TORSDOF 21
ENDMDL
MODEL 2
REMARK VINA RESULT:     -10.9      1.156      1.864
REMARK SMILES [NH3+]C[C@H]1CC[C@@H](C(=O)Nc2ccc(O)c(C(=O)NCCCCCCNC(=O)c3ccc(-c4c5nc(c(-c6c(F)cc(S(=O)(=O)[O-])cc6F)c6ccc([nH]6)c(-c6c(F)cc(S(=O)(=O)[O-])cc6F)c6nc(c(-c7c(F)cc(S(=O)(=O)[O-])cc7F)c7ccc4[nH]7)C=C6)C=C5)cc3)c2)O1
REMARK SMILES IDX 21 1 20 2 19 3 18 4 16 5 17 6 15 8 10 9 11 10 94 11 12 12
REMARK SMILES IDX 13 13 9 14 7 15 8 16 6 18 3 19 4 20 95 21 5 22 2 23 1 24
REMARK SMILES IDX 14 28 22 30 23 31 24 32 25 33 26 34 27 36 28 37 29 38 93 39
REMARK SMILES IDX 30 40 92 41 31 42 32 43 33 44 86 45 34 46 91 47 85 48 87 49
REMARK SMILES IDX 35 50 90 51 84 52 83 53 36 55 70 56 49 57 69 58 50 59 53 60
REMARK SMILES IDX 68 61 88 62 51 63 52 64 67 66 89 67 54 68 37 69 38 70 47 71
REMARK SMILES IDX 39 72 40 73 46 74 48 75 41 76 42 77 43 78 44 79 45 80 71 81
REMARK SMILES IDX 72 82 81 83 73 84 74 85 80 86 82 87 75 88 76 89 77 90 78 91
REMARK SMILES IDX 79 92 55 93 56 94 65 95 57 96 58 97 64 98 66 99 59 100
REMARK SMILES IDX 60 101 61 102 62 103 63 104
REMARK H PARENT 18 7 9 17 1 25 1 26 1 27 14 29 25 35 87 54 53 65
REMARK Flexibility Score: inf
ROOT
ATOM      1  C   UNL A   1      33.820  29.132  26.822  1.00  0.00     0.002 C 
ENDROOT
BRANCH   1   2
ATOM      2  C   UNL A   1      32.469  29.771  27.150  1.00  0.00     0.021 C 
BRANCH   2   3
ATOM      3  C   UNL A   1      31.777  30.435  25.955  1.00  0.00     0.116 C 
BRANCH   3   4
ATOM      4  N   UNL A   1      32.390  30.009  24.715  1.00  0.00    -0.352 N 
ATOM      5  C   UNL A   1      32.151  28.949  23.884  1.00  0.00     0.255 C 
ATOM      6  O   UNL A   1      32.887  28.857  22.895  1.00  0.00    -0.269 OA
ATOM      7  H   UNL A   1      33.122  30.594  24.412  1.00  0.00     0.163 HD
BRANCH   5   8
ATOM      8  C   UNL A   1      31.052  27.944  24.032  1.00  0.00     0.083 A 
ATOM      9  C   UNL A   1      30.299  26.059  25.404  1.00  0.00     0.042 A 
ATOM     10  C   UNL A   1      29.085  26.060  24.734  1.00  0.00     0.030 A 
ATOM     11  C   UNL A   1      31.248  27.032  25.096  1.00  0.00     0.043 A 
ATOM     12  C   UNL A   1      28.871  26.925  23.671  1.00  0.00     0.049 A 
ATOM     13  C   UNL A   1      29.852  27.855  23.315  1.00  0.00     0.128 A 
BRANCH   9  14
ATOM     14  N   UNL A   1      30.523  25.193  26.477  1.00  0.00    -0.324 N 
ATOM     15  C   UNL A   1      30.953  23.888  26.441  1.00  0.00     0.253 C 
ATOM     16  O   UNL A   1      30.579  23.123  27.335  1.00  0.00    -0.272 OA
ATOM     17  H   UNL A   1      30.349  25.564  27.372  1.00  0.00     0.170 HD
BRANCH  15  18
ATOM     18  C   UNL A   1      32.087  23.504  25.448  1.00  0.00     0.208 C 
ATOM     19  C   UNL A   1      34.027  22.332  26.072  1.00  0.00     0.174 C 
ATOM     20  C   UNL A   1      33.532  21.725  24.777  1.00  0.00     0.041 C 
ATOM     21  O   UNL A   1      33.357  23.604  26.135  1.00  0.00    -0.359 OA
ATOM     22  C   UNL A   1      32.075  22.130  24.796  1.00  0.00     0.045 C 
BRANCH  19  23
ATOM     23  C   UNL A   1      33.684  21.463  27.308  1.00  0.00     0.291 C 
BRANCH  23  24
ATOM     24  N   UNL A   1      33.331  20.085  26.958  1.00  0.00    -0.355 N 
ATOM     25  H   UNL A   1      33.832  19.809  26.113  1.00  0.00     0.344 HD
ATOM     26  H   UNL A   1      32.327  20.022  26.792  1.00  0.00     0.344 HD
ATOM     27  H   UNL A   1      33.589  19.463  27.724  1.00  0.00     0.344 HD
ENDBRANCH  23  24
ENDBRANCH  19  23
ENDBRANCH  15  18
ENDBRANCH   9  14
BRANCH  13  28
ATOM     28  O   UNL A   1      29.522  28.692  22.295  1.00  0.00    -0.507 OA
ATOM     29  H   UNL A   1      29.012  28.377  21.576  1.00  0.00     0.293 HD
ENDBRANCH  13  28
ENDBRANCH   5   8
ENDBRANCH   3   4
ENDBRANCH   2   3
ENDBRANCH   1   2
BRANCH   1  30
ATOM     30  C   UNL A   1      35.028  29.838  27.443  1.00  0.00     0.002 C 
BRANCH  30  31
ATOM     31  C   UNL A   1      34.749  31.238  27.999  1.00  0.00     0.021 C 
BRANCH  31  32
ATOM     32  C   UNL A   1      35.867  31.811  28.868  1.00  0.00     0.116 C 
BRANCH  32  33
ATOM     33  N   UNL A   1      35.714  31.418  30.260  1.00  0.00    -0.352 N 
ATOM     34  C   UNL A   1      36.474  30.553  31.007  1.00  0.00     0.251 C 
ATOM     35  H   UNL A   1      34.957  31.832  30.735  1.00  0.00     0.163 HD
ATOM     36  O   UNL A   1      36.050  30.135  32.079  1.00  0.00    -0.269 OA
BRANCH  34  37
ATOM     37  C   UNL A   1      37.801  30.125  30.514  1.00  0.00     0.039 A 
ATOM     38  C   UNL A   1      38.056  30.147  29.141  1.00  0.00     0.014 A 
ATOM     39  C   UNL A   1      38.780  29.673  31.405  1.00  0.00     0.014 A 
ATOM     40  C   UNL A   1      39.310  29.759  28.664  1.00  0.00     0.010 A 
ATOM     41  C   UNL A   1      40.050  29.348  30.933  1.00  0.00     0.010 A 
ATOM     42  C   UNL A   1      40.325  29.380  29.558  1.00  0.00    -0.014 A 
BRANCH  42  43
ATOM     43  C   UNL A   1      41.678  29.005  29.074  1.00  0.00     0.031 A 
ATOM     44  C   UNL A   1      42.759  30.047  28.976  1.00  0.00     0.074 A 
ATOM     45  C   UNL A   1      41.911  27.744  28.661  1.00  0.00     0.049 A 
ATOM     46  N   UNL A   1      43.973  29.935  28.503  1.00  0.00    -0.248 NA
ATOM     47  C   UNL A   1      42.421  31.402  29.447  1.00  0.00     0.031 C 
ATOM     48  C   UNL A   1      40.928  26.658  28.662  1.00  0.00     0.029 A 
ATOM     49  N   UNL A   1      43.043  27.164  28.146  1.00  0.00    -0.354 N 
ATOM     50  C   UNL A   1      44.537  31.202  28.603  1.00  0.00     0.074 A 
ATOM     51  C   UNL A   1      43.518  32.078  29.137  1.00  0.00     0.031 C 
ATOM     52  C   UNL A   1      41.504  25.542  28.187  1.00  0.00     0.029 A 
ATOM     53  C   UNL A   1      42.884  25.839  27.815  1.00  0.00     0.049 A 
ATOM     54  H   UNL A   1      43.890  27.651  28.025  1.00  0.00     0.167 HD
ATOM     55  C   UNL A   1      45.799  31.594  28.299  1.00  0.00     0.037 A 
ATOM     56  C   UNL A   1      43.749  24.965  27.266  1.00  0.00     0.037 A 
ATOM     57  C   UNL A   1      46.817  30.707  27.798  1.00  0.00     0.049 A 
ATOM     58  C   UNL A   1      45.147  25.421  26.949  1.00  0.00     0.074 A 
ATOM     59  C   UNL A   1      48.142  30.992  27.517  1.00  0.00     0.029 A 
ATOM     60  N   UNL A   1      46.627  29.365  27.508  1.00  0.00    -0.354 N 
ATOM     61  N   UNL A   1      45.682  26.608  27.106  1.00  0.00    -0.248 NA
ATOM     62  C   UNL A   1      46.063  24.418  26.388  1.00  0.00     0.031 C 
ATOM     63  C   UNL A   1      48.744  29.831  27.021  1.00  0.00     0.029 A 
ATOM     64  C   UNL A   1      47.805  28.812  27.036  1.00  0.00     0.049 A 
ATOM     65  H   UNL A   1      45.780  28.877  27.622  1.00  0.00     0.167 HD
ATOM     66  C   UNL A   1      47.003  26.489  26.689  1.00  0.00     0.074 A 
ATOM     67  C   UNL A   1      47.189  25.110  26.283  1.00  0.00     0.031 C 
ATOM     68  C   UNL A   1      47.974  27.434  26.645  1.00  0.00     0.037 A 
BRANCH  55  69
ATOM     69  C   UNL A   1      46.151  33.041  28.505  1.00  0.00     0.058 A 
ATOM     70  C   UNL A   1      45.907  34.005  27.514  1.00  0.00     0.135 A 
ATOM     71  C   UNL A   1      46.699  33.477  29.721  1.00  0.00     0.135 A 
ATOM     72  F   UNL A   1      45.399  33.641  26.325  1.00  0.00    -0.206 F 
ATOM     73  C   UNL A   1      46.217  35.347  27.711  1.00  0.00     0.059 A 
ATOM     74  C   UNL A   1      46.991  34.819  29.951  1.00  0.00     0.059 A 
ATOM     75  F   UNL A   1      46.953  32.598  30.702  1.00  0.00    -0.206 F 
ATOM     76  C   UNL A   1      46.759  35.744  28.935  1.00  0.00     0.060 A 
BRANCH  76  77
ATOM     77  S   UNL A   1      47.144  37.490  29.181  1.00  0.00     0.124 S 
ATOM     78  O   UNL A   1      48.352  37.637  28.374  1.00  0.00    -0.237 OA
ATOM     79  O   UNL A   1      45.950  38.150  28.662  1.00  0.00    -0.237 OA
ATOM     80  O   UNL A   1      47.338  37.596  30.624  1.00  0.00    -0.744 OA
ENDBRANCH  76  77
ENDBRANCH  55  69
BRANCH  56  81
ATOM     81  C   UNL A   1      43.323  23.566  26.997  1.00  0.00     0.058 A 
ATOM     82  C   UNL A   1      43.053  23.131  25.691  1.00  0.00     0.135 A 
ATOM     83  C   UNL A   1      43.185  22.635  28.038  1.00  0.00     0.135 A 
ATOM     84  F   UNL A   1      43.167  23.987  24.664  1.00  0.00    -0.206 F 
ATOM     85  C   UNL A   1      42.642  21.829  25.426  1.00  0.00     0.059 A 
ATOM     86  C   UNL A   1      42.798  21.321  27.796  1.00  0.00     0.059 A 
ATOM     87  F   UNL A   1      43.448  22.996  29.304  1.00  0.00    -0.206 F 
ATOM     88  C   UNL A   1      42.518  20.931  26.487  1.00  0.00     0.060 A 
BRANCH  88  89
ATOM     89  S   UNL A   1      42.024  19.230  26.132  1.00  0.00     0.124 S 
ATOM     90  O   UNL A   1      42.868  18.913  24.987  1.00  0.00    -0.237 OA
ATOM     91  O   UNL A   1      42.355  18.547  27.379  1.00  0.00    -0.237 OA
ATOM     92  O   UNL A   1      40.596  19.349  25.852  1.00  0.00    -0.744 OA
ENDBRANCH  88  89
ENDBRANCH  56  81
BRANCH  68  93
ATOM     93  C   UNL A   1      49.335  27.005  26.175  1.00  0.00     0.058 A 
ATOM     94  C   UNL A   1      50.262  26.411  27.046  1.00  0.00     0.135 A 
ATOM     95  C   UNL A   1      49.696  27.142  24.825  1.00  0.00     0.135 A 
ATOM     96  F   UNL A   1      49.968  26.264  28.348  1.00  0.00    -0.206 F 
ATOM     97  C   UNL A   1      51.509  25.987  26.598  1.00  0.00     0.059 A 
ATOM     98  C   UNL A   1      50.927  26.701  24.351  1.00  0.00     0.059 A 
ATOM     99  F   UNL A   1      48.841  27.695  23.950  1.00  0.00    -0.206 F 
ATOM    100  C   UNL A   1      51.832  26.135  25.248  1.00  0.00     0.060 A 
BRANCH 100 101
ATOM    101  S   UNL A   1      53.438  25.549  24.671  1.00  0.00     0.124 S 
ATOM    102  O   UNL A   1      54.344  26.492  25.320  1.00  0.00    -0.237 OA
ATOM    103  O   UNL A   1      53.474  24.182  25.181  1.00  0.00    -0.237 OA
ATOM    104  O   UNL A   1      53.342  25.668  23.220  1.00  0.00    -0.744 OA
ENDBRANCH 100 101
ENDBRANCH  68  93
ENDBRANCH  42  43
ENDBRANCH  34  37
ENDBRANCH  32  33
ENDBRANCH  31  32
ENDBRANCH  30  31
ENDBRANCH   1  30
TORSDOF 21
ENDMDL
MODEL 3
REMARK VINA RESULT:     -10.9      6.299     12.028
REMARK SMILES [NH3+]C[C@H]1CC[C@@H](C(=O)Nc2ccc(O)c(C(=O)NCCCCCCNC(=O)c3ccc(-c4c5nc(c(-c6c(F)cc(S(=O)(=O)[O-])cc6F)c6ccc([nH]6)c(-c6c(F)cc(S(=O)(=O)[O-])cc6F)c6nc(c(-c7c(F)cc(S(=O)(=O)[O-])cc7F)c7ccc4[nH]7)C=C6)C=C5)cc3)c2)O1
REMARK SMILES IDX 21 1 20 2 19 3 18 4 16 5 17 6 15 8 10 9 11 10 94 11 12 12
REMARK SMILES IDX 13 13 9 14 7 15 8 16 6 18 3 19 4 20 95 21 5 22 2 23 1 24
REMARK SMILES IDX 14 28 22 30 23 31 24 32 25 33 26 34 27 36 28 37 29 38 93 39
REMARK SMILES IDX 30 40 92 41 31 42 32 43 33 44 86 45 34 46 91 47 85 48 87 49
REMARK SMILES IDX 35 50 90 51 84 52 83 53 36 55 70 56 49 57 69 58 50 59 53 60
REMARK SMILES IDX 68 61 88 62 51 63 52 64 67 66 89 67 54 68 37 69 38 70 47 71
REMARK SMILES IDX 39 72 40 73 46 74 48 75 41 76 42 77 43 78 44 79 45 80 71 81
REMARK SMILES IDX 72 82 81 83 73 84 74 85 80 86 82 87 75 88 76 89 77 90 78 91
REMARK SMILES IDX 79 92 55 93 56 94 65 95 57 96 58 97 64 98 66 99 59 100
REMARK SMILES IDX 60 101 61 102 62 103 63 104
REMARK H PARENT 18 7 9 17 1 25 1 26 1 27 14 29 25 35 87 54 53 65
REMARK Flexibility Score: inf
ROOT
ATOM      1  C   UNL A   1      38.592  23.234  26.532  1.00  0.00     0.002 C 
ENDROOT
BRANCH   1   2
ATOM      2  C   UNL A   1      37.377  23.073  25.616  1.00  0.00     0.021 C 
BRANCH   2   3
ATOM      3  C   UNL A   1      36.797  21.655  25.581  1.00  0.00     0.116 C 
BRANCH   3   4
ATOM      4  N   UNL A   1      35.761  21.507  26.580  1.00  0.00    -0.352 N 
ATOM      5  C   UNL A   1      34.395  21.546  26.507  1.00  0.00     0.255 C 
ATOM      6  O   UNL A   1      33.789  21.405  27.575  1.00  0.00    -0.269 OA
ATOM      7  H   UNL A   1      36.105  21.350  27.489  1.00  0.00     0.163 HD
BRANCH   5   8
ATOM      8  C   UNL A   1      33.583  21.678  25.256  1.00  0.00     0.083 A 
ATOM      9  C   UNL A   1      33.313  23.039  23.237  1.00  0.00     0.042 A 
ATOM     10  C   UNL A   1      32.415  22.109  22.734  1.00  0.00     0.030 A 
ATOM     11  C   UNL A   1      33.936  22.793  24.459  1.00  0.00     0.043 A 
ATOM     12  C   UNL A   1      32.031  21.019  23.501  1.00  0.00     0.049 A 
ATOM     13  C   UNL A   1      32.604  20.809  24.759  1.00  0.00     0.128 A 
BRANCH   9  14
ATOM     14  N   UNL A   1      33.706  24.138  22.472  1.00  0.00    -0.324 N 
ATOM     15  C   UNL A   1      32.919  25.136  21.948  1.00  0.00     0.253 C 
ATOM     16  O   UNL A   1      33.277  25.674  20.895  1.00  0.00    -0.272 OA
ATOM     17  H   UNL A   1      34.670  24.208  22.282  1.00  0.00     0.170 HD
BRANCH  15  18
ATOM     18  C   UNL A   1      31.774  25.720  22.824  1.00  0.00     0.208 C 
ATOM     19  C   UNL A   1      32.107  27.339  24.497  1.00  0.00     0.174 C 
ATOM     20  C   UNL A   1      30.878  27.748  23.713  1.00  0.00     0.041 C 
ATOM     21  O   UNL A   1      32.285  25.952  24.159  1.00  0.00    -0.359 OA
ATOM     22  C   UNL A   1      31.102  27.019  22.406  1.00  0.00     0.045 C 
BRANCH  19  23
ATOM     23  C   UNL A   1      33.359  28.167  24.118  1.00  0.00     0.291 C 
BRANCH  23  24
ATOM     24  N   UNL A   1      33.173  29.607  24.311  1.00  0.00    -0.355 N 
ATOM     25  H   UNL A   1      32.505  29.765  25.066  1.00  0.00     0.344 HD
ATOM     26  H   UNL A   1      32.817  30.024  23.451  1.00  0.00     0.344 HD
ATOM     27  H   UNL A   1      34.066  30.036  24.553  1.00  0.00     0.344 HD
ENDBRANCH  23  24
ENDBRANCH  19  23
ENDBRANCH  15  18
ENDBRANCH   9  14
BRANCH  13  28
ATOM     28  O   UNL A   1      32.200  19.683  25.406  1.00  0.00    -0.507 OA
ATOM     29  H   UNL A   1      31.293  19.446  25.414  1.00  0.00     0.293 HD
ENDBRANCH  13  28
ENDBRANCH   5   8
ENDBRANCH   3   4
ENDBRANCH   2   3
ENDBRANCH   1   2
BRANCH   1  30
ATOM     30  C   UNL A   1      39.696  22.194  26.318  1.00  0.00     0.002 C 
BRANCH  30  31
ATOM     31  C   UNL A   1      40.589  21.932  27.535  1.00  0.00     0.021 C 
BRANCH  31  32
ATOM     32  C   UNL A   1      41.635  23.013  27.800  1.00  0.00     0.116 C 
BRANCH  32  33
ATOM     33  N   UNL A   1      41.994  23.718  26.580  1.00  0.00    -0.352 N 
ATOM     34  C   UNL A   1      41.894  25.055  26.288  1.00  0.00     0.251 C 
ATOM     35  H   UNL A   1      42.362  23.155  25.861  1.00  0.00     0.163 HD
ATOM     36  O   UNL A   1      41.992  25.436  25.126  1.00  0.00    -0.269 OA
BRANCH  34  37
ATOM     37  C   UNL A   1      41.665  26.031  27.374  1.00  0.00     0.039 A 
ATOM     38  C   UNL A   1      40.571  25.858  28.225  1.00  0.00     0.014 A 
ATOM     39  C   UNL A   1      42.512  27.134  27.531  1.00  0.00     0.014 A 
ATOM     40  C   UNL A   1      40.352  26.765  29.264  1.00  0.00     0.010 A 
ATOM     41  C   UNL A   1      42.329  28.000  28.606  1.00  0.00     0.010 A 
ATOM     42  C   UNL A   1      41.244  27.830  29.478  1.00  0.00    -0.014 A 
BRANCH  42  43
ATOM     43  C   UNL A   1      41.052  28.780  30.602  1.00  0.00     0.031 A 
ATOM     44  C   UNL A   1      41.903  28.666  31.839  1.00  0.00     0.074 A 
ATOM     45  C   UNL A   1      40.070  29.701  30.536  1.00  0.00     0.049 A 
ATOM     46  N   UNL A   1      41.833  29.345  32.954  1.00  0.00    -0.248 NA
ATOM     47  C   UNL A   1      42.952  27.632  31.831  1.00  0.00     0.031 C 
ATOM     48  C   UNL A   1      39.150  29.876  29.411  1.00  0.00     0.029 A 
ATOM     49  N   UNL A   1      39.672  30.653  31.440  1.00  0.00    -0.354 N 
ATOM     50  C   UNL A   1      42.813  28.813  33.784  1.00  0.00     0.074 A 
ATOM     51  C   UNL A   1      43.432  27.724  33.062  1.00  0.00     0.031 C 
ATOM     52  C   UNL A   1      38.306  30.884  29.685  1.00  0.00     0.029 A 
ATOM     53  C   UNL A   1      38.600  31.403  31.017  1.00  0.00     0.049 A 
ATOM     54  H   UNL A   1      40.112  30.786  32.311  1.00  0.00     0.167 HD
ATOM     55  C   UNL A   1      43.179  29.213  35.026  1.00  0.00     0.037 A 
ATOM     56  C   UNL A   1      37.926  32.391  31.635  1.00  0.00     0.037 A 
ATOM     57  C   UNL A   1      42.580  30.320  35.725  1.00  0.00     0.049 A 
ATOM     58  C   UNL A   1      38.360  32.825  33.009  1.00  0.00     0.074 A 
ATOM     59  C   UNL A   1      42.920  30.843  36.960  1.00  0.00     0.029 A 
ATOM     60  N   UNL A   1      41.519  31.077  35.248  1.00  0.00    -0.354 N 
ATOM     61  N   UNL A   1      39.329  32.350  33.754  1.00  0.00    -0.248 NA
ATOM     62  C   UNL A   1      37.616  33.934  33.622  1.00  0.00     0.031 C 
ATOM     63  C   UNL A   1      42.040  31.893  37.248  1.00  0.00     0.029 A 
ATOM     64  C   UNL A   1      41.182  32.052  36.172  1.00  0.00     0.049 A 
ATOM     65  H   UNL A   1      41.074  30.942  34.381  1.00  0.00     0.167 HD
ATOM     66  C   UNL A   1      39.328  33.118  34.914  1.00  0.00     0.074 A 
ATOM     67  C   UNL A   1      38.269  34.097  34.765  1.00  0.00     0.031 C 
ATOM     68  C   UNL A   1      40.131  33.024  36.002  1.00  0.00     0.037 A 
BRANCH  55  69
ATOM     69  C   UNL A   1      44.284  28.454  35.708  1.00  0.00     0.058 A 
ATOM     70  C   UNL A   1      45.634  28.788  35.515  1.00  0.00     0.135 A 
ATOM     71  C   UNL A   1      43.990  27.408  36.598  1.00  0.00     0.135 A 
ATOM     72  F   UNL A   1      45.973  29.769  34.663  1.00  0.00    -0.206 F 
ATOM     73  C   UNL A   1      46.654  28.097  36.160  1.00  0.00     0.059 A 
ATOM     74  C   UNL A   1      44.994  26.721  37.275  1.00  0.00     0.059 A 
ATOM     75  F   UNL A   1      42.716  27.047  36.819  1.00  0.00    -0.206 F 
ATOM     76  C   UNL A   1      46.324  27.064  37.039  1.00  0.00     0.060 A 
BRANCH  76  77
ATOM     77  S   UNL A   1      47.659  26.186  37.878  1.00  0.00     0.124 S 
ATOM     78  O   UNL A   1      47.449  26.594  39.264  1.00  0.00    -0.237 OA
ATOM     79  O   UNL A   1      47.355  24.791  37.575  1.00  0.00    -0.237 OA
ATOM     80  O   UNL A   1      48.864  26.713  37.245  1.00  0.00    -0.744 OA
ENDBRANCH  76  77
ENDBRANCH  55  69
BRANCH  56  81
ATOM     81  C   UNL A   1      36.781  33.050  30.953  1.00  0.00     0.058 A 
ATOM     82  C   UNL A   1      35.458  32.764  31.322  1.00  0.00     0.135 A 
ATOM     83  C   UNL A   1      36.985  33.984  29.925  1.00  0.00     0.135 A 
ATOM     84  F   UNL A   1      35.213  31.875  32.297  1.00  0.00    -0.206 F 
ATOM     85  C   UNL A   1      34.376  33.363  30.685  1.00  0.00     0.059 A 
ATOM     86  C   UNL A   1      35.920  34.614  29.289  1.00  0.00     0.059 A 
ATOM     87  F   UNL A   1      38.232  34.306  29.546  1.00  0.00    -0.206 F 
ATOM     88  C   UNL A   1      34.619  34.288  29.668  1.00  0.00     0.060 A 
BRANCH  88  89
ATOM     89  S   UNL A   1      33.212  35.094  28.873  1.00  0.00     0.124 S 
ATOM     90  O   UNL A   1      32.756  34.053  27.961  1.00  0.00    -0.237 OA
ATOM     91  O   UNL A   1      32.338  35.377  30.009  1.00  0.00    -0.237 OA
ATOM     92  O   UNL A   1      33.811  36.268  28.245  1.00  0.00    -0.744 OA
ENDBRANCH  88  89
ENDBRANCH  56  81
BRANCH  68  93
ATOM     93  C   UNL A   1      39.920  34.023  37.105  1.00  0.00     0.058 A 
ATOM     94  C   UNL A   1      39.011  33.787  38.148  1.00  0.00     0.135 A 
ATOM     95  C   UNL A   1      40.676  35.206  37.145  1.00  0.00     0.135 A 
ATOM     96  F   UNL A   1      38.260  32.675  38.151  1.00  0.00    -0.206 F 
ATOM     97  C   UNL A   1      38.843  34.701  39.183  1.00  0.00     0.059 A 
ATOM     98  C   UNL A   1      40.542  36.121  38.184  1.00  0.00     0.059 A 
ATOM     99  F   UNL A   1      41.566  35.472  36.176  1.00  0.00    -0.206 F 
ATOM    100  C   UNL A   1      39.615  35.865  39.193  1.00  0.00     0.060 A 
BRANCH 100 101
ATOM    101  S   UNL A   1      39.413  37.026  40.559  1.00  0.00     0.124 S 
ATOM    102  O   UNL A   1      39.194  36.122  41.683  1.00  0.00    -0.237 OA
ATOM    103  O   UNL A   1      40.688  37.737  40.557  1.00  0.00    -0.237 OA
ATOM    104  O   UNL A   1      38.258  37.824  40.160  1.00  0.00    -0.744 OA
ENDBRANCH 100 101
ENDBRANCH  68  93
ENDBRANCH  42  43
ENDBRANCH  34  37
ENDBRANCH  32  33
ENDBRANCH  31  32
ENDBRANCH  30  31
ENDBRANCH   1  30
TORSDOF 21
ENDMDL
