MODEL 1
REMARK VINA RESULT:     -11.2      0.000      0.000
REMARK SMILES O=C(COc1ccc(Br)cc1/C=N/Nc1ncccc1[N+](=O)[O-])NCCCCCCNC(=O)c1ccc(-c2c3nc(c(-c4c(F)cc(S(=O)(=O)[O-])cc4F)c4ccc([nH]4)c(-c4c(F)cc(S(=O)(=O)[O-])cc4F)c4nc(c(-c5c(F)cc(S(=O)(=O)[O-])cc5F)c5ccc2[nH]5)C=C4)C=C3)cc1
REMARK SMILES IDX 26 1 25 2 24 3 1 4 2 5 3 7 4 8 5 9 6 10 11 11 7 12 10 13
REMARK SMILES IDX 8 14 9 15 12 16 13 17 14 18 15 20 16 21 20 22 17 23 19 24
REMARK SMILES IDX 18 25 21 26 22 27 23 28 27 29 28 30 29 31 30 32 31 33 32 34
REMARK SMILES IDX 33 36 34 37 35 38 99 39 36 40 98 41 37 42 38 43 39 44 92 45
REMARK SMILES IDX 40 46 97 47 91 48 93 49 41 50 96 51 90 52 89 53 42 55 76 56
REMARK SMILES IDX 55 57 75 58 56 59 59 60 74 61 94 62 57 63 58 64 73 66 95 67
REMARK SMILES IDX 60 68 43 69 44 70 53 71 45 72 46 73 52 74 54 75 47 76 48 77
REMARK SMILES IDX 49 78 50 79 51 80 77 81 78 82 87 83 79 84 80 85 86 86 88 87
REMARK SMILES IDX 81 88 82 89 83 90 84 91 85 92 61 93 62 94 71 95 63 96 64 97
REMARK SMILES IDX 70 98 72 99 65 100 66 101 67 102 68 103 69 104
REMARK H PARENT 24 6 14 19 31 35 93 54 59 65
REMARK Flexibility Score: inf
ROOT
ATOM      1  C   UNL A   1      30.093  26.287  24.997  1.00  0.00     0.021 C 
ENDROOT
BRANCH   1   2
ATOM      2  C   UNL A   1      30.595  24.887  24.659  1.00  0.00     0.116 C 
BRANCH   2   3
ATOM      3  N   UNL A   1      31.953  24.654  25.104  1.00  0.00    -0.353 N 
ATOM      4  O   UNL A   1      31.429  24.052  27.261  1.00  0.00    -0.271 OA
ATOM      5  C   UNL A   1      32.251  24.155  26.355  1.00  0.00     0.257 C 
ATOM      6  H   UNL A   1      32.694  24.861  24.489  1.00  0.00     0.163 HD
BRANCH   5   7
ATOM      7  C   UNL A   1      33.712  23.722  26.517  1.00  0.00     0.329 C 
BRANCH   7   8
ATOM      8  O   UNL A   1      34.509  23.793  25.327  1.00  0.00    -0.483 OA
BRANCH   8   9
ATOM      9  C   UNL A   1      35.765  23.264  25.495  1.00  0.00     0.129 A 
ATOM     10  C   UNL A   1      36.838  24.081  25.866  1.00  0.00     0.048 A 
ATOM     11  C   UNL A   1      35.971  21.883  25.382  1.00  0.00     0.038 A 
ATOM     12  C   UNL A   1      38.105  23.538  26.086  1.00  0.00     0.019 A 
ATOM     13  C   UNL A   1      37.247  21.338  25.590  1.00  0.00     0.029 A 
ATOM     14  C   UNL A   1      38.304  22.170  25.944  1.00  0.00     0.018 A 
ATOM     15  Br  UNL A   1      40.013  21.433  26.272  1.00  0.00    -0.051 Br
BRANCH  11  16
ATOM     16  C   UNL A   1      34.853  20.966  25.096  1.00  0.00     0.145 C 
ATOM     17  N   UNL A   1      34.250  20.329  26.054  1.00  0.00    -0.181 NA
BRANCH  17  18
ATOM     18  N   UNL A   1      33.173  19.577  25.725  1.00  0.00    -0.256 N 
ATOM     19  H   UNL A   1      32.563  19.341  26.461  1.00  0.00     0.192 HD
BRANCH  18  20
ATOM     20  C   UNL A   1      32.832  19.101  24.462  1.00  0.00     0.225 A 
ATOM     21  N   UNL A   1      32.318  20.054  23.640  1.00  0.00    -0.232 NA
ATOM     22  C   UNL A   1      33.033  17.814  23.984  1.00  0.00     0.313 A 
ATOM     23  C   UNL A   1      32.086  19.743  22.343  1.00  0.00     0.114 A 
ATOM     24  C   UNL A   1      32.807  17.502  22.637  1.00  0.00     0.091 A 
ATOM     25  C   UNL A   1      32.335  18.499  21.795  1.00  0.00     0.027 A 
BRANCH  22  26
ATOM     26  N   UNL A   1      33.412  16.741  24.865  1.00  0.00     0.066 N 
ATOM     27  O   UNL A   1      33.033  16.804  26.042  1.00  0.00    -0.258 OA
ATOM     28  O   UNL A   1      33.989  15.775  24.343  1.00  0.00    -0.258 OA
ENDBRANCH  22  26
ENDBRANCH  18  20
ENDBRANCH  17  18
ENDBRANCH  11  16
ENDBRANCH   8   9
ENDBRANCH   7   8
ENDBRANCH   5   7
ENDBRANCH   2   3
ENDBRANCH   1   2
BRANCH   1  29
ATOM     29  C   UNL A   1      31.178  27.368  25.019  1.00  0.00     0.002 C 
BRANCH  29  30
ATOM     30  C   UNL A   1      31.538  27.922  26.401  1.00  0.00     0.002 C 
BRANCH  30  31
ATOM     31  C   UNL A   1      33.005  27.775  26.811  1.00  0.00     0.021 C 
BRANCH  31  32
ATOM     32  C   UNL A   1      33.981  28.694  26.080  1.00  0.00     0.116 C 
BRANCH  32  33
ATOM     33  N   UNL A   1      33.828  30.090  26.459  1.00  0.00    -0.352 N 
ATOM     34  C   UNL A   1      34.556  30.837  27.354  1.00  0.00     0.251 C 
ATOM     35  H   UNL A   1      33.095  30.571  26.008  1.00  0.00     0.163 HD
ATOM     36  O   UNL A   1      34.179  31.965  27.660  1.00  0.00    -0.269 OA
BRANCH  34  37
ATOM     37  C   UNL A   1      35.775  30.270  27.971  1.00  0.00     0.039 A 
ATOM     38  C   UNL A   1      36.983  30.343  27.272  1.00  0.00     0.014 A 
ATOM     39  C   UNL A   1      35.732  29.681  29.238  1.00  0.00     0.014 A 
ATOM     40  C   UNL A   1      38.161  29.898  27.878  1.00  0.00     0.010 A 
ATOM     41  C   UNL A   1      36.917  29.303  29.865  1.00  0.00     0.010 A 
ATOM     42  C   UNL A   1      38.145  29.417  29.197  1.00  0.00    -0.014 A 
BRANCH  42  43
ATOM     43  C   UNL A   1      39.404  29.063  29.906  1.00  0.00     0.031 A 
ATOM     44  C   UNL A   1      39.866  29.869  31.087  1.00  0.00     0.074 A 
ATOM     45  C   UNL A   1      40.173  28.065  29.429  1.00  0.00     0.049 A 
ATOM     46  N   UNL A   1      40.974  29.765  31.776  1.00  0.00    -0.248 NA
ATOM     47  C   UNL A   1      38.979  30.953  31.537  1.00  0.00     0.031 C 
ATOM     48  C   UNL A   1      39.862  27.245  28.256  1.00  0.00     0.029 A 
ATOM     49  N   UNL A   1      41.385  27.582  29.858  1.00  0.00    -0.354 N 
ATOM     50  C   UNL A   1      40.922  30.771  32.733  1.00  0.00     0.074 A 
ATOM     51  C   UNL A   1      39.699  31.510  32.499  1.00  0.00     0.031 C 
ATOM     52  C   UNL A   1      40.851  26.359  28.063  1.00  0.00     0.029 A 
ATOM     53  C   UNL A   1      41.886  26.571  29.070  1.00  0.00     0.049 A 
ATOM     54  H   UNL A   1      41.852  27.925  30.653  1.00  0.00     0.167 HD
ATOM     55  C   UNL A   1      41.802  31.042  33.728  1.00  0.00     0.037 A 
ATOM     56  C   UNL A   1      43.054  25.903  29.136  1.00  0.00     0.037 A 
ATOM     57  C   UNL A   1      43.015  30.298  33.956  1.00  0.00     0.049 A 
ATOM     58  C   UNL A   1      44.023  26.226  30.240  1.00  0.00     0.074 A 
ATOM     59  C   UNL A   1      43.943  30.455  34.971  1.00  0.00     0.029 A 
ATOM     60  N   UNL A   1      43.475  29.264  33.152  1.00  0.00    -0.354 N 
ATOM     61  N   UNL A   1      43.922  27.129  31.185  1.00  0.00    -0.248 NA
ATOM     62  C   UNL A   1      45.261  25.434  30.293  1.00  0.00     0.031 C 
ATOM     63  C   UNL A   1      44.989  29.553  34.751  1.00  0.00     0.029 A 
ATOM     64  C   UNL A   1      44.688  28.794  33.632  1.00  0.00     0.049 A 
ATOM     65  H   UNL A   1      43.009  28.915  32.359  1.00  0.00     0.167 HD
ATOM     66  C   UNL A   1      45.074  27.006  31.954  1.00  0.00     0.074 A 
ATOM     67  C   UNL A   1      45.848  25.927  31.374  1.00  0.00     0.031 C 
ATOM     68  C   UNL A   1      45.453  27.722  33.042  1.00  0.00     0.037 A 
BRANCH  55  69
ATOM     69  C   UNL A   1      41.484  32.196  34.640  1.00  0.00     0.058 A 
ATOM     70  C   UNL A   1      40.734  32.023  35.815  1.00  0.00     0.135 A 
ATOM     71  C   UNL A   1      41.942  33.492  34.343  1.00  0.00     0.135 A 
ATOM     72  F   UNL A   1      40.262  30.811  36.144  1.00  0.00    -0.206 F 
ATOM     73  C   UNL A   1      40.411  33.098  36.638  1.00  0.00     0.059 A 
ATOM     74  C   UNL A   1      41.657  34.575  35.170  1.00  0.00     0.059 A 
ATOM     75  F   UNL A   1      42.666  33.715  33.236  1.00  0.00    -0.206 F 
ATOM     76  C   UNL A   1      40.872  34.372  36.303  1.00  0.00     0.060 A 
BRANCH  76  77
ATOM     77  S   UNL A   1      40.422  35.758  37.367  1.00  0.00     0.124 S 
ATOM     78  O   UNL A   1      39.852  36.692  36.401  1.00  0.00    -0.237 OA
ATOM     79  O   UNL A   1      39.473  35.148  38.293  1.00  0.00    -0.237 OA
ATOM     80  O   UNL A   1      41.695  36.164  37.955  1.00  0.00    -0.744 OA
ENDBRANCH  76  77
ENDBRANCH  55  69
BRANCH  56  81
ATOM     81  C   UNL A   1      43.361  24.861  28.120  1.00  0.00     0.058 A 
ATOM     82  C   UNL A   1      44.004  25.186  26.917  1.00  0.00     0.135 A 
ATOM     83  C   UNL A   1      43.052  23.511  28.352  1.00  0.00     0.135 A 
ATOM     84  F   UNL A   1      44.311  26.464  26.645  1.00  0.00    -0.206 F 
ATOM     85  C   UNL A   1      44.330  24.213  25.979  1.00  0.00     0.059 A 
ATOM     86  C   UNL A   1      43.392  22.515  27.441  1.00  0.00     0.059 A 
ATOM     87  F   UNL A   1      42.452  23.144  29.495  1.00  0.00    -0.206 F 
ATOM     88  C   UNL A   1      44.026  22.878  26.253  1.00  0.00     0.060 A 
BRANCH  88  89
ATOM     89  S   UNL A   1      44.523  21.613  25.064  1.00  0.00     0.124 S 
ATOM     90  O   UNL A   1      43.565  20.550  25.347  1.00  0.00    -0.237 OA
ATOM     91  O   UNL A   1      44.351  22.307  23.791  1.00  0.00    -0.237 OA
ATOM     92  O   UNL A   1      45.907  21.331  25.432  1.00  0.00    -0.744 OA
ENDBRANCH  88  89
ENDBRANCH  56  81
BRANCH  68  93
ATOM     93  C   UNL A   1      46.760  27.354  33.694  1.00  0.00     0.058 A 
ATOM     94  C   UNL A   1      46.839  26.352  34.673  1.00  0.00     0.135 A 
ATOM     95  C   UNL A   1      47.955  27.971  33.289  1.00  0.00     0.135 A 
ATOM     96  F   UNL A   1      45.725  25.737  35.102  1.00  0.00    -0.206 F 
ATOM     97  C   UNL A   1      48.055  25.984  35.240  1.00  0.00     0.059 A 
ATOM     98  C   UNL A   1      49.185  27.599  33.822  1.00  0.00     0.059 A 
ATOM     99  F   UNL A   1      47.937  28.930  32.351  1.00  0.00    -0.206 F 
ATOM    100  C   UNL A   1      49.224  26.610  34.804  1.00  0.00     0.060 A 
BRANCH 100 101
ATOM    101  S   UNL A   1      50.801  26.091  35.514  1.00  0.00     0.124 S 
ATOM    102  O   UNL A   1      51.065  24.860  34.776  1.00  0.00    -0.237 OA
ATOM    103  O   UNL A   1      51.672  27.219  35.198  1.00  0.00    -0.237 OA
ATOM    104  O   UNL A   1      50.497  25.920  36.932  1.00  0.00    -0.744 OA
ENDBRANCH 100 101
ENDBRANCH  68  93
ENDBRANCH  42  43
ENDBRANCH  34  37
ENDBRANCH  32  33
ENDBRANCH  31  32
ENDBRANCH  30  31
ENDBRANCH  29  30
ENDBRANCH   1  29
TORSDOF 22
ENDMDL
MODEL 2
REMARK VINA RESULT:     -11.2      5.079      7.009
REMARK SMILES O=C(COc1ccc(Br)cc1/C=N/Nc1ncccc1[N+](=O)[O-])NCCCCCCNC(=O)c1ccc(-c2c3nc(c(-c4c(F)cc(S(=O)(=O)[O-])cc4F)c4ccc([nH]4)c(-c4c(F)cc(S(=O)(=O)[O-])cc4F)c4nc(c(-c5c(F)cc(S(=O)(=O)[O-])cc5F)c5ccc2[nH]5)C=C4)C=C3)cc1
REMARK SMILES IDX 26 1 25 2 24 3 1 4 2 5 3 7 4 8 5 9 6 10 11 11 7 12 10 13
REMARK SMILES IDX 8 14 9 15 12 16 13 17 14 18 15 20 16 21 20 22 17 23 19 24
REMARK SMILES IDX 18 25 21 26 22 27 23 28 27 29 28 30 29 31 30 32 31 33 32 34
REMARK SMILES IDX 33 36 34 37 35 38 99 39 36 40 98 41 37 42 38 43 39 44 92 45
REMARK SMILES IDX 40 46 97 47 91 48 93 49 41 50 96 51 90 52 89 53 42 55 76 56
REMARK SMILES IDX 55 57 75 58 56 59 59 60 74 61 94 62 57 63 58 64 73 66 95 67
REMARK SMILES IDX 60 68 43 69 44 70 53 71 45 72 46 73 52 74 54 75 47 76 48 77
REMARK SMILES IDX 49 78 50 79 51 80 77 81 78 82 87 83 79 84 80 85 86 86 88 87
REMARK SMILES IDX 81 88 82 89 83 90 84 91 85 92 61 93 62 94 71 95 63 96 64 97
REMARK SMILES IDX 70 98 72 99 65 100 66 101 67 102 68 103 69 104
REMARK H PARENT 24 6 14 19 31 35 93 54 59 65
REMARK Flexibility Score: inf
ROOT
ATOM      1  C   UNL A   1      34.989  30.209  27.880  1.00  0.00     0.021 C 
ENDROOT
BRANCH   1   2
ATOM      2  C   UNL A   1      33.724  30.054  27.043  1.00  0.00     0.116 C 
BRANCH   2   3
ATOM      3  N   UNL A   1      33.997  29.632  25.685  1.00  0.00    -0.353 N 
ATOM      4  O   UNL A   1      33.734  27.376  26.046  1.00  0.00    -0.271 OA
ATOM      5  C   UNL A   1      33.880  28.320  25.276  1.00  0.00     0.257 C 
ATOM      6  H   UNL A   1      34.276  30.309  25.027  1.00  0.00     0.163 HD
BRANCH   5   7
ATOM      7  C   UNL A   1      33.936  28.138  23.754  1.00  0.00     0.329 C 
BRANCH   7   8
ATOM      8  O   UNL A   1      33.041  27.152  23.221  1.00  0.00    -0.483 OA
BRANCH   8   9
ATOM      9  C   UNL A   1      31.732  27.566  23.222  1.00  0.00     0.129 A 
ATOM     10  C   UNL A   1      31.387  28.836  22.745  1.00  0.00     0.048 A 
ATOM     11  C   UNL A   1      30.713  26.691  23.617  1.00  0.00     0.038 A 
ATOM     12  C   UNL A   1      30.052  29.241  22.698  1.00  0.00     0.019 A 
ATOM     13  C   UNL A   1      29.373  27.101  23.583  1.00  0.00     0.029 A 
ATOM     14  C   UNL A   1      29.052  28.372  23.120  1.00  0.00     0.018 A 
ATOM     15  Br  UNL A   1      27.243  28.912  23.025  1.00  0.00    -0.051 Br
BRANCH  11  16
ATOM     16  C   UNL A   1      31.014  25.307  24.029  1.00  0.00     0.145 C 
ATOM     17  N   UNL A   1      30.475  24.796  25.095  1.00  0.00    -0.181 NA
BRANCH  17  18
ATOM     18  N   UNL A   1      30.725  23.492  25.358  1.00  0.00    -0.256 N 
ATOM     19  H   UNL A   1      30.020  22.851  25.106  1.00  0.00     0.192 HD
BRANCH  18  20
ATOM     20  C   UNL A   1      31.868  22.954  25.946  1.00  0.00     0.225 A 
ATOM     21  N   UNL A   1      31.883  23.054  27.301  1.00  0.00    -0.232 NA
ATOM     22  C   UNL A   1      32.899  22.296  25.290  1.00  0.00     0.313 A 
ATOM     23  C   UNL A   1      32.871  22.438  27.991  1.00  0.00     0.114 A 
ATOM     24  C   UNL A   1      33.910  21.646  26.010  1.00  0.00     0.091 A 
ATOM     25  C   UNL A   1      33.884  21.710  27.396  1.00  0.00     0.027 A 
BRANCH  22  26
ATOM     26  N   UNL A   1      33.006  22.317  23.855  1.00  0.00     0.066 N 
ATOM     27  O   UNL A   1      34.130  22.481  23.366  1.00  0.00    -0.258 OA
ATOM     28  O   UNL A   1      31.975  22.047  23.221  1.00  0.00    -0.258 OA
ENDBRANCH  22  26
ENDBRANCH  18  20
ENDBRANCH  17  18
ENDBRANCH  11  16
ENDBRANCH   8   9
ENDBRANCH   7   8
ENDBRANCH   5   7
ENDBRANCH   2   3
ENDBRANCH   1   2
BRANCH   1  29
ATOM     29  C   UNL A   1      35.742  31.527  27.664  1.00  0.00     0.002 C 
BRANCH  29  30
ATOM     30  C   UNL A   1      34.961  32.801  27.997  1.00  0.00     0.002 C 
BRANCH  30  31
ATOM     31  C   UNL A   1      35.248  33.413  29.369  1.00  0.00     0.021 C 
BRANCH  31  32
ATOM     32  C   UNL A   1      36.478  32.861  30.086  1.00  0.00     0.116 C 
BRANCH  32  33
ATOM     33  N   UNL A   1      36.150  31.798  31.024  1.00  0.00    -0.352 N 
ATOM     34  C   UNL A   1      36.839  30.644  31.311  1.00  0.00     0.251 C 
ATOM     35  H   UNL A   1      35.312  31.925  31.527  1.00  0.00     0.163 HD
ATOM     36  O   UNL A   1      36.324  29.785  32.023  1.00  0.00    -0.269 OA
BRANCH  34  37
ATOM     37  C   UNL A   1      38.184  30.423  30.737  1.00  0.00     0.039 A 
ATOM     38  C   UNL A   1      39.304  30.583  31.557  1.00  0.00     0.014 A 
ATOM     39  C   UNL A   1      38.342  30.049  29.399  1.00  0.00     0.014 A 
ATOM     40  C   UNL A   1      40.575  30.288  31.059  1.00  0.00     0.010 A 
ATOM     41  C   UNL A   1      39.602  29.688  28.927  1.00  0.00     0.010 A 
ATOM     42  C   UNL A   1      40.730  29.794  29.754  1.00  0.00    -0.014 A 
BRANCH  42  43
ATOM     43  C   UNL A   1      42.057  29.349  29.248  1.00  0.00     0.031 A 
ATOM     44  C   UNL A   1      43.179  30.334  29.080  1.00  0.00     0.074 A 
ATOM     45  C   UNL A   1      42.221  28.068  28.862  1.00  0.00     0.049 A 
ATOM     46  N   UNL A   1      44.372  30.148  28.575  1.00  0.00    -0.248 NA
ATOM     47  C   UNL A   1      42.916  31.716  29.509  1.00  0.00     0.031 C 
ATOM     48  C   UNL A   1      41.191  27.029  28.922  1.00  0.00     0.029 A 
ATOM     49  N   UNL A   1      43.307  27.426  28.321  1.00  0.00    -0.354 N 
ATOM     50  C   UNL A   1      44.999  31.388  28.619  1.00  0.00     0.074 A 
ATOM     51  C   UNL A   1      44.034  32.329  29.147  1.00  0.00     0.031 C 
ATOM     52  C   UNL A   1      41.696  25.880  28.445  1.00  0.00     0.029 A 
ATOM     53  C   UNL A   1      43.069  26.107  28.007  1.00  0.00     0.049 A 
ATOM     54  H   UNL A   1      44.175  27.865  28.172  1.00  0.00     0.167 HD
ATOM     55  C   UNL A   1      46.270  31.709  28.271  1.00  0.00     0.037 A 
ATOM     56  C   UNL A   1      43.858  25.189  27.415  1.00  0.00     0.037 A 
ATOM     57  C   UNL A   1      47.226  30.766  27.751  1.00  0.00     0.049 A 
ATOM     58  C   UNL A   1      45.259  25.567  27.024  1.00  0.00     0.074 A 
ATOM     59  C   UNL A   1      48.554  30.977  27.423  1.00  0.00     0.029 A 
ATOM     60  N   UNL A   1      46.955  29.433  27.471  1.00  0.00    -0.354 N 
ATOM     61  N   UNL A   1      45.863  26.725  27.145  1.00  0.00    -0.248 NA
ATOM     62  C   UNL A   1      46.092  24.514  26.426  1.00  0.00     0.031 C 
ATOM     63  C   UNL A   1      49.070  29.789  26.896  1.00  0.00     0.029 A 
ATOM     64  C   UNL A   1      48.082  28.818  26.947  1.00  0.00     0.049 A 
ATOM     65  H   UNL A   1      46.089  28.989  27.622  1.00  0.00     0.167 HD
ATOM     66  C   UNL A   1      47.149  26.538  26.651  1.00  0.00     0.074 A 
ATOM     67  C   UNL A   1      47.242  25.149  26.248  1.00  0.00     0.031 C 
ATOM     68  C   UNL A   1      48.160  27.435  26.544  1.00  0.00     0.037 A 
BRANCH  55  69
ATOM     69  C   UNL A   1      46.692  33.144  28.437  1.00  0.00     0.058 A 
ATOM     70  C   UNL A   1      47.233  33.619  29.644  1.00  0.00     0.135 A 
ATOM     71  C   UNL A   1      46.566  34.056  27.376  1.00  0.00     0.135 A 
ATOM     72  F   UNL A   1      47.368  32.795  30.695  1.00  0.00    -0.206 F 
ATOM     73  C   UNL A   1      47.590  34.953  29.807  1.00  0.00     0.059 A 
ATOM     74  C   UNL A   1      46.948  35.389  27.507  1.00  0.00     0.059 A 
ATOM     75  F   UNL A   1      46.060  33.658  26.199  1.00  0.00    -0.206 F 
ATOM     76  C   UNL A   1      47.438  35.833  28.734  1.00  0.00     0.060 A 
BRANCH  76  77
ATOM     77  S   UNL A   1      47.882  37.566  28.971  1.00  0.00     0.124 S 
ATOM     78  O   UNL A   1      49.260  37.580  28.488  1.00  0.00    -0.237 OA
ATOM     79  O   UNL A   1      46.910  38.257  28.130  1.00  0.00    -0.237 OA
ATOM     80  O   UNL A   1      47.719  37.767  30.407  1.00  0.00    -0.744 OA
ENDBRANCH  76  77
ENDBRANCH  55  69
BRANCH  56  81
ATOM     81  C   UNL A   1      43.327  23.822  27.161  1.00  0.00     0.058 A 
ATOM     82  C   UNL A   1      42.836  23.456  25.900  1.00  0.00     0.135 A 
ATOM     83  C   UNL A   1      43.341  22.843  28.168  1.00  0.00     0.135 A 
ATOM     84  F   UNL A   1      42.794  24.360  24.909  1.00  0.00    -0.206 F 
ATOM     85  C   UNL A   1      42.376  22.169  25.644  1.00  0.00     0.059 A 
ATOM     86  C   UNL A   1      42.910  21.542  27.928  1.00  0.00     0.059 A 
ATOM     87  F   UNL A   1      43.817  23.137  29.388  1.00  0.00    -0.206 F 
ATOM     88  C   UNL A   1      42.424  21.216  26.663  1.00  0.00     0.060 A 
BRANCH  88  89
ATOM     89  S   UNL A   1      41.896  19.528  26.297  1.00  0.00     0.124 S 
ATOM     90  O   UNL A   1      40.457  19.701  26.127  1.00  0.00    -0.237 OA
ATOM     91  O   UNL A   1      42.651  19.228  25.084  1.00  0.00    -0.237 OA
ATOM     92  O   UNL A   1      42.307  18.783  27.482  1.00  0.00    -0.744 OA
ENDBRANCH  88  89
ENDBRANCH  56  81
BRANCH  68  93
ATOM     93  C   UNL A   1      49.468  26.944  25.981  1.00  0.00     0.058 A 
ATOM     94  C   UNL A   1      49.754  27.018  24.609  1.00  0.00     0.135 A 
ATOM     95  C   UNL A   1      50.469  26.451  26.834  1.00  0.00     0.135 A 
ATOM     96  F   UNL A   1      48.829  27.474  23.750  1.00  0.00    -0.206 F 
ATOM     97  C   UNL A   1      50.981  26.606  24.099  1.00  0.00     0.059 A 
ATOM     98  C   UNL A   1      51.713  26.059  26.349  1.00  0.00     0.059 A 
ATOM     99  F   UNL A   1      50.251  26.365  28.155  1.00  0.00    -0.206 F 
ATOM    100  C   UNL A   1      51.956  26.132  24.978  1.00  0.00     0.060 A 
BRANCH 100 101
ATOM    101  S   UNL A   1      53.561  25.643  24.309  1.00  0.00     0.124 S 
ATOM    102  O   UNL A   1      53.580  24.215  24.606  1.00  0.00    -0.237 OA
ATOM    103  O   UNL A   1      53.430  25.996  22.898  1.00  0.00    -0.237 OA
ATOM    104  O   UNL A   1      54.508  26.455  25.067  1.00  0.00    -0.744 OA
ENDBRANCH 100 101
ENDBRANCH  68  93
ENDBRANCH  42  43
ENDBRANCH  34  37
ENDBRANCH  32  33
ENDBRANCH  31  32
ENDBRANCH  30  31
ENDBRANCH  29  30
ENDBRANCH   1  29
TORSDOF 22
ENDMDL
MODEL 3
REMARK VINA RESULT:     -10.8      1.900      3.503
REMARK SMILES O=C(COc1ccc(Br)cc1/C=N/Nc1ncccc1[N+](=O)[O-])NCCCCCCNC(=O)c1ccc(-c2c3nc(c(-c4c(F)cc(S(=O)(=O)[O-])cc4F)c4ccc([nH]4)c(-c4c(F)cc(S(=O)(=O)[O-])cc4F)c4nc(c(-c5c(F)cc(S(=O)(=O)[O-])cc5F)c5ccc2[nH]5)C=C4)C=C3)cc1
REMARK SMILES IDX 26 1 25 2 24 3 1 4 2 5 3 7 4 8 5 9 6 10 11 11 7 12 10 13
REMARK SMILES IDX 8 14 9 15 12 16 13 17 14 18 15 20 16 21 20 22 17 23 19 24
REMARK SMILES IDX 18 25 21 26 22 27 23 28 27 29 28 30 29 31 30 32 31 33 32 34
REMARK SMILES IDX 33 36 34 37 35 38 99 39 36 40 98 41 37 42 38 43 39 44 92 45
REMARK SMILES IDX 40 46 97 47 91 48 93 49 41 50 96 51 90 52 89 53 42 55 76 56
REMARK SMILES IDX 55 57 75 58 56 59 59 60 74 61 94 62 57 63 58 64 73 66 95 67
REMARK SMILES IDX 60 68 43 69 44 70 53 71 45 72 46 73 52 74 54 75 47 76 48 77
REMARK SMILES IDX 49 78 50 79 51 80 77 81 78 82 87 83 79 84 80 85 86 86 88 87
REMARK SMILES IDX 81 88 82 89 83 90 84 91 85 92 61 93 62 94 71 95 63 96 64 97
REMARK SMILES IDX 70 98 72 99 65 100 66 101 67 102 68 103 69 104
REMARK H PARENT 24 6 14 19 31 35 93 54 59 65
REMARK Flexibility Score: inf
ROOT
ATOM      1  C   UNL A   1      31.072  27.344  24.110  1.00  0.00     0.021 C 
ENDROOT
BRANCH   1   2
ATOM      2  C   UNL A   1      32.192  27.006  23.132  1.00  0.00     0.116 C 
BRANCH   2   3
ATOM      3  N   UNL A   1      32.994  25.880  23.562  1.00  0.00    -0.353 N 
ATOM      4  O   UNL A   1      31.584  24.235  22.789  1.00  0.00    -0.271 OA
ATOM      5  C   UNL A   1      32.664  24.574  23.262  1.00  0.00     0.257 C 
ATOM      6  H   UNL A   1      33.807  26.053  24.089  1.00  0.00     0.163 HD
BRANCH   5   7
ATOM      7  C   UNL A   1      33.782  23.568  23.563  1.00  0.00     0.329 C 
BRANCH   7   8
ATOM      8  O   UNL A   1      33.648  22.855  24.800  1.00  0.00    -0.483 OA
BRANCH   8   9
ATOM      9  C   UNL A   1      33.593  21.494  24.627  1.00  0.00     0.129 A 
ATOM     10  C   UNL A   1      32.445  20.889  24.105  1.00  0.00     0.048 A 
ATOM     11  C   UNL A   1      34.718  20.702  24.888  1.00  0.00     0.038 A 
ATOM     12  C   UNL A   1      32.404  19.512  23.882  1.00  0.00     0.019 A 
ATOM     13  C   UNL A   1      34.674  19.317  24.676  1.00  0.00     0.029 A 
ATOM     14  C   UNL A   1      33.518  18.732  24.171  1.00  0.00     0.018 A 
ATOM     15  Br  UNL A   1      33.470  16.873  23.838  1.00  0.00    -0.051 Br
BRANCH  11  16
ATOM     16  C   UNL A   1      35.986  21.304  25.339  1.00  0.00     0.145 C 
ATOM     17  N   UNL A   1      37.021  21.348  24.555  1.00  0.00    -0.181 NA
BRANCH  17  18
ATOM     18  N   UNL A   1      38.120  21.999  25.004  1.00  0.00    -0.256 N 
ATOM     19  H   UNL A   1      38.230  22.930  24.705  1.00  0.00     0.192 HD
BRANCH  18  20
ATOM     20  C   UNL A   1      39.112  21.497  25.843  1.00  0.00     0.225 A 
ATOM     21  N   UNL A   1      39.429  20.198  25.598  1.00  0.00    -0.232 NA
ATOM     22  C   UNL A   1      39.812  22.208  26.807  1.00  0.00     0.313 A 
ATOM     23  C   UNL A   1      40.478  19.647  26.250  1.00  0.00     0.114 A 
ATOM     24  C   UNL A   1      40.908  21.638  27.468  1.00  0.00     0.091 A 
ATOM     25  C   UNL A   1      41.256  20.328  27.169  1.00  0.00     0.027 A 
BRANCH  22  26
ATOM     26  N   UNL A   1      39.397  23.524  27.213  1.00  0.00     0.066 N 
ATOM     27  O   UNL A   1      39.894  23.990  28.247  1.00  0.00    -0.258 OA
ATOM     28  O   UNL A   1      38.662  24.139  26.425  1.00  0.00    -0.258 OA
ENDBRANCH  22  26
ENDBRANCH  18  20
ENDBRANCH  17  18
ENDBRANCH  11  16
ENDBRANCH   8   9
ENDBRANCH   7   8
ENDBRANCH   5   7
ENDBRANCH   2   3
ENDBRANCH   1   2
BRANCH   1  29
ATOM     29  C   UNL A   1      31.393  28.487  25.080  1.00  0.00     0.002 C 
BRANCH  29  30
ATOM     30  C   UNL A   1      31.781  28.066  26.499  1.00  0.00     0.002 C 
BRANCH  30  31
ATOM     31  C   UNL A   1      33.274  27.817  26.731  1.00  0.00     0.021 C 
BRANCH  31  32
ATOM     32  C   UNL A   1      34.209  28.874  26.148  1.00  0.00     0.116 C 
BRANCH  32  33
ATOM     33  N   UNL A   1      33.938  30.207  26.663  1.00  0.00    -0.352 N 
ATOM     34  C   UNL A   1      34.598  30.919  27.636  1.00  0.00     0.251 C 
ATOM     35  H   UNL A   1      33.169  30.668  26.253  1.00  0.00     0.163 HD
ATOM     36  O   UNL A   1      34.126  31.975  28.049  1.00  0.00    -0.269 OA
BRANCH  34  37
ATOM     37  C   UNL A   1      35.858  30.395  28.208  1.00  0.00     0.039 A 
ATOM     38  C   UNL A   1      37.073  30.799  27.649  1.00  0.00     0.014 A 
ATOM     39  C   UNL A   1      35.844  29.521  29.299  1.00  0.00     0.014 A 
ATOM     40  C   UNL A   1      38.275  30.391  28.234  1.00  0.00     0.010 A 
ATOM     41  C   UNL A   1      37.041  29.173  29.921  1.00  0.00     0.010 A 
ATOM     42  C   UNL A   1      38.267  29.612  29.402  1.00  0.00    -0.014 A 
BRANCH  42  43
ATOM     43  C   UNL A   1      39.529  29.278  30.115  1.00  0.00     0.031 A 
ATOM     44  C   UNL A   1      39.928  30.030  31.354  1.00  0.00     0.074 A 
ATOM     45  C   UNL A   1      40.358  28.351  29.595  1.00  0.00     0.049 A 
ATOM     46  N   UNL A   1      41.027  29.937  32.059  1.00  0.00    -0.248 NA
ATOM     47  C   UNL A   1      38.978  31.037  31.850  1.00  0.00     0.031 C 
ATOM     48  C   UNL A   1      40.110  27.592  28.366  1.00  0.00     0.029 A 
ATOM     49  N   UNL A   1      41.584  27.902  30.019  1.00  0.00    -0.354 N 
ATOM     50  C   UNL A   1      40.906  30.878  33.075  1.00  0.00     0.074 A 
ATOM     51  C   UNL A   1      39.651  31.568  32.861  1.00  0.00     0.031 C 
ATOM     52  C   UNL A   1      41.148  26.770  28.141  1.00  0.00     0.029 A 
ATOM     53  C   UNL A   1      42.151  26.969  29.182  1.00  0.00     0.049 A 
ATOM     54  H   UNL A   1      42.018  28.218  30.844  1.00  0.00     0.167 HD
ATOM     55  C   UNL A   1      41.752  31.129  34.104  1.00  0.00     0.037 A 
ATOM     56  C   UNL A   1      43.351  26.358  29.232  1.00  0.00     0.037 A 
ATOM     57  C   UNL A   1      42.996  30.434  34.312  1.00  0.00     0.049 A 
ATOM     58  C   UNL A   1      44.281  26.658  30.374  1.00  0.00     0.074 A 
ATOM     59  C   UNL A   1      43.896  30.572  35.355  1.00  0.00     0.029 A 
ATOM     60  N   UNL A   1      43.524  29.476  33.456  1.00  0.00    -0.354 N 
ATOM     61  N   UNL A   1      44.116  27.494  31.371  1.00  0.00    -0.248 NA
ATOM     62  C   UNL A   1      45.556  25.927  30.405  1.00  0.00     0.031 C 
ATOM     63  C   UNL A   1      44.991  29.739  35.103  1.00  0.00     0.029 A 
ATOM     64  C   UNL A   1      44.750  29.038  33.932  1.00  0.00     0.049 A 
ATOM     65  H   UNL A   1      43.091  29.156  32.632  1.00  0.00     0.167 HD
ATOM     66  C   UNL A   1      45.258  27.381  32.156  1.00  0.00     0.074 A 
ATOM     67  C   UNL A   1      46.097  26.381  31.528  1.00  0.00     0.031 C 
ATOM     68  C   UNL A   1      45.580  28.044  33.294  1.00  0.00     0.037 A 
BRANCH  55  69
ATOM     69  C   UNL A   1      41.358  32.207  35.078  1.00  0.00     0.058 A 
ATOM     70  C   UNL A   1      40.492  31.948  36.153  1.00  0.00     0.135 A 
ATOM     71  C   UNL A   1      41.859  33.513  34.944  1.00  0.00     0.135 A 
ATOM     72  F   UNL A   1      39.974  30.722  36.326  1.00  0.00    -0.206 F 
ATOM     73  C   UNL A   1      40.101  32.954  37.032  1.00  0.00     0.059 A 
ATOM     74  C   UNL A   1      41.507  34.526  35.831  1.00  0.00     0.059 A 
ATOM     75  F   UNL A   1      42.694  33.816  33.938  1.00  0.00    -0.206 F 
ATOM     76  C   UNL A   1      40.609  34.242  36.858  1.00  0.00     0.060 A 
BRANCH  76  77
ATOM     77  S   UNL A   1      40.072  35.540  37.991  1.00  0.00     0.124 S 
ATOM     78  O   UNL A   1      38.843  34.964  38.530  1.00  0.00    -0.237 OA
ATOM     79  O   UNL A   1      41.191  35.626  38.923  1.00  0.00    -0.237 OA
ATOM     80  O   UNL A   1      39.893  36.699  37.123  1.00  0.00    -0.744 OA
ENDBRANCH  76  77
ENDBRANCH  55  69
BRANCH  56  81
ATOM     81  C   UNL A   1      43.729  25.398  28.159  1.00  0.00     0.058 A 
ATOM     82  C   UNL A   1      44.328  25.837  26.970  1.00  0.00     0.135 A 
ATOM     83  C   UNL A   1      43.536  24.017  28.324  1.00  0.00     0.135 A 
ATOM     84  F   UNL A   1      44.526  27.148  26.763  1.00  0.00    -0.206 F 
ATOM     85  C   UNL A   1      44.721  24.943  25.980  1.00  0.00     0.059 A 
ATOM     86  C   UNL A   1      43.944  23.101  27.359  1.00  0.00     0.059 A 
ATOM     87  F   UNL A   1      42.982  23.543  29.451  1.00  0.00    -0.206 F 
ATOM     88  C   UNL A   1      44.532  23.575  26.187  1.00  0.00     0.060 A 
BRANCH  88  89
ATOM     89  S   UNL A   1      45.116  22.419  24.929  1.00  0.00     0.124 S 
ATOM     90  O   UNL A   1      45.384  23.314  23.808  1.00  0.00    -0.237 OA
ATOM     91  O   UNL A   1      46.287  21.833  25.573  1.00  0.00    -0.237 OA
ATOM     92  O   UNL A   1      43.986  21.512  24.756  1.00  0.00    -0.744 OA
ENDBRANCH  88  89
ENDBRANCH  56  81
BRANCH  68  93
ATOM     93  C   UNL A   1      46.891  27.703  33.950  1.00  0.00     0.058 A 
ATOM     94  C   UNL A   1      48.068  28.409  33.657  1.00  0.00     0.135 A 
ATOM     95  C   UNL A   1      46.957  26.697  34.928  1.00  0.00     0.135 A 
ATOM     96  F   UNL A   1      48.062  29.376  32.725  1.00  0.00    -0.206 F 
ATOM     97  C   UNL A   1      49.268  28.121  34.300  1.00  0.00     0.059 A 
ATOM     98  C   UNL A   1      48.139  26.410  35.602  1.00  0.00     0.059 A 
ATOM     99  F   UNL A   1      45.860  25.995  35.251  1.00  0.00    -0.206 F 
ATOM    100  C   UNL A   1      49.293  27.122  35.275  1.00  0.00     0.060 A 
BRANCH 100 101
ATOM    101  S   UNL A   1      50.845  26.789  36.134  1.00  0.00     0.124 S 
ATOM    102  O   UNL A   1      51.217  25.492  35.577  1.00  0.00    -0.237 OA
ATOM    103  O   UNL A   1      51.677  27.917  35.723  1.00  0.00    -0.237 OA
ATOM    104  O   UNL A   1      50.462  26.782  37.542  1.00  0.00    -0.744 OA
ENDBRANCH 100 101
ENDBRANCH  68  93
ENDBRANCH  42  43
ENDBRANCH  34  37
ENDBRANCH  32  33
ENDBRANCH  31  32
ENDBRANCH  30  31
ENDBRANCH  29  30
ENDBRANCH   1  29
TORSDOF 22
ENDMDL
