MODEL 1
REMARK VINA RESULT:     -12.0      0.000      0.000
REMARK SMILES CCCC(=O)Nc1cccc(C(=O)N[C@@H](C(=O)NCCCCCCNC(=O)c2ccc(-c3c4nc(c(-c5c(F)cc(S(=O)(=O)[O-])cc5F)c5ccc([nH]5)c(-c5c(F)cc(S(=O)(=O)[O-])cc5F)c5nc(c(-c6c(F)cc(S(=O)(=O)[O-])cc6F)c6ccc3[nH]6)C=C5)C=C4)cc2)c2c(C)n[nH]c2C)c1
REMARK SMILES IDX 20 1 19 2 18 3 16 4 17 5 15 7 14 8 12 9 13 10 11 12 7 13
REMARK SMILES IDX 8 14 101 15 9 16 10 17 6 18 4 19 5 20 3 22 2 23 1 24 94 25
REMARK SMILES IDX 95 26 99 27 96 28 97 29 98 30 100 31 21 33 22 34 23 35 24 36
REMARK SMILES IDX 25 37 26 38 27 40 28 41 29 42 93 43 30 44 92 45 31 46 32 47
REMARK SMILES IDX 33 48 86 49 34 50 91 51 85 52 87 53 35 54 90 55 84 56 83 57
REMARK SMILES IDX 36 59 70 60 49 61 69 62 50 63 53 64 68 65 88 66 51 67 52 68
REMARK SMILES IDX 67 70 89 71 54 72 37 73 38 74 47 75 39 76 40 77 46 78 48 79
REMARK SMILES IDX 41 80 42 81 43 82 44 83 45 84 71 85 72 86 81 87 73 88 74 89
REMARK SMILES IDX 80 90 82 91 75 92 76 93 77 94 78 95 79 96 55 97 56 98 65 99
REMARK SMILES IDX 57 100 58 101 64 102 66 103 59 104 60 105 61 106 62 107
REMARK SMILES IDX 63 108
REMARK H PARENT 18 6 14 11 6 21 98 32 25 39 87 58 53 69
REMARK Flexibility Score: inf
ROOT
ATOM      1  C   UNL A   1      34.324  28.748  27.230  1.00  0.00     0.021 C 
ENDROOT
BRANCH   1   2
ATOM      2  C   UNL A   1      33.255  27.771  26.757  1.00  0.00     0.116 C 
BRANCH   2   3
ATOM      3  N   UNL A   1      32.875  28.065  25.396  1.00  0.00    -0.354 N 
ATOM      4  C   UNL A   1      32.793  27.226  24.322  1.00  0.00     0.247 C 
ATOM      5  O   UNL A   1      32.516  27.752  23.241  1.00  0.00    -0.272 OA
ATOM      6  H   UNL A   1      32.642  29.006  25.218  1.00  0.00     0.163 HD
BRANCH   4   7
ATOM      7  C   UNL A   1      32.858  25.682  24.537  1.00  0.00     0.206 C 
BRANCH   7   8
ATOM      8  N   UNL A   1      32.995  24.918  23.285  1.00  0.00    -0.336 N 
ATOM      9  C   UNL A   1      33.560  23.743  22.848  1.00  0.00     0.252 C 
ATOM     10  O   UNL A   1      33.501  23.556  21.628  1.00  0.00    -0.269 OA
ATOM     11  H   UNL A   1      32.549  25.386  22.542  1.00  0.00     0.165 HD
BRANCH   9  12
ATOM     12  C   UNL A   1      34.236  22.687  23.676  1.00  0.00     0.041 A 
ATOM     13  C   UNL A   1      34.275  20.701  25.093  1.00  0.00     0.041 A 
ATOM     14  C   UNL A   1      35.660  20.699  25.136  1.00  0.00     0.026 A 
ATOM     15  C   UNL A   1      33.583  21.722  24.432  1.00  0.00     0.040 A 
ATOM     16  C   UNL A   1      36.347  21.670  24.412  1.00  0.00     0.003 A 
ATOM     17  C   UNL A   1      35.643  22.642  23.678  1.00  0.00     0.014 A 
BRANCH  13  18
ATOM     18  N   UNL A   1      33.533  19.696  25.725  1.00  0.00    -0.326 N 
ATOM     19  C   UNL A   1      33.160  18.521  25.110  1.00  0.00     0.224 C 
ATOM     20  O   UNL A   1      32.078  17.993  25.362  1.00  0.00    -0.275 OA
ATOM     21  H   UNL A   1      33.265  19.836  26.662  1.00  0.00     0.169 HD
BRANCH  19  22
ATOM     22  C   UNL A   1      34.200  17.855  24.206  1.00  0.00     0.100 C 
BRANCH  22  23
ATOM     23  C   UNL A   1      34.301  16.337  24.307  1.00  0.00     0.006 C 
ATOM     24  C   UNL A   1      35.399  15.842  25.242  1.00  0.00     0.004 C 
ENDBRANCH  22  23
ENDBRANCH  19  22
ENDBRANCH  13  18
ENDBRANCH   9  12
ENDBRANCH   7   8
BRANCH   7  25
ATOM     25  C   UNL A   1      31.677  25.198  25.343  1.00  0.00     0.027 A 
ATOM     26  C   UNL A   1      31.759  24.329  26.485  1.00  0.00     0.065 A 
ATOM     27  C   UNL A   1      30.326  25.505  25.264  1.00  0.00     0.038 A 
ATOM     28  C   UNL A   1      32.973  23.784  27.156  1.00  0.00     0.069 C 
ATOM     29  N   UNL A   1      30.552  24.027  26.972  1.00  0.00    -0.180 NA
ATOM     30  N   UNL A   1      29.712  24.752  26.227  1.00  0.00    -0.282 N 
ATOM     31  C   UNL A   1      29.548  26.441  24.421  1.00  0.00     0.066 C 
ATOM     32  H   UNL A   1      28.736  24.745  26.360  1.00  0.00     0.190 HD
ENDBRANCH   7  25
ENDBRANCH   4   7
ENDBRANCH   2   3
ENDBRANCH   1   2
BRANCH   1  33
ATOM     33  C   UNL A   1      33.929  30.202  26.959  1.00  0.00     0.002 C 
BRANCH  33  34
ATOM     34  C   UNL A   1      34.498  31.199  27.977  1.00  0.00     0.002 C 
BRANCH  34  35
ATOM     35  C   UNL A   1      34.289  32.669  27.601  1.00  0.00     0.021 C 
BRANCH  35  36
ATOM     36  C   UNL A   1      32.836  33.122  27.695  1.00  0.00     0.116 C 
BRANCH  36  37
ATOM     37  N   UNL A   1      32.748  34.538  28.020  1.00  0.00    -0.352 N 
ATOM     38  C   UNL A   1      33.326  35.224  29.055  1.00  0.00     0.251 C 
ATOM     39  H   UNL A   1      32.196  35.078  27.409  1.00  0.00     0.163 HD
ATOM     40  O   UNL A   1      32.932  36.345  29.350  1.00  0.00    -0.269 OA
BRANCH  38  41
ATOM     41  C   UNL A   1      34.427  34.590  29.806  1.00  0.00     0.039 A 
ATOM     42  C   UNL A   1      34.134  33.862  30.958  1.00  0.00     0.014 A 
ATOM     43  C   UNL A   1      35.746  34.727  29.364  1.00  0.00     0.014 A 
ATOM     44  C   UNL A   1      35.167  33.231  31.650  1.00  0.00     0.010 A 
ATOM     45  C   UNL A   1      36.764  34.038  30.011  1.00  0.00     0.010 A 
ATOM     46  C   UNL A   1      36.485  33.293  31.166  1.00  0.00    -0.014 A 
BRANCH  46  47
ATOM     47  C   UNL A   1      37.591  32.592  31.860  1.00  0.00     0.031 A 
ATOM     48  C   UNL A   1      38.099  33.112  33.175  1.00  0.00     0.074 A 
ATOM     49  C   UNL A   1      38.175  31.532  31.271  1.00  0.00     0.049 A 
ATOM     50  N   UNL A   1      39.099  32.683  33.901  1.00  0.00    -0.248 NA
ATOM     51  C   UNL A   1      37.412  34.288  33.736  1.00  0.00     0.031 C 
ATOM     52  C   UNL A   1      37.798  30.972  29.970  1.00  0.00     0.029 A 
ATOM     53  N   UNL A   1      39.217  30.740  31.682  1.00  0.00    -0.354 N 
ATOM     54  C   UNL A   1      39.168  33.539  34.993  1.00  0.00     0.074 A 
ATOM     55  C   UNL A   1      38.147  34.547  34.807  1.00  0.00     0.031 C 
ATOM     56  C   UNL A   1      38.584  29.918  29.700  1.00  0.00     0.029 A 
ATOM     57  C   UNL A   1      39.543  29.750  30.787  1.00  0.00     0.049 A 
ATOM     58  H   UNL A   1      39.687  30.871  32.537  1.00  0.00     0.167 HD
ATOM     59  C   UNL A   1      39.992  33.476  36.066  1.00  0.00     0.037 A 
ATOM     60  C   UNL A   1      40.513  28.816  30.835  1.00  0.00     0.037 A 
ATOM     61  C   UNL A   1      40.989  32.454  36.251  1.00  0.00     0.049 A 
ATOM     62  C   UNL A   1      41.415  28.764  32.037  1.00  0.00     0.074 A 
ATOM     63  C   UNL A   1      41.837  32.264  37.327  1.00  0.00     0.029 A 
ATOM     64  N   UNL A   1      41.275  31.452  35.334  1.00  0.00    -0.354 N 
ATOM     65  N   UNL A   1      41.425  29.542  33.094  1.00  0.00    -0.248 NA
ATOM     66  C   UNL A   1      42.434  27.705  32.059  1.00  0.00     0.031 C 
ATOM     67  C   UNL A   1      42.666  31.174  37.042  1.00  0.00     0.029 A 
ATOM     68  C   UNL A   1      42.299  30.652  35.812  1.00  0.00     0.049 A 
ATOM     69  H   UNL A   1      40.815  31.327  34.473  1.00  0.00     0.167 HD
ATOM     70  C   UNL A   1      42.431  29.050  33.918  1.00  0.00     0.074 A 
ATOM     71  C   UNL A   1      42.999  27.901  33.242  1.00  0.00     0.031 C 
ATOM     72  C   UNL A   1      42.847  29.508  35.125  1.00  0.00     0.037 A 
BRANCH  59  73
ATOM     73  C   UNL A   1      39.844  34.536  37.123  1.00  0.00     0.058 A 
ATOM     74  C   UNL A   1      40.589  35.726  37.084  1.00  0.00     0.135 A 
ATOM     75  C   UNL A   1      38.926  34.374  38.173  1.00  0.00     0.135 A 
ATOM     76  F   UNL A   1      41.493  35.926  36.111  1.00  0.00    -0.206 F 
ATOM     77  C   UNL A   1      40.452  36.704  38.064  1.00  0.00     0.059 A 
ATOM     78  C   UNL A   1      38.751  35.353  39.149  1.00  0.00     0.059 A 
ATOM     79  F   UNL A   1      38.188  33.257  38.261  1.00  0.00    -0.206 F 
ATOM     80  C   UNL A   1      39.531  36.507  39.093  1.00  0.00     0.060 A 
BRANCH  80  81
ATOM     81  S   UNL A   1      39.363  37.788  40.354  1.00  0.00     0.124 S 
ATOM     82  O   UNL A   1      39.246  36.986  41.568  1.00  0.00    -0.237 OA
ATOM     83  O   UNL A   1      40.606  38.537  40.206  1.00  0.00    -0.237 OA
ATOM     84  O   UNL A   1      38.153  38.501  39.955  1.00  0.00    -0.744 OA
ENDBRANCH  80  81
ENDBRANCH  59  73
BRANCH  60  85
ATOM     85  C   UNL A   1      40.663  27.846  29.718  1.00  0.00     0.058 A 
ATOM     86  C   UNL A   1      41.712  27.965  28.794  1.00  0.00     0.135 A 
ATOM     87  C   UNL A   1      39.776  26.769  29.565  1.00  0.00     0.135 A 
ATOM     88  F   UNL A   1      42.584  28.979  28.896  1.00  0.00    -0.206 F 
ATOM     89  C   UNL A   1      41.867  27.061  27.748  1.00  0.00     0.059 A 
ATOM     90  C   UNL A   1      39.926  25.838  28.542  1.00  0.00     0.059 A 
ATOM     91  F   UNL A   1      38.768  26.599  30.434  1.00  0.00    -0.206 F 
ATOM     92  C   UNL A   1      40.969  25.998  27.632  1.00  0.00     0.060 A 
BRANCH  92  93
ATOM     93  S   UNL A   1      41.208  24.802  26.301  1.00  0.00     0.124 S 
ATOM     94  O   UNL A   1      40.023  23.963  26.445  1.00  0.00    -0.237 OA
ATOM     95  O   UNL A   1      41.245  25.660  25.121  1.00  0.00    -0.237 OA
ATOM     96  O   UNL A   1      42.477  24.168  26.645  1.00  0.00    -0.744 OA
ENDBRANCH  92  93
ENDBRANCH  60  85
BRANCH  72  97
ATOM     97  C   UNL A   1      43.950  28.748  35.810  1.00  0.00     0.058 A 
ATOM     98  C   UNL A   1      45.298  29.101  35.651  1.00  0.00     0.135 A 
ATOM     99  C   UNL A   1      43.646  27.688  36.680  1.00  0.00     0.135 A 
ATOM    100  F   UNL A   1      45.642  30.100  34.825  1.00  0.00    -0.206 F 
ATOM    101  C   UNL A   1      46.310  28.415  36.314  1.00  0.00     0.059 A 
ATOM    102  C   UNL A   1      44.638  27.008  37.376  1.00  0.00     0.059 A 
ATOM    103  F   UNL A   1      42.369  27.317  36.875  1.00  0.00    -0.206 F 
ATOM    104  C   UNL A   1      45.970  27.370  37.177  1.00  0.00     0.060 A 
BRANCH 104 105
ATOM    105  S   UNL A   1      47.289  26.513  38.061  1.00  0.00     0.124 S 
ATOM    106  O   UNL A   1      47.820  25.639  37.020  1.00  0.00    -0.237 OA
ATOM    107  O   UNL A   1      48.159  27.613  38.468  1.00  0.00    -0.237 OA
ATOM    108  O   UNL A   1      46.589  25.840  39.150  1.00  0.00    -0.744 OA
ENDBRANCH 104 105
ENDBRANCH  72  97
ENDBRANCH  46  47
ENDBRANCH  38  41
ENDBRANCH  36  37
ENDBRANCH  35  36
ENDBRANCH  34  35
ENDBRANCH  33  34
ENDBRANCH   1  33
TORSDOF 22
ENDMDL
MODEL 2
REMARK VINA RESULT:     -12.0      6.118     10.677
REMARK SMILES CCCC(=O)Nc1cccc(C(=O)N[C@@H](C(=O)NCCCCCCNC(=O)c2ccc(-c3c4nc(c(-c5c(F)cc(S(=O)(=O)[O-])cc5F)c5ccc([nH]5)c(-c5c(F)cc(S(=O)(=O)[O-])cc5F)c5nc(c(-c6c(F)cc(S(=O)(=O)[O-])cc6F)c6ccc3[nH]6)C=C5)C=C4)cc2)c2c(C)n[nH]c2C)c1
REMARK SMILES IDX 20 1 19 2 18 3 16 4 17 5 15 7 14 8 12 9 13 10 11 12 7 13
REMARK SMILES IDX 8 14 101 15 9 16 10 17 6 18 4 19 5 20 3 22 2 23 1 24 94 25
REMARK SMILES IDX 95 26 99 27 96 28 97 29 98 30 100 31 21 33 22 34 23 35 24 36
REMARK SMILES IDX 25 37 26 38 27 40 28 41 29 42 93 43 30 44 92 45 31 46 32 47
REMARK SMILES IDX 33 48 86 49 34 50 91 51 85 52 87 53 35 54 90 55 84 56 83 57
REMARK SMILES IDX 36 59 70 60 49 61 69 62 50 63 53 64 68 65 88 66 51 67 52 68
REMARK SMILES IDX 67 70 89 71 54 72 37 73 38 74 47 75 39 76 40 77 46 78 48 79
REMARK SMILES IDX 41 80 42 81 43 82 44 83 45 84 71 85 72 86 81 87 73 88 74 89
REMARK SMILES IDX 80 90 82 91 75 92 76 93 77 94 78 95 79 96 55 97 56 98 65 99
REMARK SMILES IDX 57 100 58 101 64 102 66 103 59 104 60 105 61 106 62 107
REMARK SMILES IDX 63 108
REMARK H PARENT 18 6 14 11 6 21 98 32 25 39 87 58 53 69
REMARK Flexibility Score: inf
ROOT
ATOM      1  C   UNL A   1      36.613  22.720  24.197  1.00  0.00     0.021 C 
ENDROOT
BRANCH   1   2
ATOM      2  C   UNL A   1      35.968  23.743  25.122  1.00  0.00     0.116 C 
BRANCH   2   3
ATOM      3  N   UNL A   1      35.053  23.092  26.028  1.00  0.00    -0.354 N 
ATOM      4  C   UNL A   1      33.736  23.361  26.266  1.00  0.00     0.247 C 
ATOM      5  O   UNL A   1      33.197  22.699  27.157  1.00  0.00    -0.272 OA
ATOM      6  H   UNL A   1      35.433  22.347  26.548  1.00  0.00     0.163 HD
BRANCH   4   7
ATOM      7  C   UNL A   1      32.953  24.315  25.310  1.00  0.00     0.206 C 
BRANCH   7   8
ATOM      8  N   UNL A   1      31.586  24.618  25.768  1.00  0.00    -0.336 N 
ATOM      9  C   UNL A   1      30.799  25.718  26.014  1.00  0.00     0.252 C 
ATOM     10  O   UNL A   1      29.694  25.470  26.508  1.00  0.00    -0.269 OA
ATOM     11  H   UNL A   1      31.090  23.788  25.954  1.00  0.00     0.165 HD
BRANCH   9  12
ATOM     12  C   UNL A   1      31.134  27.161  25.760  1.00  0.00     0.041 A 
ATOM     13  C   UNL A   1      31.304  29.163  24.376  1.00  0.00     0.041 A 
ATOM     14  C   UNL A   1      31.725  29.929  25.449  1.00  0.00     0.026 A 
ATOM     15  C   UNL A   1      31.083  27.789  24.522  1.00  0.00     0.040 A 
ATOM     16  C   UNL A   1      31.815  29.324  26.701  1.00  0.00     0.003 A 
ATOM     17  C   UNL A   1      31.507  27.961  26.856  1.00  0.00     0.014 A 
BRANCH  13  18
ATOM     18  N   UNL A   1      31.106  29.737  23.114  1.00  0.00    -0.326 N 
ATOM     19  C   UNL A   1      29.876  29.838  22.504  1.00  0.00     0.224 C 
ATOM     20  O   UNL A   1      29.764  29.720  21.285  1.00  0.00    -0.275 OA
ATOM     21  H   UNL A   1      31.892  30.091  22.637  1.00  0.00     0.169 HD
BRANCH  19  22
ATOM     22  C   UNL A   1      28.693  30.220  23.397  1.00  0.00     0.100 C 
BRANCH  22  23
ATOM     23  C   UNL A   1      28.578  31.697  23.760  1.00  0.00     0.006 C 
ATOM     24  C   UNL A   1      28.823  32.650  22.595  1.00  0.00     0.004 C 
ENDBRANCH  22  23
ENDBRANCH  19  22
ENDBRANCH  13  18
ENDBRANCH   9  12
ENDBRANCH   7   8
BRANCH   7  25
ATOM     25  C   UNL A   1      32.947  23.781  23.898  1.00  0.00     0.027 A 
ATOM     26  C   UNL A   1      33.279  24.543  22.726  1.00  0.00     0.065 A 
ATOM     27  C   UNL A   1      32.729  22.502  23.404  1.00  0.00     0.038 A 
ATOM     28  C   UNL A   1      33.754  25.953  22.637  1.00  0.00     0.069 C 
ATOM     29  N   UNL A   1      33.142  23.827  21.607  1.00  0.00    -0.180 NA
ATOM     30  N   UNL A   1      32.820  22.605  22.043  1.00  0.00    -0.282 N 
ATOM     31  C   UNL A   1      32.481  21.195  24.052  1.00  0.00     0.066 C 
ATOM     32  H   UNL A   1      32.662  21.845  21.437  1.00  0.00     0.190 HD
ENDBRANCH   7  25
ENDBRANCH   4   7
ENDBRANCH   2   3
ENDBRANCH   1   2
BRANCH   1  33
ATOM     33  C   UNL A   1      36.202  21.289  24.554  1.00  0.00     0.002 C 
BRANCH  33  34
ATOM     34  C   UNL A   1      37.387  20.349  24.813  1.00  0.00     0.002 C 
BRANCH  34  35
ATOM     35  C   UNL A   1      38.709  21.070  25.097  1.00  0.00     0.021 C 
BRANCH  35  36
ATOM     36  C   UNL A   1      39.332  20.696  26.437  1.00  0.00     0.116 C 
BRANCH  36  37
ATOM     37  N   UNL A   1      40.339  19.657  26.276  1.00  0.00    -0.352 N 
ATOM     38  C   UNL A   1      41.689  19.786  26.084  1.00  0.00     0.251 C 
ATOM     39  H   UNL A   1      40.002  18.733  26.310  1.00  0.00     0.163 HD
ATOM     40  O   UNL A   1      42.351  18.834  25.689  1.00  0.00    -0.269 OA
BRANCH  38  41
ATOM     41  C   UNL A   1      42.330  21.085  26.361  1.00  0.00     0.039 A 
ATOM     42  C   UNL A   1      42.573  21.963  25.304  1.00  0.00     0.014 A 
ATOM     43  C   UNL A   1      42.690  21.425  27.668  1.00  0.00     0.014 A 
ATOM     44  C   UNL A   1      43.144  23.207  25.566  1.00  0.00     0.010 A 
ATOM     45  C   UNL A   1      43.191  22.693  27.936  1.00  0.00     0.010 A 
ATOM     46  C   UNL A   1      43.433  23.590  26.888  1.00  0.00    -0.014 A 
BRANCH  46  47
ATOM     47  C   UNL A   1      43.998  24.927  27.193  1.00  0.00     0.031 A 
ATOM     48  C   UNL A   1      43.098  26.026  27.681  1.00  0.00     0.074 A 
ATOM     49  C   UNL A   1      45.304  25.160  26.965  1.00  0.00     0.049 A 
ATOM     50  N   UNL A   1      43.387  27.276  27.935  1.00  0.00    -0.248 NA
ATOM     51  C   UNL A   1      41.680  25.685  27.884  1.00  0.00     0.031 C 
ATOM     52  C   UNL A   1      46.261  24.180  26.442  1.00  0.00     0.029 A 
ATOM     53  N   UNL A   1      46.053  26.296  27.133  1.00  0.00    -0.354 N 
ATOM     54  C   UNL A   1      42.190  27.871  28.315  1.00  0.00     0.074 A 
ATOM     55  C   UNL A   1      41.160  26.861  28.203  1.00  0.00     0.031 C 
ATOM     56  C   UNL A   1      47.471  24.753  26.350  1.00  0.00     0.029 A 
ATOM     57  C   UNL A   1      47.370  26.147  26.770  1.00  0.00     0.049 A 
ATOM     58  H   UNL A   1      45.681  27.140  27.479  1.00  0.00     0.167 HD
ATOM     59  C   UNL A   1      41.974  29.138  28.741  1.00  0.00     0.037 A 
ATOM     60  C   UNL A   1      48.380  27.038  26.769  1.00  0.00     0.037 A 
ATOM     61  C   UNL A   1      43.011  30.128  28.869  1.00  0.00     0.049 A 
ATOM     62  C   UNL A   1      48.117  28.439  27.248  1.00  0.00     0.074 A 
ATOM     63  C   UNL A   1      42.910  31.423  29.344  1.00  0.00     0.029 A 
ATOM     64  N   UNL A   1      44.339  29.933  28.516  1.00  0.00    -0.354 N 
ATOM     65  N   UNL A   1      46.992  28.969  27.667  1.00  0.00    -0.248 NA
ATOM     66  C   UNL A   1      49.259  29.363  27.263  1.00  0.00     0.031 C 
ATOM     67  C   UNL A   1      44.168  32.026  29.238  1.00  0.00     0.029 A 
ATOM     68  C   UNL A   1      45.064  31.091  28.745  1.00  0.00     0.049 A 
ATOM     69  H   UNL A   1      44.711  29.096  28.157  1.00  0.00     0.167 HD
ATOM     70  C   UNL A   1      47.296  30.278  28.019  1.00  0.00     0.074 A 
ATOM     71  C   UNL A   1      48.713  30.456  27.776  1.00  0.00     0.031 C 
ATOM     72  C   UNL A   1      46.477  31.246  28.501  1.00  0.00     0.037 A 
BRANCH  59  73
ATOM     73  C   UNL A   1      40.565  29.521  29.105  1.00  0.00     0.058 A 
ATOM     74  C   UNL A   1      39.580  29.726  28.125  1.00  0.00     0.135 A 
ATOM     75  C   UNL A   1      40.187  29.658  30.450  1.00  0.00     0.135 A 
ATOM     76  F   UNL A   1      39.889  29.625  26.823  1.00  0.00    -0.206 F 
ATOM     77  C   UNL A   1      38.278  30.083  28.465  1.00  0.00     0.059 A 
ATOM     78  C   UNL A   1      38.883  29.985  30.814  1.00  0.00     0.059 A 
ATOM     79  F   UNL A   1      41.088  29.475  31.428  1.00  0.00    -0.206 F 
ATOM     80  C   UNL A   1      37.940  30.210  29.812  1.00  0.00     0.060 A 
BRANCH  80  81
ATOM     81  S   UNL A   1      36.246  30.669  30.235  1.00  0.00     0.124 S 
ATOM     82  O   UNL A   1      36.095  30.045  31.546  1.00  0.00    -0.237 OA
ATOM     83  O   UNL A   1      36.306  32.127  30.230  1.00  0.00    -0.237 OA
ATOM     84  O   UNL A   1      35.455  30.073  29.163  1.00  0.00    -0.744 OA
ENDBRANCH  80  81
ENDBRANCH  59  73
BRANCH  60  85
ATOM     85  C   UNL A   1      49.735  26.622  26.317  1.00  0.00     0.058 A 
ATOM     86  C   UNL A   1      50.626  25.988  27.195  1.00  0.00     0.135 A 
ATOM     87  C   UNL A   1      50.156  26.829  24.995  1.00  0.00     0.135 A 
ATOM     88  F   UNL A   1      50.271  25.771  28.470  1.00  0.00    -0.206 F 
ATOM     89  C   UNL A   1      51.894  25.589  26.784  1.00  0.00     0.059 A 
ATOM     90  C   UNL A   1      51.409  26.415  24.553  1.00  0.00     0.059 A 
ATOM     91  F   UNL A   1      49.334  27.412  24.109  1.00  0.00    -0.206 F 
ATOM     92  C   UNL A   1      52.275  25.805  25.458  1.00  0.00     0.060 A 
BRANCH  92  93
ATOM     93  S   UNL A   1      53.903  25.238  24.921  1.00  0.00     0.124 S 
ATOM     94  O   UNL A   1      54.015  25.871  23.611  1.00  0.00    -0.237 OA
ATOM     95  O   UNL A   1      54.773  25.770  25.965  1.00  0.00    -0.237 OA
ATOM     96  O   UNL A   1      53.764  23.786  24.911  1.00  0.00    -0.744 OA
ENDBRANCH  92  93
ENDBRANCH  60  85
BRANCH  72  97
ATOM     97  C   UNL A   1      47.097  32.577  28.828  1.00  0.00     0.058 A 
ATOM     98  C   UNL A   1      47.113  33.630  27.902  1.00  0.00     0.135 A 
ATOM     99  C   UNL A   1      47.631  32.816  30.105  1.00  0.00     0.135 A 
ATOM    100  F   UNL A   1      46.624  33.452  26.665  1.00  0.00    -0.206 F 
ATOM    101  C   UNL A   1      47.658  34.869  28.222  1.00  0.00     0.059 A 
ATOM    102  C   UNL A   1      48.154  34.055  30.457  1.00  0.00     0.059 A 
ATOM    103  F   UNL A   1      47.630  31.843  31.032  1.00  0.00    -0.206 F 
ATOM    104  C   UNL A   1      48.174  35.073  29.505  1.00  0.00     0.060 A 
BRANCH 104 105
ATOM    105  S   UNL A   1      48.843  36.696  29.921  1.00  0.00     0.124 S 
ATOM    106  O   UNL A   1      48.533  36.785  31.344  1.00  0.00    -0.237 OA
ATOM    107  O   UNL A   1      50.257  36.546  29.589  1.00  0.00    -0.237 OA
ATOM    108  O   UNL A   1      48.096  37.605  29.057  1.00  0.00    -0.744 OA
ENDBRANCH 104 105
ENDBRANCH  72  97
ENDBRANCH  46  47
ENDBRANCH  38  41
ENDBRANCH  36  37
ENDBRANCH  35  36
ENDBRANCH  34  35
ENDBRANCH  33  34
ENDBRANCH   1  33
TORSDOF 22
ENDMDL
MODEL 3
REMARK VINA RESULT:     -11.9      2.338      8.975
REMARK SMILES CCCC(=O)Nc1cccc(C(=O)N[C@@H](C(=O)NCCCCCCNC(=O)c2ccc(-c3c4nc(c(-c5c(F)cc(S(=O)(=O)[O-])cc5F)c5ccc([nH]5)c(-c5c(F)cc(S(=O)(=O)[O-])cc5F)c5nc(c(-c6c(F)cc(S(=O)(=O)[O-])cc6F)c6ccc3[nH]6)C=C5)C=C4)cc2)c2c(C)n[nH]c2C)c1
REMARK SMILES IDX 20 1 19 2 18 3 16 4 17 5 15 7 14 8 12 9 13 10 11 12 7 13
REMARK SMILES IDX 8 14 101 15 9 16 10 17 6 18 4 19 5 20 3 22 2 23 1 24 94 25
REMARK SMILES IDX 95 26 99 27 96 28 97 29 98 30 100 31 21 33 22 34 23 35 24 36
REMARK SMILES IDX 25 37 26 38 27 40 28 41 29 42 93 43 30 44 92 45 31 46 32 47
REMARK SMILES IDX 33 48 86 49 34 50 91 51 85 52 87 53 35 54 90 55 84 56 83 57
REMARK SMILES IDX 36 59 70 60 49 61 69 62 50 63 53 64 68 65 88 66 51 67 52 68
REMARK SMILES IDX 67 70 89 71 54 72 37 73 38 74 47 75 39 76 40 77 46 78 48 79
REMARK SMILES IDX 41 80 42 81 43 82 44 83 45 84 71 85 72 86 81 87 73 88 74 89
REMARK SMILES IDX 80 90 82 91 75 92 76 93 77 94 78 95 79 96 55 97 56 98 65 99
REMARK SMILES IDX 57 100 58 101 64 102 66 103 59 104 60 105 61 106 62 107
REMARK SMILES IDX 63 108
REMARK H PARENT 18 6 14 11 6 21 98 32 25 39 87 58 53 69
REMARK Flexibility Score: inf
ROOT
ATOM      1  C   UNL A   1      37.080  21.811  25.606  1.00  0.00     0.021 C 
ENDROOT
BRANCH   1   2
ATOM      2  C   UNL A   1      36.082  21.405  24.529  1.00  0.00     0.116 C 
BRANCH   2   3
ATOM      3  N   UNL A   1      35.111  20.485  25.069  1.00  0.00    -0.354 N 
ATOM      4  C   UNL A   1      33.898  20.745  25.639  1.00  0.00     0.247 C 
ATOM      5  O   UNL A   1      33.290  19.773  26.095  1.00  0.00    -0.272 OA
ATOM      6  H   UNL A   1      35.359  19.533  25.018  1.00  0.00     0.163 HD
BRANCH   4   7
ATOM      7  C   UNL A   1      33.273  22.170  25.518  1.00  0.00     0.206 C 
BRANCH   7   8
ATOM      8  N   UNL A   1      32.011  22.326  26.260  1.00  0.00    -0.336 N 
ATOM      9  C   UNL A   1      31.082  23.305  26.526  1.00  0.00     0.252 C 
ATOM     10  O   UNL A   1      30.193  22.981  27.321  1.00  0.00    -0.269 OA
ATOM     11  H   UNL A   1      31.757  21.480  26.695  1.00  0.00     0.165 HD
BRANCH   9  12
ATOM     12  C   UNL A   1      31.036  24.700  25.970  1.00  0.00     0.041 A 
ATOM     13  C   UNL A   1      31.678  27.053  25.894  1.00  0.00     0.041 A 
ATOM     14  C   UNL A   1      30.921  27.274  24.755  1.00  0.00     0.026 A 
ATOM     15  C   UNL A   1      31.674  25.804  26.524  1.00  0.00     0.040 A 
ATOM     16  C   UNL A   1      30.245  26.195  24.189  1.00  0.00     0.003 A 
ATOM     17  C   UNL A   1      30.316  24.921  24.781  1.00  0.00     0.014 A 
BRANCH  13  18
ATOM     18  N   UNL A   1      32.453  28.077  26.453  1.00  0.00    -0.326 N 
ATOM     19  C   UNL A   1      33.471  28.718  25.784  1.00  0.00     0.224 C 
ATOM     20  O   UNL A   1      34.484  29.086  26.377  1.00  0.00    -0.275 OA
ATOM     21  H   UNL A   1      32.257  28.354  27.377  1.00  0.00     0.169 HD
BRANCH  19  22
ATOM     22  C   UNL A   1      33.224  29.053  24.311  1.00  0.00     0.100 C 
BRANCH  22  23
ATOM     23  C   UNL A   1      34.296  28.591  23.330  1.00  0.00     0.006 C 
ATOM     24  C   UNL A   1      33.749  27.986  22.041  1.00  0.00     0.004 C 
ENDBRANCH  22  23
ENDBRANCH  19  22
ENDBRANCH  13  18
ENDBRANCH   9  12
ENDBRANCH   7   8
BRANCH   7  25
ATOM     25  C   UNL A   1      33.106  22.567  24.071  1.00  0.00     0.027 A 
ATOM     26  C   UNL A   1      33.564  23.802  23.496  1.00  0.00     0.065 A 
ATOM     27  C   UNL A   1      32.594  21.872  22.984  1.00  0.00     0.038 A 
ATOM     28  C   UNL A   1      34.337  24.900  24.143  1.00  0.00     0.069 C 
ATOM     29  N   UNL A   1      33.236  23.905  22.205  1.00  0.00    -0.180 NA
ATOM     30  N   UNL A   1      32.664  22.731  21.922  1.00  0.00    -0.282 N 
ATOM     31  C   UNL A   1      32.081  20.494  22.814  1.00  0.00     0.066 C 
ATOM     32  H   UNL A   1      32.323  22.504  21.026  1.00  0.00     0.190 HD
ENDBRANCH   7  25
ENDBRANCH   4   7
ENDBRANCH   2   3
ENDBRANCH   1   2
BRANCH   1  33
ATOM     33  C   UNL A   1      37.148  23.332  25.777  1.00  0.00     0.002 C 
BRANCH  33  34
ATOM     34  C   UNL A   1      38.430  23.822  26.462  1.00  0.00     0.002 C 
BRANCH  34  35
ATOM     35  C   UNL A   1      39.469  22.724  26.710  1.00  0.00     0.021 C 
BRANCH  35  36
ATOM     36  C   UNL A   1      40.821  23.257  27.172  1.00  0.00     0.116 C 
BRANCH  36  37
ATOM     37  N   UNL A   1      41.497  23.973  26.100  1.00  0.00    -0.352 N 
ATOM     38  C   UNL A   1      41.736  25.316  25.977  1.00  0.00     0.251 C 
ATOM     39  H   UNL A   1      41.829  23.414  25.362  1.00  0.00     0.163 HD
ATOM     40  O   UNL A   1      42.063  25.789  24.895  1.00  0.00    -0.269 OA
BRANCH  38  41
ATOM     41  C   UNL A   1      41.593  26.180  27.164  1.00  0.00     0.039 A 
ATOM     42  C   UNL A   1      42.524  27.195  27.384  1.00  0.00     0.014 A 
ATOM     43  C   UNL A   1      40.537  25.975  28.057  1.00  0.00     0.014 A 
ATOM     44  C   UNL A   1      42.371  28.038  28.484  1.00  0.00     0.010 A 
ATOM     45  C   UNL A   1      40.345  26.860  29.110  1.00  0.00     0.010 A 
ATOM     46  C   UNL A   1      41.265  27.891  29.340  1.00  0.00    -0.014 A 
BRANCH  46  47
ATOM     47  C   UNL A   1      41.059  28.805  30.489  1.00  0.00     0.031 A 
ATOM     48  C   UNL A   1      41.894  28.648  31.729  1.00  0.00     0.074 A 
ATOM     49  C   UNL A   1      40.078  29.725  30.435  1.00  0.00     0.049 A 
ATOM     50  N   UNL A   1      41.819  29.299  32.861  1.00  0.00    -0.248 NA
ATOM     51  C   UNL A   1      42.931  27.604  31.705  1.00  0.00     0.031 C 
ATOM     52  C   UNL A   1      39.172  29.930  29.301  1.00  0.00     0.029 A 
ATOM     53  N   UNL A   1      39.669  30.653  31.357  1.00  0.00    -0.354 N 
ATOM     54  C   UNL A   1      42.786  28.738  33.685  1.00  0.00     0.074 A 
ATOM     55  C   UNL A   1      43.397  27.656  32.945  1.00  0.00     0.031 C 
ATOM     56  C   UNL A   1      38.328  30.934  29.589  1.00  0.00     0.029 A 
ATOM     57  C   UNL A   1      38.606  31.417  30.938  1.00  0.00     0.049 A 
ATOM     58  H   UNL A   1      40.097  30.761  32.238  1.00  0.00     0.167 HD
ATOM     59  C   UNL A   1      43.148  29.107  34.936  1.00  0.00     0.037 A 
ATOM     60  C   UNL A   1      37.927  32.391  31.574  1.00  0.00     0.037 A 
ATOM     61  C   UNL A   1      42.548  30.201  35.654  1.00  0.00     0.049 A 
ATOM     62  C   UNL A   1      38.349  32.785  32.963  1.00  0.00     0.074 A 
ATOM     63  C   UNL A   1      42.879  30.696  36.903  1.00  0.00     0.029 A 
ATOM     64  N   UNL A   1      41.490  30.969  35.187  1.00  0.00    -0.354 N 
ATOM     65  N   UNL A   1      39.310  32.287  33.705  1.00  0.00    -0.248 NA
ATOM     66  C   UNL A   1      37.601  33.878  33.600  1.00  0.00     0.031 C 
ATOM     67  C   UNL A   1      41.993  31.733  37.210  1.00  0.00     0.029 A 
ATOM     68  C   UNL A   1      41.142  31.920  36.131  1.00  0.00     0.049 A 
ATOM     69  H   UNL A   1      41.052  30.854  34.313  1.00  0.00     0.167 HD
ATOM     70  C   UNL A   1      39.300  33.023  34.884  1.00  0.00     0.074 A 
ATOM     71  C   UNL A   1      38.244  34.007  34.752  1.00  0.00     0.031 C 
ATOM     72  C   UNL A   1      40.091  32.895  35.978  1.00  0.00     0.037 A 
BRANCH  59  73
ATOM     73  C   UNL A   1      44.248  28.326  35.604  1.00  0.00     0.058 A 
ATOM     74  C   UNL A   1      43.974  27.216  36.419  1.00  0.00     0.135 A 
ATOM     75  C   UNL A   1      45.593  28.674  35.404  1.00  0.00     0.135 A 
ATOM     76  F   UNL A   1      42.705  26.849  36.657  1.00  0.00    -0.206 F 
ATOM     77  C   UNL A   1      44.992  26.497  37.037  1.00  0.00     0.059 A 
ATOM     78  C   UNL A   1      46.630  27.950  35.989  1.00  0.00     0.059 A 
ATOM     79  F   UNL A   1      45.914  29.727  34.635  1.00  0.00    -0.206 F 
ATOM     80  C   UNL A   1      46.317  26.873  36.816  1.00  0.00     0.060 A 
BRANCH  80  81
ATOM     81  S   UNL A   1      47.626  25.926  37.622  1.00  0.00     0.124 S 
ATOM     82  O   UNL A   1      48.733  26.878  37.593  1.00  0.00    -0.237 OA
ATOM     83  O   UNL A   1      47.054  25.659  38.937  1.00  0.00    -0.237 OA
ATOM     84  O   UNL A   1      47.782  24.759  36.759  1.00  0.00    -0.744 OA
ENDBRANCH  80  81
ENDBRANCH  59  73
BRANCH  60  85
ATOM     85  C   UNL A   1      36.793  33.070  30.893  1.00  0.00     0.058 A 
ATOM     86  C   UNL A   1      35.465  32.794  31.249  1.00  0.00     0.135 A 
ATOM     87  C   UNL A   1      37.015  34.024  29.887  1.00  0.00     0.135 A 
ATOM     88  F   UNL A   1      35.202  31.887  32.202  1.00  0.00    -0.206 F 
ATOM     89  C   UNL A   1      34.396  33.426  30.624  1.00  0.00     0.059 A 
ATOM     90  C   UNL A   1      35.963  34.688  29.265  1.00  0.00     0.059 A 
ATOM     91  F   UNL A   1      38.267  34.340  29.523  1.00  0.00    -0.206 F 
ATOM     92  C   UNL A   1      34.656  34.375  29.633  1.00  0.00     0.060 A 
BRANCH  92  93
ATOM     93  S   UNL A   1      33.263  35.227  28.862  1.00  0.00     0.124 S 
ATOM     94  O   UNL A   1      32.598  35.811  30.022  1.00  0.00    -0.237 OA
ATOM     95  O   UNL A   1      33.936  36.167  27.970  1.00  0.00    -0.237 OA
ATOM     96  O   UNL A   1      32.540  34.150  28.195  1.00  0.00    -0.744 OA
ENDBRANCH  92  93
ENDBRANCH  60  85
BRANCH  72  97
ATOM     97  C   UNL A   1      39.870  33.863  37.108  1.00  0.00     0.058 A 
ATOM     98  C   UNL A   1      40.451  35.140  37.109  1.00  0.00     0.135 A 
ATOM     99  C   UNL A   1      39.022  33.526  38.175  1.00  0.00     0.135 A 
ATOM    100  F   UNL A   1      41.277  35.508  36.118  1.00  0.00    -0.206 F 
ATOM    101  C   UNL A   1      40.216  36.043  38.141  1.00  0.00     0.059 A 
ATOM    102  C   UNL A   1      38.748  34.423  39.201  1.00  0.00     0.059 A 
ATOM    103  F   UNL A   1      38.432  32.319  38.215  1.00  0.00    -0.206 F 
ATOM    104  C   UNL A   1      39.360  35.676  39.182  1.00  0.00     0.060 A 
BRANCH 104 105
ATOM    105  S   UNL A   1      39.032  36.870  40.495  1.00  0.00     0.124 S 
ATOM    106  O   UNL A   1      38.441  37.974  39.746  1.00  0.00    -0.237 OA
ATOM    107  O   UNL A   1      38.120  36.135  41.366  1.00  0.00    -0.237 OA
ATOM    108  O   UNL A   1      40.354  37.129  41.058  1.00  0.00    -0.744 OA
ENDBRANCH 104 105
ENDBRANCH  72  97
ENDBRANCH  46  47
ENDBRANCH  38  41
ENDBRANCH  36  37
ENDBRANCH  35  36
ENDBRANCH  34  35
ENDBRANCH  33  34
ENDBRANCH   1  33
TORSDOF 22
ENDMDL
