MODEL 1
REMARK VINA RESULT:     -11.6      0.000      0.000
REMARK SMILES Cc1c(C[C@@H](C)O)c(=O)oc2cc(OCC(=O)NCCCCCCNC(=O)c3ccc(-c4c5nc(c(-c6c(F)cc(S(=O)(=O)[O-])cc6F)c6ccc([nH]6)c(-c6c(F)cc(S(=O)(=O)[O-])cc6F)c6nc(c(-c7c(F)cc(S(=O)(=O)[O-])cc7F)c7ccc4[nH]7)C=C6)C=C5)cc3)ccc12
REMARK SMILES IDX 20 1 19 2 18 3 16 4 17 5 15 7 14 8 13 9 1 10 2 11 3 12 96 13
REMARK SMILES IDX 8 14 11 15 95 16 9 17 10 18 12 19 94 20 4 21 5 22 6 23 7 24
REMARK SMILES IDX 21 26 22 27 23 28 24 29 25 30 26 31 27 33 28 34 29 35 93 36
REMARK SMILES IDX 30 37 92 38 31 39 32 40 33 41 86 42 34 43 91 44 85 45 87 46
REMARK SMILES IDX 35 47 90 48 84 49 83 50 36 52 70 53 49 54 69 55 50 56 53 57
REMARK SMILES IDX 68 58 88 59 51 60 52 61 67 63 89 64 54 65 37 66 38 67 47 68
REMARK SMILES IDX 39 69 40 70 46 71 48 72 41 73 42 74 43 75 44 76 45 77 71 78
REMARK SMILES IDX 72 79 81 80 73 81 74 82 80 83 82 84 75 85 76 86 77 87 78 88
REMARK SMILES IDX 79 89 55 90 56 91 65 92 57 93 58 94 64 95 66 96 59 97 60 98
REMARK SMILES IDX 61 99 62 100 63 101
REMARK H PARENT 18 6 7 25 25 32 87 51 53 62
REMARK Flexibility Score: inf
ROOT
ATOM      1  C   UNL A   1      31.577  30.374  26.300  1.00  0.00     0.021 C 
ENDROOT
BRANCH   1   2
ATOM      2  C   UNL A   1      31.451  29.519  25.040  1.00  0.00     0.116 C 
BRANCH   2   3
ATOM      3  N   UNL A   1      30.677  30.189  24.011  1.00  0.00    -0.353 N 
ATOM      4  C   UNL A   1      29.907  29.639  23.030  1.00  0.00     0.257 C 
ATOM      5  O   UNL A   1      29.318  30.388  22.247  1.00  0.00    -0.271 OA
ATOM      6  H   UNL A   1      30.713  31.173  24.025  1.00  0.00     0.163 HD
BRANCH   4   7
ATOM      7  C   UNL A   1      29.746  28.118  22.949  1.00  0.00     0.329 C 
BRANCH   7   8
ATOM      8  O   UNL A   1      30.652  27.416  22.115  1.00  0.00    -0.484 OA
BRANCH   8   9
ATOM      9  C   UNL A   1      31.288  26.320  22.619  1.00  0.00     0.123 A 
ATOM     10  C   UNL A   1      32.115  22.054  25.459  1.00  0.00     0.046 C 
ATOM     11  C   UNL A   1      32.966  22.824  24.482  1.00  0.00    -0.030 A 
ATOM     12  C   UNL A   1      34.225  22.481  24.129  1.00  0.00     0.044 A 
ATOM     13  C   UNL A   1      32.367  24.033  23.890  1.00  0.00     0.021 A 
ATOM     14  C   UNL A   1      34.959  23.233  23.067  1.00  0.00     0.339 A 
ATOM     15  C   UNL A   1      33.004  24.646  22.817  1.00  0.00     0.142 A 
ATOM     16  C   UNL A   1      31.179  24.614  24.348  1.00  0.00     0.016 A 
ATOM     17  O   UNL A   1      36.124  22.975  22.782  1.00  0.00    -0.246 OA
ATOM     18  O   UNL A   1      34.252  24.192  22.362  1.00  0.00    -0.422 OA
ATOM     19  C   UNL A   1      32.473  25.761  22.160  1.00  0.00     0.094 A 
ATOM     20  C   UNL A   1      30.651  25.748  23.722  1.00  0.00     0.047 A 
BRANCH  12  21
ATOM     21  C   UNL A   1      34.998  21.312  24.704  1.00  0.00     0.075 C 
BRANCH  21  22
ATOM     22  C   UNL A   1      35.784  21.630  25.990  1.00  0.00     0.116 C 
ATOM     23  C   UNL A   1      36.364  23.039  26.041  1.00  0.00     0.038 C 
BRANCH  22  24
ATOM     24  O   UNL A   1      34.903  21.482  27.110  1.00  0.00    -0.393 OA
ATOM     25  H   UNL A   1      35.264  21.962  27.872  1.00  0.00     0.210 HD
ENDBRANCH  22  24
ENDBRANCH  21  22
ENDBRANCH  12  21
ENDBRANCH   8   9
ENDBRANCH   7   8
ENDBRANCH   4   7
ENDBRANCH   2   3
ENDBRANCH   1   2
BRANCH   1  26
ATOM     26  C   UNL A   1      33.001  30.472  26.865  1.00  0.00     0.002 C 
BRANCH  26  27
ATOM     27  C   UNL A   1      33.778  29.153  26.920  1.00  0.00     0.002 C 
BRANCH  27  28
ATOM     28  C   UNL A   1      35.130  29.222  27.633  1.00  0.00     0.021 C 
BRANCH  28  29
ATOM     29  C   UNL A   1      35.509  30.605  28.153  1.00  0.00     0.116 C 
BRANCH  29  30
ATOM     30  N   UNL A   1      35.442  30.686  29.603  1.00  0.00    -0.352 N 
ATOM     31  C   UNL A   1      36.406  30.398  30.538  1.00  0.00     0.251 C 
ATOM     32  H   UNL A   1      34.580  30.993  29.967  1.00  0.00     0.163 HD
ATOM     33  O   UNL A   1      36.110  30.346  31.726  1.00  0.00    -0.269 OA
BRANCH  31  34
ATOM     34  C   UNL A   1      37.797  30.131  30.106  1.00  0.00     0.039 A 
ATOM     35  C   UNL A   1      38.737  29.737  31.061  1.00  0.00     0.014 A 
ATOM     36  C   UNL A   1      38.175  30.272  28.767  1.00  0.00     0.014 A 
ATOM     37  C   UNL A   1      40.039  29.424  30.663  1.00  0.00     0.010 A 
ATOM     38  C   UNL A   1      39.449  29.885  28.362  1.00  0.00     0.010 A 
ATOM     39  C   UNL A   1      40.397  29.460  29.304  1.00  0.00    -0.014 A 
BRANCH  39  40
ATOM     40  C   UNL A   1      41.752  29.046  28.854  1.00  0.00     0.031 A 
ATOM     41  C   UNL A   1      42.859  30.062  28.747  1.00  0.00     0.074 A 
ATOM     42  C   UNL A   1      41.969  27.769  28.479  1.00  0.00     0.049 A 
ATOM     43  N   UNL A   1      44.083  29.905  28.315  1.00  0.00    -0.248 NA
ATOM     44  C   UNL A   1      42.540  31.440  29.154  1.00  0.00     0.031 C 
ATOM     45  C   UNL A   1      40.964  26.704  28.488  1.00  0.00     0.029 A 
ATOM     46  N   UNL A   1      43.099  27.151  28.006  1.00  0.00    -0.354 N 
ATOM     47  C   UNL A   1      44.676  31.161  28.383  1.00  0.00     0.074 A 
ATOM     48  C   UNL A   1      43.661  32.080  28.849  1.00  0.00     0.031 C 
ATOM     49  C   UNL A   1      41.527  25.563  28.062  1.00  0.00     0.029 A 
ATOM     50  C   UNL A   1      42.920  25.820  27.707  1.00  0.00     0.049 A 
ATOM     51  H   UNL A   1      43.959  27.617  27.892  1.00  0.00     0.167 HD
ATOM     52  C   UNL A   1      45.953  31.512  28.101  1.00  0.00     0.037 A 
ATOM     53  C   UNL A   1      43.773  24.913  27.194  1.00  0.00     0.037 A 
ATOM     54  C   UNL A   1      46.964  30.586  27.661  1.00  0.00     0.049 A 
ATOM     55  C   UNL A   1      45.188  25.328  26.889  1.00  0.00     0.074 A 
ATOM     56  C   UNL A   1      48.305  30.830  27.418  1.00  0.00     0.029 A 
ATOM     57  N   UNL A   1      46.748  29.242  27.392  1.00  0.00    -0.354 N 
ATOM     58  N   UNL A   1      45.750  26.504  27.033  1.00  0.00    -0.248 NA
ATOM     59  C   UNL A   1      46.086  24.293  26.362  1.00  0.00     0.031 C 
ATOM     60  C   UNL A   1      48.886  29.648  26.947  1.00  0.00     0.029 A 
ATOM     61  C   UNL A   1      47.924  28.651  26.957  1.00  0.00     0.049 A 
ATOM     62  H   UNL A   1      45.887  28.776  27.495  1.00  0.00     0.167 HD
ATOM     63  C   UNL A   1      47.074  26.343  26.640  1.00  0.00     0.074 A 
ATOM     64  C   UNL A   1      47.232  24.952  26.267  1.00  0.00     0.031 C 
ATOM     65  C   UNL A   1      48.070  27.263  26.594  1.00  0.00     0.037 A 
BRANCH  52  66
ATOM     66  C   UNL A   1      46.335  32.960  28.257  1.00  0.00     0.058 A 
ATOM     67  C   UNL A   1      46.184  33.883  27.210  1.00  0.00     0.135 A 
ATOM     68  C   UNL A   1      46.811  33.441  29.488  1.00  0.00     0.135 A 
ATOM     69  F   UNL A   1      45.747  33.478  26.007  1.00  0.00    -0.206 F 
ATOM     70  C   UNL A   1      46.516  35.225  27.368  1.00  0.00     0.059 A 
ATOM     71  C   UNL A   1      47.120  34.785  29.678  1.00  0.00     0.059 A 
ATOM     72  F   UNL A   1      46.976  32.604  30.523  1.00  0.00    -0.206 F 
ATOM     73  C   UNL A   1      46.981  35.667  28.607  1.00  0.00     0.060 A 
BRANCH  73  74
ATOM     74  S   UNL A   1      47.394  37.414  28.800  1.00  0.00     0.124 S 
ATOM     75  O   UNL A   1      48.853  37.374  28.752  1.00  0.00    -0.237 OA
ATOM     76  O   UNL A   1      46.738  38.018  27.645  1.00  0.00    -0.237 OA
ATOM     77  O   UNL A   1      46.820  37.759  30.096  1.00  0.00    -0.744 OA
ENDBRANCH  73  74
ENDBRANCH  52  66
BRANCH  53  78
ATOM     78  C   UNL A   1      43.316  23.518  26.945  1.00  0.00     0.058 A 
ATOM     79  C   UNL A   1      43.016  23.073  25.649  1.00  0.00     0.135 A 
ATOM     80  C   UNL A   1      43.177  22.600  27.998  1.00  0.00     0.135 A 
ATOM     81  F   UNL A   1      43.127  23.913  24.609  1.00  0.00    -0.206 F 
ATOM     82  C   UNL A   1      42.573  21.776  25.407  1.00  0.00     0.059 A 
ATOM     83  C   UNL A   1      42.765  21.290  27.777  1.00  0.00     0.059 A 
ATOM     84  F   UNL A   1      43.469  22.968  29.255  1.00  0.00    -0.206 F 
ATOM     85  C   UNL A   1      42.454  20.891  26.479  1.00  0.00     0.060 A 
BRANCH  85  86
ATOM     86  S   UNL A   1      41.917  19.198  26.149  1.00  0.00     0.124 S 
ATOM     87  O   UNL A   1      40.495  19.386  25.887  1.00  0.00    -0.237 OA
ATOM     88  O   UNL A   1      42.737  18.837  24.996  1.00  0.00    -0.237 OA
ATOM     89  O   UNL A   1      42.245  18.496  27.386  1.00  0.00    -0.744 OA
ENDBRANCH  85  86
ENDBRANCH  53  78
BRANCH  65  90
ATOM     90  C   UNL A   1      49.432  26.793  26.161  1.00  0.00     0.058 A 
ATOM     91  C   UNL A   1      49.891  26.960  24.845  1.00  0.00     0.135 A 
ATOM     92  C   UNL A   1      50.312  26.214  27.092  1.00  0.00     0.135 A 
ATOM     93  F   UNL A   1      49.090  27.502  23.913  1.00  0.00    -0.206 F 
ATOM     94  C   UNL A   1      51.164  26.551  24.461  1.00  0.00     0.059 A 
ATOM     95  C   UNL A   1      51.599  25.826  26.738  1.00  0.00     0.059 A 
ATOM     96  F   UNL A   1      49.929  26.040  28.367  1.00  0.00    -0.206 F 
ATOM     97  C   UNL A   1      52.013  25.987  25.416  1.00  0.00     0.060 A 
BRANCH  97  98
ATOM     98  S   UNL A   1      53.674  25.491  24.912  1.00  0.00     0.124 S 
ATOM     99  O   UNL A   1      53.631  24.051  25.137  1.00  0.00    -0.237 OA
ATOM    100  O   UNL A   1      53.715  25.916  23.516  1.00  0.00    -0.237 OA
ATOM    101  O   UNL A   1      54.542  26.243  25.814  1.00  0.00    -0.744 OA
ENDBRANCH  97  98
ENDBRANCH  65  90
ENDBRANCH  39  40
ENDBRANCH  31  34
ENDBRANCH  29  30
ENDBRANCH  28  29
ENDBRANCH  27  28
ENDBRANCH  26  27
ENDBRANCH   1  26
TORSDOF 21
ENDMDL
MODEL 2
REMARK VINA RESULT:     -11.0      6.454     12.264
REMARK SMILES Cc1c(C[C@@H](C)O)c(=O)oc2cc(OCC(=O)NCCCCCCNC(=O)c3ccc(-c4c5nc(c(-c6c(F)cc(S(=O)(=O)[O-])cc6F)c6ccc([nH]6)c(-c6c(F)cc(S(=O)(=O)[O-])cc6F)c6nc(c(-c7c(F)cc(S(=O)(=O)[O-])cc7F)c7ccc4[nH]7)C=C6)C=C5)cc3)ccc12
REMARK SMILES IDX 20 1 19 2 18 3 16 4 17 5 15 7 14 8 13 9 1 10 2 11 3 12 96 13
REMARK SMILES IDX 8 14 11 15 95 16 9 17 10 18 12 19 94 20 4 21 5 22 6 23 7 24
REMARK SMILES IDX 21 26 22 27 23 28 24 29 25 30 26 31 27 33 28 34 29 35 93 36
REMARK SMILES IDX 30 37 92 38 31 39 32 40 33 41 86 42 34 43 91 44 85 45 87 46
REMARK SMILES IDX 35 47 90 48 84 49 83 50 36 52 70 53 49 54 69 55 50 56 53 57
REMARK SMILES IDX 68 58 88 59 51 60 52 61 67 63 89 64 54 65 37 66 38 67 47 68
REMARK SMILES IDX 39 69 40 70 46 71 48 72 41 73 42 74 43 75 44 76 45 77 71 78
REMARK SMILES IDX 72 79 81 80 73 81 74 82 80 83 82 84 75 85 76 86 77 87 78 88
REMARK SMILES IDX 79 89 55 90 56 91 65 92 57 93 58 94 64 95 66 96 59 97 60 98
REMARK SMILES IDX 61 99 62 100 63 101
REMARK H PARENT 18 6 7 25 25 32 87 51 53 62
REMARK Flexibility Score: inf
ROOT
ATOM      1  C   UNL A   1      45.126  21.727  25.798  1.00  0.00     0.021 C 
ENDROOT
BRANCH   1   2
ATOM      2  C   UNL A   1      43.599  21.746  25.757  1.00  0.00     0.116 C 
BRANCH   2   3
ATOM      3  N   UNL A   1      43.049  20.414  25.583  1.00  0.00    -0.353 N 
ATOM      4  C   UNL A   1      41.864  19.915  26.033  1.00  0.00     0.257 C 
ATOM      5  O   UNL A   1      41.574  18.746  25.773  1.00  0.00    -0.271 OA
ATOM      6  H   UNL A   1      43.610  19.787  25.070  1.00  0.00     0.163 HD
BRANCH   4   7
ATOM      7  C   UNL A   1      40.898  20.823  26.801  1.00  0.00     0.329 C 
BRANCH   7   8
ATOM      8  O   UNL A   1      40.294  21.882  26.077  1.00  0.00    -0.484 OA
BRANCH   8   9
ATOM      9  C   UNL A   1      38.957  21.813  25.816  1.00  0.00     0.123 A 
ATOM     10  C   UNL A   1      34.315  19.772  24.704  1.00  0.00     0.046 C 
ATOM     11  C   UNL A   1      34.799  21.186  24.907  1.00  0.00    -0.030 A 
ATOM     12  C   UNL A   1      34.009  22.280  24.843  1.00  0.00     0.044 A 
ATOM     13  C   UNL A   1      36.235  21.361  25.185  1.00  0.00     0.021 A 
ATOM     14  C   UNL A   1      34.544  23.636  25.172  1.00  0.00     0.339 A 
ATOM     15  C   UNL A   1      36.694  22.603  25.611  1.00  0.00     0.142 A 
ATOM     16  C   UNL A   1      37.183  20.341  25.042  1.00  0.00     0.016 A 
ATOM     17  O   UNL A   1      33.857  24.646  25.055  1.00  0.00    -0.246 OA
ATOM     18  O   UNL A   1      35.830  23.706  25.680  1.00  0.00    -0.422 OA
ATOM     19  C   UNL A   1      38.029  22.838  25.952  1.00  0.00     0.094 A 
ATOM     20  C   UNL A   1      38.529  20.569  25.350  1.00  0.00     0.047 A 
BRANCH  12  21
ATOM     21  C   UNL A   1      32.534  22.266  24.498  1.00  0.00     0.075 C 
BRANCH  21  22
ATOM     22  C   UNL A   1      32.225  22.379  22.993  1.00  0.00     0.116 C 
ATOM     23  C   UNL A   1      31.996  21.042  22.295  1.00  0.00     0.038 C 
BRANCH  22  24
ATOM     24  O   UNL A   1      31.037  23.162  22.831  1.00  0.00    -0.393 OA
ATOM     25  H   UNL A   1      30.350  22.625  22.404  1.00  0.00     0.210 HD
ENDBRANCH  22  24
ENDBRANCH  21  22
ENDBRANCH  12  21
ENDBRANCH   8   9
ENDBRANCH   7   8
ENDBRANCH   4   7
ENDBRANCH   2   3
ENDBRANCH   1   2
BRANCH   1  26
ATOM     26  C   UNL A   1      45.765  22.986  26.401  1.00  0.00     0.002 C 
BRANCH  26  27
ATOM     27  C   UNL A   1      45.284  23.357  27.808  1.00  0.00     0.002 C 
BRANCH  27  28
ATOM     28  C   UNL A   1      44.482  24.657  27.901  1.00  0.00     0.021 C 
BRANCH  28  29
ATOM     29  C   UNL A   1      44.702  25.628  26.746  1.00  0.00     0.116 C 
BRANCH  29  30
ATOM     30  N   UNL A   1      43.616  25.592  25.781  1.00  0.00    -0.352 N 
ATOM     31  C   UNL A   1      42.327  26.052  25.901  1.00  0.00     0.251 C 
ATOM     32  H   UNL A   1      43.837  25.180  24.915  1.00  0.00     0.163 HD
ATOM     33  O   UNL A   1      41.494  25.767  25.049  1.00  0.00    -0.269 OA
BRANCH  31  34
ATOM     34  C   UNL A   1      41.942  26.873  27.072  1.00  0.00     0.039 A 
ATOM     35  C   UNL A   1      41.082  26.326  28.027  1.00  0.00     0.014 A 
ATOM     36  C   UNL A   1      42.422  28.177  27.226  1.00  0.00     0.014 A 
ATOM     37  C   UNL A   1      40.756  27.063  29.167  1.00  0.00     0.010 A 
ATOM     38  C   UNL A   1      42.158  28.879  28.399  1.00  0.00     0.010 A 
ATOM     39  C   UNL A   1      41.320  28.333  29.382  1.00  0.00    -0.014 A 
BRANCH  39  40
ATOM     40  C   UNL A   1      41.051  29.094  30.630  1.00  0.00     0.031 A 
ATOM     41  C   UNL A   1      39.929  30.097  30.680  1.00  0.00     0.074 A 
ATOM     42  C   UNL A   1      41.858  28.929  31.698  1.00  0.00     0.049 A 
ATOM     43  N   UNL A   1      39.583  30.900  31.653  1.00  0.00    -0.248 NA
ATOM     44  C   UNL A   1      39.105  30.237  29.469  1.00  0.00     0.031 C 
ATOM     45  C   UNL A   1      43.009  28.025  31.756  1.00  0.00     0.029 A 
ATOM     46  N   UNL A   1      41.843  29.522  32.935  1.00  0.00    -0.354 N 
ATOM     47  C   UNL A   1      38.515  31.648  31.170  1.00  0.00     0.074 A 
ATOM     48  C   UNL A   1      38.303  31.240  29.798  1.00  0.00     0.031 C 
ATOM     49  C   UNL A   1      43.575  28.110  32.969  1.00  0.00     0.029 A 
ATOM     50  C   UNL A   1      42.858  29.103  33.763  1.00  0.00     0.049 A 
ATOM     51  H   UNL A   1      41.168  30.187  33.206  1.00  0.00     0.167 HD
ATOM     52  C   UNL A   1      37.768  32.574  31.816  1.00  0.00     0.037 A 
ATOM     53  C   UNL A   1      43.185  29.483  35.014  1.00  0.00     0.037 A 
ATOM     54  C   UNL A   1      37.971  32.956  33.190  1.00  0.00     0.049 A 
ATOM     55  C   UNL A   1      42.339  30.515  35.711  1.00  0.00     0.074 A 
ATOM     56  C   UNL A   1      37.222  33.833  33.956  1.00  0.00     0.029 A 
ATOM     57  N   UNL A   1      38.995  32.492  34.001  1.00  0.00    -0.354 N 
ATOM     58  N   UNL A   1      41.285  31.155  35.262  1.00  0.00    -0.248 NA
ATOM     59  C   UNL A   1      42.718  30.870  37.084  1.00  0.00     0.031 C 
ATOM     60  C   UNL A   1      37.828  33.944  35.212  1.00  0.00     0.029 A 
ATOM     61  C   UNL A   1      38.917  33.087  35.251  1.00  0.00     0.049 A 
ATOM     62  H   UNL A   1      39.678  31.836  33.731  1.00  0.00     0.167 HD
ATOM     63  C   UNL A   1      40.861  31.968  36.308  1.00  0.00     0.074 A 
ATOM     64  C   UNL A   1      41.762  31.727  37.416  1.00  0.00     0.031 C 
ATOM     65  C   UNL A   1      39.817  32.833  36.348  1.00  0.00     0.037 A 
BRANCH  52  66
ATOM     66  C   UNL A   1      36.661  33.246  31.047  1.00  0.00     0.058 A 
ATOM     67  C   UNL A   1      36.918  34.260  30.112  1.00  0.00     0.135 A 
ATOM     68  C   UNL A   1      35.329  32.831  31.212  1.00  0.00     0.135 A 
ATOM     69  F   UNL A   1      38.170  34.706  29.923  1.00  0.00    -0.206 F 
ATOM     70  C   UNL A   1      35.891  34.859  29.387  1.00  0.00     0.059 A 
ATOM     71  C   UNL A   1      34.291  33.394  30.475  1.00  0.00     0.059 A 
ATOM     72  F   UNL A   1      35.025  31.865  32.093  1.00  0.00    -0.206 F 
ATOM     73  C   UNL A   1      34.582  34.418  29.574  1.00  0.00     0.060 A 
BRANCH  73  74
ATOM     74  S   UNL A   1      33.265  35.196  28.615  1.00  0.00     0.124 S 
ATOM     75  O   UNL A   1      34.032  36.008  27.675  1.00  0.00    -0.237 OA
ATOM     76  O   UNL A   1      32.575  34.045  28.042  1.00  0.00    -0.237 OA
ATOM     77  O   UNL A   1      32.509  35.943  29.616  1.00  0.00    -0.744 OA
ENDBRANCH  73  74
ENDBRANCH  52  66
BRANCH  53  78
ATOM     78  C   UNL A   1      44.362  28.876  35.693  1.00  0.00     0.058 A 
ATOM     79  C   UNL A   1      45.647  29.418  35.541  1.00  0.00     0.135 A 
ATOM     80  C   UNL A   1      44.225  27.745  36.514  1.00  0.00     0.135 A 
ATOM     81  F   UNL A   1      45.832  30.496  34.763  1.00  0.00    -0.206 F 
ATOM     82  C   UNL A   1      46.757  28.851  36.159  1.00  0.00     0.059 A 
ATOM     83  C   UNL A   1      45.316  27.177  37.165  1.00  0.00     0.059 A 
ATOM     84  F   UNL A   1      43.016  27.197  36.708  1.00  0.00    -0.206 F 
ATOM     85  C   UNL A   1      46.580  27.731  36.972  1.00  0.00     0.060 A 
BRANCH  85  86
ATOM     86  S   UNL A   1      48.021  27.025  37.802  1.00  0.00     0.124 S 
ATOM     87  O   UNL A   1      48.075  25.692  37.215  1.00  0.00    -0.237 OA
ATOM     88  O   UNL A   1      49.083  27.944  37.403  1.00  0.00    -0.237 OA
ATOM     89  O   UNL A   1      47.653  27.079  39.214  1.00  0.00    -0.744 OA
ENDBRANCH  85  86
ENDBRANCH  53  78
BRANCH  65  90
ATOM     90  C   UNL A   1      39.565  33.560  37.642  1.00  0.00     0.058 A 
ATOM     91  C   UNL A   1      38.679  33.064  38.610  1.00  0.00     0.135 A 
ATOM     92  C   UNL A   1      40.263  34.744  37.937  1.00  0.00     0.135 A 
ATOM     93  F   UNL A   1      37.982  31.940  38.377  1.00  0.00    -0.206 F 
ATOM     94  C   UNL A   1      38.475  33.727  39.817  1.00  0.00     0.059 A 
ATOM     95  C   UNL A   1      40.099  35.405  39.149  1.00  0.00     0.059 A 
ATOM     96  F   UNL A   1      41.131  35.257  37.051  1.00  0.00    -0.206 F 
ATOM     97  C   UNL A   1      39.193  34.896  40.079  1.00  0.00     0.060 A 
BRANCH  97  98
ATOM     98  S   UNL A   1      38.944  35.727  41.662  1.00  0.00     0.124 S 
ATOM     99  O   UNL A   1      37.576  35.339  41.985  1.00  0.00    -0.237 OA
ATOM    100  O   UNL A   1      39.987  35.132  42.493  1.00  0.00    -0.237 OA
ATOM    101  O   UNL A   1      39.138  37.138  41.340  1.00  0.00    -0.744 OA
ENDBRANCH  97  98
ENDBRANCH  65  90
ENDBRANCH  39  40
ENDBRANCH  31  34
ENDBRANCH  29  30
ENDBRANCH  28  29
ENDBRANCH  27  28
ENDBRANCH  26  27
ENDBRANCH   1  26
TORSDOF 21
ENDMDL
MODEL 3
REMARK VINA RESULT:     -10.7      6.378     12.018
REMARK SMILES Cc1c(C[C@@H](C)O)c(=O)oc2cc(OCC(=O)NCCCCCCNC(=O)c3ccc(-c4c5nc(c(-c6c(F)cc(S(=O)(=O)[O-])cc6F)c6ccc([nH]6)c(-c6c(F)cc(S(=O)(=O)[O-])cc6F)c6nc(c(-c7c(F)cc(S(=O)(=O)[O-])cc7F)c7ccc4[nH]7)C=C6)C=C5)cc3)ccc12
REMARK SMILES IDX 20 1 19 2 18 3 16 4 17 5 15 7 14 8 13 9 1 10 2 11 3 12 96 13
REMARK SMILES IDX 8 14 11 15 95 16 9 17 10 18 12 19 94 20 4 21 5 22 6 23 7 24
REMARK SMILES IDX 21 26 22 27 23 28 24 29 25 30 26 31 27 33 28 34 29 35 93 36
REMARK SMILES IDX 30 37 92 38 31 39 32 40 33 41 86 42 34 43 91 44 85 45 87 46
REMARK SMILES IDX 35 47 90 48 84 49 83 50 36 52 70 53 49 54 69 55 50 56 53 57
REMARK SMILES IDX 68 58 88 59 51 60 52 61 67 63 89 64 54 65 37 66 38 67 47 68
REMARK SMILES IDX 39 69 40 70 46 71 48 72 41 73 42 74 43 75 44 76 45 77 71 78
REMARK SMILES IDX 72 79 81 80 73 81 74 82 80 83 82 84 75 85 76 86 77 87 78 88
REMARK SMILES IDX 79 89 55 90 56 91 65 92 57 93 58 94 64 95 66 96 59 97 60 98
REMARK SMILES IDX 61 99 62 100 63 101
REMARK H PARENT 18 6 7 25 25 32 87 51 53 62
REMARK Flexibility Score: inf
ROOT
ATOM      1  C   UNL A   1      42.357  23.219  27.529  1.00  0.00     0.021 C 
ENDROOT
BRANCH   1   2
ATOM      2  C   UNL A   1      42.280  21.795  28.078  1.00  0.00     0.116 C 
BRANCH   2   3
ATOM      3  N   UNL A   1      42.614  20.811  27.065  1.00  0.00    -0.353 N 
ATOM      4  C   UNL A   1      41.782  20.144  26.216  1.00  0.00     0.257 C 
ATOM      5  O   UNL A   1      42.268  19.342  25.416  1.00  0.00    -0.271 OA
ATOM      6  H   UNL A   1      43.572  20.597  26.980  1.00  0.00     0.163 HD
BRANCH   4   7
ATOM      7  C   UNL A   1      40.279  20.439  26.235  1.00  0.00     0.329 C 
BRANCH   7   8
ATOM      8  O   UNL A   1      39.858  21.680  25.695  1.00  0.00    -0.484 OA
BRANCH   8   9
ATOM      9  C   UNL A   1      38.522  21.906  25.546  1.00  0.00     0.123 A 
ATOM     10  C   UNL A   1      34.049  24.495  25.058  1.00  0.00     0.046 C 
ATOM     11  C   UNL A   1      34.389  23.028  25.135  1.00  0.00    -0.030 A 
ATOM     12  C   UNL A   1      33.482  22.029  25.064  1.00  0.00     0.044 A 
ATOM     13  C   UNL A   1      35.811  22.686  25.308  1.00  0.00     0.021 A 
ATOM     14  C   UNL A   1      33.913  20.599  25.032  1.00  0.00     0.339 A 
ATOM     15  C   UNL A   1      36.211  21.364  25.149  1.00  0.00     0.142 A 
ATOM     16  C   UNL A   1      36.801  23.622  25.628  1.00  0.00     0.016 A 
ATOM     17  O   UNL A   1      33.100  19.680  25.033  1.00  0.00    -0.246 OA
ATOM     18  O   UNL A   1      35.270  20.346  24.931  1.00  0.00    -0.422 OA
ATOM     19  C   UNL A   1      37.549  20.963  25.237  1.00  0.00     0.094 A 
ATOM     20  C   UNL A   1      38.139  23.233  25.751  1.00  0.00     0.047 A 
BRANCH  12  21
ATOM     21  C   UNL A   1      31.983  22.224  24.959  1.00  0.00     0.075 C 
BRANCH  21  22
ATOM     22  C   UNL A   1      31.250  22.314  26.311  1.00  0.00     0.116 C 
ATOM     23  C   UNL A   1      31.217  23.712  26.918  1.00  0.00     0.038 C 
BRANCH  22  24
ATOM     24  O   UNL A   1      29.895  21.890  26.122  1.00  0.00    -0.393 OA
ATOM     25  H   UNL A   1      29.824  20.940  26.304  1.00  0.00     0.210 HD
ENDBRANCH  22  24
ENDBRANCH  21  22
ENDBRANCH  12  21
ENDBRANCH   8   9
ENDBRANCH   7   8
ENDBRANCH   4   7
ENDBRANCH   2   3
ENDBRANCH   1   2
BRANCH   1  26
ATOM     26  C   UNL A   1      41.249  24.157  28.029  1.00  0.00     0.002 C 
BRANCH  26  27
ATOM     27  C   UNL A   1      40.840  25.268  27.055  1.00  0.00     0.002 C 
BRANCH  27  28
ATOM     28  C   UNL A   1      41.464  25.176  25.662  1.00  0.00     0.021 C 
BRANCH  28  29
ATOM     29  C   UNL A   1      42.539  26.219  25.373  1.00  0.00     0.116 C 
BRANCH  29  30
ATOM     30  N   UNL A   1      43.882  25.688  25.545  1.00  0.00    -0.352 N 
ATOM     31  C   UNL A   1      44.831  26.003  26.487  1.00  0.00     0.251 C 
ATOM     32  H   UNL A   1      44.149  25.002  24.891  1.00  0.00     0.163 HD
ATOM     33  O   UNL A   1      45.977  25.588  26.362  1.00  0.00    -0.269 OA
BRANCH  31  34
ATOM     34  C   UNL A   1      44.471  26.862  27.639  1.00  0.00     0.039 A 
ATOM     35  C   UNL A   1      44.780  28.223  27.589  1.00  0.00     0.014 A 
ATOM     36  C   UNL A   1      43.835  26.328  28.763  1.00  0.00     0.014 A 
ATOM     37  C   UNL A   1      44.396  29.058  28.640  1.00  0.00     0.010 A 
ATOM     38  C   UNL A   1      43.385  27.174  29.773  1.00  0.00     0.010 A 
ATOM     39  C   UNL A   1      43.662  28.548  29.725  1.00  0.00    -0.014 A 
BRANCH  39  40
ATOM     40  C   UNL A   1      43.171  29.439  30.809  1.00  0.00     0.031 A 
ATOM     41  C   UNL A   1      43.939  29.561  32.098  1.00  0.00     0.074 A 
ATOM     42  C   UNL A   1      41.998  30.088  30.657  1.00  0.00     0.049 A 
ATOM     43  N   UNL A   1      43.637  30.234  33.178  1.00  0.00    -0.248 NA
ATOM     44  C   UNL A   1      45.198  28.806  32.197  1.00  0.00     0.031 C 
ATOM     45  C   UNL A   1      41.136  30.011  29.476  1.00  0.00     0.029 A 
ATOM     46  N   UNL A   1      41.321  30.930  31.504  1.00  0.00    -0.354 N 
ATOM     47  C   UNL A   1      44.656  29.973  34.088  1.00  0.00     0.074 A 
ATOM     48  C   UNL A   1      45.559  29.040  33.451  1.00  0.00     0.031 C 
ATOM     49  C   UNL A   1      40.058  30.787  29.665  1.00  0.00     0.029 A 
ATOM     50  C   UNL A   1      40.128  31.386  30.995  1.00  0.00     0.049 A 
ATOM     51  H   UNL A   1      41.660  31.186  32.393  1.00  0.00     0.167 HD
ATOM     52  C   UNL A   1      44.832  30.482  35.331  1.00  0.00     0.037 A 
ATOM     53  C   UNL A   1      39.187  32.183  31.541  1.00  0.00     0.037 A 
ATOM     54  C   UNL A   1      43.942  31.431  35.947  1.00  0.00     0.049 A 
ATOM     55  C   UNL A   1      39.408  32.734  32.924  1.00  0.00     0.074 A 
ATOM     56  C   UNL A   1      44.072  32.059  37.174  1.00  0.00     0.029 A 
ATOM     57  N   UNL A   1      42.755  31.885  35.390  1.00  0.00    -0.354 N 
ATOM     58  N   UNL A   1      40.416  32.537  33.738  1.00  0.00    -0.248 NA
ATOM     59  C   UNL A   1      38.368  33.623  33.459  1.00  0.00     0.031 C 
ATOM     60  C   UNL A   1      42.936  32.847  37.384  1.00  0.00     0.029 A 
ATOM     61  C   UNL A   1      42.128  32.761  36.261  1.00  0.00     0.049 A 
ATOM     62  H   UNL A   1      42.409  31.623  34.506  1.00  0.00     0.167 HD
ATOM     63  C   UNL A   1      40.146  33.298  34.870  1.00  0.00     0.074 A 
ATOM     64  C   UNL A   1      38.886  33.971  34.628  1.00  0.00     0.031 C 
ATOM     65  C   UNL A   1      40.876  33.430  36.006  1.00  0.00     0.037 A 
BRANCH  52  66
ATOM     66  C   UNL A   1      46.034  30.023  36.114  1.00  0.00     0.058 A 
ATOM     67  C   UNL A   1      45.983  28.905  36.962  1.00  0.00     0.135 A 
ATOM     68  C   UNL A   1      47.267  30.680  35.973  1.00  0.00     0.135 A 
ATOM     69  F   UNL A   1      44.828  28.246  37.145  1.00  0.00    -0.206 F 
ATOM     70  C   UNL A   1      47.104  28.472  37.663  1.00  0.00     0.059 A 
ATOM     71  C   UNL A   1      48.408  30.245  36.641  1.00  0.00     0.059 A 
ATOM     72  F   UNL A   1      47.375  31.755  35.176  1.00  0.00    -0.206 F 
ATOM     73  C   UNL A   1      48.313  29.147  37.495  1.00  0.00     0.060 A 
BRANCH  73  74
ATOM     74  S   UNL A   1      49.760  28.563  38.402  1.00  0.00     0.124 S 
ATOM     75  O   UNL A   1      49.737  29.432  39.575  1.00  0.00    -0.237 OA
ATOM     76  O   UNL A   1      49.432  27.162  38.644  1.00  0.00    -0.237 OA
ATOM     77  O   UNL A   1      50.862  28.795  37.473  1.00  0.00    -0.744 OA
ENDBRANCH  73  74
ENDBRANCH  52  66
BRANCH  53  78
ATOM     78  C   UNL A   1      37.956  32.515  30.773  1.00  0.00     0.058 A 
ATOM     79  C   UNL A   1      36.760  31.813  30.979  1.00  0.00     0.135 A 
ATOM     80  C   UNL A   1      37.950  33.547  29.821  1.00  0.00     0.135 A 
ATOM     81  F   UNL A   1      36.716  30.813  31.874  1.00  0.00    -0.206 F 
ATOM     82  C   UNL A   1      35.607  32.105  30.257  1.00  0.00     0.059 A 
ATOM     83  C   UNL A   1      36.802  33.877  29.107  1.00  0.00     0.059 A 
ATOM     84  F   UNL A   1      39.063  34.263  29.597  1.00  0.00    -0.206 F 
ATOM     85  C   UNL A   1      35.639  33.142  29.324  1.00  0.00     0.060 A 
BRANCH  85  86
ATOM     86  S   UNL A   1      34.126  33.540  28.420  1.00  0.00     0.124 S 
ATOM     87  O   UNL A   1      33.672  32.216  28.010  1.00  0.00    -0.237 OA
ATOM     88  O   UNL A   1      33.324  34.203  29.444  1.00  0.00    -0.237 OA
ATOM     89  O   UNL A   1      34.598  34.407  27.344  1.00  0.00    -0.744 OA
ENDBRANCH  85  86
ENDBRANCH  53  78
BRANCH  65  90
ATOM     90  C   UNL A   1      40.355  34.365  37.063  1.00  0.00     0.058 A 
ATOM     91  C   UNL A   1      39.504  33.925  38.088  1.00  0.00     0.135 A 
ATOM     92  C   UNL A   1      40.758  35.712  37.080  1.00  0.00     0.135 A 
ATOM     93  F   UNL A   1      39.083  32.650  38.117  1.00  0.00    -0.206 F 
ATOM     94  C   UNL A   1      39.051  34.790  39.080  1.00  0.00     0.059 A 
ATOM     95  C   UNL A   1      40.343  36.586  38.078  1.00  0.00     0.059 A 
ATOM     96  F   UNL A   1      41.580  36.184  36.129  1.00  0.00    -0.206 F 
ATOM     97  C   UNL A   1      39.480  36.120  39.068  1.00  0.00     0.060 A 
BRANCH  97  98
ATOM     98  S   UNL A   1      38.912  37.222  40.380  1.00  0.00     0.124 S 
ATOM     99  O   UNL A   1      38.067  36.332  41.167  1.00  0.00    -0.237 OA
ATOM    100  O   UNL A   1      40.165  37.629  41.009  1.00  0.00    -0.237 OA
ATOM    101  O   UNL A   1      38.211  38.279  39.657  1.00  0.00    -0.744 OA
ENDBRANCH  97  98
ENDBRANCH  65  90
ENDBRANCH  39  40
ENDBRANCH  31  34
ENDBRANCH  29  30
ENDBRANCH  28  29
ENDBRANCH  27  28
ENDBRANCH  26  27
ENDBRANCH   1  26
TORSDOF 21
ENDMDL
