MODEL 1
REMARK VINA RESULT:     -10.0      0.000      0.000
REMARK SMILES O=C(CCCCCC(F)(F)c1ccccc1)NCCCCCCNC(=O)c1ccc(-c2c3nc(c(-c4c(F)cc(S(=O)(=O)[O-])cc4F)c4ccc([nH]4)c(-c4c(F)cc(S(=O)(=O)[O-])cc4F)c4nc(c(-c5c(F)cc(S(=O)(=O)[O-])cc5F)c5ccc2[nH]5)C=C4)C=C3)cc1
REMARK SMILES IDX 19 1 18 2 17 3 1 4 2 5 3 7 4 8 5 9 6 10 7 11 8 12 9 13 10 14
REMARK SMILES IDX 11 15 12 16 16 17 13 18 15 19 14 20 20 21 21 22 22 23 23 24
REMARK SMILES IDX 24 25 25 26 26 28 27 29 28 30 92 31 29 32 91 33 30 34 31 35
REMARK SMILES IDX 32 36 85 37 33 38 90 39 84 40 86 41 34 42 89 43 83 44 82 45
REMARK SMILES IDX 35 47 69 48 48 49 68 50 49 51 52 52 67 53 87 54 50 55 51 56
REMARK SMILES IDX 66 58 88 59 53 60 36 61 37 62 46 63 38 64 39 65 45 66 47 67
REMARK SMILES IDX 40 68 41 69 42 70 43 71 44 72 70 73 71 74 80 75 72 76 73 77
REMARK SMILES IDX 79 78 81 79 74 80 75 81 76 82 77 83 78 84 54 85 55 86 64 87
REMARK SMILES IDX 56 88 57 89 63 90 65 91 58 92 59 93 60 94 61 95 62 96
REMARK H PARENT 17 6 24 27 86 46 52 57
REMARK Flexibility Score: inf
ROOT
ATOM      1  C   UNL A   1      39.461  23.061  26.809  1.00  0.00     0.021 C 
ENDROOT
BRANCH   1   2
ATOM      2  C   UNL A   1      38.450  22.332  25.929  1.00  0.00     0.116 C 
BRANCH   2   3
ATOM      3  N   UNL A   1      37.127  22.899  26.082  1.00  0.00    -0.356 N 
ATOM      4  O   UNL A   1      36.402  22.503  23.934  1.00  0.00    -0.275 OA
ATOM      5  C   UNL A   1      36.177  22.843  25.090  1.00  0.00     0.219 C 
ATOM      6  H   UNL A   1      36.898  23.342  26.930  1.00  0.00     0.163 HD
BRANCH   5   7
ATOM      7  C   UNL A   1      34.781  23.148  25.597  1.00  0.00     0.100 C 
BRANCH   7   8
ATOM      8  C   UNL A   1      34.510  24.652  25.535  1.00  0.00     0.010 C 
BRANCH   8   9
ATOM      9  C   UNL A   1      34.283  25.211  24.125  1.00  0.00     0.001 C 
BRANCH   9  10
ATOM     10  C   UNL A   1      32.829  25.289  23.649  1.00  0.00     0.007 C 
BRANCH  10  11
ATOM     11  C   UNL A   1      32.173  26.678  23.611  1.00  0.00     0.082 C 
BRANCH  11  12
ATOM     12  C   UNL A   1      31.400  27.117  24.870  1.00  0.00     0.273 C 
ATOM     13  F   UNL A   1      30.122  27.421  24.495  1.00  0.00    -0.201 F 
ATOM     14  F   UNL A   1      31.276  26.001  25.658  1.00  0.00    -0.201 F 
BRANCH  12  15
ATOM     15  C   UNL A   1      32.075  28.237  25.630  1.00  0.00     0.021 A 
ATOM     16  C   UNL A   1      33.122  27.969  26.526  1.00  0.00     0.010 A 
ATOM     17  C   UNL A   1      31.596  29.553  25.521  1.00  0.00     0.010 A 
ATOM     18  C   UNL A   1      33.588  28.966  27.384  1.00  0.00     0.001 A 
ATOM     19  C   UNL A   1      32.086  30.554  26.359  1.00  0.00     0.001 A 
ATOM     20  C   UNL A   1      33.059  30.253  27.311  1.00  0.00     0.000 A 
ENDBRANCH  12  15
ENDBRANCH  11  12
ENDBRANCH  10  11
ENDBRANCH   9  10
ENDBRANCH   8   9
ENDBRANCH   7   8
ENDBRANCH   5   7
ENDBRANCH   2   3
ENDBRANCH   1   2
BRANCH   1  21
ATOM     21  C   UNL A   1      40.520  22.153  27.455  1.00  0.00     0.002 C 
BRANCH  21  22
ATOM     22  C   UNL A   1      41.682  21.737  26.547  1.00  0.00     0.002 C 
BRANCH  22  23
ATOM     23  C   UNL A   1      43.079  22.065  27.077  1.00  0.00     0.021 C 
BRANCH  23  24
ATOM     24  C   UNL A   1      43.434  23.549  27.105  1.00  0.00     0.116 C 
BRANCH  24  25
ATOM     25  N   UNL A   1      42.881  24.281  25.976  1.00  0.00    -0.352 N 
ATOM     26  C   UNL A   1      42.165  25.457  25.973  1.00  0.00     0.251 C 
ATOM     27  H   UNL A   1      43.042  23.880  25.092  1.00  0.00     0.163 HD
ATOM     28  O   UNL A   1      41.645  25.856  24.939  1.00  0.00    -0.269 OA
BRANCH  26  29
ATOM     29  C   UNL A   1      41.999  26.219  27.232  1.00  0.00     0.039 A 
ATOM     30  C   UNL A   1      42.956  27.178  27.572  1.00  0.00     0.014 A 
ATOM     31  C   UNL A   1      40.897  26.004  28.066  1.00  0.00     0.014 A 
ATOM     32  C   UNL A   1      42.771  27.970  28.708  1.00  0.00     0.010 A 
ATOM     33  C   UNL A   1      40.676  26.845  29.154  1.00  0.00     0.010 A 
ATOM     34  C   UNL A   1      41.608  27.840  29.486  1.00  0.00    -0.014 A 
BRANCH  34  35
ATOM     35  C   UNL A   1      41.341  28.753  30.629  1.00  0.00     0.031 A 
ATOM     36  C   UNL A   1      42.142  28.644  31.898  1.00  0.00     0.074 A 
ATOM     37  C   UNL A   1      40.328  29.637  30.549  1.00  0.00     0.049 A 
ATOM     38  N   UNL A   1      42.018  29.316  33.014  1.00  0.00    -0.248 NA
ATOM     39  C   UNL A   1      43.204  27.627  31.926  1.00  0.00     0.031 C 
ATOM     40  C   UNL A   1      39.440  29.801  29.396  1.00  0.00     0.029 A 
ATOM     41  N   UNL A   1      39.863  30.556  31.457  1.00  0.00    -0.354 N 
ATOM     42  C   UNL A   1      42.978  28.801  33.877  1.00  0.00     0.074 A 
ATOM     43  C   UNL A   1      43.633  27.718  33.175  1.00  0.00     0.031 C 
ATOM     44  C   UNL A   1      38.551  30.771  29.658  1.00  0.00     0.029 A 
ATOM     45  C   UNL A   1      38.776  31.271  31.011  1.00  0.00     0.049 A 
ATOM     46  H   UNL A   1      40.268  30.690  32.344  1.00  0.00     0.167 HD
ATOM     47  C   UNL A   1      43.301  29.208  35.129  1.00  0.00     0.037 A 
ATOM     48  C   UNL A   1      38.034  32.216  31.623  1.00  0.00     0.037 A 
ATOM     49  C   UNL A   1      42.643  30.288  35.820  1.00  0.00     0.049 A 
ATOM     50  C   UNL A   1      38.399  32.646  33.017  1.00  0.00     0.074 A 
ATOM     51  C   UNL A   1      42.930  30.813  37.067  1.00  0.00     0.029 A 
ATOM     52  N   UNL A   1      41.556  30.999  35.329  1.00  0.00    -0.354 N 
ATOM     53  N   UNL A   1      39.361  32.201  33.790  1.00  0.00    -0.248 NA
ATOM     54  C   UNL A   1      37.584  33.710  33.619  1.00  0.00     0.031 C 
ATOM     55  C   UNL A   1      41.983  31.803  37.355  1.00  0.00     0.029 A 
ATOM     56  C   UNL A   1      41.141  31.939  36.262  1.00  0.00     0.049 A 
ATOM     57  H   UNL A   1      41.141  30.859  34.449  1.00  0.00     0.167 HD
ATOM     58  C   UNL A   1      39.278  32.942  34.965  1.00  0.00     0.074 A 
ATOM     59  C   UNL A   1      38.184  33.876  34.791  1.00  0.00     0.031 C 
ATOM     60  C   UNL A   1      40.042  32.856  36.084  1.00  0.00     0.037 A 
BRANCH  47  61
ATOM     61  C   UNL A   1      44.410  28.468  35.832  1.00  0.00     0.058 A 
ATOM     62  C   UNL A   1      45.760  28.810  35.647  1.00  0.00     0.135 A 
ATOM     63  C   UNL A   1      44.122  27.402  36.700  1.00  0.00     0.135 A 
ATOM     64  F   UNL A   1      46.097  29.814  34.822  1.00  0.00    -0.206 F 
ATOM     65  C   UNL A   1      46.784  28.091  36.254  1.00  0.00     0.059 A 
ATOM     66  C   UNL A   1      45.130  26.689  37.345  1.00  0.00     0.059 A 
ATOM     67  F   UNL A   1      42.851  27.033  36.920  1.00  0.00    -0.206 F 
ATOM     68  C   UNL A   1      46.460  27.027  37.095  1.00  0.00     0.060 A 
BRANCH  68  69
ATOM     69  S   UNL A   1      47.802  26.080  37.845  1.00  0.00     0.124 S 
ATOM     70  O   UNL A   1      47.158  25.576  39.054  1.00  0.00    -0.237 OA
ATOM     71  O   UNL A   1      48.092  25.083  36.820  1.00  0.00    -0.237 OA
ATOM     72  O   UNL A   1      48.845  27.079  38.059  1.00  0.00    -0.744 OA
ENDBRANCH  68  69
ENDBRANCH  47  61
BRANCH  48  73
ATOM     73  C   UNL A   1      36.884  32.822  30.901  1.00  0.00     0.058 A 
ATOM     74  C   UNL A   1      35.568  32.411  31.159  1.00  0.00     0.135 A 
ATOM     75  C   UNL A   1      37.076  33.866  29.981  1.00  0.00     0.135 A 
ATOM     76  F   UNL A   1      35.334  31.411  32.022  1.00  0.00    -0.206 F 
ATOM     77  C   UNL A   1      34.482  33.015  30.534  1.00  0.00     0.059 A 
ATOM     78  C   UNL A   1      36.004  34.502  29.364  1.00  0.00     0.059 A 
ATOM     79  F   UNL A   1      38.314  34.305  29.712  1.00  0.00    -0.206 F 
ATOM     80  C   UNL A   1      34.709  34.068  29.646  1.00  0.00     0.060 A 
BRANCH  80  81
ATOM     81  S   UNL A   1      33.286  34.903  28.911  1.00  0.00     0.124 S 
ATOM     82  O   UNL A   1      32.472  35.187  30.086  1.00  0.00    -0.237 OA
ATOM     83  O   UNL A   1      33.909  36.058  28.270  1.00  0.00    -0.237 OA
ATOM     84  O   UNL A   1      32.746  33.904  27.994  1.00  0.00    -0.744 OA
ENDBRANCH  80  81
ENDBRANCH  48  73
BRANCH  60  85
ATOM     85  C   UNL A   1      39.733  33.809  37.208  1.00  0.00     0.058 A 
ATOM     86  C   UNL A   1      38.858  33.462  38.251  1.00  0.00     0.135 A 
ATOM     87  C   UNL A   1      40.359  35.065  37.270  1.00  0.00     0.135 A 
ATOM     88  F   UNL A   1      38.227  32.278  38.238  1.00  0.00    -0.206 F 
ATOM     89  C   UNL A   1      38.597  34.336  39.302  1.00  0.00     0.059 A 
ATOM     90  C   UNL A   1      40.136  35.941  38.328  1.00  0.00     0.059 A 
ATOM     91  F   UNL A   1      41.210  35.444  36.306  1.00  0.00    -0.206 F 
ATOM     92  C   UNL A   1      39.244  35.572  39.334  1.00  0.00     0.060 A 
BRANCH  92  93
ATOM     93  S   UNL A   1      38.922  36.681  40.722  1.00  0.00     0.124 S 
ATOM     94  O   UNL A   1      40.256  36.836  41.291  1.00  0.00    -0.237 OA
ATOM     95  O   UNL A   1      38.374  37.860  40.058  1.00  0.00    -0.237 OA
ATOM     96  O   UNL A   1      37.972  35.934  41.541  1.00  0.00    -0.744 OA
ENDBRANCH  92  93
ENDBRANCH  60  85
ENDBRANCH  34  35
ENDBRANCH  26  29
ENDBRANCH  24  25
ENDBRANCH  23  24
ENDBRANCH  22  23
ENDBRANCH  21  22
ENDBRANCH   1  21
TORSDOF 22
ENDMDL
MODEL 2
REMARK VINA RESULT:      -9.1      2.973      9.189
REMARK SMILES O=C(CCCCCC(F)(F)c1ccccc1)NCCCCCCNC(=O)c1ccc(-c2c3nc(c(-c4c(F)cc(S(=O)(=O)[O-])cc4F)c4ccc([nH]4)c(-c4c(F)cc(S(=O)(=O)[O-])cc4F)c4nc(c(-c5c(F)cc(S(=O)(=O)[O-])cc5F)c5ccc2[nH]5)C=C4)C=C3)cc1
REMARK SMILES IDX 19 1 18 2 17 3 1 4 2 5 3 7 4 8 5 9 6 10 7 11 8 12 9 13 10 14
REMARK SMILES IDX 11 15 12 16 16 17 13 18 15 19 14 20 20 21 21 22 22 23 23 24
REMARK SMILES IDX 24 25 25 26 26 28 27 29 28 30 92 31 29 32 91 33 30 34 31 35
REMARK SMILES IDX 32 36 85 37 33 38 90 39 84 40 86 41 34 42 89 43 83 44 82 45
REMARK SMILES IDX 35 47 69 48 48 49 68 50 49 51 52 52 67 53 87 54 50 55 51 56
REMARK SMILES IDX 66 58 88 59 53 60 36 61 37 62 46 63 38 64 39 65 45 66 47 67
REMARK SMILES IDX 40 68 41 69 42 70 43 71 44 72 70 73 71 74 80 75 72 76 73 77
REMARK SMILES IDX 79 78 81 79 74 80 75 81 76 82 77 83 78 84 54 85 55 86 64 87
REMARK SMILES IDX 56 88 57 89 63 90 65 91 58 92 59 93 60 94 61 95 62 96
REMARK H PARENT 17 6 24 27 86 46 52 57
REMARK Flexibility Score: inf
ROOT
ATOM      1  C   UNL A   1      31.285  27.472  26.139  1.00  0.00     0.021 C 
ENDROOT
BRANCH   1   2
ATOM      2  C   UNL A   1      32.251  26.387  25.673  1.00  0.00     0.116 C 
BRANCH   2   3
ATOM      3  N   UNL A   1      31.533  25.229  25.186  1.00  0.00    -0.356 N 
ATOM      4  O   UNL A   1      31.080  26.042  23.082  1.00  0.00    -0.275 OA
ATOM      5  C   UNL A   1      31.094  25.120  23.888  1.00  0.00     0.219 C 
ATOM      6  H   UNL A   1      31.350  24.490  25.810  1.00  0.00     0.163 HD
BRANCH   5   7
ATOM      7  C   UNL A   1      30.718  23.699  23.513  1.00  0.00     0.100 C 
BRANCH   7   8
ATOM      8  C   UNL A   1      31.769  23.102  22.576  1.00  0.00     0.010 C 
BRANCH   8   9
ATOM      9  C   UNL A   1      33.224  23.397  22.964  1.00  0.00     0.001 C 
BRANCH   9  10
ATOM     10  C   UNL A   1      33.872  22.433  23.962  1.00  0.00     0.007 C 
BRANCH  10  11
ATOM     11  C   UNL A   1      33.357  20.985  23.980  1.00  0.00     0.082 C 
BRANCH  11  12
ATOM     12  C   UNL A   1      33.813  20.099  25.157  1.00  0.00     0.273 C 
ATOM     13  F   UNL A   1      35.115  20.406  25.434  1.00  0.00    -0.201 F 
ATOM     14  F   UNL A   1      33.113  20.525  26.256  1.00  0.00    -0.201 F 
BRANCH  12  15
ATOM     15  C   UNL A   1      33.592  18.622  24.919  1.00  0.00     0.021 A 
ATOM     16  C   UNL A   1      32.578  17.929  25.599  1.00  0.00     0.010 A 
ATOM     17  C   UNL A   1      34.463  17.903  24.084  1.00  0.00     0.010 A 
ATOM     18  C   UNL A   1      32.519  16.536  25.547  1.00  0.00     0.001 A 
ATOM     19  C   UNL A   1      34.382  16.513  24.011  1.00  0.00     0.001 A 
ATOM     20  C   UNL A   1      33.431  15.828  24.766  1.00  0.00     0.000 A 
ENDBRANCH  12  15
ENDBRANCH  11  12
ENDBRANCH  10  11
ENDBRANCH   9  10
ENDBRANCH   8   9
ENDBRANCH   7   8
ENDBRANCH   5   7
ENDBRANCH   2   3
ENDBRANCH   1   2
BRANCH   1  21
ATOM     21  C   UNL A   1      31.614  28.885  25.628  1.00  0.00     0.002 C 
BRANCH  21  22
ATOM     22  C   UNL A   1      32.748  29.609  26.361  1.00  0.00     0.002 C 
BRANCH  22  23
ATOM     23  C   UNL A   1      32.359  30.930  27.029  1.00  0.00     0.021 C 
BRANCH  23  24
ATOM     24  C   UNL A   1      33.514  31.895  27.284  1.00  0.00     0.116 C 
BRANCH  24  25
ATOM     25  N   UNL A   1      33.062  33.248  27.572  1.00  0.00    -0.352 N 
ATOM     26  C   UNL A   1      33.469  34.103  28.571  1.00  0.00     0.251 C 
ATOM     27  H   UNL A   1      32.370  33.601  26.968  1.00  0.00     0.163 HD
ATOM     28  O   UNL A   1      32.873  35.156  28.758  1.00  0.00    -0.269 OA
BRANCH  26  29
ATOM     29  C   UNL A   1      34.610  33.728  29.439  1.00  0.00     0.039 A 
ATOM     30  C   UNL A   1      34.384  32.872  30.519  1.00  0.00     0.014 A 
ATOM     31  C   UNL A   1      35.899  34.203  29.180  1.00  0.00     0.014 A 
ATOM     32  C   UNL A   1      35.461  32.435  31.295  1.00  0.00     0.010 A 
ATOM     33  C   UNL A   1      36.980  33.707  29.905  1.00  0.00     0.010 A 
ATOM     34  C   UNL A   1      36.774  32.815  30.969  1.00  0.00    -0.014 A 
BRANCH  34  35
ATOM     35  C   UNL A   1      37.939  32.266  31.711  1.00  0.00     0.031 A 
ATOM     36  C   UNL A   1      38.765  31.153  31.125  1.00  0.00     0.074 A 
ATOM     37  C   UNL A   1      38.213  32.725  32.949  1.00  0.00     0.049 A 
ATOM     38  N   UNL A   1      39.782  30.515  31.647  1.00  0.00    -0.248 NA
ATOM     39  C   UNL A   1      38.380  30.676  29.789  1.00  0.00     0.031 C 
ATOM     40  C   UNL A   1      37.452  33.759  33.652  1.00  0.00     0.029 A 
ATOM     41  N   UNL A   1      39.195  32.372  33.841  1.00  0.00    -0.354 N 
ATOM     42  C   UNL A   1      40.153  29.560  30.709  1.00  0.00     0.074 A 
ATOM     43  C   UNL A   1      39.212  29.661  29.614  1.00  0.00     0.031 C 
ATOM     44  C   UNL A   1      38.005  33.971  34.856  1.00  0.00     0.029 A 
ATOM     45  C   UNL A   1      39.132  33.060  35.031  1.00  0.00     0.049 A 
ATOM     46  H   UNL A   1      39.879  31.691  33.648  1.00  0.00     0.167 HD
ATOM     47  C   UNL A   1      41.196  28.694  30.744  1.00  0.00     0.037 A 
ATOM     48  C   UNL A   1      39.887  32.962  36.143  1.00  0.00     0.037 A 
ATOM     49  C   UNL A   1      42.128  28.601  31.839  1.00  0.00     0.049 A 
ATOM     50  C   UNL A   1      41.032  31.988  36.170  1.00  0.00     0.074 A 
ATOM     51  C   UNL A   1      43.249  27.797  31.949  1.00  0.00     0.029 A 
ATOM     52  N   UNL A   1      42.041  29.325  33.020  1.00  0.00    -0.354 N 
ATOM     53  N   UNL A   1      41.417  31.145  35.241  1.00  0.00    -0.248 NA
ATOM     54  C   UNL A   1      41.849  31.955  37.390  1.00  0.00     0.031 C 
ATOM     55  C   UNL A   1      43.806  27.993  33.218  1.00  0.00     0.029 A 
ATOM     56  C   UNL A   1      43.070  28.964  33.878  1.00  0.00     0.049 A 
ATOM     57  H   UNL A   1      41.350  29.997  33.221  1.00  0.00     0.167 HD
ATOM     58  C   UNL A   1      42.532  30.493  35.757  1.00  0.00     0.074 A 
ATOM     59  C   UNL A   1      42.769  31.053  37.073  1.00  0.00     0.031 C 
ATOM     60  C   UNL A   1      43.290  29.520  35.192  1.00  0.00     0.037 A 
BRANCH  47  61
ATOM     61  C   UNL A   1      41.370  27.773  29.564  1.00  0.00     0.058 A 
ATOM     62  C   UNL A   1      40.495  26.701  29.327  1.00  0.00     0.135 A 
ATOM     63  C   UNL A   1      42.428  27.963  28.659  1.00  0.00     0.135 A 
ATOM     64  F   UNL A   1      39.472  26.464  30.164  1.00  0.00    -0.206 F 
ATOM     65  C   UNL A   1      40.690  25.820  28.269  1.00  0.00     0.059 A 
ATOM     66  C   UNL A   1      42.623  27.113  27.572  1.00  0.00     0.059 A 
ATOM     67  F   UNL A   1      43.293  28.974  28.830  1.00  0.00    -0.206 F 
ATOM     68  C   UNL A   1      41.762  26.029  27.401  1.00  0.00     0.060 A 
BRANCH  68  69
ATOM     69  S   UNL A   1      42.024  24.856  26.055  1.00  0.00     0.124 S 
ATOM     70  O   UNL A   1      43.266  24.212  26.470  1.00  0.00    -0.237 OA
ATOM     71  O   UNL A   1      40.827  24.025  26.126  1.00  0.00    -0.237 OA
ATOM     72  O   UNL A   1      42.124  25.708  24.874  1.00  0.00    -0.744 OA
ENDBRANCH  68  69
ENDBRANCH  47  61
BRANCH  48  73
ATOM     73  C   UNL A   1      39.582  33.832  37.311  1.00  0.00     0.058 A 
ATOM     74  C   UNL A   1      38.786  33.371  38.369  1.00  0.00     0.135 A 
ATOM     75  C   UNL A   1      40.130  35.120  37.416  1.00  0.00     0.135 A 
ATOM     76  F   UNL A   1      38.232  32.151  38.310  1.00  0.00    -0.206 F 
ATOM     77  C   UNL A   1      38.547  34.154  39.494  1.00  0.00     0.059 A 
ATOM     78  C   UNL A   1      39.926  35.912  38.542  1.00  0.00     0.059 A 
ATOM     79  F   UNL A   1      40.911  35.601  36.437  1.00  0.00    -0.206 F 
ATOM     80  C   UNL A   1      39.130  35.420  39.576  1.00  0.00     0.060 A 
BRANCH  80  81
ATOM     81  S   UNL A   1      38.886  36.389  41.080  1.00  0.00     0.124 S 
ATOM     82  O   UNL A   1      40.185  36.262  41.728  1.00  0.00    -0.237 OA
ATOM     83  O   UNL A   1      38.565  37.708  40.543  1.00  0.00    -0.237 OA
ATOM     84  O   UNL A   1      37.778  35.706  41.745  1.00  0.00    -0.744 OA
ENDBRANCH  80  81
ENDBRANCH  48  73
BRANCH  60  85
ATOM     85  C   UNL A   1      44.462  29.005  35.985  1.00  0.00     0.058 A 
ATOM     86  C   UNL A   1      44.346  27.893  36.836  1.00  0.00     0.135 A 
ATOM     87  C   UNL A   1      45.728  29.600  35.853  1.00  0.00     0.135 A 
ATOM     88  F   UNL A   1      43.159  27.292  37.004  1.00  0.00    -0.206 F 
ATOM     89  C   UNL A   1      45.440  27.405  37.545  1.00  0.00     0.059 A 
ATOM     90  C   UNL A   1      46.840  29.108  36.529  1.00  0.00     0.059 A 
ATOM     91  F   UNL A   1      45.897  30.658  35.047  1.00  0.00    -0.206 F 
ATOM     92  C   UNL A   1      46.683  28.017  37.383  1.00  0.00     0.060 A 
BRANCH  92  93
ATOM     93  S   UNL A   1      48.099  27.350  38.284  1.00  0.00     0.124 S 
ATOM     94  O   UNL A   1      47.669  27.511  39.669  1.00  0.00    -0.237 OA
ATOM     95  O   UNL A   1      48.162  25.977  37.794  1.00  0.00    -0.237 OA
ATOM     96  O   UNL A   1      49.203  28.209  37.866  1.00  0.00    -0.744 OA
ENDBRANCH  92  93
ENDBRANCH  60  85
ENDBRANCH  34  35
ENDBRANCH  26  29
ENDBRANCH  24  25
ENDBRANCH  23  24
ENDBRANCH  22  23
ENDBRANCH  21  22
ENDBRANCH   1  21
TORSDOF 22
ENDMDL
MODEL 3
REMARK VINA RESULT:      -9.0      6.308     13.084
REMARK SMILES O=C(CCCCCC(F)(F)c1ccccc1)NCCCCCCNC(=O)c1ccc(-c2c3nc(c(-c4c(F)cc(S(=O)(=O)[O-])cc4F)c4ccc([nH]4)c(-c4c(F)cc(S(=O)(=O)[O-])cc4F)c4nc(c(-c5c(F)cc(S(=O)(=O)[O-])cc5F)c5ccc2[nH]5)C=C4)C=C3)cc1
REMARK SMILES IDX 19 1 18 2 17 3 1 4 2 5 3 7 4 8 5 9 6 10 7 11 8 12 9 13 10 14
REMARK SMILES IDX 11 15 12 16 16 17 13 18 15 19 14 20 20 21 21 22 22 23 23 24
REMARK SMILES IDX 24 25 25 26 26 28 27 29 28 30 92 31 29 32 91 33 30 34 31 35
REMARK SMILES IDX 32 36 85 37 33 38 90 39 84 40 86 41 34 42 89 43 83 44 82 45
REMARK SMILES IDX 35 47 69 48 48 49 68 50 49 51 52 52 67 53 87 54 50 55 51 56
REMARK SMILES IDX 66 58 88 59 53 60 36 61 37 62 46 63 38 64 39 65 45 66 47 67
REMARK SMILES IDX 40 68 41 69 42 70 43 71 44 72 70 73 71 74 80 75 72 76 73 77
REMARK SMILES IDX 79 78 81 79 74 80 75 81 76 82 77 83 78 84 54 85 55 86 64 87
REMARK SMILES IDX 56 88 57 89 63 90 65 91 58 92 59 93 60 94 61 95 62 96
REMARK H PARENT 17 6 24 27 86 46 52 57
REMARK Flexibility Score: inf
ROOT
ATOM      1  C   UNL A   1      46.468  20.585  39.399  1.00  0.00     0.021 C 
ENDROOT
BRANCH   1   2
ATOM      2  C   UNL A   1      47.067  19.488  38.523  1.00  0.00     0.116 C 
BRANCH   2   3
ATOM      3  N   UNL A   1      46.354  18.241  38.697  1.00  0.00    -0.356 N 
ATOM      4  O   UNL A   1      47.537  17.494  40.524  1.00  0.00    -0.275 OA
ATOM      5  C   UNL A   1      46.590  17.393  39.753  1.00  0.00     0.219 C 
ATOM      6  H   UNL A   1      45.674  17.989  38.032  1.00  0.00     0.163 HD
BRANCH   5   7
ATOM      7  C   UNL A   1      45.489  16.366  39.937  1.00  0.00     0.100 C 
BRANCH   7   8
ATOM      8  C   UNL A   1      44.267  16.742  39.098  1.00  0.00     0.010 C 
BRANCH   8   9
ATOM      9  C   UNL A   1      43.190  15.654  39.000  1.00  0.00     0.001 C 
BRANCH   9  10
ATOM     10  C   UNL A   1      42.960  14.808  40.256  1.00  0.00     0.007 C 
BRANCH  10  11
ATOM     11  C   UNL A   1      41.543  14.260  40.489  1.00  0.00     0.082 C 
BRANCH  11  12
ATOM     12  C   UNL A   1      41.433  12.896  41.198  1.00  0.00     0.273 C 
ATOM     13  F   UNL A   1      40.151  12.447  41.049  1.00  0.00    -0.201 F 
ATOM     14  F   UNL A   1      42.196  12.019  40.472  1.00  0.00    -0.201 F 
BRANCH  12  15
ATOM     15  C   UNL A   1      41.882  12.931  42.642  1.00  0.00     0.021 A 
ATOM     16  C   UNL A   1      41.501  13.986  43.487  1.00  0.00     0.010 A 
ATOM     17  C   UNL A   1      42.767  11.956  43.130  1.00  0.00     0.010 A 
ATOM     18  C   UNL A   1      42.094  14.132  44.742  1.00  0.00     0.001 A 
ATOM     19  C   UNL A   1      43.334  12.089  44.397  1.00  0.00     0.001 A 
ATOM     20  C   UNL A   1      43.021  13.193  45.190  1.00  0.00     0.000 A 
ENDBRANCH  12  15
ENDBRANCH  11  12
ENDBRANCH  10  11
ENDBRANCH   9  10
ENDBRANCH   8   9
ENDBRANCH   7   8
ENDBRANCH   5   7
ENDBRANCH   2   3
ENDBRANCH   1   2
BRANCH   1  21
ATOM     21  C   UNL A   1      46.298  21.943  38.698  1.00  0.00     0.002 C 
BRANCH  21  22
ATOM     22  C   UNL A   1      46.684  23.172  39.527  1.00  0.00     0.002 C 
BRANCH  22  23
ATOM     23  C   UNL A   1      45.548  24.157  39.809  1.00  0.00     0.021 C 
BRANCH  23  24
ATOM     24  C   UNL A   1      45.924  25.633  39.702  1.00  0.00     0.116 C 
BRANCH  24  25
ATOM     25  N   UNL A   1      47.129  25.851  38.918  1.00  0.00    -0.352 N 
ATOM     26  C   UNL A   1      47.283  26.551  37.742  1.00  0.00     0.251 C 
ATOM     27  H   UNL A   1      47.949  25.442  39.278  1.00  0.00     0.163 HD
ATOM     28  O   UNL A   1      48.346  26.507  37.137  1.00  0.00    -0.269 OA
BRANCH  26  29
ATOM     29  C   UNL A   1      46.147  27.330  37.197  1.00  0.00     0.039 A 
ATOM     30  C   UNL A   1      46.401  28.569  36.605  1.00  0.00     0.014 A 
ATOM     31  C   UNL A   1      44.841  26.834  37.252  1.00  0.00     0.014 A 
ATOM     32  C   UNL A   1      45.357  29.278  36.005  1.00  0.00     0.010 A 
ATOM     33  C   UNL A   1      43.817  27.505  36.587  1.00  0.00     0.010 A 
ATOM     34  C   UNL A   1      44.063  28.732  35.953  1.00  0.00    -0.014 A 
BRANCH  34  35
ATOM     35  C   UNL A   1      42.968  29.418  35.217  1.00  0.00     0.031 A 
ATOM     36  C   UNL A   1      42.223  30.564  35.848  1.00  0.00     0.074 A 
ATOM     37  C   UNL A   1      42.597  28.964  34.004  1.00  0.00     0.049 A 
ATOM     38  N   UNL A   1      41.210  31.247  35.382  1.00  0.00    -0.248 NA
ATOM     39  C   UNL A   1      42.657  30.976  37.191  1.00  0.00     0.031 C 
ATOM     40  C   UNL A   1      43.201  27.825  33.309  1.00  0.00     0.029 A 
ATOM     41  N   UNL A   1      41.616  29.393  33.145  1.00  0.00    -0.354 N 
ATOM     42  C   UNL A   1      40.880  32.164  36.373  1.00  0.00     0.074 A 
ATOM     43  C   UNL A   1      41.763  31.905  37.491  1.00  0.00     0.031 C 
ATOM     44  C   UNL A   1      42.591  27.657  32.127  1.00  0.00     0.029 A 
ATOM     45  C   UNL A   1      41.526  28.646  31.993  1.00  0.00     0.049 A 
ATOM     46  H   UNL A   1      41.031  30.162  33.335  1.00  0.00     0.167 HD
ATOM     47  C   UNL A   1      39.947  33.146  36.347  1.00  0.00     0.037 A 
ATOM     48  C   UNL A   1      40.676  28.737  30.951  1.00  0.00     0.037 A 
ATOM     49  C   UNL A   1      39.073  33.396  35.228  1.00  0.00     0.049 A 
ATOM     50  C   UNL A   1      39.638  29.825  30.944  1.00  0.00     0.074 A 
ATOM     51  C   UNL A   1      38.131  34.399  35.080  1.00  0.00     0.029 A 
ATOM     52  N   UNL A   1      39.022  32.628  34.073  1.00  0.00    -0.354 N 
ATOM     53  N   UNL A   1      39.391  30.734  31.858  1.00  0.00    -0.248 NA
ATOM     54  C   UNL A   1      38.767  29.906  29.764  1.00  0.00     0.031 C 
ATOM     55  C   UNL A   1      37.472  34.204  33.861  1.00  0.00     0.029 A 
ATOM     56  C   UNL A   1      38.044  33.116  33.219  1.00  0.00     0.049 A 
ATOM     57  H   UNL A   1      39.596  31.851  33.886  1.00  0.00     0.167 HD
ATOM     58  C   UNL A   1      38.349  31.506  31.356  1.00  0.00     0.074 A 
ATOM     59  C   UNL A   1      38.024  30.967  30.050  1.00  0.00     0.031 C 
ATOM     60  C   UNL A   1      37.720  32.565  31.925  1.00  0.00     0.037 A 
BRANCH  47  61
ATOM     61  C   UNL A   1      39.820  34.013  37.573  1.00  0.00     0.058 A 
ATOM     62  C   UNL A   1      38.963  33.674  38.633  1.00  0.00     0.135 A 
ATOM     63  C   UNL A   1      40.563  35.200  37.690  1.00  0.00     0.135 A 
ATOM     64  F   UNL A   1      38.221  32.557  38.573  1.00  0.00    -0.206 F 
ATOM     65  C   UNL A   1      38.807  34.504  39.738  1.00  0.00     0.059 A 
ATOM     66  C   UNL A   1      40.448  36.029  38.803  1.00  0.00     0.059 A 
ATOM     67  F   UNL A   1      41.402  35.573  36.712  1.00  0.00    -0.206 F 
ATOM     68  C   UNL A   1      39.548  35.683  39.811  1.00  0.00     0.060 A 
BRANCH  68  69
ATOM     69  S   UNL A   1      39.306  36.767  41.234  1.00  0.00     0.124 S 
ATOM     70  O   UNL A   1      38.884  38.006  40.586  1.00  0.00    -0.237 OA
ATOM     71  O   UNL A   1      38.274  36.066  41.990  1.00  0.00    -0.237 OA
ATOM     72  O   UNL A   1      40.624  36.805  41.862  1.00  0.00    -0.744 OA
ENDBRANCH  68  69
ENDBRANCH  47  61
BRANCH  48  73
ATOM     73  C   UNL A   1      40.794  27.772  29.826  1.00  0.00     0.058 A 
ATOM     74  C   UNL A   1      39.845  26.758  29.638  1.00  0.00     0.135 A 
ATOM     75  C   UNL A   1      41.829  27.883  28.883  1.00  0.00     0.135 A 
ATOM     76  F   UNL A   1      38.843  26.605  30.517  1.00  0.00    -0.206 F 
ATOM     77  C   UNL A   1      39.913  25.889  28.553  1.00  0.00     0.059 A 
ATOM     78  C   UNL A   1      41.904  27.043  27.777  1.00  0.00     0.059 A 
ATOM     79  F   UNL A   1      42.754  28.847  29.011  1.00  0.00    -0.206 F 
ATOM     80  C   UNL A   1      40.941  26.047  27.622  1.00  0.00     0.060 A 
BRANCH  80  81
ATOM     81  S   UNL A   1      40.966  24.972  26.170  1.00  0.00     0.124 S 
ATOM     82  O   UNL A   1      41.253  25.923  25.104  1.00  0.00    -0.237 OA
ATOM     83  O   UNL A   1      42.039  24.039  26.501  1.00  0.00    -0.237 OA
ATOM     84  O   UNL A   1      39.625  24.392  26.158  1.00  0.00    -0.744 OA
ENDBRANCH  80  81
ENDBRANCH  48  73
BRANCH  60  85
ATOM     85  C   UNL A   1      36.623  33.227  31.134  1.00  0.00     0.058 A 
ATOM     86  C   UNL A   1      35.267  32.954  31.380  1.00  0.00     0.135 A 
ATOM     87  C   UNL A   1      36.930  34.183  30.153  1.00  0.00     0.135 A 
ATOM     88  F   UNL A   1      34.917  32.043  32.301  1.00  0.00    -0.206 F 
ATOM     89  C   UNL A   1      34.257  33.590  30.664  1.00  0.00     0.059 A 
ATOM     90  C   UNL A   1      35.935  34.853  29.447  1.00  0.00     0.059 A 
ATOM     91  F   UNL A   1      38.208  34.489  29.883  1.00  0.00    -0.206 F 
ATOM     92  C   UNL A   1      34.600  34.540  29.702  1.00  0.00     0.060 A 
BRANCH  92  93
ATOM     93  S   UNL A   1      33.277  35.381  28.806  1.00  0.00     0.124 S 
ATOM     94  O   UNL A   1      34.034  36.244  27.906  1.00  0.00    -0.237 OA
ATOM     95  O   UNL A   1      32.572  34.269  28.176  1.00  0.00    -0.237 OA
ATOM     96  O   UNL A   1      32.536  36.068  29.859  1.00  0.00    -0.744 OA
ENDBRANCH  92  93
ENDBRANCH  60  85
ENDBRANCH  34  35
ENDBRANCH  26  29
ENDBRANCH  24  25
ENDBRANCH  23  24
ENDBRANCH  22  23
ENDBRANCH  21  22
ENDBRANCH   1  21
TORSDOF 22
ENDMDL
