MODEL 1
REMARK VINA RESULT:     -10.5      0.000      0.000
REMARK SMILES CC[NH+](CC)[C@@H](C(=O)NCCCCCCNC(=O)c1ccc(-c2c3nc(c(-c4c(F)cc(S(=O)(=O)[O-])cc4F)c4ccc([nH]4)c(-c4c(F)cc(S(=O)(=O)[O-])cc4F)c4nc(c(-c5c(F)cc(S(=O)(=O)[O-])cc5F)c5ccc2[nH]5)C=C4)C=C3)cc1)c1ccc(C2CC2)cc1
REMARK SMILES IDX 13 1 12 2 11 3 10 4 9 5 7 6 8 7 6 9 3 10 2 12 1 13 4 14 5 15
REMARK SMILES IDX 85 16 86 17 93 18 87 19 92 20 88 21 89 22 90 23 91 24 14 25
REMARK SMILES IDX 15 26 16 27 17 28 18 30 19 31 20 32 84 33 21 34 83 35 22 36
REMARK SMILES IDX 23 37 24 38 77 39 25 40 82 41 76 42 78 43 26 44 81 45 75 46
REMARK SMILES IDX 74 47 27 49 61 50 40 51 60 52 41 53 44 54 59 55 79 56 42 57
REMARK SMILES IDX 43 58 58 60 80 61 45 62 28 63 29 64 38 65 30 66 31 67 37 68
REMARK SMILES IDX 39 69 32 70 33 71 34 72 35 73 36 74 62 75 63 76 72 77 64 78
REMARK SMILES IDX 65 79 71 80 73 81 66 82 67 83 68 84 69 85 70 86 46 87 47 88
REMARK SMILES IDX 56 89 48 90 49 91 55 92 57 93 50 94 51 95 52 96 53 97 54 98
REMARK H PARENT 9 8 3 11 16 29 78 48 44 59
REMARK Flexibility Score: inf
ROOT
ATOM      1  C   UNL A   1      34.813  23.756  23.861  1.00  0.00     0.002 C 
ENDROOT
BRANCH   1   2
ATOM      2  C   UNL A   1      33.830  22.974  22.989  1.00  0.00     0.002 C 
BRANCH   2   3
ATOM      3  C   UNL A   1      32.681  22.305  23.757  1.00  0.00     0.021 C 
BRANCH   3   4
ATOM      4  C   UNL A   1      31.280  22.909  23.565  1.00  0.00     0.116 C 
BRANCH   4   5
ATOM      5  N   UNL A   1      30.678  23.450  24.778  1.00  0.00    -0.351 N 
ATOM      6  C   UNL A   1      30.731  24.665  25.410  1.00  0.00     0.283 C 
ATOM      7  O   UNL A   1      30.047  24.749  26.440  1.00  0.00    -0.268 OA
ATOM      8  H   UNL A   1      30.110  22.798  25.247  1.00  0.00     0.163 HD
BRANCH   6   9
ATOM      9  C   UNL A   1      31.609  25.853  24.890  1.00  0.00     0.305 C 
BRANCH   9  10
ATOM     10  N   UNL A   1      32.260  26.591  26.042  1.00  0.00    -0.321 N 
ATOM     11  H   UNL A   1      32.184  25.892  26.781  1.00  0.00     0.349 HD
BRANCH  10  12
ATOM     12  C   UNL A   1      33.709  26.862  25.964  1.00  0.00     0.259 C 
ATOM     13  C   UNL A   1      34.177  28.266  25.610  1.00  0.00     0.071 C 
ENDBRANCH  10  12
BRANCH  10  14
ATOM     14  C   UNL A   1      31.533  27.817  26.418  1.00  0.00     0.259 C 
ATOM     15  C   UNL A   1      31.415  28.107  27.923  1.00  0.00     0.071 C 
ENDBRANCH  10  14
ENDBRANCH   9  10
BRANCH   9  16
ATOM     16  C   UNL A   1      30.871  26.817  23.928  1.00  0.00     0.019 A 
ATOM     17  C   UNL A   1      31.617  27.675  23.106  1.00  0.00     0.011 A 
ATOM     18  C   UNL A   1      29.477  26.931  23.849  1.00  0.00     0.011 A 
ATOM     19  C   UNL A   1      31.018  28.777  22.481  1.00  0.00     0.004 A 
ATOM     20  C   UNL A   1      28.877  28.016  23.179  1.00  0.00     0.004 A 
ATOM     21  C   UNL A   1      29.640  29.020  22.565  1.00  0.00    -0.045 A 
BRANCH  21  22
ATOM     22  C   UNL A   1      29.092  30.345  22.061  1.00  0.00     0.019 C 
ATOM     23  C   UNL A   1      27.658  30.741  22.290  1.00  0.00     0.009 C 
ATOM     24  C   UNL A   1      28.756  31.491  22.986  1.00  0.00     0.009 C 
ENDBRANCH  21  22
ENDBRANCH   9  16
ENDBRANCH   6   9
ENDBRANCH   4   5
ENDBRANCH   3   4
ENDBRANCH   2   3
ENDBRANCH   1   2
BRANCH   1  25
ATOM     25  C   UNL A   1      36.248  23.219  23.873  1.00  0.00     0.021 C 
BRANCH  25  26
ATOM     26  C   UNL A   1      37.102  23.689  25.049  1.00  0.00     0.116 C 
BRANCH  26  27
ATOM     27  N   UNL A   1      38.120  22.709  25.395  1.00  0.00    -0.352 N 
ATOM     28  C   UNL A   1      39.310  22.927  26.047  1.00  0.00     0.251 C 
ATOM     29  H   UNL A   1      37.935  21.779  25.130  1.00  0.00     0.163 HD
ATOM     30  O   UNL A   1      40.200  22.079  26.033  1.00  0.00    -0.269 OA
BRANCH  28  31
ATOM     31  C   UNL A   1      39.506  24.208  26.756  1.00  0.00     0.039 A 
ATOM     32  C   UNL A   1      38.941  24.390  28.020  1.00  0.00     0.014 A 
ATOM     33  C   UNL A   1      40.303  25.203  26.182  1.00  0.00     0.014 A 
ATOM     34  C   UNL A   1      39.237  25.549  28.741  1.00  0.00     0.010 A 
ATOM     35  C   UNL A   1      40.646  26.326  26.930  1.00  0.00     0.010 A 
ATOM     36  C   UNL A   1      40.125  26.506  28.220  1.00  0.00    -0.014 A 
BRANCH  36  37
ATOM     37  C   UNL A   1      40.552  27.683  29.020  1.00  0.00     0.031 A 
ATOM     38  C   UNL A   1      41.853  27.654  29.774  1.00  0.00     0.074 A 
ATOM     39  C   UNL A   1      39.729  28.744  29.130  1.00  0.00     0.049 A 
ATOM     40  N   UNL A   1      42.352  28.545  30.591  1.00  0.00    -0.248 NA
ATOM     41  C   UNL A   1      42.691  26.456  29.606  1.00  0.00     0.031 C 
ATOM     42  C   UNL A   1      38.422  28.871  28.480  1.00  0.00     0.029 A 
ATOM     43  N   UNL A   1      39.857  29.914  29.838  1.00  0.00    -0.354 N 
ATOM     44  C   UNL A   1      43.556  28.015  31.040  1.00  0.00     0.074 A 
ATOM     45  C   UNL A   1      43.687  26.702  30.445  1.00  0.00     0.031 C 
ATOM     46  C   UNL A   1      37.879  30.054  28.807  1.00  0.00     0.029 A 
ATOM     47  C   UNL A   1      38.773  30.752  29.726  1.00  0.00     0.049 A 
ATOM     48  H   UNL A   1      40.653  30.131  30.378  1.00  0.00     0.167 HD
ATOM     49  C   UNL A   1      44.476  28.579  31.858  1.00  0.00     0.037 A 
ATOM     50  C   UNL A   1      38.517  31.939  30.311  1.00  0.00     0.037 A 
ATOM     51  C   UNL A   1      44.340  29.892  32.436  1.00  0.00     0.049 A 
ATOM     52  C   UNL A   1      39.538  32.530  31.244  1.00  0.00     0.074 A 
ATOM     53  C   UNL A   1      45.244  30.579  33.228  1.00  0.00     0.029 A 
ATOM     54  N   UNL A   1      43.229  30.711  32.297  1.00  0.00    -0.354 N 
ATOM     55  N   UNL A   1      40.706  32.049  31.597  1.00  0.00    -0.248 NA
ATOM     56  C   UNL A   1      39.209  33.823  31.861  1.00  0.00     0.031 C 
ATOM     57  C   UNL A   1      44.655  31.787  33.616  1.00  0.00     0.029 A 
ATOM     58  C   UNL A   1      43.407  31.880  33.019  1.00  0.00     0.049 A 
ATOM     59  H   UNL A   1      42.430  30.493  31.764  1.00  0.00     0.167 HD
ATOM     60  C   UNL A   1      41.260  32.989  32.461  1.00  0.00     0.074 A 
ATOM     61  C   UNL A   1      40.306  34.073  32.563  1.00  0.00     0.031 C 
ATOM     62  C   UNL A   1      42.448  32.953  33.112  1.00  0.00     0.037 A 
BRANCH  49  63
ATOM     63  C   UNL A   1      45.711  27.783  32.182  1.00  0.00     0.058 A 
ATOM     64  C   UNL A   1      45.766  26.924  33.291  1.00  0.00     0.135 A 
ATOM     65  C   UNL A   1      46.839  27.842  31.347  1.00  0.00     0.135 A 
ATOM     66  F   UNL A   1      44.722  26.835  34.131  1.00  0.00    -0.206 F 
ATOM     67  C   UNL A   1      46.902  26.174  33.576  1.00  0.00     0.059 A 
ATOM     68  C   UNL A   1      47.975  27.079  31.595  1.00  0.00     0.059 A 
ATOM     69  F   UNL A   1      46.842  28.647  30.272  1.00  0.00    -0.206 F 
ATOM     70  C   UNL A   1      48.002  26.257  32.722  1.00  0.00     0.060 A 
BRANCH  70  71
ATOM     71  S   UNL A   1      49.465  25.271  33.104  1.00  0.00     0.124 S 
ATOM     72  O   UNL A   1      48.885  24.182  33.885  1.00  0.00    -0.237 OA
ATOM     73  O   UNL A   1      49.951  24.909  31.777  1.00  0.00    -0.237 OA
ATOM     74  O   UNL A   1      50.314  26.194  33.850  1.00  0.00    -0.744 OA
ENDBRANCH  70  71
ENDBRANCH  49  63
BRANCH  50  75
ATOM     75  C   UNL A   1      37.237  32.646  30.029  1.00  0.00     0.058 A 
ATOM     76  C   UNL A   1      36.072  32.347  30.749  1.00  0.00     0.135 A 
ATOM     77  C   UNL A   1      37.158  33.645  29.045  1.00  0.00     0.135 A 
ATOM     78  F   UNL A   1      36.093  31.394  31.693  1.00  0.00    -0.206 F 
ATOM     79  C   UNL A   1      34.870  33.002  30.497  1.00  0.00     0.059 A 
ATOM     80  C   UNL A   1      35.975  34.334  28.794  1.00  0.00     0.059 A 
ATOM     81  F   UNL A   1      38.248  33.980  28.337  1.00  0.00    -0.206 F 
ATOM     82  C   UNL A   1      34.834  33.998  29.520  1.00  0.00     0.060 A 
BRANCH  82  83
ATOM     83  S   UNL A   1      33.282  34.878  29.238  1.00  0.00     0.124 S 
ATOM     84  O   UNL A   1      32.625  34.011  28.267  1.00  0.00    -0.237 OA
ATOM     85  O   UNL A   1      32.697  34.901  30.575  1.00  0.00    -0.237 OA
ATOM     86  O   UNL A   1      33.720  36.176  28.733  1.00  0.00    -0.744 OA
ENDBRANCH  82  83
ENDBRANCH  50  75
BRANCH  62  87
ATOM     87  C   UNL A   1      42.800  34.126  33.986  1.00  0.00     0.058 A 
ATOM     88  C   UNL A   1      42.571  34.106  35.370  1.00  0.00     0.135 A 
ATOM     89  C   UNL A   1      43.444  35.251  33.444  1.00  0.00     0.135 A 
ATOM     90  F   UNL A   1      41.948  33.060  35.937  1.00  0.00    -0.206 F 
ATOM     91  C   UNL A   1      42.959  35.163  36.186  1.00  0.00     0.059 A 
ATOM     92  C   UNL A   1      43.868  36.306  34.246  1.00  0.00     0.059 A 
ATOM     93  F   UNL A   1      43.694  35.318  32.127  1.00  0.00    -0.206 F 
ATOM     94  C   UNL A   1      43.616  36.255  35.615  1.00  0.00     0.060 A 
BRANCH  94  95
ATOM     95  S   UNL A   1      44.170  37.590  36.698  1.00  0.00     0.124 S 
ATOM     96  O   UNL A   1      43.112  37.612  37.703  1.00  0.00    -0.237 OA
ATOM     97  O   UNL A   1      45.468  37.102  37.153  1.00  0.00    -0.237 OA
ATOM     98  O   UNL A   1      44.218  38.749  35.812  1.00  0.00    -0.744 OA
ENDBRANCH  94  95
ENDBRANCH  62  87
ENDBRANCH  36  37
ENDBRANCH  28  31
ENDBRANCH  26  27
ENDBRANCH  25  26
ENDBRANCH   1  25
TORSDOF 21
ENDMDL
MODEL 2
REMARK VINA RESULT:     -10.2      5.007     10.609
REMARK SMILES CC[NH+](CC)[C@@H](C(=O)NCCCCCCNC(=O)c1ccc(-c2c3nc(c(-c4c(F)cc(S(=O)(=O)[O-])cc4F)c4ccc([nH]4)c(-c4c(F)cc(S(=O)(=O)[O-])cc4F)c4nc(c(-c5c(F)cc(S(=O)(=O)[O-])cc5F)c5ccc2[nH]5)C=C4)C=C3)cc1)c1ccc(C2CC2)cc1
REMARK SMILES IDX 13 1 12 2 11 3 10 4 9 5 7 6 8 7 6 9 3 10 2 12 1 13 4 14 5 15
REMARK SMILES IDX 85 16 86 17 93 18 87 19 92 20 88 21 89 22 90 23 91 24 14 25
REMARK SMILES IDX 15 26 16 27 17 28 18 30 19 31 20 32 84 33 21 34 83 35 22 36
REMARK SMILES IDX 23 37 24 38 77 39 25 40 82 41 76 42 78 43 26 44 81 45 75 46
REMARK SMILES IDX 74 47 27 49 61 50 40 51 60 52 41 53 44 54 59 55 79 56 42 57
REMARK SMILES IDX 43 58 58 60 80 61 45 62 28 63 29 64 38 65 30 66 31 67 37 68
REMARK SMILES IDX 39 69 32 70 33 71 34 72 35 73 36 74 62 75 63 76 72 77 64 78
REMARK SMILES IDX 65 79 71 80 73 81 66 82 67 83 68 84 69 85 70 86 46 87 47 88
REMARK SMILES IDX 56 89 48 90 49 91 55 92 57 93 50 94 51 95 52 96 53 97 54 98
REMARK H PARENT 9 8 3 11 16 29 78 48 44 59
REMARK Flexibility Score: inf
ROOT
ATOM      1  C   UNL A   1      34.417  29.011  26.016  1.00  0.00     0.002 C 
ENDROOT
BRANCH   1   2
ATOM      2  C   UNL A   1      33.233  29.341  25.105  1.00  0.00     0.002 C 
BRANCH   2   3
ATOM      3  C   UNL A   1      33.283  28.676  23.721  1.00  0.00     0.021 C 
BRANCH   3   4
ATOM      4  C   UNL A   1      32.985  27.169  23.670  1.00  0.00     0.116 C 
BRANCH   4   5
ATOM      5  N   UNL A   1      33.059  26.578  22.339  1.00  0.00    -0.351 N 
ATOM      6  C   UNL A   1      33.154  25.295  21.867  1.00  0.00     0.283 C 
ATOM      7  O   UNL A   1      33.174  25.190  20.633  1.00  0.00    -0.268 OA
ATOM      8  H   UNL A   1      33.038  27.250  21.620  1.00  0.00     0.163 HD
BRANCH   6   9
ATOM      9  C   UNL A   1      33.257  24.051  22.813  1.00  0.00     0.305 C 
BRANCH   9  10
ATOM     10  N   UNL A   1      32.016  23.918  23.672  1.00  0.00    -0.321 N 
ATOM     11  H   UNL A   1      32.220  24.597  24.405  1.00  0.00     0.349 HD
BRANCH  10  12
ATOM     12  C   UNL A   1      30.731  24.379  23.114  1.00  0.00     0.259 C 
ATOM     13  C   UNL A   1      29.941  25.442  23.863  1.00  0.00     0.071 C 
ENDBRANCH  10  12
BRANCH  10  14
ATOM     14  C   UNL A   1      31.866  22.570  24.251  1.00  0.00     0.259 C 
ATOM     15  C   UNL A   1      31.482  22.504  25.738  1.00  0.00     0.071 C 
ENDBRANCH  10  14
ENDBRANCH   9  10
BRANCH   9  16
ATOM     16  C   UNL A   1      34.555  23.998  23.658  1.00  0.00     0.019 A 
ATOM     17  C   UNL A   1      35.644  23.240  23.201  1.00  0.00     0.011 A 
ATOM     18  C   UNL A   1      34.709  24.630  24.898  1.00  0.00     0.011 A 
ATOM     19  C   UNL A   1      36.691  22.889  24.064  1.00  0.00     0.004 A 
ATOM     20  C   UNL A   1      35.789  24.309  25.744  1.00  0.00     0.004 A 
ATOM     21  C   UNL A   1      36.752  23.353  25.386  1.00  0.00    -0.045 A 
BRANCH  21  22
ATOM     22  C   UNL A   1      37.781  22.758  26.332  1.00  0.00     0.019 C 
ATOM     23  C   UNL A   1      39.018  22.072  25.817  1.00  0.00     0.009 C 
ATOM     24  C   UNL A   1      39.142  23.378  26.548  1.00  0.00     0.009 C 
ENDBRANCH  21  22
ENDBRANCH   9  16
ENDBRANCH   6   9
ENDBRANCH   4   5
ENDBRANCH   3   4
ENDBRANCH   2   3
ENDBRANCH   1   2
BRANCH   1  25
ATOM     25  C   UNL A   1      34.370  29.652  27.407  1.00  0.00     0.021 C 
BRANCH  25  26
ATOM     26  C   UNL A   1      35.689  29.620  28.175  1.00  0.00     0.116 C 
BRANCH  26  27
ATOM     27  N   UNL A   1      35.523  30.090  29.542  1.00  0.00    -0.352 N 
ATOM     28  C   UNL A   1      36.468  30.131  30.539  1.00  0.00     0.251 C 
ATOM     29  H   UNL A   1      34.626  30.417  29.782  1.00  0.00     0.163 HD
ATOM     30  O   UNL A   1      36.139  30.285  31.713  1.00  0.00    -0.269 OA
BRANCH  28  31
ATOM     31  C   UNL A   1      37.891  29.974  30.174  1.00  0.00     0.039 A 
ATOM     32  C   UNL A   1      38.818  29.608  31.151  1.00  0.00     0.014 A 
ATOM     33  C   UNL A   1      38.287  30.138  28.843  1.00  0.00     0.014 A 
ATOM     34  C   UNL A   1      40.136  29.334  30.777  1.00  0.00     0.010 A 
ATOM     35  C   UNL A   1      39.583  29.803  28.464  1.00  0.00     0.010 A 
ATOM     36  C   UNL A   1      40.518  29.388  29.425  1.00  0.00    -0.014 A 
BRANCH  36  37
ATOM     37  C   UNL A   1      41.878  28.979  28.988  1.00  0.00     0.031 A 
ATOM     38  C   UNL A   1      42.981  29.997  28.892  1.00  0.00     0.074 A 
ATOM     39  C   UNL A   1      42.096  27.706  28.601  1.00  0.00     0.049 A 
ATOM     40  N   UNL A   1      44.203  29.850  28.451  1.00  0.00    -0.248 NA
ATOM     41  C   UNL A   1      42.660  31.366  29.328  1.00  0.00     0.031 C 
ATOM     42  C   UNL A   1      41.094  26.637  28.608  1.00  0.00     0.029 A 
ATOM     43  N   UNL A   1      43.224  27.095  28.112  1.00  0.00    -0.354 N 
ATOM     44  C   UNL A   1      44.794  31.104  28.547  1.00  0.00     0.074 A 
ATOM     45  C   UNL A   1      43.781  32.012  29.040  1.00  0.00     0.031 C 
ATOM     46  C   UNL A   1      41.654  25.503  28.161  1.00  0.00     0.029 A 
ATOM     47  C   UNL A   1      43.041  25.770  27.791  1.00  0.00     0.049 A 
ATOM     48  H   UNL A   1      44.084  27.563  28.000  1.00  0.00     0.167 HD
ATOM     49  C   UNL A   1      46.071  31.461  28.268  1.00  0.00     0.037 A 
ATOM     50  C   UNL A   1      43.886  24.875  27.241  1.00  0.00     0.037 A 
ATOM     51  C   UNL A   1      47.075  30.545  27.788  1.00  0.00     0.049 A 
ATOM     52  C   UNL A   1      45.289  25.304  26.907  1.00  0.00     0.074 A 
ATOM     53  C   UNL A   1      48.412  30.795  27.535  1.00  0.00     0.029 A 
ATOM     54  N   UNL A   1      46.851  29.212  27.477  1.00  0.00    -0.354 N 
ATOM     55  N   UNL A   1      45.854  26.475  27.077  1.00  0.00    -0.248 NA
ATOM     56  C   UNL A   1      46.170  24.293  26.305  1.00  0.00     0.031 C 
ATOM     57  C   UNL A   1      48.984  29.629  27.014  1.00  0.00     0.029 A 
ATOM     58  C   UNL A   1      48.017  28.636  26.998  1.00  0.00     0.049 A 
ATOM     59  H   UNL A   1      45.991  28.744  27.581  1.00  0.00     0.167 HD
ATOM     60  C   UNL A   1      47.161  26.338  26.621  1.00  0.00     0.074 A 
ATOM     61  C   UNL A   1      47.308  24.965  26.185  1.00  0.00     0.031 C 
ATOM     62  C   UNL A   1      48.148  27.266  26.567  1.00  0.00     0.037 A 
BRANCH  49  63
ATOM     63  C   UNL A   1      46.458  32.901  28.471  1.00  0.00     0.058 A 
ATOM     64  C   UNL A   1      46.914  33.375  29.711  1.00  0.00     0.135 A 
ATOM     65  C   UNL A   1      46.418  33.809  27.400  1.00  0.00     0.135 A 
ATOM     66  F   UNL A   1      46.961  32.555  30.774  1.00  0.00    -0.206 F 
ATOM     67  C   UNL A   1      47.289  34.703  29.890  1.00  0.00     0.059 A 
ATOM     68  C   UNL A   1      46.817  35.134  27.548  1.00  0.00     0.059 A 
ATOM     69  F   UNL A   1      45.991  33.410  26.191  1.00  0.00    -0.206 F 
ATOM     70  C   UNL A   1      47.238  35.575  28.802  1.00  0.00     0.060 A 
BRANCH  70  71
ATOM     71  S   UNL A   1      47.737  37.292  29.051  1.00  0.00     0.124 S 
ATOM     72  O   UNL A   1      48.538  37.539  27.855  1.00  0.00    -0.237 OA
ATOM     73  O   UNL A   1      46.454  37.983  29.109  1.00  0.00    -0.237 OA
ATOM     74  O   UNL A   1      48.482  37.252  30.306  1.00  0.00    -0.744 OA
ENDBRANCH  70  71
ENDBRANCH  49  63
BRANCH  50  75
ATOM     75  C   UNL A   1      43.427  23.485  26.975  1.00  0.00     0.058 A 
ATOM     76  C   UNL A   1      43.168  23.046  25.668  1.00  0.00     0.135 A 
ATOM     77  C   UNL A   1      43.251  22.563  28.019  1.00  0.00     0.135 A 
ATOM     78  F   UNL A   1      43.313  23.892  24.636  1.00  0.00    -0.206 F 
ATOM     79  C   UNL A   1      42.741  21.748  25.406  1.00  0.00     0.059 A 
ATOM     80  C   UNL A   1      42.852  21.251  27.779  1.00  0.00     0.059 A 
ATOM     81  F   UNL A   1      43.499  22.926  29.288  1.00  0.00    -0.206 F 
ATOM     82  C   UNL A   1      42.590  20.856  26.468  1.00  0.00     0.060 A 
BRANCH  82  83
ATOM     83  S   UNL A   1      42.085  19.160  26.111  1.00  0.00     0.124 S 
ATOM     84  O   UNL A   1      40.642  19.306  25.971  1.00  0.00    -0.237 OA
ATOM     85  O   UNL A   1      42.822  18.875  24.883  1.00  0.00    -0.237 OA
ATOM     86  O   UNL A   1      42.535  18.421  27.287  1.00  0.00    -0.744 OA
ENDBRANCH  82  83
ENDBRANCH  50  75
BRANCH  62  87
ATOM     87  C   UNL A   1      49.485  26.831  26.029  1.00  0.00     0.058 A 
ATOM     88  C   UNL A   1      49.847  27.053  24.692  1.00  0.00     0.135 A 
ATOM     89  C   UNL A   1      50.443  26.256  26.881  1.00  0.00     0.135 A 
ATOM     90  F   UNL A   1      48.964  27.589  23.833  1.00  0.00    -0.206 F 
ATOM     91  C   UNL A   1      51.107  26.713  24.215  1.00  0.00     0.059 A 
ATOM     92  C   UNL A   1      51.720  25.937  26.433  1.00  0.00     0.059 A 
ATOM     93  F   UNL A   1      50.151  26.029  28.172  1.00  0.00    -0.206 F 
ATOM     94  C   UNL A   1      52.041  26.163  25.096  1.00  0.00     0.060 A 
BRANCH  94  95
ATOM     95  S   UNL A   1      53.694  25.787  24.475  1.00  0.00     0.124 S 
ATOM     96  O   UNL A   1      53.799  24.360  24.764  1.00  0.00    -0.237 OA
ATOM     97  O   UNL A   1      53.585  26.142  23.063  1.00  0.00    -0.237 OA
ATOM     98  O   UNL A   1      54.562  26.652  25.268  1.00  0.00    -0.744 OA
ENDBRANCH  94  95
ENDBRANCH  62  87
ENDBRANCH  36  37
ENDBRANCH  28  31
ENDBRANCH  26  27
ENDBRANCH  25  26
ENDBRANCH   1  25
TORSDOF 21
ENDMDL
MODEL 3
REMARK VINA RESULT:     -10.1      0.924      2.656
REMARK SMILES CC[NH+](CC)[C@@H](C(=O)NCCCCCCNC(=O)c1ccc(-c2c3nc(c(-c4c(F)cc(S(=O)(=O)[O-])cc4F)c4ccc([nH]4)c(-c4c(F)cc(S(=O)(=O)[O-])cc4F)c4nc(c(-c5c(F)cc(S(=O)(=O)[O-])cc5F)c5ccc2[nH]5)C=C4)C=C3)cc1)c1ccc(C2CC2)cc1
REMARK SMILES IDX 13 1 12 2 11 3 10 4 9 5 7 6 8 7 6 9 3 10 2 12 1 13 4 14 5 15
REMARK SMILES IDX 85 16 86 17 93 18 87 19 92 20 88 21 89 22 90 23 91 24 14 25
REMARK SMILES IDX 15 26 16 27 17 28 18 30 19 31 20 32 84 33 21 34 83 35 22 36
REMARK SMILES IDX 23 37 24 38 77 39 25 40 82 41 76 42 78 43 26 44 81 45 75 46
REMARK SMILES IDX 74 47 27 49 61 50 40 51 60 52 41 53 44 54 59 55 79 56 42 57
REMARK SMILES IDX 43 58 58 60 80 61 45 62 28 63 29 64 38 65 30 66 31 67 37 68
REMARK SMILES IDX 39 69 32 70 33 71 34 72 35 73 36 74 62 75 63 76 72 77 64 78
REMARK SMILES IDX 65 79 71 80 73 81 66 82 67 83 68 84 69 85 70 86 46 87 47 88
REMARK SMILES IDX 56 89 48 90 49 91 55 92 57 93 50 94 51 95 52 96 53 97 54 98
REMARK H PARENT 9 8 3 11 16 29 78 48 44 59
REMARK Flexibility Score: inf
ROOT
ATOM      1  C   UNL A   1      34.901  23.971  24.217  1.00  0.00     0.002 C 
ENDROOT
BRANCH   1   2
ATOM      2  C   UNL A   1      33.927  23.271  23.266  1.00  0.00     0.002 C 
BRANCH   2   3
ATOM      3  C   UNL A   1      32.763  22.546  23.958  1.00  0.00     0.021 C 
BRANCH   3   4
ATOM      4  C   UNL A   1      31.427  23.303  24.033  1.00  0.00     0.116 C 
BRANCH   4   5
ATOM      5  N   UNL A   1      30.796  23.296  25.347  1.00  0.00    -0.351 N 
ATOM      6  C   UNL A   1      30.267  24.267  26.157  1.00  0.00     0.283 C 
ATOM      7  O   UNL A   1      29.790  23.856  27.224  1.00  0.00    -0.268 OA
ATOM      8  H   UNL A   1      30.739  22.396  25.739  1.00  0.00     0.163 HD
BRANCH   6   9
ATOM      9  C   UNL A   1      30.285  25.787  25.780  1.00  0.00     0.305 C 
BRANCH   9  10
ATOM     10  N   UNL A   1      30.100  25.979  24.289  1.00  0.00    -0.321 N 
ATOM     11  H   UNL A   1      30.242  25.025  23.957  1.00  0.00     0.349 HD
BRANCH  10  12
ATOM     12  C   UNL A   1      28.754  26.325  23.794  1.00  0.00     0.259 C 
ATOM     13  C   UNL A   1      28.428  27.783  23.506  1.00  0.00     0.071 C 
ENDBRANCH  10  12
BRANCH  10  14
ATOM     14  C   UNL A   1      31.107  26.881  23.701  1.00  0.00     0.259 C 
ATOM     15  C   UNL A   1      31.534  26.580  22.256  1.00  0.00     0.071 C 
ENDBRANCH  10  14
ENDBRANCH   9  10
BRANCH   9  16
ATOM     16  C   UNL A   1      31.514  26.562  26.316  1.00  0.00     0.019 A 
ATOM     17  C   UNL A   1      31.323  27.626  27.211  1.00  0.00     0.011 A 
ATOM     18  C   UNL A   1      32.835  26.302  25.927  1.00  0.00     0.011 A 
ATOM     19  C   UNL A   1      32.343  28.555  27.456  1.00  0.00     0.004 A 
ATOM     20  C   UNL A   1      33.868  27.216  26.217  1.00  0.00     0.004 A 
ATOM     21  C   UNL A   1      33.623  28.416  26.902  1.00  0.00    -0.045 A 
BRANCH  21  22
ATOM     22  C   UNL A   1      34.608  29.567  27.020  1.00  0.00     0.019 C 
ATOM     23  C   UNL A   1      34.142  30.995  27.105  1.00  0.00     0.009 C 
ATOM     24  C   UNL A   1      34.791  30.354  28.297  1.00  0.00     0.009 C 
ENDBRANCH  21  22
ENDBRANCH   9  16
ENDBRANCH   6   9
ENDBRANCH   4   5
ENDBRANCH   3   4
ENDBRANCH   2   3
ENDBRANCH   1   2
BRANCH   1  25
ATOM     25  C   UNL A   1      36.304  23.360  24.282  1.00  0.00     0.021 C 
BRANCH  25  26
ATOM     26  C   UNL A   1      37.140  23.793  25.485  1.00  0.00     0.116 C 
BRANCH  26  27
ATOM     27  N   UNL A   1      38.238  22.870  25.732  1.00  0.00    -0.352 N 
ATOM     28  C   UNL A   1      39.470  23.155  26.271  1.00  0.00     0.251 C 
ATOM     29  H   UNL A   1      38.080  21.931  25.482  1.00  0.00     0.163 HD
ATOM     30  O   UNL A   1      40.400  22.357  26.172  1.00  0.00    -0.269 OA
BRANCH  28  31
ATOM     31  C   UNL A   1      39.661  24.446  26.963  1.00  0.00     0.039 A 
ATOM     32  C   UNL A   1      39.156  24.618  28.253  1.00  0.00     0.014 A 
ATOM     33  C   UNL A   1      40.394  25.462  26.343  1.00  0.00     0.014 A 
ATOM     34  C   UNL A   1      39.451  25.790  28.953  1.00  0.00     0.010 A 
ATOM     35  C   UNL A   1      40.738  26.601  27.066  1.00  0.00     0.010 A 
ATOM     36  C   UNL A   1      40.279  26.772  28.381  1.00  0.00    -0.014 A 
BRANCH  36  37
ATOM     37  C   UNL A   1      40.710  27.968  29.152  1.00  0.00     0.031 A 
ATOM     38  C   UNL A   1      42.033  27.973  29.864  1.00  0.00     0.074 A 
ATOM     39  C   UNL A   1      39.870  29.015  29.274  1.00  0.00     0.049 A 
ATOM     40  N   UNL A   1      42.541  28.884  30.653  1.00  0.00    -0.248 NA
ATOM     41  C   UNL A   1      42.889  26.789  29.685  1.00  0.00     0.031 C 
ATOM     42  C   UNL A   1      38.540  29.109  28.664  1.00  0.00     0.029 A 
ATOM     43  N   UNL A   1      39.998  30.196  29.963  1.00  0.00    -0.354 N 
ATOM     44  C   UNL A   1      43.769  28.383  31.071  1.00  0.00     0.074 A 
ATOM     45  C   UNL A   1      43.906  27.065  30.488  1.00  0.00     0.031 C 
ATOM     46  C   UNL A   1      37.985  30.285  28.994  1.00  0.00     0.029 A 
ATOM     47  C   UNL A   1      38.895  31.012  29.874  1.00  0.00     0.049 A 
ATOM     48  H   UNL A   1      40.806  30.435  30.474  1.00  0.00     0.167 HD
ATOM     49  C   UNL A   1      44.703  28.976  31.852  1.00  0.00     0.037 A 
ATOM     50  C   UNL A   1      38.634  32.202  30.452  1.00  0.00     0.037 A 
ATOM     51  C   UNL A   1      44.560  30.294  32.417  1.00  0.00     0.049 A 
ATOM     52  C   UNL A   1      39.674  32.825  31.344  1.00  0.00     0.074 A 
ATOM     53  C   UNL A   1      45.475  31.007  33.170  1.00  0.00     0.029 A 
ATOM     54  N   UNL A   1      43.429  31.089  32.302  1.00  0.00    -0.354 N 
ATOM     55  N   UNL A   1      40.861  32.370  31.666  1.00  0.00    -0.248 NA
ATOM     56  C   UNL A   1      39.340  34.119  31.954  1.00  0.00     0.031 C 
ATOM     57  C   UNL A   1      44.876  32.209  33.561  1.00  0.00     0.029 A 
ATOM     58  C   UNL A   1      43.609  32.271  33.003  1.00  0.00     0.049 A 
ATOM     59  H   UNL A   1      42.618  30.849  31.798  1.00  0.00     0.167 HD
ATOM     60  C   UNL A   1      41.423  33.331  32.500  1.00  0.00     0.074 A 
ATOM     61  C   UNL A   1      40.453  34.400  32.618  1.00  0.00     0.031 C 
ATOM     62  C   UNL A   1      42.633  33.326  33.113  1.00  0.00     0.037 A 
BRANCH  49  63
ATOM     63  C   UNL A   1      45.963  28.207  32.146  1.00  0.00     0.058 A 
ATOM     64  C   UNL A   1      47.111  28.339  31.350  1.00  0.00     0.135 A 
ATOM     65  C   UNL A   1      46.040  27.363  33.266  1.00  0.00     0.135 A 
ATOM     66  F   UNL A   1      47.093  29.122  30.259  1.00  0.00    -0.206 F 
ATOM     67  C   UNL A   1      48.281  27.641  31.635  1.00  0.00     0.059 A 
ATOM     68  C   UNL A   1      47.207  26.678  33.589  1.00  0.00     0.059 A 
ATOM     69  F   UNL A   1      44.971  27.199  34.063  1.00  0.00    -0.206 F 
ATOM     70  C   UNL A   1      48.319  26.814  32.759  1.00  0.00     0.060 A 
BRANCH  70  71
ATOM     71  S   UNL A   1      49.847  25.923  33.119  1.00  0.00     0.124 S 
ATOM     72  O   UNL A   1      50.796  26.610  32.247  1.00  0.00    -0.237 OA
ATOM     73  O   UNL A   1      50.015  26.159  34.548  1.00  0.00    -0.237 OA
ATOM     74  O   UNL A   1      49.536  24.546  32.745  1.00  0.00    -0.744 OA
ENDBRANCH  70  71
ENDBRANCH  49  63
BRANCH  50  75
ATOM     75  C   UNL A   1      37.333  32.881  30.202  1.00  0.00     0.058 A 
ATOM     76  C   UNL A   1      37.147  33.696  29.077  1.00  0.00     0.135 A 
ATOM     77  C   UNL A   1      36.246  32.715  31.074  1.00  0.00     0.135 A 
ATOM     78  F   UNL A   1      38.158  33.893  28.217  1.00  0.00    -0.206 F 
ATOM     79  C   UNL A   1      35.936  34.335  28.831  1.00  0.00     0.059 A 
ATOM     80  C   UNL A   1      35.016  33.320  30.835  1.00  0.00     0.059 A 
ATOM     81  F   UNL A   1      36.366  31.933  32.159  1.00  0.00    -0.206 F 
ATOM     82  C   UNL A   1      34.874  34.136  29.714  1.00  0.00     0.060 A 
BRANCH  82  83
ATOM     83  S   UNL A   1      33.290  34.927  29.356  1.00  0.00     0.124 S 
ATOM     84  O   UNL A   1      32.661  34.932  30.671  1.00  0.00    -0.237 OA
ATOM     85  O   UNL A   1      33.708  36.227  28.842  1.00  0.00    -0.237 OA
ATOM     86  O   UNL A   1      32.686  34.036  28.370  1.00  0.00    -0.744 OA
ENDBRANCH  82  83
ENDBRANCH  50  75
BRANCH  62  87
ATOM     87  C   UNL A   1      42.989  34.518  33.960  1.00  0.00     0.058 A 
ATOM     88  C   UNL A   1      42.823  34.505  35.353  1.00  0.00     0.135 A 
ATOM     89  C   UNL A   1      43.576  35.655  33.380  1.00  0.00     0.135 A 
ATOM     90  F   UNL A   1      42.256  33.448  35.957  1.00  0.00    -0.206 F 
ATOM     91  C   UNL A   1      43.217  35.580  36.142  1.00  0.00     0.059 A 
ATOM     92  C   UNL A   1      44.005  36.730  34.153  1.00  0.00     0.059 A 
ATOM     93  F   UNL A   1      43.765  35.716  32.052  1.00  0.00    -0.206 F 
ATOM     94  C   UNL A   1      43.816  36.685  35.533  1.00  0.00     0.060 A 
BRANCH  94  95
ATOM     95  S   UNL A   1      44.379  38.046  36.578  1.00  0.00     0.124 S 
ATOM     96  O   UNL A   1      44.247  39.185  35.674  1.00  0.00    -0.237 OA
ATOM     97  O   UNL A   1      43.430  38.001  37.685  1.00  0.00    -0.237 OA
ATOM     98  O   UNL A   1      45.748  37.671  36.917  1.00  0.00    -0.744 OA
ENDBRANCH  94  95
ENDBRANCH  62  87
ENDBRANCH  36  37
ENDBRANCH  28  31
ENDBRANCH  26  27
ENDBRANCH  25  26
ENDBRANCH   1  25
TORSDOF 21
ENDMDL
