MODEL 1
REMARK VINA RESULT:     -12.0      0.000      0.000
REMARK SMILES CC[C@H]1CCCCN1S(=O)(=O)c1ccc2oc(C(=O)NCCCCCCNC(=O)c3ccc(-c4c5nc(c(-c6c(F)cc(S(=O)(=O)[O-])cc6F)c6ccc([nH]6)c(-c6c(F)cc(S(=O)(=O)[O-])cc6F)c6nc(c(-c7c(F)cc(S(=O)(=O)[O-])cc7F)c7ccc4[nH]7)C=C6)C=C5)cc3)c(C)c2c1
REMARK SMILES IDX 23 1 22 2 21 3 20 4 18 5 19 6 17 8 12 9 13 10 99 11 14 12
REMARK SMILES IDX 98 13 15 14 96 15 16 16 97 17 9 18 10 19 11 20 8 21 3 22
REMARK SMILES IDX 4 23 5 24 7 25 6 26 2 27 1 28 24 29 25 30 26 31 27 32 28 33
REMARK SMILES IDX 29 35 30 36 31 37 95 38 32 39 94 40 33 41 34 42 35 43 88 44
REMARK SMILES IDX 36 45 93 46 87 47 89 48 37 49 92 50 86 51 85 52 38 54 72 55
REMARK SMILES IDX 51 56 71 57 52 58 55 59 70 60 90 61 53 62 54 63 69 65 91 66
REMARK SMILES IDX 56 67 39 68 40 69 49 70 41 71 42 72 48 73 50 74 43 75 44 76
REMARK SMILES IDX 45 77 46 78 47 79 73 80 74 81 83 82 75 83 76 84 82 85 84 86
REMARK SMILES IDX 77 87 78 88 79 89 80 90 81 91 57 92 58 93 67 94 59 95 60 96
REMARK SMILES IDX 66 97 68 98 61 99 62 100 63 101 64 102 65 103
REMARK H PARENT 20 7 27 34 89 53 55 64
REMARK Flexibility Score: inf
ROOT
ATOM      1  C   UNL A   1      35.511  32.378  27.848  1.00  0.00     0.002 C 
ENDROOT
BRANCH   1   2
ATOM      2  C   UNL A   1      34.264  31.631  28.325  1.00  0.00     0.021 C 
BRANCH   2   3
ATOM      3  C   UNL A   1      33.671  30.605  27.366  1.00  0.00     0.116 C 
BRANCH   3   4
ATOM      4  N   UNL A   1      32.491  31.013  26.642  1.00  0.00    -0.349 N 
ATOM      5  C   UNL A   1      31.727  30.295  25.736  1.00  0.00     0.287 C 
ATOM      6  O   UNL A   1      30.773  30.902  25.242  1.00  0.00    -0.266 OA
ATOM      7  H   UNL A   1      32.186  31.933  26.815  1.00  0.00     0.163 HD
BRANCH   5   8
ATOM      8  C   UNL A   1      32.073  28.928  25.357  1.00  0.00     0.195 A 
ATOM      9  C   UNL A   1      32.748  24.563  24.138  1.00  0.00     0.083 A 
ATOM     10  C   UNL A   1      32.304  24.358  25.451  1.00  0.00     0.025 A 
ATOM     11  C   UNL A   1      32.773  25.847  23.593  1.00  0.00     0.034 A 
ATOM     12  C   UNL A   1      31.885  25.449  26.246  1.00  0.00     0.049 A 
ATOM     13  C   UNL A   1      32.529  26.940  24.424  1.00  0.00     0.025 A 
ATOM     14  C   UNL A   1      32.021  26.723  25.687  1.00  0.00     0.135 A 
ATOM     15  C   UNL A   1      32.775  28.332  24.312  1.00  0.00     0.008 A 
ATOM     16  O   UNL A   1      31.692  27.924  26.241  1.00  0.00    -0.451 OA
ATOM     17  C   UNL A   1      33.690  28.897  23.288  1.00  0.00     0.049 C 
BRANCH   9  18
ATOM     18  S   UNL A   1      33.107  23.217  23.027  1.00  0.00     0.243 S 
ATOM     19  O   UNL A   1      33.547  23.868  21.809  1.00  0.00    -0.207 OA
ATOM     20  O   UNL A   1      31.962  22.336  23.025  1.00  0.00    -0.207 OA
BRANCH  18  21
ATOM     21  N   UNL A   1      34.431  22.335  23.687  1.00  0.00    -0.195 NA
ATOM     22  C   UNL A   1      35.726  23.114  23.794  1.00  0.00     0.073 C 
ATOM     23  C   UNL A   1      36.873  22.081  23.869  1.00  0.00     0.020 C 
ATOM     24  C   UNL A   1      36.733  21.161  25.080  1.00  0.00     0.003 C 
ATOM     25  C   UNL A   1      34.215  21.442  24.856  1.00  0.00     0.103 C 
ATOM     26  C   UNL A   1      35.381  20.475  25.056  1.00  0.00     0.017 C 
BRANCH  22  27
ATOM     27  C   UNL A   1      35.832  24.078  25.002  1.00  0.00     0.017 C 
ATOM     28  C   UNL A   1      36.953  23.812  25.993  1.00  0.00     0.005 C 
ENDBRANCH  22  27
ENDBRANCH  18  21
ENDBRANCH   9  18
ENDBRANCH   5   8
ENDBRANCH   3   4
ENDBRANCH   2   3
ENDBRANCH   1   2
BRANCH   1  29
ATOM     29  C   UNL A   1      35.878  33.687  28.555  1.00  0.00     0.002 C 
BRANCH  29  30
ATOM     30  C   UNL A   1      37.220  33.765  29.290  1.00  0.00     0.021 C 
BRANCH  30  31
ATOM     31  C   UNL A   1      37.205  33.628  30.812  1.00  0.00     0.116 C 
BRANCH  31  32
ATOM     32  N   UNL A   1      36.495  32.457  31.284  1.00  0.00    -0.352 N 
ATOM     33  C   UNL A   1      36.848  31.130  31.289  1.00  0.00     0.251 C 
ATOM     34  H   UNL A   1      35.608  32.645  31.670  1.00  0.00     0.163 HD
ATOM     35  O   UNL A   1      36.028  30.311  31.704  1.00  0.00    -0.269 OA
BRANCH  33  36
ATOM     36  C   UNL A   1      38.160  30.654  30.780  1.00  0.00     0.039 A 
ATOM     37  C   UNL A   1      38.274  30.408  29.406  1.00  0.00     0.014 A 
ATOM     38  C   UNL A   1      39.253  30.389  31.612  1.00  0.00     0.014 A 
ATOM     39  C   UNL A   1      39.480  29.953  28.864  1.00  0.00     0.010 A 
ATOM     40  C   UNL A   1      40.478  29.987  31.063  1.00  0.00     0.010 A 
ATOM     41  C   UNL A   1      40.604  29.763  29.684  1.00  0.00    -0.014 A 
BRANCH  41  42
ATOM     42  C   UNL A   1      41.903  29.350  29.088  1.00  0.00     0.031 A 
ATOM     43  C   UNL A   1      43.046  30.321  28.963  1.00  0.00     0.074 A 
ATOM     44  C   UNL A   1      42.051  28.086  28.641  1.00  0.00     0.049 A 
ATOM     45  N   UNL A   1      44.256  30.116  28.507  1.00  0.00    -0.248 NA
ATOM     46  C   UNL A   1      42.791  31.706  29.385  1.00  0.00     0.031 C 
ATOM     47  C   UNL A   1      41.005  27.060  28.647  1.00  0.00     0.029 A 
ATOM     48  N   UNL A   1      43.139  27.447  28.101  1.00  0.00    -0.354 N 
ATOM     49  C   UNL A   1      44.907  31.343  28.580  1.00  0.00     0.074 A 
ATOM     50  C   UNL A   1      43.940  32.298  29.083  1.00  0.00     0.031 C 
ATOM     51  C   UNL A   1      41.509  25.914  28.162  1.00  0.00     0.029 A 
ATOM     52  C   UNL A   1      42.908  26.125  27.798  1.00  0.00     0.049 A 
ATOM     53  H   UNL A   1      44.003  27.891  27.944  1.00  0.00     0.167 HD
ATOM     54  C   UNL A   1      46.193  31.644  28.277  1.00  0.00     0.037 A 
ATOM     55  C   UNL A   1      43.730  25.183  27.297  1.00  0.00     0.037 A 
ATOM     56  C   UNL A   1      47.163  30.691  27.800  1.00  0.00     0.049 A 
ATOM     57  C   UNL A   1      45.165  25.528  27.020  1.00  0.00     0.074 A 
ATOM     58  C   UNL A   1      48.504  30.893  27.515  1.00  0.00     0.029 A 
ATOM     59  N   UNL A   1      46.899  29.355  27.539  1.00  0.00    -0.354 N 
ATOM     60  N   UNL A   1      45.777  26.680  27.155  1.00  0.00    -0.248 NA
ATOM     61  C   UNL A   1      46.027  24.440  26.537  1.00  0.00     0.031 C 
ATOM     62  C   UNL A   1      49.044  29.683  27.061  1.00  0.00     0.029 A 
ATOM     63  C   UNL A   1      48.048  28.722  27.091  1.00  0.00     0.049 A 
ATOM     64  H   UNL A   1      46.023  28.920  27.656  1.00  0.00     0.167 HD
ATOM     65  C   UNL A   1      47.099  26.451  26.791  1.00  0.00     0.074 A 
ATOM     66  C   UNL A   1      47.202  25.048  26.448  1.00  0.00     0.031 C 
ATOM     67  C   UNL A   1      48.135  27.326  26.745  1.00  0.00     0.037 A 
BRANCH  54  68
ATOM     68  C   UNL A   1      46.631  33.072  28.461  1.00  0.00     0.058 A 
ATOM     69  C   UNL A   1      47.164  33.523  29.679  1.00  0.00     0.135 A 
ATOM     70  C   UNL A   1      46.545  33.990  27.403  1.00  0.00     0.135 A 
ATOM     71  F   UNL A   1      47.255  32.687  30.726  1.00  0.00    -0.206 F 
ATOM     72  C   UNL A   1      47.567  34.842  29.853  1.00  0.00     0.059 A 
ATOM     73  C   UNL A   1      46.965  35.311  27.548  1.00  0.00     0.059 A 
ATOM     74  F   UNL A   1      46.045  33.611  26.217  1.00  0.00    -0.206 F 
ATOM     75  C   UNL A   1      47.459  35.731  28.782  1.00  0.00     0.060 A 
BRANCH  75  76
ATOM     76  S   UNL A   1      47.980  37.443  29.020  1.00  0.00     0.124 S 
ATOM     77  O   UNL A   1      46.772  38.168  28.641  1.00  0.00    -0.237 OA
ATOM     78  O   UNL A   1      48.319  37.476  30.440  1.00  0.00    -0.237 OA
ATOM     79  O   UNL A   1      49.110  37.583  28.106  1.00  0.00    -0.744 OA
ENDBRANCH  75  76
ENDBRANCH  54  68
BRANCH  55  80
ATOM     80  C   UNL A   1      43.222  23.805  27.072  1.00  0.00     0.058 A 
ATOM     81  C   UNL A   1      42.860  23.373  25.790  1.00  0.00     0.135 A 
ATOM     82  C   UNL A   1      43.109  22.892  28.131  1.00  0.00     0.135 A 
ATOM     83  F   UNL A   1      42.947  24.215  24.748  1.00  0.00    -0.206 F 
ATOM     84  C   UNL A   1      42.391  22.084  25.561  1.00  0.00     0.059 A 
ATOM     85  C   UNL A   1      42.662  21.591  27.924  1.00  0.00     0.059 A 
ATOM     86  F   UNL A   1      43.460  23.255  29.374  1.00  0.00    -0.206 F 
ATOM     87  C   UNL A   1      42.298  21.199  26.637  1.00  0.00     0.060 A 
BRANCH  87  88
ATOM     88  S   UNL A   1      41.750  19.506  26.327  1.00  0.00     0.124 S 
ATOM     89  O   UNL A   1      40.309  19.684  26.194  1.00  0.00    -0.237 OA
ATOM     90  O   UNL A   1      42.468  19.166  25.102  1.00  0.00    -0.237 OA
ATOM     91  O   UNL A   1      42.193  18.791  27.520  1.00  0.00    -0.744 OA
ENDBRANCH  87  88
ENDBRANCH  55  80
BRANCH  67  92
ATOM     92  C   UNL A   1      49.468  26.777  26.322  1.00  0.00     0.058 A 
ATOM     93  C   UNL A   1      50.299  26.093  27.223  1.00  0.00     0.135 A 
ATOM     94  C   UNL A   1      49.920  26.939  25.004  1.00  0.00     0.135 A 
ATOM     95  F   UNL A   1      49.914  25.917  28.497  1.00  0.00    -0.206 F 
ATOM     96  C   UNL A   1      51.552  25.624  26.842  1.00  0.00     0.059 A 
ATOM     97  C   UNL A   1      51.161  26.459  24.595  1.00  0.00     0.059 A 
ATOM     98  F   UNL A   1      49.158  27.576  24.100  1.00  0.00    -0.206 F 
ATOM     99  C   UNL A   1      51.979  25.821  25.527  1.00  0.00     0.060 A 
BRANCH  99 100
ATOM    100  S   UNL A   1      53.609  25.219  25.039  1.00  0.00     0.124 S 
ATOM    101  O   UNL A   1      53.625  25.543  23.617  1.00  0.00    -0.237 OA
ATOM    102  O   UNL A   1      54.505  26.010  25.878  1.00  0.00    -0.237 OA
ATOM    103  O   UNL A   1      53.553  23.797  25.362  1.00  0.00    -0.744 OA
ENDBRANCH  99 100
ENDBRANCH  67  92
ENDBRANCH  41  42
ENDBRANCH  33  36
ENDBRANCH  31  32
ENDBRANCH  30  31
ENDBRANCH  29  30
ENDBRANCH   1  29
TORSDOF 19
ENDMDL
MODEL 2
REMARK VINA RESULT:     -11.4      1.193      8.058
REMARK SMILES CC[C@H]1CCCCN1S(=O)(=O)c1ccc2oc(C(=O)NCCCCCCNC(=O)c3ccc(-c4c5nc(c(-c6c(F)cc(S(=O)(=O)[O-])cc6F)c6ccc([nH]6)c(-c6c(F)cc(S(=O)(=O)[O-])cc6F)c6nc(c(-c7c(F)cc(S(=O)(=O)[O-])cc7F)c7ccc4[nH]7)C=C6)C=C5)cc3)c(C)c2c1
REMARK SMILES IDX 23 1 22 2 21 3 20 4 18 5 19 6 17 8 12 9 13 10 99 11 14 12
REMARK SMILES IDX 98 13 15 14 96 15 16 16 97 17 9 18 10 19 11 20 8 21 3 22
REMARK SMILES IDX 4 23 5 24 7 25 6 26 2 27 1 28 24 29 25 30 26 31 27 32 28 33
REMARK SMILES IDX 29 35 30 36 31 37 95 38 32 39 94 40 33 41 34 42 35 43 88 44
REMARK SMILES IDX 36 45 93 46 87 47 89 48 37 49 92 50 86 51 85 52 38 54 72 55
REMARK SMILES IDX 51 56 71 57 52 58 55 59 70 60 90 61 53 62 54 63 69 65 91 66
REMARK SMILES IDX 56 67 39 68 40 69 49 70 41 71 42 72 48 73 50 74 43 75 44 76
REMARK SMILES IDX 45 77 46 78 47 79 73 80 74 81 83 82 75 83 76 84 82 85 84 86
REMARK SMILES IDX 77 87 78 88 79 89 80 90 81 91 57 92 58 93 67 94 59 95 60 96
REMARK SMILES IDX 66 97 68 98 61 99 62 100 63 101 64 102 65 103
REMARK H PARENT 20 7 27 34 89 53 55 64
REMARK Flexibility Score: inf
ROOT
ATOM      1  C   UNL A   1      35.246  32.885  27.766  1.00  0.00     0.002 C 
ENDROOT
BRANCH   1   2
ATOM      2  C   UNL A   1      34.093  31.956  28.147  1.00  0.00     0.021 C 
BRANCH   2   3
ATOM      3  C   UNL A   1      33.692  30.903  27.121  1.00  0.00     0.116 C 
BRANCH   3   4
ATOM      4  N   UNL A   1      32.414  31.090  26.476  1.00  0.00    -0.349 N 
ATOM      5  C   UNL A   1      31.727  30.236  25.628  1.00  0.00     0.287 C 
ATOM      6  O   UNL A   1      30.652  30.662  25.197  1.00  0.00    -0.266 OA
ATOM      7  H   UNL A   1      31.967  31.946  26.666  1.00  0.00     0.163 HD
BRANCH   5   8
ATOM      8  C   UNL A   1      32.278  28.943  25.232  1.00  0.00     0.195 A 
ATOM      9  C   UNL A   1      34.334  25.096  23.831  1.00  0.00     0.083 A 
ATOM     10  C   UNL A   1      33.906  25.581  22.588  1.00  0.00     0.025 A 
ATOM     11  C   UNL A   1      34.135  25.847  24.989  1.00  0.00     0.034 A 
ATOM     12  C   UNL A   1      33.259  26.834  22.491  1.00  0.00     0.049 A 
ATOM     13  C   UNL A   1      33.347  26.996  24.925  1.00  0.00     0.025 A 
ATOM     14  C   UNL A   1      32.999  27.502  23.690  1.00  0.00     0.135 A 
ATOM     15  C   UNL A   1      32.688  27.790  25.897  1.00  0.00     0.008 A 
ATOM     16  O   UNL A   1      32.395  28.711  23.866  1.00  0.00    -0.451 OA
ATOM     17  C   UNL A   1      32.475  27.324  27.291  1.00  0.00     0.049 C 
BRANCH   9  18
ATOM     18  S   UNL A   1      35.319  23.620  23.995  1.00  0.00     0.243 S 
ATOM     19  O   UNL A   1      36.076  23.831  25.214  1.00  0.00    -0.207 OA
ATOM     20  O   UNL A   1      35.990  23.402  22.735  1.00  0.00    -0.207 OA
BRANCH  18  21
ATOM     21  N   UNL A   1      34.242  22.298  24.239  1.00  0.00    -0.195 NA
ATOM     22  C   UNL A   1      34.071  21.873  25.683  1.00  0.00     0.073 C 
ATOM     23  C   UNL A   1      33.553  20.417  25.670  1.00  0.00     0.020 C 
ATOM     24  C   UNL A   1      32.216  20.294  24.943  1.00  0.00     0.003 C 
ATOM     25  C   UNL A   1      32.966  22.235  23.480  1.00  0.00     0.103 C 
ATOM     26  C   UNL A   1      32.340  20.843  23.534  1.00  0.00     0.017 C 
BRANCH  22  27
ATOM     27  C   UNL A   1      33.110  22.746  26.530  1.00  0.00     0.017 C 
ATOM     28  C   UNL A   1      33.002  22.407  28.007  1.00  0.00     0.005 C 
ENDBRANCH  22  27
ENDBRANCH  18  21
ENDBRANCH   9  18
ENDBRANCH   5   8
ENDBRANCH   3   4
ENDBRANCH   2   3
ENDBRANCH   1   2
BRANCH   1  29
ATOM     29  C   UNL A   1      35.727  33.898  28.809  1.00  0.00     0.002 C 
BRANCH  29  30
ATOM     30  C   UNL A   1      37.116  33.704  29.428  1.00  0.00     0.021 C 
BRANCH  30  31
ATOM     31  C   UNL A   1      37.187  33.167  30.856  1.00  0.00     0.116 C 
BRANCH  31  32
ATOM     32  N   UNL A   1      36.408  31.965  31.067  1.00  0.00    -0.352 N 
ATOM     33  C   UNL A   1      36.739  30.639  30.926  1.00  0.00     0.251 C 
ATOM     34  H   UNL A   1      35.482  32.125  31.364  1.00  0.00     0.163 HD
ATOM     35  O   UNL A   1      35.862  29.797  31.118  1.00  0.00    -0.269 OA
BRANCH  33  36
ATOM     36  C   UNL A   1      38.098  30.198  30.521  1.00  0.00     0.039 A 
ATOM     37  C   UNL A   1      38.368  30.104  29.149  1.00  0.00     0.014 A 
ATOM     38  C   UNL A   1      39.086  29.822  31.436  1.00  0.00     0.014 A 
ATOM     39  C   UNL A   1      39.625  29.689  28.701  1.00  0.00     0.010 A 
ATOM     40  C   UNL A   1      40.363  29.460  30.988  1.00  0.00     0.010 A 
ATOM     41  C   UNL A   1      40.646  29.388  29.616  1.00  0.00    -0.014 A 
BRANCH  41  42
ATOM     42  C   UNL A   1      42.003  29.018  29.129  1.00  0.00     0.031 A 
ATOM     43  C   UNL A   1      42.294  27.636  28.610  1.00  0.00     0.074 A 
ATOM     44  C   UNL A   1      42.990  29.937  29.168  1.00  0.00     0.049 A 
ATOM     45  N   UNL A   1      43.406  27.159  28.111  1.00  0.00    -0.248 NA
ATOM     46  C   UNL A   1      41.200  26.656  28.678  1.00  0.00     0.031 C 
ATOM     47  C   UNL A   1      42.860  31.294  29.703  1.00  0.00     0.029 A 
ATOM     48  N   UNL A   1      44.295  29.870  28.747  1.00  0.00    -0.354 N 
ATOM     49  C   UNL A   1      43.152  25.826  27.811  1.00  0.00     0.074 A 
ATOM     50  C   UNL A   1      41.791  25.557  28.227  1.00  0.00     0.031 C 
ATOM     51  C   UNL A   1      44.027  31.941  29.551  1.00  0.00     0.029 A 
ATOM     52  C   UNL A   1      44.992  31.043  28.923  1.00  0.00     0.049 A 
ATOM     53  H   UNL A   1      44.694  29.060  28.356  1.00  0.00     0.167 HD
ATOM     54  C   UNL A   1      43.967  24.914  27.226  1.00  0.00     0.037 A 
ATOM     55  C   UNL A   1      46.259  31.366  28.602  1.00  0.00     0.037 A 
ATOM     56  C   UNL A   1      45.313  25.185  26.789  1.00  0.00     0.049 A 
ATOM     57  C   UNL A   1      47.126  30.355  27.907  1.00  0.00     0.074 A 
ATOM     58  C   UNL A   1      46.198  24.340  26.139  1.00  0.00     0.029 A 
ATOM     59  N   UNL A   1      45.971  26.396  26.954  1.00  0.00    -0.354 N 
ATOM     60  N   UNL A   1      46.845  29.118  27.575  1.00  0.00    -0.248 NA
ATOM     61  C   UNL A   1      48.476  30.791  27.525  1.00  0.00     0.031 C 
ATOM     62  C   UNL A   1      47.397  25.032  25.932  1.00  0.00     0.029 A 
ATOM     63  C   UNL A   1      47.250  26.317  26.425  1.00  0.00     0.049 A 
ATOM     64  H   UNL A   1      45.585  27.194  27.383  1.00  0.00     0.167 HD
ATOM     65  C   UNL A   1      47.978  28.633  26.931  1.00  0.00     0.074 A 
ATOM     66  C   UNL A   1      48.940  29.715  26.903  1.00  0.00     0.031 C 
ATOM     67  C   UNL A   1      48.201  27.400  26.410  1.00  0.00     0.037 A 
BRANCH  54  68
ATOM     68  C   UNL A   1      43.418  23.529  27.016  1.00  0.00     0.058 A 
ATOM     69  C   UNL A   1      43.389  22.587  28.056  1.00  0.00     0.135 A 
ATOM     70  C   UNL A   1      42.890  23.149  25.772  1.00  0.00     0.135 A 
ATOM     71  F   UNL A   1      43.894  22.896  29.261  1.00  0.00    -0.206 F 
ATOM     72  C   UNL A   1      42.884  21.306  27.863  1.00  0.00     0.059 A 
ATOM     73  C   UNL A   1      42.358  21.879  25.563  1.00  0.00     0.059 A 
ATOM     74  F   UNL A   1      42.891  24.012  24.744  1.00  0.00    -0.206 F 
ATOM     75  C   UNL A   1      42.376  20.959  26.610  1.00  0.00     0.060 A 
BRANCH  75  76
ATOM     76  S   UNL A   1      41.728  19.291  26.369  1.00  0.00     0.124 S 
ATOM     77  O   UNL A   1      40.505  19.562  25.619  1.00  0.00    -0.237 OA
ATOM     78  O   UNL A   1      42.798  18.641  25.618  1.00  0.00    -0.237 OA
ATOM     79  O   UNL A   1      41.535  18.801  27.730  1.00  0.00    -0.744 OA
ENDBRANCH  75  76
ENDBRANCH  54  68
BRANCH  55  80
ATOM     80  C   UNL A   1      46.769  32.730  28.896  1.00  0.00     0.058 A 
ATOM     81  C   UNL A   1      46.675  33.754  27.944  1.00  0.00     0.135 A 
ATOM     82  C   UNL A   1      47.338  33.040  30.141  1.00  0.00     0.135 A 
ATOM     83  F   UNL A   1      46.143  33.500  26.738  1.00  0.00    -0.206 F 
ATOM     84  C   UNL A   1      47.139  35.037  28.207  1.00  0.00     0.059 A 
ATOM     85  C   UNL A   1      47.790  34.321  30.434  1.00  0.00     0.059 A 
ATOM     86  F   UNL A   1      47.432  32.097  31.091  1.00  0.00    -0.206 F 
ATOM     87  C   UNL A   1      47.693  35.312  29.458  1.00  0.00     0.060 A 
BRANCH  87  88
ATOM     88  S   UNL A   1      48.236  36.997  29.820  1.00  0.00     0.124 S 
ATOM     89  O   UNL A   1      48.818  37.397  28.545  1.00  0.00    -0.237 OA
ATOM     90  O   UNL A   1      46.985  37.653  30.187  1.00  0.00    -0.237 OA
ATOM     91  O   UNL A   1      49.180  36.811  30.918  1.00  0.00    -0.744 OA
ENDBRANCH  87  88
ENDBRANCH  55  80
BRANCH  67  92
ATOM     92  C   UNL A   1      49.532  27.172  25.754  1.00  0.00     0.058 A 
ATOM     93  C   UNL A   1      49.718  27.382  24.378  1.00  0.00     0.135 A 
ATOM     94  C   UNL A   1      50.634  26.737  26.507  1.00  0.00     0.135 A 
ATOM     95  F   UNL A   1      48.694  27.793  23.614  1.00  0.00    -0.206 F 
ATOM     96  C   UNL A   1      50.940  27.128  23.764  1.00  0.00     0.059 A 
ATOM     97  C   UNL A   1      51.871  26.497  25.917  1.00  0.00     0.059 A 
ATOM     98  F   UNL A   1      50.511  26.532  27.829  1.00  0.00    -0.206 F 
ATOM     99  C   UNL A   1      52.009  26.676  24.541  1.00  0.00     0.060 A 
BRANCH  99 100
ATOM    100  S   UNL A   1      53.590  26.338  23.737  1.00  0.00     0.124 S 
ATOM    101  O   UNL A   1      54.279  27.613  23.904  1.00  0.00    -0.237 OA
ATOM    102  O   UNL A   1      54.115  25.226  24.523  1.00  0.00    -0.237 OA
ATOM    103  O   UNL A   1      53.207  26.003  22.369  1.00  0.00    -0.744 OA
ENDBRANCH  99 100
ENDBRANCH  67  92
ENDBRANCH  41  42
ENDBRANCH  33  36
ENDBRANCH  31  32
ENDBRANCH  30  31
ENDBRANCH  29  30
ENDBRANCH   1  29
TORSDOF 19
ENDMDL
MODEL 3
REMARK VINA RESULT:     -11.3      4.870     12.306
REMARK SMILES CC[C@H]1CCCCN1S(=O)(=O)c1ccc2oc(C(=O)NCCCCCCNC(=O)c3ccc(-c4c5nc(c(-c6c(F)cc(S(=O)(=O)[O-])cc6F)c6ccc([nH]6)c(-c6c(F)cc(S(=O)(=O)[O-])cc6F)c6nc(c(-c7c(F)cc(S(=O)(=O)[O-])cc7F)c7ccc4[nH]7)C=C6)C=C5)cc3)c(C)c2c1
REMARK SMILES IDX 23 1 22 2 21 3 20 4 18 5 19 6 17 8 12 9 13 10 99 11 14 12
REMARK SMILES IDX 98 13 15 14 96 15 16 16 97 17 9 18 10 19 11 20 8 21 3 22
REMARK SMILES IDX 4 23 5 24 7 25 6 26 2 27 1 28 24 29 25 30 26 31 27 32 28 33
REMARK SMILES IDX 29 35 30 36 31 37 95 38 32 39 94 40 33 41 34 42 35 43 88 44
REMARK SMILES IDX 36 45 93 46 87 47 89 48 37 49 92 50 86 51 85 52 38 54 72 55
REMARK SMILES IDX 51 56 71 57 52 58 55 59 70 60 90 61 53 62 54 63 69 65 91 66
REMARK SMILES IDX 56 67 39 68 40 69 49 70 41 71 42 72 48 73 50 74 43 75 44 76
REMARK SMILES IDX 45 77 46 78 47 79 73 80 74 81 83 82 75 83 76 84 82 85 84 86
REMARK SMILES IDX 77 87 78 88 79 89 80 90 81 91 57 92 58 93 67 94 59 95 60 96
REMARK SMILES IDX 66 97 68 98 61 99 62 100 63 101 64 102 65 103
REMARK H PARENT 20 7 27 34 89 53 55 64
REMARK Flexibility Score: inf
ROOT
ATOM      1  C   UNL A   1      43.048  23.615  25.629  1.00  0.00     0.002 C 
ENDROOT
BRANCH   1   2
ATOM      2  C   UNL A   1      44.550  23.352  25.508  1.00  0.00     0.021 C 
BRANCH   2   3
ATOM      3  C   UNL A   1      45.472  24.553  25.675  1.00  0.00     0.116 C 
BRANCH   3   4
ATOM      4  N   UNL A   1      46.315  24.556  26.847  1.00  0.00    -0.349 N 
ATOM      5  C   UNL A   1      46.731  25.626  27.624  1.00  0.00     0.287 C 
ATOM      6  O   UNL A   1      47.475  25.344  28.566  1.00  0.00    -0.266 OA
ATOM      7  H   UNL A   1      46.640  23.674  27.135  1.00  0.00     0.163 HD
BRANCH   5   8
ATOM      8  C   UNL A   1      46.352  26.999  27.302  1.00  0.00     0.195 A 
ATOM      9  C   UNL A   1      45.025  31.341  26.687  1.00  0.00     0.083 A 
ATOM     10  C   UNL A   1      43.766  30.726  26.700  1.00  0.00     0.025 A 
ATOM     11  C   UNL A   1      46.178  30.593  26.925  1.00  0.00     0.034 A 
ATOM     12  C   UNL A   1      43.646  29.340  26.946  1.00  0.00     0.049 A 
ATOM     13  C   UNL A   1      46.083  29.204  26.993  1.00  0.00     0.025 A 
ATOM     14  C   UNL A   1      44.837  28.621  27.083  1.00  0.00     0.135 A 
ATOM     15  C   UNL A   1      47.026  28.150  26.900  1.00  0.00     0.008 A 
ATOM     16  O   UNL A   1      44.992  27.288  27.323  1.00  0.00    -0.451 OA
ATOM     17  C   UNL A   1      48.401  28.358  26.380  1.00  0.00     0.049 C 
BRANCH   9  18
ATOM     18  S   UNL A   1      45.227  33.108  26.573  1.00  0.00     0.243 S 
ATOM     19  O   UNL A   1      44.899  33.415  25.195  1.00  0.00    -0.207 OA
ATOM     20  O   UNL A   1      46.526  33.434  27.115  1.00  0.00    -0.207 OA
BRANCH  18  21
ATOM     21  N   UNL A   1      44.047  33.835  27.594  1.00  0.00    -0.195 NA
ATOM     22  C   UNL A   1      43.930  33.219  28.973  1.00  0.00     0.073 C 
ATOM     23  C   UNL A   1      42.534  33.593  29.521  1.00  0.00     0.020 C 
ATOM     24  C   UNL A   1      42.348  35.105  29.624  1.00  0.00     0.003 C 
ATOM     25  C   UNL A   1      43.909  35.315  27.627  1.00  0.00     0.103 C 
ATOM     26  C   UNL A   1      42.595  35.750  28.273  1.00  0.00     0.017 C 
BRANCH  22  27
ATOM     27  C   UNL A   1      45.010  33.655  29.996  1.00  0.00     0.017 C 
ATOM     28  C   UNL A   1      46.091  32.637  30.323  1.00  0.00     0.005 C 
ENDBRANCH  22  27
ENDBRANCH  18  21
ENDBRANCH   9  18
ENDBRANCH   5   8
ENDBRANCH   3   4
ENDBRANCH   2   3
ENDBRANCH   1   2
BRANCH   1  29
ATOM     29  C   UNL A   1      42.109  22.406  25.695  1.00  0.00     0.002 C 
BRANCH  29  30
ATOM     30  C   UNL A   1      41.864  21.748  27.058  1.00  0.00     0.021 C 
BRANCH  30  31
ATOM     31  C   UNL A   1      40.440  21.770  27.610  1.00  0.00     0.116 C 
BRANCH  31  32
ATOM     32  N   UNL A   1      39.445  22.184  26.642  1.00  0.00    -0.352 N 
ATOM     33  C   UNL A   1      38.912  23.421  26.371  1.00  0.00     0.251 C 
ATOM     34  H   UNL A   1      39.092  21.455  26.082  1.00  0.00     0.163 HD
ATOM     35  O   UNL A   1      38.025  23.498  25.521  1.00  0.00    -0.269 OA
BRANCH  33  36
ATOM     36  C   UNL A   1      39.344  24.648  27.088  1.00  0.00     0.039 A 
ATOM     37  C   UNL A   1      38.908  24.815  28.409  1.00  0.00     0.014 A 
ATOM     38  C   UNL A   1      40.106  25.656  26.490  1.00  0.00     0.014 A 
ATOM     39  C   UNL A   1      39.273  25.951  29.138  1.00  0.00     0.010 A 
ATOM     40  C   UNL A   1      40.519  26.767  27.238  1.00  0.00     0.010 A 
ATOM     41  C   UNL A   1      40.106  26.927  28.568  1.00  0.00    -0.014 A 
BRANCH  41  42
ATOM     42  C   UNL A   1      40.550  28.095  29.376  1.00  0.00     0.031 A 
ATOM     43  C   UNL A   1      39.658  29.293  29.567  1.00  0.00     0.074 A 
ATOM     44  C   UNL A   1      41.779  28.083  29.932  1.00  0.00     0.049 A 
ATOM     45  N   UNL A   1      39.872  30.375  30.272  1.00  0.00    -0.248 NA
ATOM     46  C   UNL A   1      38.370  29.283  28.860  1.00  0.00     0.031 C 
ATOM     47  C   UNL A   1      42.766  27.014  29.776  1.00  0.00     0.029 A 
ATOM     48  N   UNL A   1      42.404  28.996  30.745  1.00  0.00    -0.354 N 
ATOM     49  C   UNL A   1      38.751  31.178  30.091  1.00  0.00     0.074 A 
ATOM     50  C   UNL A   1      37.879  30.475  29.173  1.00  0.00     0.031 C 
ATOM     51  C   UNL A   1      43.861  27.316  30.492  1.00  0.00     0.029 A 
ATOM     52  C   UNL A   1      43.660  28.606  31.147  1.00  0.00     0.049 A 
ATOM     53  H   UNL A   1      41.994  29.848  31.015  1.00  0.00     0.167 HD
ATOM     54  C   UNL A   1      38.464  32.378  30.651  1.00  0.00     0.037 A 
ATOM     55  C   UNL A   1      44.547  29.209  31.962  1.00  0.00     0.037 A 
ATOM     56  C   UNL A   1      39.318  33.069  31.585  1.00  0.00     0.049 A 
ATOM     57  C   UNL A   1      44.184  30.513  32.613  1.00  0.00     0.074 A 
ATOM     58  C   UNL A   1      39.088  34.264  32.245  1.00  0.00     0.029 A 
ATOM     59  N   UNL A   1      40.567  32.624  31.993  1.00  0.00    -0.354 N 
ATOM     60  N   UNL A   1      43.091  31.225  32.477  1.00  0.00    -0.248 NA
ATOM     61  C   UNL A   1      45.167  31.086  33.543  1.00  0.00     0.031 C 
ATOM     62  C   UNL A   1      40.208  34.553  33.035  1.00  0.00     0.029 A 
ATOM     63  C   UNL A   1      41.122  33.524  32.890  1.00  0.00     0.049 A 
ATOM     64  H   UNL A   1      40.996  31.791  31.691  1.00  0.00     0.167 HD
ATOM     65  C   UNL A   1      43.248  32.322  33.316  1.00  0.00     0.074 A 
ATOM     66  C   UNL A   1      44.532  32.170  33.969  1.00  0.00     0.031 C 
ATOM     67  C   UNL A   1      42.404  33.363  33.527  1.00  0.00     0.037 A 
BRANCH  54  68
ATOM     68  C   UNL A   1      37.158  33.024  30.274  1.00  0.00     0.058 A 
ATOM     69  C   UNL A   1      37.046  33.839  29.137  1.00  0.00     0.135 A 
ATOM     70  C   UNL A   1      36.002  32.802  31.039  1.00  0.00     0.135 A 
ATOM     71  F   UNL A   1      38.125  34.093  28.379  1.00  0.00    -0.206 F 
ATOM     72  C   UNL A   1      35.840  34.438  28.787  1.00  0.00     0.059 A 
ATOM     73  C   UNL A   1      34.779  33.374  30.694  1.00  0.00     0.059 A 
ATOM     74  F   UNL A   1      36.054  32.030  32.135  1.00  0.00    -0.206 F 
ATOM     75  C   UNL A   1      34.713  34.204  29.576  1.00  0.00     0.060 A 
BRANCH  75  76
ATOM     76  S   UNL A   1      33.154  34.991  29.117  1.00  0.00     0.124 S 
ATOM     77  O   UNL A   1      32.648  34.062  28.111  1.00  0.00    -0.237 OA
ATOM     78  O   UNL A   1      32.426  35.012  30.382  1.00  0.00    -0.237 OA
ATOM     79  O   UNL A   1      33.569  36.297  28.615  1.00  0.00    -0.744 OA
ENDBRANCH  75  76
ENDBRANCH  54  68
BRANCH  55  80
ATOM     80  C   UNL A   1      45.851  28.555  32.245  1.00  0.00     0.058 A 
ATOM     81  C   UNL A   1      46.940  28.718  31.379  1.00  0.00     0.135 A 
ATOM     82  C   UNL A   1      46.037  27.774  33.396  1.00  0.00     0.135 A 
ATOM     83  F   UNL A   1      46.806  29.452  30.263  1.00  0.00    -0.206 F 
ATOM     84  C   UNL A   1      48.169  28.120  31.634  1.00  0.00     0.059 A 
ATOM     85  C   UNL A   1      47.262  27.183  33.683  1.00  0.00     0.059 A 
ATOM     86  F   UNL A   1      45.028  27.604  34.264  1.00  0.00    -0.206 F 
ATOM     87  C   UNL A   1      48.321  27.355  32.792  1.00  0.00     0.060 A 
BRANCH  87  88
ATOM     88  S   UNL A   1      49.936  26.632  33.154  1.00  0.00     0.124 S 
ATOM     89  O   UNL A   1      50.549  26.609  31.832  1.00  0.00    -0.237 OA
ATOM     90  O   UNL A   1      50.497  27.589  34.104  1.00  0.00    -0.237 OA
ATOM     91  O   UNL A   1      49.596  25.330  33.720  1.00  0.00    -0.744 OA
ENDBRANCH  87  88
ENDBRANCH  55  80
BRANCH  67  92
ATOM     92  C   UNL A   1      42.845  34.404  34.516  1.00  0.00     0.058 A 
ATOM     93  C   UNL A   1      43.594  35.523  34.119  1.00  0.00     0.135 A 
ATOM     94  C   UNL A   1      42.517  34.282  35.875  1.00  0.00     0.135 A 
ATOM     95  F   UNL A   1      43.938  35.683  32.832  1.00  0.00    -0.206 F 
ATOM     96  C   UNL A   1      44.039  36.464  35.043  1.00  0.00     0.059 A 
ATOM     97  C   UNL A   1      42.933  35.221  36.813  1.00  0.00     0.059 A 
ATOM     98  F   UNL A   1      41.792  33.235  36.305  1.00  0.00    -0.206 F 
ATOM     99  C   UNL A   1      43.712  36.299  36.390  1.00  0.00     0.060 A 
BRANCH  99 100
ATOM    100  S   UNL A   1      44.300  37.516  37.587  1.00  0.00     0.124 S 
ATOM    101  O   UNL A   1      44.222  38.748  36.810  1.00  0.00    -0.237 OA
ATOM    102  O   UNL A   1      43.333  37.389  38.672  1.00  0.00    -0.237 OA
ATOM    103  O   UNL A   1      45.649  37.054  37.900  1.00  0.00    -0.744 OA
ENDBRANCH  99 100
ENDBRANCH  67  92
ENDBRANCH  41  42
ENDBRANCH  33  36
ENDBRANCH  31  32
ENDBRANCH  30  31
ENDBRANCH  29  30
ENDBRANCH   1  29
TORSDOF 19
ENDMDL
