MODEL 1
REMARK VINA RESULT:     -11.9      0.000      0.000
REMARK SMILES Cc1ccc(C)c(OCC(=O)N[C@@H](Cc2ccccc2)C(=O)NCCCCCCNC(=O)c2ccc(-c3c4nc(c(-c5c(F)cc(S(=O)(=O)[O-])cc5F)c5ccc([nH]5)c(-c5c(F)cc(S(=O)(=O)[O-])cc5F)c5nc(c(-c6c(F)cc(S(=O)(=O)[O-])cc6F)c6ccc3[nH]6)C=C5)C=C4)cc2)c1
REMARK SMILES IDX 26 1 25 2 24 3 23 4 21 5 22 6 13 8 12 9 10 10 11 11 9 13
REMARK SMILES IDX 8 14 7 15 1 16 2 17 3 18 99 19 4 20 5 21 6 22 14 23 15 24
REMARK SMILES IDX 16 25 20 26 17 27 19 28 18 29 27 30 28 31 29 32 30 33 31 34
REMARK SMILES IDX 32 36 33 37 34 38 98 39 35 40 97 41 36 42 37 43 38 44 91 45
REMARK SMILES IDX 39 46 96 47 90 48 92 49 40 50 95 51 89 52 88 53 41 55 75 56
REMARK SMILES IDX 54 57 74 58 55 59 58 60 73 61 93 62 56 63 57 64 72 66 94 67
REMARK SMILES IDX 59 68 42 69 43 70 52 71 44 72 45 73 51 74 53 75 46 76 47 77
REMARK SMILES IDX 48 78 49 79 50 80 76 81 77 82 86 83 78 84 79 85 85 86 87 87
REMARK SMILES IDX 80 88 81 89 82 90 83 91 84 92 60 93 61 94 70 95 62 96 63 97
REMARK SMILES IDX 69 98 71 99 64 100 65 101 66 102 67 103 68 104
REMARK H PARENT 23 7 12 12 30 35 92 54 58 65
REMARK Flexibility Score: inf
ROOT
ATOM      1  C   UNL A   1      39.622  22.110  26.643  1.00  0.00     0.002 C 
ENDROOT
BRANCH   1   2
ATOM      2  C   UNL A   1      38.641  21.484  25.643  1.00  0.00     0.021 C 
BRANCH   2   3
ATOM      3  C   UNL A   1      37.481  22.361  25.187  1.00  0.00     0.116 C 
BRANCH   3   4
ATOM      4  N   UNL A   1      36.556  22.761  26.231  1.00  0.00    -0.354 N 
ATOM      5  C   UNL A   1      35.328  23.357  26.103  1.00  0.00     0.242 C 
ATOM      6  O   UNL A   1      34.449  22.992  26.895  1.00  0.00    -0.273 OA
ATOM      7  H   UNL A   1      36.848  22.578  27.154  1.00  0.00     0.163 HD
BRANCH   5   8
ATOM      8  C   UNL A   1      34.976  24.366  24.974  1.00  0.00     0.175 C 
BRANCH   8   9
ATOM      9  N   UNL A   1      34.985  23.733  23.662  1.00  0.00    -0.341 N 
ATOM     10  C   UNL A   1      33.865  23.235  23.056  1.00  0.00     0.258 C 
ATOM     11  O   UNL A   1      33.679  23.561  21.885  1.00  0.00    -0.271 OA
ATOM     12  H   UNL A   1      35.843  23.659  23.186  1.00  0.00     0.164 HD
BRANCH  10  13
ATOM     13  C   UNL A   1      32.869  22.369  23.838  1.00  0.00     0.329 C 
BRANCH  13  14
ATOM     14  O   UNL A   1      31.488  22.638  23.635  1.00  0.00    -0.483 OA
BRANCH  14  15
ATOM     15  C   UNL A   1      30.971  23.823  24.089  1.00  0.00     0.123 A 
ATOM     16  C   UNL A   1      29.946  27.321  22.975  1.00  0.00     0.044 C 
ATOM     17  C   UNL A   1      30.166  26.113  23.843  1.00  0.00    -0.047 A 
ATOM     18  C   UNL A   1      29.857  26.150  25.203  1.00  0.00     0.004 A 
ATOM     19  C   UNL A   1      30.748  24.957  23.299  1.00  0.00     0.050 A 
ATOM     20  C   UNL A   1      30.092  25.033  26.003  1.00  0.00     0.007 A 
ATOM     21  C   UNL A   1      30.639  23.860  25.455  1.00  0.00    -0.009 A 
ATOM     22  C   UNL A   1      30.868  22.691  26.372  1.00  0.00     0.048 C 
ENDBRANCH  14  15
ENDBRANCH  13  14
ENDBRANCH  10  13
ENDBRANCH   8   9
BRANCH   8  23
ATOM     23  C   UNL A   1      33.769  25.277  25.258  1.00  0.00     0.070 C 
BRANCH  23  24
ATOM     24  C   UNL A   1      33.688  26.620  24.573  1.00  0.00    -0.045 A 
ATOM     25  C   UNL A   1      33.463  27.790  25.312  1.00  0.00     0.004 A 
ATOM     26  C   UNL A   1      33.798  26.714  23.179  1.00  0.00     0.004 A 
ATOM     27  C   UNL A   1      33.392  29.030  24.672  1.00  0.00     0.000 A 
ATOM     28  C   UNL A   1      33.746  27.957  22.543  1.00  0.00     0.000 A 
ATOM     29  C   UNL A   1      33.551  29.116  23.290  1.00  0.00     0.000 A 
ENDBRANCH  23  24
ENDBRANCH   8  23
ENDBRANCH   5   8
ENDBRANCH   3   4
ENDBRANCH   2   3
ENDBRANCH   1   2
BRANCH   1  30
ATOM     30  C   UNL A   1      40.922  21.364  26.989  1.00  0.00     0.002 C 
BRANCH  30  31
ATOM     31  C   UNL A   1      41.308  20.077  26.249  1.00  0.00     0.021 C 
BRANCH  31  32
ATOM     32  C   UNL A   1      42.716  19.528  26.415  1.00  0.00     0.116 C 
BRANCH  32  33
ATOM     33  N   UNL A   1      43.467  19.404  25.167  1.00  0.00    -0.352 N 
ATOM     34  C   UNL A   1      44.177  20.295  24.375  1.00  0.00     0.251 C 
ATOM     35  H   UNL A   1      43.469  18.486  24.810  1.00  0.00     0.163 HD
ATOM     36  O   UNL A   1      44.519  19.943  23.260  1.00  0.00    -0.269 OA
BRANCH  34  37
ATOM     37  C   UNL A   1      44.538  21.652  24.854  1.00  0.00     0.039 A 
ATOM     38  C   UNL A   1      45.677  21.889  25.633  1.00  0.00     0.014 A 
ATOM     39  C   UNL A   1      43.613  22.674  24.739  1.00  0.00     0.014 A 
ATOM     40  C   UNL A   1      45.728  23.068  26.391  1.00  0.00     0.010 A 
ATOM     41  C   UNL A   1      43.955  23.949  25.061  1.00  0.00     0.010 A 
ATOM     42  C   UNL A   1      44.769  24.053  26.160  1.00  0.00    -0.014 A 
BRANCH  42  43
ATOM     43  C   UNL A   1      44.509  25.201  27.004  1.00  0.00     0.031 A 
ATOM     44  C   UNL A   1      45.377  26.367  26.772  1.00  0.00     0.074 A 
ATOM     45  C   UNL A   1      43.334  25.399  27.645  1.00  0.00     0.049 A 
ATOM     46  N   UNL A   1      46.361  26.760  27.505  1.00  0.00    -0.248 NA
ATOM     47  C   UNL A   1      45.226  27.106  25.510  1.00  0.00     0.031 C 
ATOM     48  C   UNL A   1      42.101  24.607  27.593  1.00  0.00     0.029 A 
ATOM     49  N   UNL A   1      42.976  26.467  28.408  1.00  0.00    -0.354 N 
ATOM     50  C   UNL A   1      46.832  27.912  26.895  1.00  0.00     0.074 A 
ATOM     51  C   UNL A   1      46.270  27.931  25.569  1.00  0.00     0.031 C 
ATOM     52  C   UNL A   1      41.086  25.323  28.137  1.00  0.00     0.029 A 
ATOM     53  C   UNL A   1      41.623  26.554  28.694  1.00  0.00     0.049 A 
ATOM     54  H   UNL A   1      43.630  27.128  28.733  1.00  0.00     0.167 HD
ATOM     55  C   UNL A   1      47.452  28.900  27.594  1.00  0.00     0.037 A 
ATOM     56  C   UNL A   1      41.000  27.603  29.289  1.00  0.00     0.037 A 
ATOM     57  C   UNL A   1      47.675  28.527  28.969  1.00  0.00     0.049 A 
ATOM     58  C   UNL A   1      42.038  28.428  29.962  1.00  0.00     0.074 A 
ATOM     59  C   UNL A   1      48.324  27.480  29.597  1.00  0.00     0.029 A 
ATOM     60  N   UNL A   1      46.831  29.062  29.917  1.00  0.00    -0.354 N 
ATOM     61  N   UNL A   1      42.723  28.042  31.003  1.00  0.00    -0.248 NA
ATOM     62  C   UNL A   1      42.620  29.535  29.215  1.00  0.00     0.031 C 
ATOM     63  C   UNL A   1      47.500  27.143  30.712  1.00  0.00     0.029 A 
ATOM     64  C   UNL A   1      46.421  28.027  30.723  1.00  0.00     0.049 A 
ATOM     65  H   UNL A   1      46.570  30.008  30.001  1.00  0.00     0.167 HD
ATOM     66  C   UNL A   1      43.996  28.555  30.803  1.00  0.00     0.074 A 
ATOM     67  C   UNL A   1      43.843  29.554  29.751  1.00  0.00     0.031 C 
ATOM     68  C   UNL A   1      45.098  27.918  31.299  1.00  0.00     0.037 A 
BRANCH  55  69
ATOM     69  C   UNL A   1      47.572  30.316  27.117  1.00  0.00     0.058 A 
ATOM     70  C   UNL A   1      48.835  30.930  27.092  1.00  0.00     0.135 A 
ATOM     71  C   UNL A   1      46.465  31.158  26.874  1.00  0.00     0.135 A 
ATOM     72  F   UNL A   1      49.944  30.215  27.339  1.00  0.00    -0.206 F 
ATOM     73  C   UNL A   1      48.988  32.297  26.872  1.00  0.00     0.059 A 
ATOM     74  C   UNL A   1      46.598  32.509  26.585  1.00  0.00     0.059 A 
ATOM     75  F   UNL A   1      45.203  30.722  27.001  1.00  0.00    -0.206 F 
ATOM     76  C   UNL A   1      47.862  33.078  26.628  1.00  0.00     0.060 A 
BRANCH  76  77
ATOM     77  S   UNL A   1      48.044  34.859  26.442  1.00  0.00     0.124 S 
ATOM     78  O   UNL A   1      48.684  35.214  27.704  1.00  0.00    -0.237 OA
ATOM     79  O   UNL A   1      48.879  34.963  25.250  1.00  0.00    -0.237 OA
ATOM     80  O   UNL A   1      46.668  35.320  26.278  1.00  0.00    -0.744 OA
ENDBRANCH  76  77
ENDBRANCH  55  69
BRANCH  56  81
ATOM     81  C   UNL A   1      39.638  28.125  29.033  1.00  0.00     0.058 A 
ATOM     82  C   UNL A   1      38.660  28.159  30.043  1.00  0.00     0.135 A 
ATOM     83  C   UNL A   1      39.371  28.878  27.876  1.00  0.00     0.135 A 
ATOM     84  F   UNL A   1      38.863  27.506  31.197  1.00  0.00    -0.206 F 
ATOM     85  C   UNL A   1      37.488  28.915  29.922  1.00  0.00     0.059 A 
ATOM     86  C   UNL A   1      38.221  29.650  27.744  1.00  0.00     0.059 A 
ATOM     87  F   UNL A   1      40.270  28.959  26.882  1.00  0.00    -0.206 F 
ATOM     88  C   UNL A   1      37.280  29.663  28.766  1.00  0.00     0.060 A 
BRANCH  88  89
ATOM     89  S   UNL A   1      35.860  30.771  28.628  1.00  0.00     0.124 S 
ATOM     90  O   UNL A   1      36.383  31.838  27.780  1.00  0.00    -0.237 OA
ATOM     91  O   UNL A   1      34.839  29.921  28.025  1.00  0.00    -0.237 OA
ATOM     92  O   UNL A   1      35.602  31.149  30.016  1.00  0.00    -0.744 OA
ENDBRANCH  88  89
ENDBRANCH  56  81
BRANCH  68  93
ATOM     93  C   UNL A   1      44.878  26.829  32.319  1.00  0.00     0.058 A 
ATOM     94  C   UNL A   1      44.693  27.067  33.692  1.00  0.00     0.135 A 
ATOM     95  C   UNL A   1      44.710  25.510  31.873  1.00  0.00     0.135 A 
ATOM     96  F   UNL A   1      44.724  28.312  34.185  1.00  0.00    -0.206 F 
ATOM     97  C   UNL A   1      44.405  26.039  34.589  1.00  0.00     0.059 A 
ATOM     98  C   UNL A   1      44.390  24.472  32.746  1.00  0.00     0.059 A 
ATOM     99  F   UNL A   1      44.811  25.225  30.565  1.00  0.00    -0.206 F 
ATOM    100  C   UNL A   1      44.251  24.742  34.106  1.00  0.00     0.060 A 
BRANCH 100 101
ATOM    101  S   UNL A   1      43.773  23.432  35.253  1.00  0.00     0.124 S 
ATOM    102  O   UNL A   1      44.573  23.749  36.432  1.00  0.00    -0.237 OA
ATOM    103  O   UNL A   1      42.333  23.637  35.391  1.00  0.00    -0.237 OA
ATOM    104  O   UNL A   1      44.152  22.209  34.550  1.00  0.00    -0.744 OA
ENDBRANCH 100 101
ENDBRANCH  68  93
ENDBRANCH  42  43
ENDBRANCH  34  37
ENDBRANCH  32  33
ENDBRANCH  31  32
ENDBRANCH  30  31
ENDBRANCH   1  30
TORSDOF 22
ENDMDL
MODEL 2
REMARK VINA RESULT:     -11.9      3.014      5.108
REMARK SMILES Cc1ccc(C)c(OCC(=O)N[C@@H](Cc2ccccc2)C(=O)NCCCCCCNC(=O)c2ccc(-c3c4nc(c(-c5c(F)cc(S(=O)(=O)[O-])cc5F)c5ccc([nH]5)c(-c5c(F)cc(S(=O)(=O)[O-])cc5F)c5nc(c(-c6c(F)cc(S(=O)(=O)[O-])cc6F)c6ccc3[nH]6)C=C5)C=C4)cc2)c1
REMARK SMILES IDX 26 1 25 2 24 3 23 4 21 5 22 6 13 8 12 9 10 10 11 11 9 13
REMARK SMILES IDX 8 14 7 15 1 16 2 17 3 18 99 19 4 20 5 21 6 22 14 23 15 24
REMARK SMILES IDX 16 25 20 26 17 27 19 28 18 29 27 30 28 31 29 32 30 33 31 34
REMARK SMILES IDX 32 36 33 37 34 38 98 39 35 40 97 41 36 42 37 43 38 44 91 45
REMARK SMILES IDX 39 46 96 47 90 48 92 49 40 50 95 51 89 52 88 53 41 55 75 56
REMARK SMILES IDX 54 57 74 58 55 59 58 60 73 61 93 62 56 63 57 64 72 66 94 67
REMARK SMILES IDX 59 68 42 69 43 70 52 71 44 72 45 73 51 74 53 75 46 76 47 77
REMARK SMILES IDX 48 78 49 79 50 80 76 81 77 82 86 83 78 84 79 85 85 86 87 87
REMARK SMILES IDX 80 88 81 89 82 90 83 91 84 92 60 93 61 94 70 95 62 96 63 97
REMARK SMILES IDX 69 98 71 99 64 100 65 101 66 102 67 103 68 104
REMARK H PARENT 23 7 12 12 30 35 92 54 58 65
REMARK Flexibility Score: inf
ROOT
ATOM      1  C   UNL A   1      34.023  25.517  25.708  1.00  0.00     0.002 C 
ENDROOT
BRANCH   1   2
ATOM      2  C   UNL A   1      32.609  25.284  26.257  1.00  0.00     0.021 C 
BRANCH   2   3
ATOM      3  C   UNL A   1      31.577  26.368  25.965  1.00  0.00     0.116 C 
BRANCH   3   4
ATOM      4  N   UNL A   1      30.359  25.910  25.322  1.00  0.00    -0.354 N 
ATOM      5  C   UNL A   1      29.859  26.256  24.093  1.00  0.00     0.242 C 
ATOM      6  O   UNL A   1      29.315  25.355  23.443  1.00  0.00    -0.273 OA
ATOM      7  H   UNL A   1      29.822  25.264  25.836  1.00  0.00     0.163 HD
BRANCH   5   8
ATOM      8  C   UNL A   1      30.033  27.665  23.461  1.00  0.00     0.175 C 
BRANCH   8   9
ATOM      9  N   UNL A   1      31.184  27.718  22.570  1.00  0.00    -0.341 N 
ATOM     10  C   UNL A   1      32.437  28.089  22.974  1.00  0.00     0.258 C 
ATOM     11  O   UNL A   1      33.366  27.356  22.640  1.00  0.00    -0.271 OA
ATOM     12  H   UNL A   1      31.054  27.473  21.625  1.00  0.00     0.164 HD
BRANCH  10  13
ATOM     13  C   UNL A   1      32.641  29.328  23.855  1.00  0.00     0.329 C 
BRANCH  13  14
ATOM     14  O   UNL A   1      32.338  29.189  25.238  1.00  0.00    -0.483 OA
BRANCH  14  15
ATOM     15  C   UNL A   1      33.195  29.730  26.160  1.00  0.00     0.123 A 
ATOM     16  C   UNL A   1      36.625  29.280  27.759  1.00  0.00     0.044 C 
ATOM     17  C   UNL A   1      35.284  29.864  27.415  1.00  0.00    -0.047 A 
ATOM     18  C   UNL A   1      34.826  31.017  28.052  1.00  0.00     0.004 A 
ATOM     19  C   UNL A   1      34.453  29.210  26.491  1.00  0.00     0.050 A 
ATOM     20  C   UNL A   1      33.568  31.533  27.745  1.00  0.00     0.007 A 
ATOM     21  C   UNL A   1      32.748  30.904  26.793  1.00  0.00    -0.009 A 
ATOM     22  C   UNL A   1      31.402  31.511  26.507  1.00  0.00     0.048 C 
ENDBRANCH  14  15
ENDBRANCH  13  14
ENDBRANCH  10  13
ENDBRANCH   8   9
BRANCH   8  23
ATOM     23  C   UNL A   1      28.745  28.304  22.911  1.00  0.00     0.070 C 
BRANCH  23  24
ATOM     24  C   UNL A   1      28.696  29.800  22.714  1.00  0.00    -0.045 A 
ATOM     25  C   UNL A   1      29.160  30.671  23.709  1.00  0.00     0.004 A 
ATOM     26  C   UNL A   1      28.147  30.342  21.544  1.00  0.00     0.004 A 
ATOM     27  C   UNL A   1      29.113  32.054  23.517  1.00  0.00     0.000 A 
ATOM     28  C   UNL A   1      28.119  31.725  21.346  1.00  0.00     0.000 A 
ATOM     29  C   UNL A   1      28.609  32.581  22.329  1.00  0.00     0.000 A 
ENDBRANCH  23  24
ENDBRANCH   8  23
ENDBRANCH   5   8
ENDBRANCH   3   4
ENDBRANCH   2   3
ENDBRANCH   1   2
BRANCH   1  30
ATOM     30  C   UNL A   1      34.757  24.364  25.005  1.00  0.00     0.002 C 
BRANCH  30  31
ATOM     31  C   UNL A   1      35.749  23.482  25.775  1.00  0.00     0.021 C 
BRANCH  31  32
ATOM     32  C   UNL A   1      37.239  23.671  25.536  1.00  0.00     0.116 C 
BRANCH  32  33
ATOM     33  N   UNL A   1      38.087  22.686  26.204  1.00  0.00    -0.352 N 
ATOM     34  C   UNL A   1      39.347  22.731  26.784  1.00  0.00     0.251 C 
ATOM     35  H   UNL A   1      37.673  21.794  26.254  1.00  0.00     0.163 HD
ATOM     36  O   UNL A   1      39.897  21.683  27.073  1.00  0.00    -0.269 OA
BRANCH  34  37
ATOM     37  C   UNL A   1      40.031  24.016  27.070  1.00  0.00     0.039 A 
ATOM     38  C   UNL A   1      41.374  24.074  27.462  1.00  0.00     0.014 A 
ATOM     39  C   UNL A   1      39.277  25.169  27.187  1.00  0.00     0.014 A 
ATOM     40  C   UNL A   1      41.825  25.230  28.115  1.00  0.00     0.010 A 
ATOM     41  C   UNL A   1      39.884  26.375  27.332  1.00  0.00     0.010 A 
ATOM     42  C   UNL A   1      40.998  26.353  28.133  1.00  0.00    -0.014 A 
BRANCH  42  43
ATOM     43  C   UNL A   1      41.176  27.527  28.962  1.00  0.00     0.031 A 
ATOM     44  C   UNL A   1      42.170  28.499  28.477  1.00  0.00     0.074 A 
ATOM     45  C   UNL A   1      40.253  27.951  29.855  1.00  0.00     0.049 A 
ATOM     46  N   UNL A   1      43.359  28.687  28.935  1.00  0.00    -0.248 NA
ATOM     47  C   UNL A   1      41.862  29.257  27.255  1.00  0.00     0.031 C 
ATOM     48  C   UNL A   1      38.916  27.419  30.135  1.00  0.00     0.029 A 
ATOM     49  N   UNL A   1      40.304  29.068  30.632  1.00  0.00    -0.354 N 
ATOM     50  C   UNL A   1      43.880  29.725  28.178  1.00  0.00     0.074 A 
ATOM     51  C   UNL A   1      43.027  29.858  27.025  1.00  0.00     0.031 C 
ATOM     52  C   UNL A   1      38.220  28.320  30.872  1.00  0.00     0.029 A 
ATOM     53  C   UNL A   1      39.103  29.420  31.229  1.00  0.00     0.049 A 
ATOM     54  H   UNL A   1      41.131  29.585  30.761  1.00  0.00     0.167 HD
ATOM     55  C   UNL A   1      44.830  30.569  28.663  1.00  0.00     0.037 A 
ATOM     56  C   UNL A   1      38.858  30.570  31.906  1.00  0.00     0.037 A 
ATOM     57  C   UNL A   1      45.304  30.156  29.960  1.00  0.00     0.049 A 
ATOM     58  C   UNL A   1      40.166  31.171  32.274  1.00  0.00     0.074 A 
ATOM     59  C   UNL A   1      45.872  29.000  30.463  1.00  0.00     0.029 A 
ATOM     60  N   UNL A   1      44.835  30.845  31.057  1.00  0.00    -0.354 N 
ATOM     61  N   UNL A   1      40.997  30.654  33.138  1.00  0.00    -0.248 NA
ATOM     62  C   UNL A   1      40.751  32.143  31.360  1.00  0.00     0.031 C 
ATOM     63  C   UNL A   1      45.295  28.829  31.756  1.00  0.00     0.029 A 
ATOM     64  C   UNL A   1      44.442  29.909  31.984  1.00  0.00     0.049 A 
ATOM     65  H   UNL A   1      44.789  31.823  31.158  1.00  0.00     0.167 HD
ATOM     66  C   UNL A   1      42.258  30.906  32.616  1.00  0.00     0.074 A 
ATOM     67  C   UNL A   1      42.048  31.919  31.587  1.00  0.00     0.031 C 
ATOM     68  C   UNL A   1      43.303  30.063  32.864  1.00  0.00     0.037 A 
BRANCH  55  69
ATOM     69  C   UNL A   1      45.100  31.935  28.107  1.00  0.00     0.058 A 
ATOM     70  C   UNL A   1      46.389  32.246  27.643  1.00  0.00     0.135 A 
ATOM     71  C   UNL A   1      44.194  33.013  28.200  1.00  0.00     0.135 A 
ATOM     72  F   UNL A   1      47.328  31.291  27.547  1.00  0.00    -0.206 F 
ATOM     73  C   UNL A   1      46.764  33.549  27.321  1.00  0.00     0.059 A 
ATOM     74  C   UNL A   1      44.524  34.306  27.820  1.00  0.00     0.059 A 
ATOM     75  F   UNL A   1      42.980  32.871  28.752  1.00  0.00    -0.206 F 
ATOM     76  C   UNL A   1      45.825  34.572  27.421  1.00  0.00     0.060 A 
BRANCH  76  77
ATOM     77  S   UNL A   1      46.330  36.270  27.103  1.00  0.00     0.124 S 
ATOM     78  O   UNL A   1      47.370  36.452  28.109  1.00  0.00    -0.237 OA
ATOM     79  O   UNL A   1      46.784  36.204  25.717  1.00  0.00    -0.237 OA
ATOM     80  O   UNL A   1      45.101  37.029  27.317  1.00  0.00    -0.744 OA
ENDBRANCH  76  77
ENDBRANCH  55  69
BRANCH  56  81
ATOM     81  C   UNL A   1      37.601  31.351  31.960  1.00  0.00     0.058 A 
ATOM     82  C   UNL A   1      36.997  31.693  33.182  1.00  0.00     0.135 A 
ATOM     83  C   UNL A   1      37.138  32.032  30.819  1.00  0.00     0.135 A 
ATOM     84  F   UNL A   1      37.417  31.123  34.322  1.00  0.00    -0.206 F 
ATOM     85  C   UNL A   1      36.002  32.674  33.275  1.00  0.00     0.059 A 
ATOM     86  C   UNL A   1      36.164  33.022  30.893  1.00  0.00     0.059 A 
ATOM     87  F   UNL A   1      37.694  31.821  29.615  1.00  0.00    -0.206 F 
ATOM     88  C   UNL A   1      35.594  33.338  32.121  1.00  0.00     0.060 A 
BRANCH  88  89
ATOM     89  S   UNL A   1      34.425  34.711  32.211  1.00  0.00     0.124 S 
ATOM     90  O   UNL A   1      33.275  34.094  32.863  1.00  0.00    -0.237 OA
ATOM     91  O   UNL A   1      35.147  35.705  32.998  1.00  0.00    -0.237 OA
ATOM     92  O   UNL A   1      34.227  35.066  30.807  1.00  0.00    -0.744 OA
ENDBRANCH  88  89
ENDBRANCH  56  81
BRANCH  68  93
ATOM     93  C   UNL A   1      43.132  29.036  33.955  1.00  0.00     0.058 A 
ATOM     94  C   UNL A   1      43.391  29.286  35.315  1.00  0.00     0.135 A 
ATOM     95  C   UNL A   1      42.554  27.799  33.634  1.00  0.00     0.135 A 
ATOM     96  F   UNL A   1      43.837  30.482  35.721  1.00  0.00    -0.206 F 
ATOM     97  C   UNL A   1      43.136  28.337  36.304  1.00  0.00     0.059 A 
ATOM     98  C   UNL A   1      42.260  26.847  34.609  1.00  0.00     0.059 A 
ATOM     99  F   UNL A   1      42.224  27.521  32.363  1.00  0.00    -0.206 F 
ATOM    100  C   UNL A   1      42.567  27.119  35.942  1.00  0.00     0.060 A 
BRANCH 100 101
ATOM    101  S   UNL A   1      42.139  25.934  37.236  1.00  0.00     0.124 S 
ATOM    102  O   UNL A   1      43.031  26.331  38.321  1.00  0.00    -0.237 OA
ATOM    103  O   UNL A   1      40.719  26.197  37.455  1.00  0.00    -0.237 OA
ATOM    104  O   UNL A   1      42.435  24.641  36.624  1.00  0.00    -0.744 OA
ENDBRANCH 100 101
ENDBRANCH  68  93
ENDBRANCH  42  43
ENDBRANCH  34  37
ENDBRANCH  32  33
ENDBRANCH  31  32
ENDBRANCH  30  31
ENDBRANCH   1  30
TORSDOF 22
ENDMDL
MODEL 3
REMARK VINA RESULT:     -11.3      2.928      4.519
REMARK SMILES Cc1ccc(C)c(OCC(=O)N[C@@H](Cc2ccccc2)C(=O)NCCCCCCNC(=O)c2ccc(-c3c4nc(c(-c5c(F)cc(S(=O)(=O)[O-])cc5F)c5ccc([nH]5)c(-c5c(F)cc(S(=O)(=O)[O-])cc5F)c5nc(c(-c6c(F)cc(S(=O)(=O)[O-])cc6F)c6ccc3[nH]6)C=C5)C=C4)cc2)c1
REMARK SMILES IDX 26 1 25 2 24 3 23 4 21 5 22 6 13 8 12 9 10 10 11 11 9 13
REMARK SMILES IDX 8 14 7 15 1 16 2 17 3 18 99 19 4 20 5 21 6 22 14 23 15 24
REMARK SMILES IDX 16 25 20 26 17 27 19 28 18 29 27 30 28 31 29 32 30 33 31 34
REMARK SMILES IDX 32 36 33 37 34 38 98 39 35 40 97 41 36 42 37 43 38 44 91 45
REMARK SMILES IDX 39 46 96 47 90 48 92 49 40 50 95 51 89 52 88 53 41 55 75 56
REMARK SMILES IDX 54 57 74 58 55 59 58 60 73 61 93 62 56 63 57 64 72 66 94 67
REMARK SMILES IDX 59 68 42 69 43 70 52 71 44 72 45 73 51 74 53 75 46 76 47 77
REMARK SMILES IDX 48 78 49 79 50 80 76 81 77 82 86 83 78 84 79 85 85 86 87 87
REMARK SMILES IDX 80 88 81 89 82 90 83 91 84 92 60 93 61 94 70 95 62 96 63 97
REMARK SMILES IDX 69 98 71 99 64 100 65 101 66 102 67 103 68 104
REMARK H PARENT 23 7 12 12 30 35 92 54 58 65
REMARK Flexibility Score: inf
ROOT
ATOM      1  C   UNL A   1      33.852  23.374  26.812  1.00  0.00     0.002 C 
ENDROOT
BRANCH   1   2
ATOM      2  C   UNL A   1      32.475  22.733  26.594  1.00  0.00     0.021 C 
BRANCH   2   3
ATOM      3  C   UNL A   1      31.266  23.652  26.731  1.00  0.00     0.116 C 
BRANCH   3   4
ATOM      4  N   UNL A   1      30.464  23.807  25.531  1.00  0.00    -0.354 N 
ATOM      5  C   UNL A   1      30.804  24.413  24.349  1.00  0.00     0.242 C 
ATOM      6  O   UNL A   1      30.386  23.879  23.313  1.00  0.00    -0.273 OA
ATOM      7  H   UNL A   1      29.557  23.426  25.571  1.00  0.00     0.163 HD
BRANCH   5   8
ATOM      8  C   UNL A   1      31.746  25.645  24.254  1.00  0.00     0.175 C 
BRANCH   8   9
ATOM      9  N   UNL A   1      32.273  25.820  22.908  1.00  0.00    -0.341 N 
ATOM     10  C   UNL A   1      32.620  27.034  22.383  1.00  0.00     0.258 C 
ATOM     11  O   UNL A   1      33.719  27.106  21.836  1.00  0.00    -0.271 OA
ATOM     12  H   UNL A   1      32.386  25.020  22.345  1.00  0.00     0.164 HD
BRANCH  10  13
ATOM     13  C   UNL A   1      31.695  28.248  22.538  1.00  0.00     0.329 C 
BRANCH  13  14
ATOM     14  O   UNL A   1      30.392  28.138  21.981  1.00  0.00    -0.483 OA
BRANCH  14  15
ATOM     15  C   UNL A   1      29.443  29.063  22.329  1.00  0.00     0.123 A 
ATOM     16  C   UNL A   1      28.484  32.732  21.943  1.00  0.00     0.044 C 
ATOM     17  C   UNL A   1      28.425  31.281  22.332  1.00  0.00    -0.047 A 
ATOM     18  C   UNL A   1      27.371  30.795  23.105  1.00  0.00     0.004 A 
ATOM     19  C   UNL A   1      29.471  30.416  21.970  1.00  0.00     0.050 A 
ATOM     20  C   UNL A   1      27.342  29.453  23.484  1.00  0.00     0.007 A 
ATOM     21  C   UNL A   1      28.367  28.576  23.092  1.00  0.00    -0.009 A 
ATOM     22  C   UNL A   1      28.276  27.141  23.533  1.00  0.00     0.048 C 
ENDBRANCH  14  15
ENDBRANCH  13  14
ENDBRANCH  10  13
ENDBRANCH   8   9
BRANCH   8  23
ATOM     23  C   UNL A   1      31.224  26.927  24.928  1.00  0.00     0.070 C 
BRANCH  23  24
ATOM     24  C   UNL A   1      32.175  27.760  25.753  1.00  0.00    -0.045 A 
ATOM     25  C   UNL A   1      31.782  29.006  26.261  1.00  0.00     0.004 A 
ATOM     26  C   UNL A   1      33.482  27.316  25.993  1.00  0.00     0.004 A 
ATOM     27  C   UNL A   1      32.666  29.771  27.026  1.00  0.00     0.000 A 
ATOM     28  C   UNL A   1      34.359  28.073  26.774  1.00  0.00     0.000 A 
ATOM     29  C   UNL A   1      33.949  29.297  27.298  1.00  0.00     0.000 A 
ENDBRANCH  23  24
ENDBRANCH   8  23
ENDBRANCH   5   8
ENDBRANCH   3   4
ENDBRANCH   2   3
ENDBRANCH   1   2
BRANCH   1  30
ATOM     30  C   UNL A   1      34.666  23.844  25.595  1.00  0.00     0.002 C 
BRANCH  30  31
ATOM     31  C   UNL A   1      35.966  23.132  25.200  1.00  0.00     0.021 C 
BRANCH  31  32
ATOM     32  C   UNL A   1      37.289  23.690  25.697  1.00  0.00     0.116 C 
BRANCH  32  33
ATOM     33  N   UNL A   1      38.181  22.695  26.290  1.00  0.00    -0.352 N 
ATOM     34  C   UNL A   1      39.466  22.737  26.810  1.00  0.00     0.251 C 
ATOM     35  H   UNL A   1      37.779  21.797  26.330  1.00  0.00     0.163 HD
ATOM     36  O   UNL A   1      40.041  21.688  27.037  1.00  0.00    -0.269 OA
BRANCH  34  37
ATOM     37  C   UNL A   1      40.149  24.021  27.105  1.00  0.00     0.039 A 
ATOM     38  C   UNL A   1      41.484  24.076  27.524  1.00  0.00     0.014 A 
ATOM     39  C   UNL A   1      39.396  25.177  27.204  1.00  0.00     0.014 A 
ATOM     40  C   UNL A   1      41.925  25.233  28.181  1.00  0.00     0.010 A 
ATOM     41  C   UNL A   1      40.004  26.382  27.358  1.00  0.00     0.010 A 
ATOM     42  C   UNL A   1      41.102  26.358  28.180  1.00  0.00    -0.014 A 
BRANCH  42  43
ATOM     43  C   UNL A   1      41.268  27.534  29.009  1.00  0.00     0.031 A 
ATOM     44  C   UNL A   1      42.280  28.498  28.545  1.00  0.00     0.074 A 
ATOM     45  C   UNL A   1      40.325  27.969  29.877  1.00  0.00     0.049 A 
ATOM     46  N   UNL A   1      43.458  28.680  29.032  1.00  0.00    -0.248 NA
ATOM     47  C   UNL A   1      42.008  29.252  27.313  1.00  0.00     0.031 C 
ATOM     48  C   UNL A   1      38.978  27.447  30.125  1.00  0.00     0.029 A 
ATOM     49  N   UNL A   1      40.365  29.088  30.650  1.00  0.00    -0.354 N 
ATOM     50  C   UNL A   1      44.006  29.711  28.285  1.00  0.00     0.074 A 
ATOM     51  C   UNL A   1      43.183  29.845  27.109  1.00  0.00     0.031 C 
ATOM     52  C   UNL A   1      38.270  28.356  30.841  1.00  0.00     0.029 A 
ATOM     53  C   UNL A   1      39.152  29.451  31.215  1.00  0.00     0.049 A 
ATOM     54  H   UNL A   1      41.192  29.600  30.798  1.00  0.00     0.167 HD
ATOM     55  C   UNL A   1      44.949  30.550  28.790  1.00  0.00     0.037 A 
ATOM     56  C   UNL A   1      38.897  30.605  31.882  1.00  0.00     0.037 A 
ATOM     57  C   UNL A   1      45.388  30.139  30.100  1.00  0.00     0.049 A 
ATOM     58  C   UNL A   1      40.201  31.199  32.280  1.00  0.00     0.074 A 
ATOM     59  C   UNL A   1      45.935  28.981  30.621  1.00  0.00     0.029 A 
ATOM     60  N   UNL A   1      44.895  30.835  31.182  1.00  0.00    -0.354 N 
ATOM     61  N   UNL A   1      41.005  30.680  33.166  1.00  0.00    -0.248 NA
ATOM     62  C   UNL A   1      40.815  32.163  31.378  1.00  0.00     0.031 C 
ATOM     63  C   UNL A   1      45.324  28.819  31.900  1.00  0.00     0.029 A 
ATOM     64  C   UNL A   1      44.473  29.906  32.103  1.00  0.00     0.049 A 
ATOM     65  H   UNL A   1      44.855  31.815  31.278  1.00  0.00     0.167 HD
ATOM     66  C   UNL A   1      42.281  30.921  32.676  1.00  0.00     0.074 A 
ATOM     67  C   UNL A   1      42.104  31.931  31.638  1.00  0.00     0.031 C 
ATOM     68  C   UNL A   1      43.313  30.072  32.953  1.00  0.00     0.037 A 
BRANCH  55  69
ATOM     69  C   UNL A   1      45.243  31.911  28.236  1.00  0.00     0.058 A 
ATOM     70  C   UNL A   1      46.546  32.214  27.809  1.00  0.00     0.135 A 
ATOM     71  C   UNL A   1      44.339  32.995  28.296  1.00  0.00     0.135 A 
ATOM     72  F   UNL A   1      47.482  31.254  27.745  1.00  0.00    -0.206 F 
ATOM     73  C   UNL A   1      46.937  33.513  27.491  1.00  0.00     0.059 A 
ATOM     74  C   UNL A   1      44.687  34.285  27.920  1.00  0.00     0.059 A 
ATOM     75  F   UNL A   1      43.109  32.862  28.813  1.00  0.00    -0.206 F 
ATOM     76  C   UNL A   1      46.001  34.542  27.559  1.00  0.00     0.060 A 
BRANCH  76  77
ATOM     77  S   UNL A   1      46.524  36.236  27.248  1.00  0.00     0.124 S 
ATOM     78  O   UNL A   1      47.973  36.111  27.349  1.00  0.00    -0.237 OA
ATOM     79  O   UNL A   1      45.995  36.483  25.910  1.00  0.00    -0.237 OA
ATOM     80  O   UNL A   1      45.876  36.987  28.319  1.00  0.00    -0.744 OA
ENDBRANCH  76  77
ENDBRANCH  55  69
BRANCH  56  81
ATOM     81  C   UNL A   1      37.645  31.395  31.901  1.00  0.00     0.058 A 
ATOM     82  C   UNL A   1      36.973  31.683  33.101  1.00  0.00     0.135 A 
ATOM     83  C   UNL A   1      37.255  32.136  30.771  1.00  0.00     0.135 A 
ATOM     84  F   UNL A   1      37.321  31.054  34.234  1.00  0.00    -0.206 F 
ATOM     85  C   UNL A   1      35.981  32.668  33.185  1.00  0.00     0.059 A 
ATOM     86  C   UNL A   1      36.285  33.131  30.837  1.00  0.00     0.059 A 
ATOM     87  F   UNL A   1      37.879  31.979  29.592  1.00  0.00    -0.206 F 
ATOM     88  C   UNL A   1      35.646  33.392  32.043  1.00  0.00     0.060 A 
BRANCH  88  89
ATOM     89  S   UNL A   1      34.484  34.771  32.133  1.00  0.00     0.124 S 
ATOM     90  O   UNL A   1      33.352  34.174  32.835  1.00  0.00    -0.237 OA
ATOM     91  O   UNL A   1      35.232  35.782  32.872  1.00  0.00    -0.237 OA
ATOM     92  O   UNL A   1      34.245  35.090  30.728  1.00  0.00    -0.744 OA
ENDBRANCH  88  89
ENDBRANCH  56  81
BRANCH  68  93
ATOM     93  C   UNL A   1      43.108  29.050  34.043  1.00  0.00     0.058 A 
ATOM     94  C   UNL A   1      43.290  29.317  35.412  1.00  0.00     0.135 A 
ATOM     95  C   UNL A   1      42.575  27.798  33.705  1.00  0.00     0.135 A 
ATOM     96  F   UNL A   1      43.688  30.526  35.830  1.00  0.00    -0.206 F 
ATOM     97  C   UNL A   1      43.004  28.371  36.395  1.00  0.00     0.059 A 
ATOM     98  C   UNL A   1      42.251  26.848  34.672  1.00  0.00     0.059 A 
ATOM     99  F   UNL A   1      42.318  27.503  32.420  1.00  0.00    -0.206 F 
ATOM    100  C   UNL A   1      42.481  27.137  36.016  1.00  0.00     0.060 A 
BRANCH 100 101
ATOM    101  S   UNL A   1      42.013  25.955  37.298  1.00  0.00     0.124 S 
ATOM    102  O   UNL A   1      42.906  26.318  38.392  1.00  0.00    -0.237 OA
ATOM    103  O   UNL A   1      40.598  26.254  37.509  1.00  0.00    -0.237 OA
ATOM    104  O   UNL A   1      42.277  24.659  36.677  1.00  0.00    -0.744 OA
ENDBRANCH 100 101
ENDBRANCH  68  93
ENDBRANCH  42  43
ENDBRANCH  34  37
ENDBRANCH  32  33
ENDBRANCH  31  32
ENDBRANCH  30  31
ENDBRANCH   1  30
TORSDOF 22
ENDMDL
