MODEL 1
REMARK VINA RESULT:     -11.4      0.000      0.000
REMARK SMILES CC[C@@H]1CC(=O)N(Cc2ccc(C(=O)NCCCCCCNC(=O)c3ccc(-c4c5nc(c(-c6c(F)cc(S(=O)(=O)[O-])cc6F)c6ccc([nH]6)c(-c6c(F)cc(S(=O)(=O)[O-])cc6F)c6nc(c(-c7c(F)cc(S(=O)(=O)[O-])cc7F)c7ccc4[nH]7)C=C6)C=C5)cc3)cn2)C1
REMARK SMILES IDX 18 1 17 2 16 3 15 4 13 5 14 6 12 8 9 9 10 10 92 11 11 12
REMARK SMILES IDX 91 13 8 14 7 15 3 16 4 17 93 18 5 19 6 20 2 21 1 22 19 23
REMARK SMILES IDX 20 24 21 25 22 26 23 27 24 29 25 30 26 31 90 32 27 33 89 34
REMARK SMILES IDX 28 35 29 36 30 37 83 38 31 39 88 40 82 41 84 42 32 43 87 44
REMARK SMILES IDX 81 45 80 46 33 48 67 49 46 50 66 51 47 52 50 53 65 54 85 55
REMARK SMILES IDX 48 56 49 57 64 59 86 60 51 61 34 62 35 63 44 64 36 65 37 66
REMARK SMILES IDX 43 67 45 68 38 69 39 70 40 71 41 72 42 73 68 74 69 75 78 76
REMARK SMILES IDX 70 77 71 78 77 79 79 80 72 81 73 82 74 83 75 84 76 85 52 86
REMARK SMILES IDX 53 87 62 88 54 89 55 90 61 91 63 92 56 93 57 94 58 95 59 96
REMARK SMILES IDX 60 97
REMARK H PARENT 15 7 22 28 84 47 50 58
REMARK Flexibility Score: inf
ROOT
ATOM      1  C   UNL A   1      37.234  21.810  24.409  1.00  0.00     0.002 C 
ENDROOT
BRANCH   1   2
ATOM      2  C   UNL A   1      35.714  21.910  24.597  1.00  0.00     0.021 C 
BRANCH   2   3
ATOM      3  C   UNL A   1      35.243  21.408  25.963  1.00  0.00     0.116 C 
BRANCH   3   4
ATOM      4  N   UNL A   1      34.323  20.300  25.788  1.00  0.00    -0.352 N 
ATOM      5  C   UNL A   1      33.016  20.243  25.385  1.00  0.00     0.252 C 
ATOM      6  O   UNL A   1      32.477  19.138  25.327  1.00  0.00    -0.269 OA
ATOM      7  H   UNL A   1      34.714  19.421  26.000  1.00  0.00     0.163 HD
BRANCH   5   8
ATOM      8  C   UNL A   1      32.255  21.435  24.950  1.00  0.00     0.058 A 
ATOM      9  C   UNL A   1      31.052  23.673  23.850  1.00  0.00     0.060 A 
ATOM     10  C   UNL A   1      31.035  23.493  25.234  1.00  0.00     0.026 A 
ATOM     11  N   UNL A   1      31.579  22.744  23.018  1.00  0.00    -0.259 NA
ATOM     12  C   UNL A   1      31.626  22.354  25.784  1.00  0.00     0.017 A 
ATOM     13  C   UNL A   1      32.155  21.652  23.580  1.00  0.00     0.125 A 
BRANCH   9  14
ATOM     14  C   UNL A   1      30.550  24.965  23.238  1.00  0.00     0.175 C 
BRANCH  14  15
ATOM     15  N   UNL A   1      31.452  26.089  23.464  1.00  0.00    -0.336 N 
ATOM     16  C   UNL A   1      33.426  27.270  23.898  1.00  0.00     0.017 C 
ATOM     17  C   UNL A   1      32.261  28.261  23.770  1.00  0.00     0.105 C 
ATOM     18  C   UNL A   1      32.871  26.014  23.236  1.00  0.00     0.124 C 
ATOM     19  C   UNL A   1      31.035  27.373  23.772  1.00  0.00     0.223 C 
ATOM     20  O   UNL A   1      29.897  27.749  23.975  1.00  0.00    -0.275 OA
BRANCH  16  21
ATOM     21  C   UNL A   1      33.811  27.015  25.367  1.00  0.00     0.002 C 
ATOM     22  C   UNL A   1      34.179  25.557  25.606  1.00  0.00     0.004 C 
ENDBRANCH  16  21
ENDBRANCH  14  15
ENDBRANCH   9  14
ENDBRANCH   5   8
ENDBRANCH   3   4
ENDBRANCH   2   3
ENDBRANCH   1   2
BRANCH   1  23
ATOM     23  C   UNL A   1      38.048  21.909  25.706  1.00  0.00     0.002 C 
BRANCH  23  24
ATOM     24  C   UNL A   1      38.321  23.338  26.184  1.00  0.00     0.021 C 
BRANCH  24  25
ATOM     25  C   UNL A   1      39.571  23.476  27.043  1.00  0.00     0.116 C 
BRANCH  25  26
ATOM     26  N   UNL A   1      40.727  23.845  26.242  1.00  0.00    -0.352 N 
ATOM     27  C   UNL A   1      41.446  25.013  26.249  1.00  0.00     0.251 C 
ATOM     28  H   UNL A   1      41.037  23.161  25.605  1.00  0.00     0.163 HD
ATOM     29  O   UNL A   1      42.223  25.259  25.333  1.00  0.00    -0.269 OA
BRANCH  27  30
ATOM     30  C   UNL A   1      41.276  25.970  27.364  1.00  0.00     0.039 A 
ATOM     31  C   UNL A   1      42.123  27.078  27.444  1.00  0.00     0.014 A 
ATOM     32  C   UNL A   1      40.299  25.757  28.341  1.00  0.00     0.014 A 
ATOM     33  C   UNL A   1      41.969  27.988  28.492  1.00  0.00     0.010 A 
ATOM     34  C   UNL A   1      40.094  26.709  29.334  1.00  0.00     0.010 A 
ATOM     35  C   UNL A   1      40.942  27.821  29.435  1.00  0.00    -0.014 A 
BRANCH  35  36
ATOM     36  C   UNL A   1      40.769  28.771  30.562  1.00  0.00     0.031 A 
ATOM     37  C   UNL A   1      41.629  28.635  31.792  1.00  0.00     0.074 A 
ATOM     38  C   UNL A   1      39.815  29.719  30.502  1.00  0.00     0.049 A 
ATOM     39  N   UNL A   1      41.595  29.321  32.904  1.00  0.00    -0.248 NA
ATOM     40  C   UNL A   1      42.642  27.565  31.782  1.00  0.00     0.031 C 
ATOM     41  C   UNL A   1      38.893  29.921  29.381  1.00  0.00     0.029 A 
ATOM     42  N   UNL A   1      39.455  30.687  31.405  1.00  0.00    -0.354 N 
ATOM     43  C   UNL A   1      42.565  28.760  33.726  1.00  0.00     0.074 A 
ATOM     44  C   UNL A   1      43.126  27.636  33.012  1.00  0.00     0.031 C 
ATOM     45  C   UNL A   1      38.091  30.963  29.655  1.00  0.00     0.029 A 
ATOM     46  C   UNL A   1      38.413  31.479  30.982  1.00  0.00     0.049 A 
ATOM     47  H   UNL A   1      39.902  30.804  32.274  1.00  0.00     0.167 HD
ATOM     48  C   UNL A   1      42.972  29.162  34.954  1.00  0.00     0.037 A 
ATOM     49  C   UNL A   1      37.786  32.500  31.596  1.00  0.00     0.037 A 
ATOM     50  C   UNL A   1      42.426  30.300  35.646  1.00  0.00     0.049 A 
ATOM     51  C   UNL A   1      38.254  32.927  32.962  1.00  0.00     0.074 A 
ATOM     52  C   UNL A   1      42.802  30.824  36.870  1.00  0.00     0.029 A 
ATOM     53  N   UNL A   1      41.386  31.089  35.175  1.00  0.00    -0.354 N 
ATOM     54  N   UNL A   1      39.212  32.422  33.702  1.00  0.00    -0.248 NA
ATOM     55  C   UNL A   1      37.562  34.070  33.574  1.00  0.00     0.031 C 
ATOM     56  C   UNL A   1      41.955  31.898  37.164  1.00  0.00     0.029 A 
ATOM     57  C   UNL A   1      41.094  32.084  36.094  1.00  0.00     0.049 A 
ATOM     58  H   UNL A   1      40.924  30.961  34.315  1.00  0.00     0.167 HD
ATOM     59  C   UNL A   1      39.264  33.207  34.848  1.00  0.00     0.074 A 
ATOM     60  C   UNL A   1      38.244  34.226  34.701  1.00  0.00     0.031 C 
ATOM     61  C   UNL A   1      40.083  33.098  35.924  1.00  0.00     0.037 A 
BRANCH  48  62
ATOM     62  C   UNL A   1      44.060  28.367  35.626  1.00  0.00     0.058 A 
ATOM     63  C   UNL A   1      45.420  28.655  35.425  1.00  0.00     0.135 A 
ATOM     64  C   UNL A   1      43.739  27.323  36.511  1.00  0.00     0.135 A 
ATOM     65  F   UNL A   1      45.787  29.631  34.578  1.00  0.00    -0.206 F 
ATOM     66  C   UNL A   1      46.422  27.918  36.047  1.00  0.00     0.059 A 
ATOM     67  C   UNL A   1      44.724  26.594  37.170  1.00  0.00     0.059 A 
ATOM     68  F   UNL A   1      42.457  27.003  36.741  1.00  0.00    -0.206 F 
ATOM     69  C   UNL A   1      46.063  26.889  36.920  1.00  0.00     0.060 A 
BRANCH  69  70
ATOM     70  S   UNL A   1      47.375  25.947  37.724  1.00  0.00     0.124 S 
ATOM     71  O   UNL A   1      46.616  24.869  38.352  1.00  0.00    -0.237 OA
ATOM     72  O   UNL A   1      48.215  25.556  36.597  1.00  0.00    -0.237 OA
ATOM     73  O   UNL A   1      47.972  26.911  38.644  1.00  0.00    -0.744 OA
ENDBRANCH  69  70
ENDBRANCH  48  62
BRANCH  49  74
ATOM     74  C   UNL A   1      36.665  33.203  30.917  1.00  0.00     0.058 A 
ATOM     75  C   UNL A   1      36.897  34.040  29.815  1.00  0.00     0.135 A 
ATOM     76  C   UNL A   1      35.338  33.044  31.347  1.00  0.00     0.135 A 
ATOM     77  F   UNL A   1      38.148  34.228  29.368  1.00  0.00    -0.206 F 
ATOM     78  C   UNL A   1      35.859  34.712  29.177  1.00  0.00     0.059 A 
ATOM     79  C   UNL A   1      34.279  33.683  30.708  1.00  0.00     0.059 A 
ATOM     80  F   UNL A   1      35.058  32.240  32.384  1.00  0.00    -0.206 F 
ATOM     81  C   UNL A   1      34.552  34.525  29.630  1.00  0.00     0.060 A 
BRANCH  81  82
ATOM     82  S   UNL A   1      33.207  35.368  28.770  1.00  0.00     0.124 S 
ATOM     83  O   UNL A   1      33.934  36.370  27.999  1.00  0.00    -0.237 OA
ATOM     84  O   UNL A   1      32.607  34.281  28.003  1.00  0.00    -0.237 OA
ATOM     85  O   UNL A   1      32.385  35.885  29.860  1.00  0.00    -0.744 OA
ENDBRANCH  81  82
ENDBRANCH  49  74
BRANCH  61  86
ATOM     86  C   UNL A   1      39.952  34.137  37.007  1.00  0.00     0.058 A 
ATOM     87  C   UNL A   1      40.635  35.361  36.948  1.00  0.00     0.135 A 
ATOM     88  C   UNL A   1      39.084  33.920  38.089  1.00  0.00     0.135 A 
ATOM     89  F   UNL A   1      41.480  35.618  35.938  1.00  0.00    -0.206 F 
ATOM     90  C   UNL A   1      40.483  36.324  37.942  1.00  0.00     0.059 A 
ATOM     91  C   UNL A   1      38.891  34.881  39.076  1.00  0.00     0.059 A 
ATOM     92  F   UNL A   1      38.397  32.771  38.186  1.00  0.00    -0.206 F 
ATOM     93  C   UNL A   1      39.607  36.075  39.000  1.00  0.00     0.060 A 
BRANCH  93  94
ATOM     94  S   UNL A   1      39.395  37.346  40.265  1.00  0.00     0.124 S 
ATOM     95  O   UNL A   1      38.548  38.310  39.572  1.00  0.00    -0.237 OA
ATOM     96  O   UNL A   1      38.757  36.604  41.347  1.00  0.00    -0.237 OA
ATOM     97  O   UNL A   1      40.759  37.788  40.535  1.00  0.00    -0.744 OA
ENDBRANCH  93  94
ENDBRANCH  61  86
ENDBRANCH  35  36
ENDBRANCH  27  30
ENDBRANCH  25  26
ENDBRANCH  24  25
ENDBRANCH  23  24
ENDBRANCH   1  23
TORSDOF 19
ENDMDL
MODEL 2
REMARK VINA RESULT:     -11.4      6.458     12.039
REMARK SMILES CC[C@@H]1CC(=O)N(Cc2ccc(C(=O)NCCCCCCNC(=O)c3ccc(-c4c5nc(c(-c6c(F)cc(S(=O)(=O)[O-])cc6F)c6ccc([nH]6)c(-c6c(F)cc(S(=O)(=O)[O-])cc6F)c6nc(c(-c7c(F)cc(S(=O)(=O)[O-])cc7F)c7ccc4[nH]7)C=C6)C=C5)cc3)cn2)C1
REMARK SMILES IDX 18 1 17 2 16 3 15 4 13 5 14 6 12 8 9 9 10 10 92 11 11 12
REMARK SMILES IDX 91 13 8 14 7 15 3 16 4 17 93 18 5 19 6 20 2 21 1 22 19 23
REMARK SMILES IDX 20 24 21 25 22 26 23 27 24 29 25 30 26 31 90 32 27 33 89 34
REMARK SMILES IDX 28 35 29 36 30 37 83 38 31 39 88 40 82 41 84 42 32 43 87 44
REMARK SMILES IDX 81 45 80 46 33 48 67 49 46 50 66 51 47 52 50 53 65 54 85 55
REMARK SMILES IDX 48 56 49 57 64 59 86 60 51 61 34 62 35 63 44 64 36 65 37 66
REMARK SMILES IDX 43 67 45 68 38 69 39 70 40 71 41 72 42 73 68 74 69 75 78 76
REMARK SMILES IDX 70 77 71 78 77 79 79 80 72 81 73 82 74 83 75 84 76 85 52 86
REMARK SMILES IDX 53 87 62 88 54 89 55 90 61 91 63 92 56 93 57 94 58 95 59 96
REMARK SMILES IDX 60 97
REMARK H PARENT 15 7 22 28 84 47 50 58
REMARK Flexibility Score: inf
ROOT
ATOM      1  C   UNL A   1      33.618  28.425  25.967  1.00  0.00     0.002 C 
ENDROOT
BRANCH   1   2
ATOM      2  C   UNL A   1      33.052  29.460  24.984  1.00  0.00     0.021 C 
BRANCH   2   3
ATOM      3  C   UNL A   1      31.554  29.707  25.168  1.00  0.00     0.116 C 
BRANCH   3   4
ATOM      4  N   UNL A   1      30.904  29.772  23.874  1.00  0.00    -0.352 N 
ATOM      5  C   UNL A   1      30.533  28.803  22.979  1.00  0.00     0.252 C 
ATOM      6  O   UNL A   1      29.983  29.158  21.937  1.00  0.00    -0.269 OA
ATOM      7  H   UNL A   1      30.687  30.687  23.582  1.00  0.00     0.163 HD
BRANCH   5   8
ATOM      8  C   UNL A   1      30.699  27.357  23.245  1.00  0.00     0.058 A 
ATOM      9  C   UNL A   1      31.022  24.611  23.383  1.00  0.00     0.060 A 
ATOM     10  C   UNL A   1      30.334  25.274  24.401  1.00  0.00     0.026 A 
ATOM     11  N   UNL A   1      31.602  25.282  22.361  1.00  0.00    -0.259 NA
ATOM     12  C   UNL A   1      30.189  26.662  24.337  1.00  0.00     0.017 A 
ATOM     13  C   UNL A   1      31.438  26.628  22.319  1.00  0.00     0.125 A 
BRANCH   9  14
ATOM     14  C   UNL A   1      31.069  23.096  23.350  1.00  0.00     0.175 C 
BRANCH  14  15
ATOM     15  N   UNL A   1      32.333  22.557  23.838  1.00  0.00    -0.336 N 
ATOM     16  C   UNL A   1      34.515  22.491  24.682  1.00  0.00     0.017 C 
ATOM     17  C   UNL A   1      34.023  21.057  24.442  1.00  0.00     0.105 C 
ATOM     18  C   UNL A   1      33.219  23.291  24.702  1.00  0.00     0.124 C 
ATOM     19  C   UNL A   1      32.743  21.247  23.654  1.00  0.00     0.223 C 
ATOM     20  O   UNL A   1      32.180  20.381  23.012  1.00  0.00    -0.275 OA
BRANCH  16  21
ATOM     21  C   UNL A   1      35.463  22.972  23.568  1.00  0.00     0.002 C 
ATOM     22  C   UNL A   1      36.860  23.257  24.104  1.00  0.00     0.004 C 
ENDBRANCH  16  21
ENDBRANCH  14  15
ENDBRANCH   9  14
ENDBRANCH   5   8
ENDBRANCH   3   4
ENDBRANCH   2   3
ENDBRANCH   1   2
BRANCH   1  23
ATOM     23  C   UNL A   1      34.700  28.964  26.912  1.00  0.00     0.002 C 
BRANCH  23  24
ATOM     24  C   UNL A   1      34.442  30.378  27.441  1.00  0.00     0.021 C 
BRANCH  24  25
ATOM     25  C   UNL A   1      35.642  31.008  28.138  1.00  0.00     0.116 C 
BRANCH  25  26
ATOM     26  N   UNL A   1      35.538  30.890  29.583  1.00  0.00    -0.352 N 
ATOM     27  C   UNL A   1      36.386  30.265  30.462  1.00  0.00     0.251 C 
ATOM     28  H   UNL A   1      34.749  31.316  29.987  1.00  0.00     0.163 HD
ATOM     29  O   UNL A   1      36.017  30.034  31.609  1.00  0.00    -0.269 OA
BRANCH  27  30
ATOM     30  C   UNL A   1      37.740  29.871  30.018  1.00  0.00     0.039 A 
ATOM     31  C   UNL A   1      38.032  29.865  28.652  1.00  0.00     0.014 A 
ATOM     32  C   UNL A   1      38.709  29.483  30.948  1.00  0.00     0.014 A 
ATOM     33  C   UNL A   1      39.308  29.496  28.222  1.00  0.00     0.010 A 
ATOM     34  C   UNL A   1      40.002  29.199  30.523  1.00  0.00     0.010 A 
ATOM     35  C   UNL A   1      40.309  29.177  29.155  1.00  0.00    -0.014 A 
BRANCH  35  36
ATOM     36  C   UNL A   1      41.668  28.772  28.718  1.00  0.00     0.031 A 
ATOM     37  C   UNL A   1      42.764  29.804  28.631  1.00  0.00     0.074 A 
ATOM     38  C   UNL A   1      41.906  27.497  28.355  1.00  0.00     0.049 A 
ATOM     39  N   UNL A   1      43.996  29.668  28.216  1.00  0.00    -0.248 NA
ATOM     40  C   UNL A   1      42.418  31.178  29.036  1.00  0.00     0.031 C 
ATOM     41  C   UNL A   1      40.914  26.419  28.356  1.00  0.00     0.029 A 
ATOM     42  N   UNL A   1      43.052  26.892  27.908  1.00  0.00    -0.354 N 
ATOM     43  C   UNL A   1      44.565  30.933  28.297  1.00  0.00     0.074 A 
ATOM     44  C   UNL A   1      43.527  31.837  28.736  1.00  0.00     0.031 C 
ATOM     45  C   UNL A   1      41.502  25.281  27.953  1.00  0.00     0.029 A 
ATOM     46  C   UNL A   1      42.899  25.553  27.629  1.00  0.00     0.049 A 
ATOM     47  H   UNL A   1      43.906  27.370  27.797  1.00  0.00     0.167 HD
ATOM     48  C   UNL A   1      45.845  31.305  28.052  1.00  0.00     0.037 A 
ATOM     49  C   UNL A   1      43.782  24.651  27.159  1.00  0.00     0.037 A 
ATOM     50  C   UNL A   1      46.879  30.392  27.641  1.00  0.00     0.049 A 
ATOM     51  C   UNL A   1      45.199  25.088  26.893  1.00  0.00     0.074 A 
ATOM     52  C   UNL A   1      48.218  30.654  27.418  1.00  0.00     0.029 A 
ATOM     53  N   UNL A   1      46.689  29.040  27.390  1.00  0.00    -0.354 N 
ATOM     54  N   UNL A   1      45.735  26.277  27.030  1.00  0.00    -0.248 NA
ATOM     55  C   UNL A   1      46.133  24.058  26.419  1.00  0.00     0.031 C 
ATOM     56  C   UNL A   1      48.828  29.473  26.981  1.00  0.00     0.029 A 
ATOM     57  C   UNL A   1      47.883  28.460  26.994  1.00  0.00     0.049 A 
ATOM     58  H   UNL A   1      45.831  28.564  27.480  1.00  0.00     0.167 HD
ATOM     59  C   UNL A   1      47.077  26.132  26.695  1.00  0.00     0.074 A 
ATOM     60  C   UNL A   1      47.271  24.737  26.355  1.00  0.00     0.031 C 
ATOM     61  C   UNL A   1      48.061  27.066  26.673  1.00  0.00     0.037 A 
BRANCH  48  62
ATOM     62  C   UNL A   1      46.197  32.758  28.226  1.00  0.00     0.058 A 
ATOM     63  C   UNL A   1      46.695  33.260  29.439  1.00  0.00     0.135 A 
ATOM     64  C   UNL A   1      46.067  33.657  27.154  1.00  0.00     0.135 A 
ATOM     65  F   UNL A   1      46.826  32.451  30.504  1.00  0.00    -0.206 F 
ATOM     66  C   UNL A   1      47.019  34.604  29.595  1.00  0.00     0.059 A 
ATOM     67  C   UNL A   1      46.416  34.998  27.276  1.00  0.00     0.059 A 
ATOM     68  F   UNL A   1      45.595  33.234  25.971  1.00  0.00    -0.206 F 
ATOM     69  C   UNL A   1      46.876  35.466  28.506  1.00  0.00     0.060 A 
BRANCH  69  70
ATOM     70  S   UNL A   1      47.307  37.204  28.724  1.00  0.00     0.124 S 
ATOM     71  O   UNL A   1      47.435  37.292  30.176  1.00  0.00    -0.237 OA
ATOM     72  O   UNL A   1      48.552  37.314  27.971  1.00  0.00    -0.237 OA
ATOM     73  O   UNL A   1      46.166  37.912  28.152  1.00  0.00    -0.744 OA
ENDBRANCH  69  70
ENDBRANCH  48  62
BRANCH  49  74
ATOM     74  C   UNL A   1      43.360  23.243  26.934  1.00  0.00     0.058 A 
ATOM     75  C   UNL A   1      43.202  22.733  25.637  1.00  0.00     0.135 A 
ATOM     76  C   UNL A   1      43.116  22.375  28.011  1.00  0.00     0.135 A 
ATOM     77  F   UNL A   1      43.418  23.524  24.574  1.00  0.00    -0.206 F 
ATOM     78  C   UNL A   1      42.796  21.421  25.413  1.00  0.00     0.059 A 
ATOM     79  C   UNL A   1      42.738  21.051  27.812  1.00  0.00     0.059 A 
ATOM     80  F   UNL A   1      43.271  22.806  29.272  1.00  0.00    -0.206 F 
ATOM     81  C   UNL A   1      42.569  20.586  26.508  1.00  0.00     0.060 A 
BRANCH  81  82
ATOM     82  S   UNL A   1      42.084  18.873  26.206  1.00  0.00     0.124 S 
ATOM     83  O   UNL A   1      43.030  18.478  25.170  1.00  0.00    -0.237 OA
ATOM     84  O   UNL A   1      42.280  18.266  27.518  1.00  0.00    -0.237 OA
ATOM     85  O   UNL A   1      40.693  18.990  25.780  1.00  0.00    -0.744 OA
ENDBRANCH  81  82
ENDBRANCH  49  74
BRANCH  61  86
ATOM     86  C   UNL A   1      49.450  26.605  26.322  1.00  0.00     0.058 A 
ATOM     87  C   UNL A   1      49.989  26.781  25.038  1.00  0.00     0.135 A 
ATOM     88  C   UNL A   1      50.271  26.029  27.305  1.00  0.00     0.135 A 
ATOM     89  F   UNL A   1      49.246  27.322  24.060  1.00  0.00    -0.206 F 
ATOM     90  C   UNL A   1      51.285  26.375  24.734  1.00  0.00     0.059 A 
ATOM     91  C   UNL A   1      51.580  25.646  27.032  1.00  0.00     0.059 A 
ATOM     92  F   UNL A   1      49.809  25.849  28.552  1.00  0.00    -0.206 F 
ATOM     93  C   UNL A   1      52.073  25.811  25.739  1.00  0.00     0.060 A 
BRANCH  93  94
ATOM     94  S   UNL A   1      53.763  25.319  25.338  1.00  0.00     0.124 S 
ATOM     95  O   UNL A   1      53.708  23.877  25.558  1.00  0.00    -0.237 OA
ATOM     96  O   UNL A   1      53.890  25.744  23.948  1.00  0.00    -0.237 OA
ATOM     97  O   UNL A   1      54.572  26.069  26.294  1.00  0.00    -0.744 OA
ENDBRANCH  93  94
ENDBRANCH  61  86
ENDBRANCH  35  36
ENDBRANCH  27  30
ENDBRANCH  25  26
ENDBRANCH  24  25
ENDBRANCH  23  24
ENDBRANCH   1  23
TORSDOF 19
ENDMDL
MODEL 3
REMARK VINA RESULT:     -11.1      0.983      8.230
REMARK SMILES CC[C@@H]1CC(=O)N(Cc2ccc(C(=O)NCCCCCCNC(=O)c3ccc(-c4c5nc(c(-c6c(F)cc(S(=O)(=O)[O-])cc6F)c6ccc([nH]6)c(-c6c(F)cc(S(=O)(=O)[O-])cc6F)c6nc(c(-c7c(F)cc(S(=O)(=O)[O-])cc7F)c7ccc4[nH]7)C=C6)C=C5)cc3)cn2)C1
REMARK SMILES IDX 18 1 17 2 16 3 15 4 13 5 14 6 12 8 9 9 10 10 92 11 11 12
REMARK SMILES IDX 91 13 8 14 7 15 3 16 4 17 93 18 5 19 6 20 2 21 1 22 19 23
REMARK SMILES IDX 20 24 21 25 22 26 23 27 24 29 25 30 26 31 90 32 27 33 89 34
REMARK SMILES IDX 28 35 29 36 30 37 83 38 31 39 88 40 82 41 84 42 32 43 87 44
REMARK SMILES IDX 81 45 80 46 33 48 67 49 46 50 66 51 47 52 50 53 65 54 85 55
REMARK SMILES IDX 48 56 49 57 64 59 86 60 51 61 34 62 35 63 44 64 36 65 37 66
REMARK SMILES IDX 43 67 45 68 38 69 39 70 40 71 41 72 42 73 68 74 69 75 78 76
REMARK SMILES IDX 70 77 71 78 77 79 79 80 72 81 73 82 74 83 75 84 76 85 52 86
REMARK SMILES IDX 53 87 62 88 54 89 55 90 61 91 63 92 56 93 57 94 58 95 59 96
REMARK SMILES IDX 60 97
REMARK H PARENT 15 7 22 28 84 47 50 58
REMARK Flexibility Score: inf
ROOT
ATOM      1  C   UNL A   1      37.056  21.124  25.280  1.00  0.00     0.002 C 
ENDROOT
BRANCH   1   2
ATOM      2  C   UNL A   1      35.777  21.964  25.395  1.00  0.00     0.021 C 
BRANCH   2   3
ATOM      3  C   UNL A   1      34.847  21.495  26.516  1.00  0.00     0.116 C 
BRANCH   3   4
ATOM      4  N   UNL A   1      33.814  20.637  25.971  1.00  0.00    -0.352 N 
ATOM      5  C   UNL A   1      32.585  20.904  25.429  1.00  0.00     0.252 C 
ATOM      6  O   UNL A   1      31.908  19.954  25.037  1.00  0.00    -0.269 OA
ATOM      7  H   UNL A   1      34.040  19.678  25.993  1.00  0.00     0.163 HD
BRANCH   5   8
ATOM      8  C   UNL A   1      32.074  22.278  25.232  1.00  0.00     0.058 A 
ATOM      9  C   UNL A   1      30.829  24.744  25.052  1.00  0.00     0.060 A 
ATOM     10  C   UNL A   1      31.704  24.340  24.042  1.00  0.00     0.026 A 
ATOM     11  N   UNL A   1      30.625  23.994  26.160  1.00  0.00    -0.259 NA
ATOM     12  C   UNL A   1      32.344  23.104  24.145  1.00  0.00     0.017 A 
ATOM     13  C   UNL A   1      31.253  22.793  26.229  1.00  0.00     0.125 A 
BRANCH   9  14
ATOM     14  C   UNL A   1      30.010  26.010  24.897  1.00  0.00     0.175 C 
BRANCH  14  15
ATOM     15  N   UNL A   1      30.808  27.223  25.038  1.00  0.00    -0.336 N 
ATOM     16  C   UNL A   1      32.146  29.055  24.458  1.00  0.00     0.017 C 
ATOM     17  C   UNL A   1      31.938  29.043  25.978  1.00  0.00     0.105 C 
ATOM     18  C   UNL A   1      31.025  28.151  23.959  1.00  0.00     0.124 C 
ATOM     19  C   UNL A   1      31.311  27.689  26.242  1.00  0.00     0.223 C 
ATOM     20  O   UNL A   1      31.244  27.147  27.328  1.00  0.00    -0.275 OA
BRANCH  16  21
ATOM     21  C   UNL A   1      33.531  28.515  24.058  1.00  0.00     0.002 C 
ATOM     22  C   UNL A   1      33.439  27.547  22.886  1.00  0.00     0.004 C 
ENDBRANCH  16  21
ENDBRANCH  14  15
ENDBRANCH   9  14
ENDBRANCH   5   8
ENDBRANCH   3   4
ENDBRANCH   2   3
ENDBRANCH   1   2
BRANCH   1  23
ATOM     23  C   UNL A   1      38.355  21.895  25.548  1.00  0.00     0.002 C 
BRANCH  23  24
ATOM     24  C   UNL A   1      38.159  23.306  26.109  1.00  0.00     0.021 C 
BRANCH  24  25
ATOM     25  C   UNL A   1      39.356  23.836  26.888  1.00  0.00     0.116 C 
BRANCH  25  26
ATOM     26  N   UNL A   1      40.372  24.374  25.998  1.00  0.00    -0.352 N 
ATOM     27  C   UNL A   1      40.987  25.600  26.029  1.00  0.00     0.251 C 
ATOM     28  H   UNL A   1      40.658  23.776  25.271  1.00  0.00     0.163 HD
ATOM     29  O   UNL A   1      41.624  25.991  25.057  1.00  0.00    -0.269 OA
BRANCH  27  30
ATOM     30  C   UNL A   1      40.873  26.445  27.238  1.00  0.00     0.039 A 
ATOM     31  C   UNL A   1      39.964  26.086  28.235  1.00  0.00     0.014 A 
ATOM     32  C   UNL A   1      41.643  27.604  27.370  1.00  0.00     0.014 A 
ATOM     33  C   UNL A   1      39.849  26.876  29.381  1.00  0.00     0.010 A 
ATOM     34  C   UNL A   1      41.588  28.342  28.548  1.00  0.00     0.010 A 
ATOM     35  C   UNL A   1      40.674  28.000  29.555  1.00  0.00    -0.014 A 
BRANCH  35  36
ATOM     36  C   UNL A   1      40.560  28.859  30.759  1.00  0.00     0.031 A 
ATOM     37  C   UNL A   1      39.525  29.954  30.801  1.00  0.00     0.074 A 
ATOM     38  C   UNL A   1      41.411  28.690  31.789  1.00  0.00     0.049 A 
ATOM     39  N   UNL A   1      39.304  30.847  31.730  1.00  0.00    -0.248 NA
ATOM     40  C   UNL A   1      38.640  30.079  29.630  1.00  0.00     0.031 C 
ATOM     41  C   UNL A   1      42.483  27.692  31.845  1.00  0.00     0.029 A 
ATOM     42  N   UNL A   1      41.516  29.356  32.983  1.00  0.00    -0.354 N 
ATOM     43  C   UNL A   1      38.271  31.644  31.251  1.00  0.00     0.074 A 
ATOM     44  C   UNL A   1      37.952  31.172  29.923  1.00  0.00     0.031 C 
ATOM     45  C   UNL A   1      43.119  27.797  33.023  1.00  0.00     0.029 A 
ATOM     46  C   UNL A   1      42.530  28.891  33.789  1.00  0.00     0.049 A 
ATOM     47  H   UNL A   1      40.922  30.097  33.241  1.00  0.00     0.167 HD
ATOM     48  C   UNL A   1      37.627  32.662  31.872  1.00  0.00     0.037 A 
ATOM     49  C   UNL A   1      42.941  29.304  35.003  1.00  0.00     0.037 A 
ATOM     50  C   UNL A   1      37.933  33.107  33.207  1.00  0.00     0.049 A 
ATOM     51  C   UNL A   1      42.211  30.438  35.674  1.00  0.00     0.074 A 
ATOM     52  C   UNL A   1      37.308  34.093  33.949  1.00  0.00     0.029 A 
ATOM     53  N   UNL A   1      38.952  32.597  33.998  1.00  0.00    -0.354 N 
ATOM     54  N   UNL A   1      41.198  31.143  35.231  1.00  0.00    -0.248 NA
ATOM     55  C   UNL A   1      42.673  30.825  37.013  1.00  0.00     0.031 C 
ATOM     56  C   UNL A   1      37.982  34.215  35.168  1.00  0.00     0.029 A 
ATOM     57  C   UNL A   1      38.987  33.262  35.212  1.00  0.00     0.049 A 
ATOM     58  H   UNL A   1      39.562  31.869  33.735  1.00  0.00     0.167 HD
ATOM     59  C   UNL A   1      40.877  32.033  36.250  1.00  0.00     0.074 A 
ATOM     60  C   UNL A   1      41.800  31.771  37.336  1.00  0.00     0.031 C 
ATOM     61  C   UNL A   1      39.905  32.978  36.288  1.00  0.00     0.037 A 
BRANCH  48  62
ATOM     62  C   UNL A   1      36.527  33.359  31.117  1.00  0.00     0.058 A 
ATOM     63  C   UNL A   1      36.798  34.227  30.046  1.00  0.00     0.135 A 
ATOM     64  C   UNL A   1      35.180  33.132  31.446  1.00  0.00     0.135 A 
ATOM     65  F   UNL A   1      38.067  34.495  29.697  1.00  0.00    -0.206 F 
ATOM     66  C   UNL A   1      35.778  34.869  29.352  1.00  0.00     0.059 A 
ATOM     67  C   UNL A   1      34.143  33.737  30.744  1.00  0.00     0.059 A 
ATOM     68  F   UNL A   1      34.861  32.313  32.461  1.00  0.00    -0.206 F 
ATOM     69  C   UNL A   1      34.452  34.617  29.708  1.00  0.00     0.060 A 
BRANCH  69  70
ATOM     70  S   UNL A   1      33.142  35.454  28.792  1.00  0.00     0.124 S 
ATOM     71  O   UNL A   1      32.523  34.337  28.085  1.00  0.00    -0.237 OA
ATOM     72  O   UNL A   1      32.345  36.047  29.860  1.00  0.00    -0.237 OA
ATOM     73  O   UNL A   1      33.866  36.402  27.951  1.00  0.00    -0.744 OA
ENDBRANCH  69  70
ENDBRANCH  48  62
BRANCH  49  74
ATOM     74  C   UNL A   1      44.084  28.627  35.673  1.00  0.00     0.058 A 
ATOM     75  C   UNL A   1      45.405  29.039  35.443  1.00  0.00     0.135 A 
ATOM     76  C   UNL A   1      43.879  27.561  36.564  1.00  0.00     0.135 A 
ATOM     77  F   UNL A   1      45.655  30.050  34.597  1.00  0.00    -0.206 F 
ATOM     78  C   UNL A   1      46.484  28.407  36.054  1.00  0.00     0.059 A 
ATOM     79  C   UNL A   1      44.938  26.932  37.209  1.00  0.00     0.059 A 
ATOM     80  F   UNL A   1      42.634  27.140  36.834  1.00  0.00    -0.206 F 
ATOM     81  C   UNL A   1      46.239  27.355  36.939  1.00  0.00     0.060 A 
BRANCH  81  82
ATOM     82  S   UNL A   1      47.643  26.568  37.759  1.00  0.00     0.124 S 
ATOM     83  O   UNL A   1      48.343  25.967  36.630  1.00  0.00    -0.237 OA
ATOM     84  O   UNL A   1      48.303  27.706  38.390  1.00  0.00    -0.237 OA
ATOM     85  O   UNL A   1      47.009  25.631  38.681  1.00  0.00    -0.744 OA
ENDBRANCH  81  82
ENDBRANCH  49  74
BRANCH  61  86
ATOM     86  C   UNL A   1      39.749  33.766  37.561  1.00  0.00     0.058 A 
ATOM     87  C   UNL A   1      40.470  34.947  37.796  1.00  0.00     0.135 A 
ATOM     88  C   UNL A   1      38.822  33.358  38.533  1.00  0.00     0.135 A 
ATOM     89  F   UNL A   1      41.371  35.381  36.901  1.00  0.00    -0.206 F 
ATOM     90  C   UNL A   1      40.296  35.682  38.966  1.00  0.00     0.059 A 
ATOM     91  C   UNL A   1      38.608  34.093  39.694  1.00  0.00     0.059 A 
ATOM     92  F   UNL A   1      38.098  32.242  38.352  1.00  0.00    -0.206 F 
ATOM     93  C   UNL A   1      39.361  35.248  39.907  1.00  0.00     0.060 A 
BRANCH  93  94
ATOM     94  S   UNL A   1      39.123  36.227  41.405  1.00  0.00     0.124 S 
ATOM     95  O   UNL A   1      38.875  37.554  40.851  1.00  0.00    -0.237 OA
ATOM     96  O   UNL A   1      37.975  35.573  42.025  1.00  0.00    -0.237 OA
ATOM     97  O   UNL A   1      40.387  36.070  42.119  1.00  0.00    -0.744 OA
ENDBRANCH  93  94
ENDBRANCH  61  86
ENDBRANCH  35  36
ENDBRANCH  27  30
ENDBRANCH  25  26
ENDBRANCH  24  25
ENDBRANCH  23  24
ENDBRANCH   1  23
TORSDOF 19
ENDMDL
