MODEL 1
REMARK VINA RESULT:     -10.9      0.000      0.000
REMARK SMILES C[C@@](NC(=O)COc1ccccc1C#N)(C(=O)NCCCCCCNC(=O)c1ccc(-c2c3nc(c(-c4c(F)cc(S(=O)(=O)[O-])cc4F)c4ccc([nH]4)c(-c4c(F)cc(S(=O)(=O)[O-])cc4F)c4nc(c(-c5c(F)cc(S(=O)(=O)[O-])cc5F)c5ccc2[nH]5)C=C4)C=C3)cc1)C1CC1
REMARK SMILES IDX 20 1 19 2 18 3 16 4 17 5 2 7 1 8 3 9 4 10 5 12 6 13 7 14
REMARK SMILES IDX 8 15 9 16 13 17 10 18 12 19 11 20 14 21 15 22 94 23 95 24
REMARK SMILES IDX 96 25 21 26 22 27 23 28 24 29 25 30 26 31 27 33 28 34 29 35
REMARK SMILES IDX 93 36 30 37 92 38 31 39 32 40 33 41 86 42 34 43 91 44 85 45
REMARK SMILES IDX 87 46 35 47 90 48 84 49 83 50 36 52 70 53 49 54 69 55 50 56
REMARK SMILES IDX 53 57 68 58 88 59 51 60 52 61 67 63 89 64 54 65 37 66 38 67
REMARK SMILES IDX 47 68 39 69 40 70 46 71 48 72 41 73 42 74 43 75 44 76 45 77
REMARK SMILES IDX 71 78 72 79 81 80 73 81 74 82 80 83 82 84 75 85 76 86 77 87
REMARK SMILES IDX 78 88 79 89 55 90 56 91 65 92 57 93 58 94 64 95 66 96 59 97
REMARK SMILES IDX 60 98 61 99 62 100 63 101
REMARK H PARENT 18 6 3 11 25 32 87 51 53 62
REMARK Flexibility Score: inf
ROOT
ATOM      1  C   UNL A   1      36.239  20.652  25.058  1.00  0.00     0.021 C 
ENDROOT
BRANCH   1   2
ATOM      2  C   UNL A   1      35.056  21.609  24.863  1.00  0.00     0.116 C 
BRANCH   2   3
ATOM      3  N   UNL A   1      33.791  21.048  24.441  1.00  0.00    -0.354 N 
ATOM      4  C   UNL A   1      32.746  21.685  23.818  1.00  0.00     0.245 C 
ATOM      5  O   UNL A   1      32.117  20.979  23.016  1.00  0.00    -0.272 OA
ATOM      6  H   UNL A   1      33.663  20.088  24.623  1.00  0.00     0.163 HD
BRANCH   4   7
ATOM      7  C   UNL A   1      32.350  23.227  24.019  1.00  0.00     0.119 C 
ATOM      8  C   UNL A   1      30.910  23.468  23.513  1.00  0.00     0.046 C 
BRANCH   7   9
ATOM      9  N   UNL A   1      32.398  23.749  25.406  1.00  0.00    -0.339 N 
ATOM     10  C   UNL A   1      31.395  23.653  26.336  1.00  0.00     0.258 C 
ATOM     11  H   UNL A   1      33.224  24.206  25.684  1.00  0.00     0.164 HD
ATOM     12  O   UNL A   1      31.503  22.861  27.270  1.00  0.00    -0.271 OA
BRANCH  10  13
ATOM     13  C   UNL A   1      30.312  24.724  26.299  1.00  0.00     0.329 C 
BRANCH  13  14
ATOM     14  O   UNL A   1      30.857  26.037  26.520  1.00  0.00    -0.482 OA
BRANCH  14  15
ATOM     15  C   UNL A   1      30.832  26.875  25.436  1.00  0.00     0.137 A 
ATOM     16  C   UNL A   1      29.861  26.698  24.458  1.00  0.00     0.048 A 
ATOM     17  C   UNL A   1      31.668  27.992  25.353  1.00  0.00     0.094 A 
ATOM     18  C   UNL A   1      29.810  27.545  23.343  1.00  0.00     0.004 A 
ATOM     19  C   UNL A   1      31.533  28.898  24.284  1.00  0.00     0.023 A 
ATOM     20  C   UNL A   1      30.620  28.664  23.265  1.00  0.00     0.002 A 
BRANCH  17  21
ATOM     21  C   UNL A   1      32.714  28.215  26.295  1.00  0.00     0.103 C 
ATOM     22  N   UNL A   1      33.581  28.293  27.072  1.00  0.00    -0.192 NA
ENDBRANCH  17  21
ENDBRANCH  14  15
ENDBRANCH  13  14
ENDBRANCH  10  13
ENDBRANCH   7   9
BRANCH   7  23
ATOM     23  C   UNL A   1      33.357  24.091  23.205  1.00  0.00     0.024 C 
ATOM     24  C   UNL A   1      33.119  25.551  22.869  1.00  0.00     0.007 C 
ATOM     25  C   UNL A   1      34.227  25.178  23.814  1.00  0.00     0.007 C 
ENDBRANCH   7  23
ENDBRANCH   4   7
ENDBRANCH   2   3
ENDBRANCH   1   2
BRANCH   1  26
ATOM     26  C   UNL A   1      37.683  21.182  24.937  1.00  0.00     0.002 C 
BRANCH  26  27
ATOM     27  C   UNL A   1      38.351  22.100  25.981  1.00  0.00     0.002 C 
BRANCH  27  28
ATOM     28  C   UNL A   1      39.824  21.982  26.418  1.00  0.00     0.021 C 
BRANCH  28  29
ATOM     29  C   UNL A   1      40.511  23.175  27.074  1.00  0.00     0.116 C 
BRANCH  29  30
ATOM     30  N   UNL A   1      41.348  23.873  26.119  1.00  0.00    -0.352 N 
ATOM     31  C   UNL A   1      41.614  25.222  26.059  1.00  0.00     0.251 C 
ATOM     32  H   UNL A   1      41.776  23.315  25.429  1.00  0.00     0.163 HD
ATOM     33  O   UNL A   1      41.970  25.721  24.995  1.00  0.00    -0.269 OA
BRANCH  31  34
ATOM     34  C   UNL A   1      41.496  26.070  27.273  1.00  0.00     0.039 A 
ATOM     35  C   UNL A   1      40.381  25.923  28.104  1.00  0.00     0.014 A 
ATOM     36  C   UNL A   1      42.435  27.071  27.544  1.00  0.00     0.014 A 
ATOM     37  C   UNL A   1      40.210  26.773  29.203  1.00  0.00     0.010 A 
ATOM     38  C   UNL A   1      42.290  27.883  28.672  1.00  0.00     0.010 A 
ATOM     39  C   UNL A   1      41.165  27.760  29.500  1.00  0.00    -0.014 A 
BRANCH  39  40
ATOM     40  C   UNL A   1      40.971  28.691  30.647  1.00  0.00     0.031 A 
ATOM     41  C   UNL A   1      41.826  28.559  31.884  1.00  0.00     0.074 A 
ATOM     42  C   UNL A   1      40.012  29.638  30.588  1.00  0.00     0.049 A 
ATOM     43  N   UNL A   1      41.794  29.259  32.989  1.00  0.00    -0.248 NA
ATOM     44  C   UNL A   1      42.837  27.488  31.887  1.00  0.00     0.031 C 
ATOM     45  C   UNL A   1      39.103  29.848  29.459  1.00  0.00     0.029 A 
ATOM     46  N   UNL A   1      39.638  30.600  31.495  1.00  0.00    -0.354 N 
ATOM     47  C   UNL A   1      42.761  28.705  33.822  1.00  0.00     0.074 A 
ATOM     48  C   UNL A   1      43.336  27.583  33.112  1.00  0.00     0.031 C 
ATOM     49  C   UNL A   1      38.295  30.886  29.730  1.00  0.00     0.029 A 
ATOM     50  C   UNL A   1      38.596  31.391  31.067  1.00  0.00     0.049 A 
ATOM     51  H   UNL A   1      40.074  30.712  32.370  1.00  0.00     0.167 HD
ATOM     52  C   UNL A   1      43.144  29.103  35.058  1.00  0.00     0.037 A 
ATOM     53  C   UNL A   1      37.948  32.399  31.685  1.00  0.00     0.037 A 
ATOM     54  C   UNL A   1      42.588  30.242  35.744  1.00  0.00     0.049 A 
ATOM     55  C   UNL A   1      38.387  32.809  33.069  1.00  0.00     0.074 A 
ATOM     56  C   UNL A   1      42.963  30.774  36.965  1.00  0.00     0.029 A 
ATOM     57  N   UNL A   1      41.536  31.016  35.277  1.00  0.00    -0.354 N 
ATOM     58  N   UNL A   1      39.360  32.325  33.802  1.00  0.00    -0.248 NA
ATOM     59  C   UNL A   1      37.643  33.906  33.706  1.00  0.00     0.031 C 
ATOM     60  C   UNL A   1      42.089  31.821  37.272  1.00  0.00     0.029 A 
ATOM     61  C   UNL A   1      41.221  31.994  36.206  1.00  0.00     0.049 A 
ATOM     62  H   UNL A   1      41.080  30.889  34.414  1.00  0.00     0.167 HD
ATOM     63  C   UNL A   1      39.370  33.083  34.969  1.00  0.00     0.074 A 
ATOM     64  C   UNL A   1      38.315  34.066  34.838  1.00  0.00     0.031 C 
ATOM     65  C   UNL A   1      40.179  32.977  36.052  1.00  0.00     0.037 A 
BRANCH  52  66
ATOM     66  C   UNL A   1      44.205  28.307  35.772  1.00  0.00     0.058 A 
ATOM     67  C   UNL A   1      43.897  27.172  36.538  1.00  0.00     0.135 A 
ATOM     68  C   UNL A   1      45.561  28.637  35.612  1.00  0.00     0.135 A 
ATOM     69  F   UNL A   1      42.618  26.816  36.739  1.00  0.00    -0.206 F 
ATOM     70  C   UNL A   1      44.893  26.400  37.130  1.00  0.00     0.059 A 
ATOM     71  C   UNL A   1      46.576  27.863  36.169  1.00  0.00     0.059 A 
ATOM     72  F   UNL A   1      45.914  29.714  34.893  1.00  0.00    -0.206 F 
ATOM     73  C   UNL A   1      46.231  26.750  36.931  1.00  0.00     0.060 A 
BRANCH  73  74
ATOM     74  S   UNL A   1      47.511  25.715  37.672  1.00  0.00     0.124 S 
ATOM     75  O   UNL A   1      46.891  24.395  37.609  1.00  0.00    -0.237 OA
ATOM     76  O   UNL A   1      48.640  25.928  36.772  1.00  0.00    -0.237 OA
ATOM     77  O   UNL A   1      47.666  26.270  39.013  1.00  0.00    -0.744 OA
ENDBRANCH  73  74
ENDBRANCH  52  66
BRANCH  53  78
ATOM     78  C   UNL A   1      36.815  33.097  31.014  1.00  0.00     0.058 A 
ATOM     79  C   UNL A   1      35.484  32.836  31.376  1.00  0.00     0.135 A 
ATOM     80  C   UNL A   1      37.037  34.010  29.971  1.00  0.00     0.135 A 
ATOM     81  F   UNL A   1      35.215  31.968  32.364  1.00  0.00    -0.206 F 
ATOM     82  C   UNL A   1      34.415  33.421  30.704  1.00  0.00     0.059 A 
ATOM     83  C   UNL A   1      35.987  34.636  29.309  1.00  0.00     0.059 A 
ATOM     84  F   UNL A   1      38.290  34.311  29.595  1.00  0.00    -0.206 F 
ATOM     85  C   UNL A   1      34.678  34.319  29.668  1.00  0.00     0.060 A 
BRANCH  85  86
ATOM     86  S   UNL A   1      33.285  35.074  28.803  1.00  0.00     0.124 S 
ATOM     87  O   UNL A   1      32.449  35.509  29.917  1.00  0.00    -0.237 OA
ATOM     88  O   UNL A   1      33.937  36.135  28.042  1.00  0.00    -0.237 OA
ATOM     89  O   UNL A   1      32.752  33.976  28.005  1.00  0.00    -0.744 OA
ENDBRANCH  85  86
ENDBRANCH  53  78
BRANCH  65  90
ATOM     90  C   UNL A   1      39.998  33.979  37.163  1.00  0.00     0.058 A 
ATOM     91  C   UNL A   1      40.674  35.208  37.173  1.00  0.00     0.135 A 
ATOM     92  C   UNL A   1      39.083  33.725  38.200  1.00  0.00     0.135 A 
ATOM     93  F   UNL A   1      41.564  35.499  36.211  1.00  0.00    -0.206 F 
ATOM     94  C   UNL A   1      40.469  36.140  38.185  1.00  0.00     0.059 A 
ATOM     95  C   UNL A   1      38.835  34.659  39.200  1.00  0.00     0.059 A 
ATOM     96  F   UNL A   1      38.401  32.569  38.232  1.00  0.00    -0.206 F 
ATOM     97  C   UNL A   1      39.542  35.859  39.192  1.00  0.00     0.060 A 
BRANCH  97  98
ATOM     98  S   UNL A   1      39.254  37.098  40.472  1.00  0.00     0.124 S 
ATOM     99  O   UNL A   1      38.592  36.306  41.503  1.00  0.00    -0.237 OA
ATOM    100  O   UNL A   1      40.610  37.540  40.785  1.00  0.00    -0.237 OA
ATOM    101  O   UNL A   1      38.415  38.088  39.806  1.00  0.00    -0.744 OA
ENDBRANCH  97  98
ENDBRANCH  65  90
ENDBRANCH  39  40
ENDBRANCH  31  34
ENDBRANCH  29  30
ENDBRANCH  28  29
ENDBRANCH  27  28
ENDBRANCH  26  27
ENDBRANCH   1  26
TORSDOF 22
ENDMDL
MODEL 2
REMARK VINA RESULT:     -10.8      1.181      2.270
REMARK SMILES C[C@@](NC(=O)COc1ccccc1C#N)(C(=O)NCCCCCCNC(=O)c1ccc(-c2c3nc(c(-c4c(F)cc(S(=O)(=O)[O-])cc4F)c4ccc([nH]4)c(-c4c(F)cc(S(=O)(=O)[O-])cc4F)c4nc(c(-c5c(F)cc(S(=O)(=O)[O-])cc5F)c5ccc2[nH]5)C=C4)C=C3)cc1)C1CC1
REMARK SMILES IDX 20 1 19 2 18 3 16 4 17 5 2 7 1 8 3 9 4 10 5 12 6 13 7 14
REMARK SMILES IDX 8 15 9 16 13 17 10 18 12 19 11 20 14 21 15 22 94 23 95 24
REMARK SMILES IDX 96 25 21 26 22 27 23 28 24 29 25 30 26 31 27 33 28 34 29 35
REMARK SMILES IDX 93 36 30 37 92 38 31 39 32 40 33 41 86 42 34 43 91 44 85 45
REMARK SMILES IDX 87 46 35 47 90 48 84 49 83 50 36 52 70 53 49 54 69 55 50 56
REMARK SMILES IDX 53 57 68 58 88 59 51 60 52 61 67 63 89 64 54 65 37 66 38 67
REMARK SMILES IDX 47 68 39 69 40 70 46 71 48 72 41 73 42 74 43 75 44 76 45 77
REMARK SMILES IDX 71 78 72 79 81 80 73 81 74 82 80 83 82 84 75 85 76 86 77 87
REMARK SMILES IDX 78 88 79 89 55 90 56 91 65 92 57 93 58 94 64 95 66 96 59 97
REMARK SMILES IDX 60 98 61 99 62 100 63 101
REMARK H PARENT 18 6 3 11 25 32 87 51 53 62
REMARK Flexibility Score: inf
ROOT
ATOM      1  C   UNL A   1      36.314  20.843  25.045  1.00  0.00     0.021 C 
ENDROOT
BRANCH   1   2
ATOM      2  C   UNL A   1      35.313  22.002  24.953  1.00  0.00     0.116 C 
BRANCH   2   3
ATOM      3  N   UNL A   1      34.020  21.736  24.360  1.00  0.00    -0.354 N 
ATOM      4  C   UNL A   1      33.222  22.595  23.645  1.00  0.00     0.245 C 
ATOM      5  O   UNL A   1      32.561  22.054  22.745  1.00  0.00    -0.272 OA
ATOM      6  H   UNL A   1      33.667  20.825  24.486  1.00  0.00     0.163 HD
BRANCH   4   7
ATOM      7  C   UNL A   1      33.143  24.183  23.861  1.00  0.00     0.119 C 
ATOM      8  C   UNL A   1      34.564  24.755  24.059  1.00  0.00     0.046 C 
BRANCH   7   9
ATOM      9  N   UNL A   1      32.524  24.971  22.769  1.00  0.00    -0.339 N 
ATOM     10  C   UNL A   1      33.197  25.672  21.802  1.00  0.00     0.258 C 
ATOM     11  H   UNL A   1      31.540  24.994  22.736  1.00  0.00     0.164 HD
ATOM     12  O   UNL A   1      33.240  25.238  20.653  1.00  0.00    -0.271 OA
BRANCH  10  13
ATOM     13  C   UNL A   1      33.640  27.087  22.155  1.00  0.00     0.329 C 
BRANCH  13  14
ATOM     14  O   UNL A   1      32.521  27.987  22.240  1.00  0.00    -0.482 OA
BRANCH  14  15
ATOM     15  C   UNL A   1      32.335  28.580  23.461  1.00  0.00     0.137 A 
ATOM     16  C   UNL A   1      33.397  28.655  24.354  1.00  0.00     0.048 A 
ATOM     17  C   UNL A   1      31.144  29.238  23.783  1.00  0.00     0.094 A 
ATOM     18  C   UNL A   1      33.234  29.261  25.607  1.00  0.00     0.004 A 
ATOM     19  C   UNL A   1      31.030  29.939  24.999  1.00  0.00     0.023 A 
ATOM     20  C   UNL A   1      32.067  29.933  25.922  1.00  0.00     0.002 A 
BRANCH  17  21
ATOM     21  C   UNL A   1      29.999  29.169  22.937  1.00  0.00     0.103 C 
ATOM     22  N   UNL A   1      29.127  29.089  22.166  1.00  0.00    -0.192 NA
ENDBRANCH  17  21
ENDBRANCH  14  15
ENDBRANCH  13  14
ENDBRANCH  10  13
ENDBRANCH   7   9
BRANCH   7  23
ATOM     23  C   UNL A   1      32.275  24.452  25.125  1.00  0.00     0.024 C 
ATOM     24  C   UNL A   1      31.375  25.666  25.273  1.00  0.00     0.007 C 
ATOM     25  C   UNL A   1      30.764  24.296  25.165  1.00  0.00     0.007 C 
ENDBRANCH   7  23
ENDBRANCH   4   7
ENDBRANCH   2   3
ENDBRANCH   1   2
BRANCH   1  26
ATOM     26  C   UNL A   1      37.829  21.137  25.044  1.00  0.00     0.002 C 
BRANCH  26  27
ATOM     27  C   UNL A   1      38.535  22.013  26.100  1.00  0.00     0.002 C 
BRANCH  27  28
ATOM     28  C   UNL A   1      40.051  21.981  26.374  1.00  0.00     0.021 C 
BRANCH  28  29
ATOM     29  C   UNL A   1      40.719  23.179  27.041  1.00  0.00     0.116 C 
BRANCH  29  30
ATOM     30  N   UNL A   1      41.564  23.885  26.099  1.00  0.00    -0.352 N 
ATOM     31  C   UNL A   1      41.809  25.237  26.036  1.00  0.00     0.251 C 
ATOM     32  H   UNL A   1      42.016  23.329  25.422  1.00  0.00     0.163 HD
ATOM     33  O   UNL A   1      42.180  25.735  24.976  1.00  0.00    -0.269 OA
BRANCH  31  34
ATOM     34  C   UNL A   1      41.652  26.091  27.241  1.00  0.00     0.039 A 
ATOM     35  C   UNL A   1      40.553  25.890  28.083  1.00  0.00     0.014 A 
ATOM     36  C   UNL A   1      42.535  27.147  27.494  1.00  0.00     0.014 A 
ATOM     37  C   UNL A   1      40.343  26.741  29.174  1.00  0.00     0.010 A 
ATOM     38  C   UNL A   1      42.352  27.961  28.615  1.00  0.00     0.010 A 
ATOM     39  C   UNL A   1      41.242  27.784  29.453  1.00  0.00    -0.014 A 
BRANCH  39  40
ATOM     40  C   UNL A   1      41.004  28.716  30.591  1.00  0.00     0.031 A 
ATOM     41  C   UNL A   1      41.841  28.613  31.843  1.00  0.00     0.074 A 
ATOM     42  C   UNL A   1      40.021  29.636  30.511  1.00  0.00     0.049 A 
ATOM     43  N   UNL A   1      41.772  29.317  32.943  1.00  0.00    -0.248 NA
ATOM     44  C   UNL A   1      42.880  27.570  31.869  1.00  0.00     0.031 C 
ATOM     45  C   UNL A   1      39.125  29.816  29.366  1.00  0.00     0.029 A 
ATOM     46  N   UNL A   1      39.606  30.592  31.406  1.00  0.00    -0.354 N 
ATOM     47  C   UNL A   1      42.739  28.794  33.796  1.00  0.00     0.074 A 
ATOM     48  C   UNL A   1      43.355  27.685  33.102  1.00  0.00     0.031 C 
ATOM     49  C   UNL A   1      38.285  30.833  29.618  1.00  0.00     0.029 A 
ATOM     50  C   UNL A   1      38.550  31.352  30.956  1.00  0.00     0.049 A 
ATOM     51  H   UNL A   1      40.024  30.720  32.288  1.00  0.00     0.167 HD
ATOM     52  C   UNL A   1      43.090  29.209  35.036  1.00  0.00     0.037 A 
ATOM     53  C   UNL A   1      37.865  32.346  31.558  1.00  0.00     0.037 A 
ATOM     54  C   UNL A   1      42.492  30.335  35.706  1.00  0.00     0.049 A 
ATOM     55  C   UNL A   1      38.269  32.774  32.946  1.00  0.00     0.074 A 
ATOM     56  C   UNL A   1      42.832  30.883  36.930  1.00  0.00     0.029 A 
ATOM     57  N   UNL A   1      41.428  31.078  35.217  1.00  0.00    -0.354 N 
ATOM     58  N   UNL A   1      39.243  32.321  33.699  1.00  0.00    -0.248 NA
ATOM     59  C   UNL A   1      37.486  33.854  33.565  1.00  0.00     0.031 C 
ATOM     60  C   UNL A   1      41.925  31.908  37.216  1.00  0.00     0.029 A 
ATOM     61  C   UNL A   1      41.071  32.052  36.135  1.00  0.00     0.049 A 
ATOM     62  H   UNL A   1      40.990  30.934  34.347  1.00  0.00     0.167 HD
ATOM     63  C   UNL A   1      39.212  33.085  34.861  1.00  0.00     0.074 A 
ATOM     64  C   UNL A   1      38.134  34.038  34.707  1.00  0.00     0.031 C 
ATOM     65  C   UNL A   1      40.005  33.007  35.959  1.00  0.00     0.037 A 
BRANCH  52  66
ATOM     66  C   UNL A   1      44.159  28.445  35.772  1.00  0.00     0.058 A 
ATOM     67  C   UNL A   1      43.856  27.381  36.636  1.00  0.00     0.135 A 
ATOM     68  C   UNL A   1      45.515  28.728  35.538  1.00  0.00     0.135 A 
ATOM     69  F   UNL A   1      42.578  27.074  36.910  1.00  0.00    -0.206 F 
ATOM     70  C   UNL A   1      44.857  26.634  37.251  1.00  0.00     0.059 A 
ATOM     71  C   UNL A   1      46.533  27.975  36.116  1.00  0.00     0.059 A 
ATOM     72  F   UNL A   1      45.864  29.736  34.723  1.00  0.00    -0.206 F 
ATOM     73  C   UNL A   1      46.194  26.934  36.977  1.00  0.00     0.060 A 
BRANCH  73  74
ATOM     74  S   UNL A   1      47.478  25.929  37.750  1.00  0.00     0.124 S 
ATOM     75  O   UNL A   1      47.347  26.315  39.152  1.00  0.00    -0.237 OA
ATOM     76  O   UNL A   1      47.049  24.573  37.424  1.00  0.00    -0.237 OA
ATOM     77  O   UNL A   1      48.703  26.373  37.092  1.00  0.00    -0.744 OA
ENDBRANCH  73  74
ENDBRANCH  52  66
BRANCH  53  78
ATOM     78  C   UNL A   1      36.726  33.009  30.864  1.00  0.00     0.058 A 
ATOM     79  C   UNL A   1      36.943  33.916  29.814  1.00  0.00     0.135 A 
ATOM     80  C   UNL A   1      35.398  32.780  31.259  1.00  0.00     0.135 A 
ATOM     81  F   UNL A   1      38.192  34.175  29.399  1.00  0.00    -0.206 F 
ATOM     82  C   UNL A   1      35.893  34.601  29.211  1.00  0.00     0.059 A 
ATOM     83  C   UNL A   1      34.329  33.425  30.647  1.00  0.00     0.059 A 
ATOM     84  F   UNL A   1      35.130  31.909  32.245  1.00  0.00    -0.206 F 
ATOM     85  C   UNL A   1      34.588  34.350  29.637  1.00  0.00     0.060 A 
BRANCH  85  86
ATOM     86  S   UNL A   1      33.232  35.243  28.847  1.00  0.00     0.124 S 
ATOM     87  O   UNL A   1      33.938  36.354  28.220  1.00  0.00    -0.237 OA
ATOM     88  O   UNL A   1      32.692  34.235  27.939  1.00  0.00    -0.237 OA
ATOM     89  O   UNL A   1      32.366  35.596  29.967  1.00  0.00    -0.744 OA
ENDBRANCH  85  86
ENDBRANCH  53  78
BRANCH  65  90
ATOM     90  C   UNL A   1      39.779  34.008  37.060  1.00  0.00     0.058 A 
ATOM     91  C   UNL A   1      38.999  33.710  38.187  1.00  0.00     0.135 A 
ATOM     92  C   UNL A   1      40.407  35.265  37.012  1.00  0.00     0.135 A 
ATOM     93  F   UNL A   1      38.371  32.527  38.283  1.00  0.00    -0.206 F 
ATOM     94  C   UNL A   1      38.829  34.630  39.216  1.00  0.00     0.059 A 
ATOM     95  C   UNL A   1      40.281  36.186  38.046  1.00  0.00     0.059 A 
ATOM     96  F   UNL A   1      41.174  35.598  35.960  1.00  0.00    -0.206 F 
ATOM     97  C   UNL A   1      39.480  35.865  39.140  1.00  0.00     0.060 A 
BRANCH  97  98
ATOM     98  S   UNL A   1      39.286  37.030  40.503  1.00  0.00     0.124 S 
ATOM     99  O   UNL A   1      38.492  36.250  41.447  1.00  0.00    -0.237 OA
ATOM    100  O   UNL A   1      40.671  37.282  40.894  1.00  0.00    -0.237 OA
ATOM    101  O   UNL A   1      38.598  38.161  39.890  1.00  0.00    -0.744 OA
ENDBRANCH  97  98
ENDBRANCH  65  90
ENDBRANCH  39  40
ENDBRANCH  31  34
ENDBRANCH  29  30
ENDBRANCH  28  29
ENDBRANCH  27  28
ENDBRANCH  26  27
ENDBRANCH   1  26
TORSDOF 22
ENDMDL
MODEL 3
REMARK VINA RESULT:     -10.7      3.245      4.339
REMARK SMILES C[C@@](NC(=O)COc1ccccc1C#N)(C(=O)NCCCCCCNC(=O)c1ccc(-c2c3nc(c(-c4c(F)cc(S(=O)(=O)[O-])cc4F)c4ccc([nH]4)c(-c4c(F)cc(S(=O)(=O)[O-])cc4F)c4nc(c(-c5c(F)cc(S(=O)(=O)[O-])cc5F)c5ccc2[nH]5)C=C4)C=C3)cc1)C1CC1
REMARK SMILES IDX 20 1 19 2 18 3 16 4 17 5 2 7 1 8 3 9 4 10 5 12 6 13 7 14
REMARK SMILES IDX 8 15 9 16 13 17 10 18 12 19 11 20 14 21 15 22 94 23 95 24
REMARK SMILES IDX 96 25 21 26 22 27 23 28 24 29 25 30 26 31 27 33 28 34 29 35
REMARK SMILES IDX 93 36 30 37 92 38 31 39 32 40 33 41 86 42 34 43 91 44 85 45
REMARK SMILES IDX 87 46 35 47 90 48 84 49 83 50 36 52 70 53 49 54 69 55 50 56
REMARK SMILES IDX 53 57 68 58 88 59 51 60 52 61 67 63 89 64 54 65 37 66 38 67
REMARK SMILES IDX 47 68 39 69 40 70 46 71 48 72 41 73 42 74 43 75 44 76 45 77
REMARK SMILES IDX 71 78 72 79 81 80 73 81 74 82 80 83 82 84 75 85 76 86 77 87
REMARK SMILES IDX 78 88 79 89 55 90 56 91 65 92 57 93 58 94 64 95 66 96 59 97
REMARK SMILES IDX 60 98 61 99 62 100 63 101
REMARK H PARENT 18 6 3 11 25 32 87 51 53 62
REMARK Flexibility Score: inf
ROOT
ATOM      1  C   UNL A   1      32.277  21.021  25.236  1.00  0.00     0.021 C 
ENDROOT
BRANCH   1   2
ATOM      2  C   UNL A   1      31.290  22.162  25.514  1.00  0.00     0.116 C 
BRANCH   2   3
ATOM      3  N   UNL A   1      31.817  23.403  26.037  1.00  0.00    -0.354 N 
ATOM      4  C   UNL A   1      31.581  24.681  25.591  1.00  0.00     0.245 C 
ATOM      5  O   UNL A   1      31.569  25.543  26.483  1.00  0.00    -0.272 OA
ATOM      6  H   UNL A   1      32.423  23.322  26.809  1.00  0.00     0.163 HD
BRANCH   4   7
ATOM      7  C   UNL A   1      31.278  25.089  24.070  1.00  0.00     0.119 C 
ATOM      8  C   UNL A   1      30.632  23.899  23.327  1.00  0.00     0.046 C 
BRANCH   7   9
ATOM      9  N   UNL A   1      30.379  26.250  23.860  1.00  0.00    -0.339 N 
ATOM     10  C   UNL A   1      30.775  27.549  23.673  1.00  0.00     0.258 C 
ATOM     11  H   UNL A   1      29.411  26.071  23.855  1.00  0.00     0.164 HD
ATOM     12  O   UNL A   1      30.702  28.055  22.555  1.00  0.00    -0.271 OA
BRANCH  10  13
ATOM     13  C   UNL A   1      31.045  28.377  24.924  1.00  0.00     0.329 C 
BRANCH  13  14
ATOM     14  O   UNL A   1      32.075  29.355  24.699  1.00  0.00    -0.482 OA
BRANCH  14  15
ATOM     15  C   UNL A   1      32.900  29.599  25.766  1.00  0.00     0.137 A 
ATOM     16  C   UNL A   1      33.980  28.756  26.000  1.00  0.00     0.048 A 
ATOM     17  C   UNL A   1      32.769  30.750  26.547  1.00  0.00     0.094 A 
ATOM     18  C   UNL A   1      34.841  28.986  27.081  1.00  0.00     0.004 A 
ATOM     19  C   UNL A   1      33.706  31.028  27.560  1.00  0.00     0.023 A 
ATOM     20  C   UNL A   1      34.730  30.135  27.844  1.00  0.00     0.002 A 
BRANCH  17  21
ATOM     21  C   UNL A   1      31.663  31.636  26.393  1.00  0.00     0.103 C 
ATOM     22  N   UNL A   1      30.803  32.395  26.179  1.00  0.00    -0.192 NA
ENDBRANCH  17  21
ENDBRANCH  14  15
ENDBRANCH  13  14
ENDBRANCH  10  13
ENDBRANCH   7   9
BRANCH   7  23
ATOM     23  C   UNL A   1      32.629  25.472  23.398  1.00  0.00     0.024 C 
ATOM     24  C   UNL A   1      33.906  25.721  24.180  1.00  0.00     0.007 C 
ATOM     25  C   UNL A   1      33.812  24.526  23.272  1.00  0.00     0.007 C 
ENDBRANCH   7  23
ENDBRANCH   4   7
ENDBRANCH   2   3
ENDBRANCH   1   2
BRANCH   1  26
ATOM     26  C   UNL A   1      33.724  21.345  24.812  1.00  0.00     0.002 C 
BRANCH  26  27
ATOM     27  C   UNL A   1      34.882  21.564  25.808  1.00  0.00     0.002 C 
BRANCH  27  28
ATOM     28  C   UNL A   1      35.349  22.948  26.299  1.00  0.00     0.021 C 
BRANCH  28  29
ATOM     29  C   UNL A   1      36.652  23.535  25.764  1.00  0.00     0.116 C 
BRANCH  29  30
ATOM     30  N   UNL A   1      37.751  22.613  25.970  1.00  0.00    -0.352 N 
ATOM     31  C   UNL A   1      39.055  22.916  26.287  1.00  0.00     0.251 C 
ATOM     32  H   UNL A   1      37.539  21.656  25.870  1.00  0.00     0.163 HD
ATOM     33  O   UNL A   1      39.944  22.111  26.020  1.00  0.00    -0.269 OA
BRANCH  31  34
ATOM     34  C   UNL A   1      39.391  24.193  26.967  1.00  0.00     0.039 A 
ATOM     35  C   UNL A   1      40.183  25.134  26.303  1.00  0.00     0.014 A 
ATOM     36  C   UNL A   1      39.003  24.424  28.292  1.00  0.00     0.014 A 
ATOM     37  C   UNL A   1      40.582  26.303  26.961  1.00  0.00     0.010 A 
ATOM     38  C   UNL A   1      39.357  25.617  28.928  1.00  0.00     0.010 A 
ATOM     39  C   UNL A   1      40.170  26.558  28.280  1.00  0.00    -0.014 A 
BRANCH  39  40
ATOM     40  C   UNL A   1      40.620  27.784  28.999  1.00  0.00     0.031 A 
ATOM     41  C   UNL A   1      42.005  27.847  29.595  1.00  0.00     0.074 A 
ATOM     42  C   UNL A   1      39.778  28.828  29.137  1.00  0.00     0.049 A 
ATOM     43  N   UNL A   1      42.570  28.815  30.272  1.00  0.00    -0.248 NA
ATOM     44  C   UNL A   1      42.863  26.662  29.425  1.00  0.00     0.031 C 
ATOM     45  C   UNL A   1      38.405  28.876  28.630  1.00  0.00     0.029 A 
ATOM     46  N   UNL A   1      39.947  30.048  29.746  1.00  0.00    -0.354 N 
ATOM     47  C   UNL A   1      43.834  28.350  30.624  1.00  0.00     0.074 A 
ATOM     48  C   UNL A   1      43.940  26.998  30.121  1.00  0.00     0.031 C 
ATOM     49  C   UNL A   1      37.866  30.071  28.926  1.00  0.00     0.029 A 
ATOM     50  C   UNL A   1      38.836  30.859  29.681  1.00  0.00     0.049 A 
ATOM     51  H   UNL A   1      40.784  30.316  30.188  1.00  0.00     0.167 HD
ATOM     52  C   UNL A   1      44.819  28.997  31.290  1.00  0.00     0.037 A 
ATOM     53  C   UNL A   1      38.619  32.091  30.183  1.00  0.00     0.037 A 
ATOM     54  C   UNL A   1      44.716  30.356  31.758  1.00  0.00     0.049 A 
ATOM     55  C   UNL A   1      39.731  32.779  30.936  1.00  0.00     0.074 A 
ATOM     56  C   UNL A   1      45.686  31.126  32.374  1.00  0.00     0.029 A 
ATOM     57  N   UNL A   1      43.576  31.141  31.673  1.00  0.00    -0.354 N 
ATOM     58  N   UNL A   1      40.947  32.353  31.182  1.00  0.00    -0.248 NA
ATOM     59  C   UNL A   1      39.443  34.117  31.474  1.00  0.00     0.031 C 
ATOM     60  C   UNL A   1      45.111  32.349  32.730  1.00  0.00     0.029 A 
ATOM     61  C   UNL A   1      43.807  32.373  32.264  1.00  0.00     0.049 A 
ATOM     62  H   UNL A   1      42.729  30.865  31.255  1.00  0.00     0.167 HD
ATOM     63  C   UNL A   1      41.579  33.386  31.868  1.00  0.00     0.074 A 
ATOM     64  C   UNL A   1      40.617  34.460  31.986  1.00  0.00     0.031 C 
ATOM     65  C   UNL A   1      42.843  33.440  32.357  1.00  0.00     0.037 A 
BRANCH  52  66
ATOM     66  C   UNL A   1      46.098  28.255  31.576  1.00  0.00     0.058 A 
ATOM     67  C   UNL A   1      46.241  27.416  32.692  1.00  0.00     0.135 A 
ATOM     68  C   UNL A   1      47.168  28.319  30.667  1.00  0.00     0.135 A 
ATOM     69  F   UNL A   1      45.259  27.326  33.603  1.00  0.00    -0.206 F 
ATOM     70  C   UNL A   1      47.402  26.676  32.903  1.00  0.00     0.059 A 
ATOM     71  C   UNL A   1      48.325  27.565  30.841  1.00  0.00     0.059 A 
ATOM     72  F   UNL A   1      47.088  29.107  29.584  1.00  0.00    -0.206 F 
ATOM     73  C   UNL A   1      48.436  26.751  31.966  1.00  0.00     0.060 A 
BRANCH  73  74
ATOM     74  S   UNL A   1      49.916  25.754  32.235  1.00  0.00     0.124 S 
ATOM     75  O   UNL A   1      49.945  24.944  31.021  1.00  0.00    -0.237 OA
ATOM     76  O   UNL A   1      50.958  26.769  32.344  1.00  0.00    -0.237 OA
ATOM     77  O   UNL A   1      49.619  25.027  33.465  1.00  0.00    -0.744 OA
ENDBRANCH  73  74
ENDBRANCH  52  66
BRANCH  53  78
ATOM     78  C   UNL A   1      37.302  32.763  30.000  1.00  0.00     0.058 A 
ATOM     79  C   UNL A   1      37.122  33.756  29.024  1.00  0.00     0.135 A 
ATOM     80  C   UNL A   1      36.206  32.454  30.820  1.00  0.00     0.135 A 
ATOM     81  F   UNL A   1      38.139  34.093  28.216  1.00  0.00    -0.206 F 
ATOM     82  C   UNL A   1      35.921  34.446  28.895  1.00  0.00     0.059 A 
ATOM     83  C   UNL A   1      34.983  33.103  30.686  1.00  0.00     0.059 A 
ATOM     84  F   UNL A   1      36.314  31.499  31.758  1.00  0.00    -0.206 F 
ATOM     85  C   UNL A   1      34.857  34.113  29.735  1.00  0.00     0.060 A 
BRANCH  85  86
ATOM     86  S   UNL A   1      33.301  35.013  29.558  1.00  0.00     0.124 S 
ATOM     87  O   UNL A   1      33.769  36.324  29.123  1.00  0.00    -0.237 OA
ATOM     88  O   UNL A   1      32.602  34.218  28.554  1.00  0.00    -0.237 OA
ATOM     89  O   UNL A   1      32.730  34.960  30.900  1.00  0.00    -0.744 OA
ENDBRANCH  85  86
ENDBRANCH  53  78
BRANCH  65  90
ATOM     90  C   UNL A   1      43.284  34.720  33.017  1.00  0.00     0.058 A 
ATOM     91  C   UNL A   1      43.646  35.854  32.275  1.00  0.00     0.135 A 
ATOM     92  C   UNL A   1      43.282  34.828  34.419  1.00  0.00     0.135 A 
ATOM     93  F   UNL A   1      43.672  35.805  30.933  1.00  0.00    -0.206 F 
ATOM     94  C   UNL A   1      44.015  37.042  32.897  1.00  0.00     0.059 A 
ATOM     95  C   UNL A   1      43.610  36.017  35.061  1.00  0.00     0.059 A 
ATOM     96  F   UNL A   1      42.933  33.777  35.178  1.00  0.00    -0.206 F 
ATOM     97  C   UNL A   1      43.988  37.116  34.292  1.00  0.00     0.060 A 
BRANCH  97  98
ATOM     98  S   UNL A   1      44.425  38.677  35.083  1.00  0.00     0.124 S 
ATOM     99  O   UNL A   1      43.920  38.472  36.437  1.00  0.00    -0.237 OA
ATOM    100  O   UNL A   1      45.879  38.699  34.945  1.00  0.00    -0.237 OA
ATOM    101  O   UNL A   1      43.710  39.673  34.292  1.00  0.00    -0.744 OA
ENDBRANCH  97  98
ENDBRANCH  65  90
ENDBRANCH  39  40
ENDBRANCH  31  34
ENDBRANCH  29  30
ENDBRANCH  28  29
ENDBRANCH  27  28
ENDBRANCH  26  27
ENDBRANCH   1  26
TORSDOF 22
ENDMDL
