MODEL 1
REMARK VINA RESULT:     -10.9      0.000      0.000
REMARK SMILES Cn1nc(C(=O)N2C[C@@H](O)C[C@H]2C(=O)NCCCCCCNC(=O)c2ccc(-c3c4nc(c(-c5c(F)cc(S(=O)(=O)[O-])cc5F)c5ccc([nH]5)c(-c5c(F)cc(S(=O)(=O)[O-])cc5F)c5nc(c(-c6c(F)cc(S(=O)(=O)[O-])cc6F)c6ccc3[nH]6)C=C5)C=C4)cc2)ccc1=O
REMARK SMILES IDX 19 1 18 2 17 3 16 4 15 5 13 6 14 7 12 9 7 10 8 11 9 12 11 13
REMARK SMILES IDX 5 14 6 15 4 16 1 17 2 18 3 19 93 20 92 21 94 22 91 23 10 24
REMARK SMILES IDX 20 26 21 27 22 28 23 29 24 31 25 32 26 33 90 34 27 35 89 36
REMARK SMILES IDX 28 37 29 38 30 39 83 40 31 41 88 42 82 43 84 44 32 45 87 46
REMARK SMILES IDX 81 47 80 48 33 50 67 51 46 52 66 53 47 54 50 55 65 56 85 57
REMARK SMILES IDX 48 58 49 59 64 61 86 62 51 63 34 64 35 65 44 66 36 67 37 68
REMARK SMILES IDX 43 69 45 70 38 71 39 72 40 73 41 74 42 75 68 76 69 77 78 78
REMARK SMILES IDX 70 79 71 80 77 81 79 82 72 83 73 84 74 85 75 86 76 87 52 88
REMARK SMILES IDX 53 89 62 90 54 91 55 92 61 93 63 94 56 95 57 96 58 97 59 98
REMARK SMILES IDX 60 99
REMARK H PARENT 15 8 10 25 22 30 84 49 50 60
REMARK Flexibility Score: inf
ROOT
ATOM      1  C   UNL A   1      32.539  27.593  24.514  1.00  0.00     0.002 C 
ENDROOT
BRANCH   1   2
ATOM      2  C   UNL A   1      31.544  26.651  25.204  1.00  0.00     0.002 C 
BRANCH   2   3
ATOM      3  C   UNL A   1      31.411  25.261  24.571  1.00  0.00     0.021 C 
BRANCH   3   4
ATOM      4  C   UNL A   1      32.553  24.314  24.914  1.00  0.00     0.116 C 
BRANCH   4   5
ATOM      5  N   UNL A   1      33.514  24.208  23.840  1.00  0.00    -0.354 N 
ATOM      6  C   UNL A   1      34.782  23.711  23.838  1.00  0.00     0.242 C 
ATOM      7  O   UNL A   1      35.316  23.548  22.735  1.00  0.00    -0.273 OA
ATOM      8  H   UNL A   1      33.203  24.549  22.971  1.00  0.00     0.163 HD
BRANCH   6   9
ATOM      9  C   UNL A   1      35.468  23.195  25.117  1.00  0.00     0.177 C 
ATOM     10  N   UNL A   1      35.608  21.747  25.282  1.00  0.00    -0.323 N 
ATOM     11  C   UNL A   1      36.988  21.367  25.549  1.00  0.00     0.152 C 
ATOM     12  C   UNL A   1      37.671  22.663  25.976  1.00  0.00     0.136 C 
ATOM     13  C   UNL A   1      36.880  23.767  25.275  1.00  0.00     0.069 C 
BRANCH  10  14
ATOM     14  C   UNL A   1      34.463  21.046  25.635  1.00  0.00     0.275 C 
ATOM     15  O   UNL A   1      33.992  21.043  26.768  1.00  0.00    -0.267 OA
BRANCH  14  16
ATOM     16  C   UNL A   1      33.846  20.095  24.615  1.00  0.00     0.149 A 
ATOM     17  C   UNL A   1      34.175  16.650  23.683  1.00  0.00     0.178 C 
ATOM     18  N   UNL A   1      33.632  17.994  23.735  1.00  0.00    -0.232 N 
ATOM     19  N   UNL A   1      34.247  18.860  24.608  1.00  0.00    -0.165 NA
ATOM     20  C   UNL A   1      32.573  18.343  22.907  1.00  0.00     0.266 A 
ATOM     21  C   UNL A   1      32.140  19.759  22.976  1.00  0.00     0.076 A 
ATOM     22  O   UNL A   1      31.996  17.579  22.139  1.00  0.00    -0.268 OA
ATOM     23  C   UNL A   1      32.757  20.630  23.778  1.00  0.00     0.042 A 
ENDBRANCH  14  16
ENDBRANCH  10  14
BRANCH  12  24
ATOM     24  O   UNL A   1      39.040  22.707  25.610  1.00  0.00    -0.391 OA
ATOM     25  H   UNL A   1      39.562  23.049  26.352  1.00  0.00     0.211 HD
ENDBRANCH  12  24
ENDBRANCH   6   9
ENDBRANCH   4   5
ENDBRANCH   3   4
ENDBRANCH   2   3
ENDBRANCH   1   2
BRANCH   1  26
ATOM     26  C   UNL A   1      33.884  27.762  25.226  1.00  0.00     0.021 C 
BRANCH  26  27
ATOM     27  C   UNL A   1      33.779  28.001  26.728  1.00  0.00     0.116 C 
BRANCH  27  28
ATOM     28  N   UNL A   1      33.446  29.384  27.029  1.00  0.00    -0.352 N 
ATOM     29  C   UNL A   1      34.182  30.307  27.727  1.00  0.00     0.251 C 
ATOM     30  H   UNL A   1      32.578  29.700  26.686  1.00  0.00     0.163 HD
ATOM     31  O   UNL A   1      33.676  31.367  28.083  1.00  0.00    -0.269 OA
BRANCH  29  32
ATOM     32  C   UNL A   1      35.590  30.005  28.056  1.00  0.00     0.039 A 
ATOM     33  C   UNL A   1      35.914  29.589  29.348  1.00  0.00     0.014 A 
ATOM     34  C   UNL A   1      36.582  30.132  27.077  1.00  0.00     0.014 A 
ATOM     35  C   UNL A   1      37.235  29.257  29.652  1.00  0.00     0.010 A 
ATOM     36  C   UNL A   1      37.890  29.756  27.369  1.00  0.00     0.010 A 
ATOM     37  C   UNL A   1      38.228  29.324  28.660  1.00  0.00    -0.014 A 
BRANCH  37  38
ATOM     38  C   UNL A   1      39.640  28.998  28.973  1.00  0.00     0.031 A 
ATOM     39  C   UNL A   1      40.504  30.027  29.646  1.00  0.00     0.074 A 
ATOM     40  C   UNL A   1      40.146  27.799  28.626  1.00  0.00     0.049 A 
ATOM     41  N   UNL A   1      41.773  29.965  29.954  1.00  0.00    -0.248 NA
ATOM     42  C   UNL A   1      39.859  31.302  30.008  1.00  0.00     0.031 C 
ATOM     43  C   UNL A   1      39.406  26.727  27.956  1.00  0.00     0.029 A 
ATOM     44  N   UNL A   1      41.407  27.281  28.786  1.00  0.00    -0.354 N 
ATOM     45  C   UNL A   1      42.075  31.181  30.554  1.00  0.00     0.074 A 
ATOM     46  C   UNL A   1      40.874  31.986  30.515  1.00  0.00     0.031 C 
ATOM     47  C   UNL A   1      40.223  25.674  27.778  1.00  0.00     0.029 A 
ATOM     48  C   UNL A   1      41.549  26.005  28.294  1.00  0.00     0.049 A 
ATOM     49  H   UNL A   1      42.142  27.778  29.213  1.00  0.00     0.167 HD
ATOM     50  C   UNL A   1      43.241  31.577  31.116  1.00  0.00     0.037 A 
ATOM     51  C   UNL A   1      42.627  25.197  28.263  1.00  0.00     0.037 A 
ATOM     52  C   UNL A   1      44.427  30.766  31.168  1.00  0.00     0.049 A 
ATOM     53  C   UNL A   1      43.926  25.686  28.849  1.00  0.00     0.074 A 
ATOM     54  C   UNL A   1      45.653  31.073  31.732  1.00  0.00     0.029 A 
ATOM     55  N   UNL A   1      44.534  29.486  30.647  1.00  0.00    -0.354 N 
ATOM     56  N   UNL A   1      44.186  26.829  29.438  1.00  0.00    -0.248 NA
ATOM     57  C   UNL A   1      45.078  24.776  28.768  1.00  0.00     0.031 C 
ATOM     58  C   UNL A   1      46.512  29.990  31.525  1.00  0.00     0.029 A 
ATOM     59  C   UNL A   1      45.809  28.993  30.867  1.00  0.00     0.049 A 
ATOM     60  H   UNL A   1      43.811  28.999  30.190  1.00  0.00     0.167 HD
ATOM     61  C   UNL A   1      45.520  26.762  29.824  1.00  0.00     0.074 A 
ATOM     62  C   UNL A   1      46.012  25.465  29.409  1.00  0.00     0.031 C 
ATOM     63  C   UNL A   1      46.272  27.692  30.462  1.00  0.00     0.037 A 
BRANCH  50  64
ATOM     64  C   UNL A   1      43.286  32.937  31.750  1.00  0.00     0.058 A 
ATOM     65  C   UNL A   1      42.881  33.130  33.079  1.00  0.00     0.135 A 
ATOM     66  C   UNL A   1      43.815  34.037  31.057  1.00  0.00     0.135 A 
ATOM     67  F   UNL A   1      42.349  32.114  33.778  1.00  0.00    -0.206 F 
ATOM     68  C   UNL A   1      42.997  34.367  33.701  1.00  0.00     0.059 A 
ATOM     69  C   UNL A   1      43.960  35.280  31.667  1.00  0.00     0.059 A 
ATOM     70  F   UNL A   1      44.209  33.906  29.780  1.00  0.00    -0.206 F 
ATOM     71  C   UNL A   1      43.548  35.434  32.989  1.00  0.00     0.060 A 
BRANCH  71  72
ATOM     72  S   UNL A   1      43.737  37.019  33.832  1.00  0.00     0.124 S 
ATOM     73  O   UNL A   1      42.628  36.980  34.781  1.00  0.00    -0.237 OA
ATOM     74  O   UNL A   1      45.072  36.904  34.411  1.00  0.00    -0.237 OA
ATOM     75  O   UNL A   1      43.607  37.995  32.755  1.00  0.00    -0.744 OA
ENDBRANCH  71  72
ENDBRANCH  50  64
BRANCH  51  76
ATOM     76  C   UNL A   1      42.534  23.835  27.674  1.00  0.00     0.058 A 
ATOM     77  C   UNL A   1      42.422  22.704  28.497  1.00  0.00     0.135 A 
ATOM     78  C   UNL A   1      42.584  23.632  26.286  1.00  0.00     0.135 A 
ATOM     79  F   UNL A   1      42.377  22.848  29.830  1.00  0.00    -0.206 F 
ATOM     80  C   UNL A   1      42.394  21.418  27.968  1.00  0.00     0.059 A 
ATOM     81  C   UNL A   1      42.533  22.357  25.733  1.00  0.00     0.059 A 
ATOM     82  F   UNL A   1      42.674  24.682  25.455  1.00  0.00    -0.206 F 
ATOM     83  C   UNL A   1      42.455  21.254  26.584  1.00  0.00     0.060 A 
BRANCH  83  84
ATOM     84  S   UNL A   1      42.404  19.581  25.907  1.00  0.00     0.124 S 
ATOM     85  O   UNL A   1      42.699  18.778  27.089  1.00  0.00    -0.237 OA
ATOM     86  O   UNL A   1      41.038  19.497  25.401  1.00  0.00    -0.237 OA
ATOM     87  O   UNL A   1      43.443  19.603  24.882  1.00  0.00    -0.744 OA
ENDBRANCH  83  84
ENDBRANCH  51  76
BRANCH  63  88
ATOM     88  C   UNL A   1      47.696  27.335  30.783  1.00  0.00     0.058 A 
ATOM     89  C   UNL A   1      48.018  26.527  31.884  1.00  0.00     0.135 A 
ATOM     90  C   UNL A   1      48.739  27.738  29.934  1.00  0.00     0.135 A 
ATOM     91  F   UNL A   1      47.057  26.121  32.728  1.00  0.00    -0.206 F 
ATOM     92  C   UNL A   1      49.329  26.140  32.139  1.00  0.00     0.059 A 
ATOM     93  C   UNL A   1      50.054  27.343  30.156  1.00  0.00     0.059 A 
ATOM     94  F   UNL A   1      48.480  28.503  28.861  1.00  0.00    -0.206 F 
ATOM     95  C   UNL A   1      50.339  26.548  31.265  1.00  0.00     0.060 A 
BRANCH  95  96
ATOM     96  S   UNL A   1      52.027  25.991  31.579  1.00  0.00     0.124 S 
ATOM     97  O   UNL A   1      51.797  24.733  32.281  1.00  0.00    -0.237 OA
ATOM     98  O   UNL A   1      52.574  25.874  30.231  1.00  0.00    -0.237 OA
ATOM     99  O   UNL A   1      52.595  27.067  32.388  1.00  0.00    -0.744 OA
ENDBRANCH  95  96
ENDBRANCH  63  88
ENDBRANCH  37  38
ENDBRANCH  29  32
ENDBRANCH  27  28
ENDBRANCH  26  27
ENDBRANCH   1  26
TORSDOF 19
ENDMDL
MODEL 2
REMARK VINA RESULT:     -10.8      4.159      9.782
REMARK SMILES Cn1nc(C(=O)N2C[C@@H](O)C[C@H]2C(=O)NCCCCCCNC(=O)c2ccc(-c3c4nc(c(-c5c(F)cc(S(=O)(=O)[O-])cc5F)c5ccc([nH]5)c(-c5c(F)cc(S(=O)(=O)[O-])cc5F)c5nc(c(-c6c(F)cc(S(=O)(=O)[O-])cc6F)c6ccc3[nH]6)C=C5)C=C4)cc2)ccc1=O
REMARK SMILES IDX 19 1 18 2 17 3 16 4 15 5 13 6 14 7 12 9 7 10 8 11 9 12 11 13
REMARK SMILES IDX 5 14 6 15 4 16 1 17 2 18 3 19 93 20 92 21 94 22 91 23 10 24
REMARK SMILES IDX 20 26 21 27 22 28 23 29 24 31 25 32 26 33 90 34 27 35 89 36
REMARK SMILES IDX 28 37 29 38 30 39 83 40 31 41 88 42 82 43 84 44 32 45 87 46
REMARK SMILES IDX 81 47 80 48 33 50 67 51 46 52 66 53 47 54 50 55 65 56 85 57
REMARK SMILES IDX 48 58 49 59 64 61 86 62 51 63 34 64 35 65 44 66 36 67 37 68
REMARK SMILES IDX 43 69 45 70 38 71 39 72 40 73 41 74 42 75 68 76 69 77 78 78
REMARK SMILES IDX 70 79 71 80 77 81 79 82 72 83 73 84 74 85 75 86 76 87 52 88
REMARK SMILES IDX 53 89 62 90 54 91 55 92 61 93 63 94 56 95 57 96 58 97 59 98
REMARK SMILES IDX 60 99
REMARK H PARENT 15 8 10 25 22 30 84 49 50 60
REMARK Flexibility Score: inf
ROOT
ATOM      1  C   UNL A   1      34.428  31.944  28.171  1.00  0.00     0.002 C 
ENDROOT
BRANCH   1   2
ATOM      2  C   UNL A   1      34.291  30.691  27.297  1.00  0.00     0.002 C 
BRANCH   2   3
ATOM      3  C   UNL A   1      32.858  30.188  27.092  1.00  0.00     0.021 C 
BRANCH   3   4
ATOM      4  C   UNL A   1      32.733  29.084  26.053  1.00  0.00     0.116 C 
BRANCH   4   5
ATOM      5  N   UNL A   1      33.314  29.460  24.784  1.00  0.00    -0.354 N 
ATOM      6  C   UNL A   1      33.394  28.771  23.612  1.00  0.00     0.242 C 
ATOM      7  O   UNL A   1      33.761  29.404  22.616  1.00  0.00    -0.273 OA
ATOM      8  H   UNL A   1      33.718  30.357  24.764  1.00  0.00     0.163 HD
BRANCH   6   9
ATOM      9  C   UNL A   1      32.880  27.325  23.468  1.00  0.00     0.177 C 
ATOM     10  N   UNL A   1      31.497  27.132  23.028  1.00  0.00    -0.323 N 
ATOM     11  C   UNL A   1      31.419  26.248  21.873  1.00  0.00     0.152 C 
ATOM     12  C   UNL A   1      32.767  25.532  21.842  1.00  0.00     0.136 C 
ATOM     13  C   UNL A   1      33.740  26.511  22.497  1.00  0.00     0.069 C 
BRANCH  10  14
ATOM     14  C   UNL A   1      30.504  27.373  23.967  1.00  0.00     0.275 C 
ATOM     15  O   UNL A   1      30.240  26.605  24.887  1.00  0.00    -0.267 OA
BRANCH  14  16
ATOM     16  C   UNL A   1      29.574  28.564  23.759  1.00  0.00     0.149 A 
ATOM     17  C   UNL A   1      29.737  32.128  24.094  1.00  0.00     0.178 C 
ATOM     18  N   UNL A   1      29.220  30.823  23.728  1.00  0.00    -0.232 N 
ATOM     19  N   UNL A   1      30.042  29.753  23.989  1.00  0.00    -0.165 NA
ATOM     20  C   UNL A   1      27.949  30.715  23.178  1.00  0.00     0.266 A 
ATOM     21  C   UNL A   1      27.479  29.335  22.910  1.00  0.00     0.076 A 
ATOM     22  O   UNL A   1      27.211  31.660  22.915  1.00  0.00    -0.268 OA
ATOM     23  C   UNL A   1      28.238  28.278  23.205  1.00  0.00     0.042 A 
ENDBRANCH  14  16
ENDBRANCH  10  14
BRANCH  12  24
ATOM     24  O   UNL A   1      33.182  25.206  20.526  1.00  0.00    -0.391 OA
ATOM     25  H   UNL A   1      32.501  25.487  19.894  1.00  0.00     0.211 HD
ENDBRANCH  12  24
ENDBRANCH   6   9
ENDBRANCH   4   5
ENDBRANCH   3   4
ENDBRANCH   2   3
ENDBRANCH   1   2
BRANCH   1  26
ATOM     26  C   UNL A   1      35.778  32.662  28.080  1.00  0.00     0.021 C 
BRANCH  26  27
ATOM     27  C   UNL A   1      36.500  32.822  29.413  1.00  0.00     0.116 C 
BRANCH  27  28
ATOM     28  N   UNL A   1      36.047  31.846  30.390  1.00  0.00    -0.352 N 
ATOM     29  C   UNL A   1      36.612  30.640  30.718  1.00  0.00     0.251 C 
ATOM     30  H   UNL A   1      35.227  32.082  30.882  1.00  0.00     0.163 HD
ATOM     31  O   UNL A   1      35.998  29.831  31.406  1.00  0.00    -0.269 OA
BRANCH  29  32
ATOM     32  C   UNL A   1      37.966  30.321  30.221  1.00  0.00     0.039 A 
ATOM     33  C   UNL A   1      39.028  30.261  31.124  1.00  0.00     0.014 A 
ATOM     34  C   UNL A   1      38.175  30.081  28.858  1.00  0.00     0.014 A 
ATOM     35  C   UNL A   1      40.300  29.915  30.668  1.00  0.00     0.010 A 
ATOM     36  C   UNL A   1      39.434  29.692  28.412  1.00  0.00     0.010 A 
ATOM     37  C   UNL A   1      40.508  29.614  29.312  1.00  0.00    -0.014 A 
BRANCH  37  38
ATOM     38  C   UNL A   1      41.858  29.268  28.806  1.00  0.00     0.031 A 
ATOM     39  C   UNL A   1      42.152  27.852  28.399  1.00  0.00     0.074 A 
ATOM     40  C   UNL A   1      42.816  30.213  28.742  1.00  0.00     0.049 A 
ATOM     41  N   UNL A   1      43.277  27.329  27.986  1.00  0.00    -0.248 NA
ATOM     42  C   UNL A   1      41.037  26.891  28.481  1.00  0.00     0.031 C 
ATOM     43  C   UNL A   1      42.649  31.617  29.124  1.00  0.00     0.029 A 
ATOM     44  N   UNL A   1      44.124  30.133  28.337  1.00  0.00    -0.354 N 
ATOM     45  C   UNL A   1      43.005  25.988  27.748  1.00  0.00     0.074 A 
ATOM     46  C   UNL A   1      41.626  25.761  28.119  1.00  0.00     0.031 C 
ATOM     47  C   UNL A   1      43.807  32.269  28.918  1.00  0.00     0.029 A 
ATOM     48  C   UNL A   1      44.804  31.326  28.419  1.00  0.00     0.049 A 
ATOM     49  H   UNL A   1      44.539  29.299  28.019  1.00  0.00     0.167 HD
ATOM     50  C   UNL A   1      43.824  25.039  27.237  1.00  0.00     0.037 A 
ATOM     51  C   UNL A   1      46.085  31.621  28.125  1.00  0.00     0.037 A 
ATOM     52  C   UNL A   1      45.190  25.275  26.854  1.00  0.00     0.049 A 
ATOM     53  C   UNL A   1      46.988  30.531  27.607  1.00  0.00     0.074 A 
ATOM     54  C   UNL A   1      46.095  24.380  26.310  1.00  0.00     0.029 A 
ATOM     55  N   UNL A   1      45.844  26.491  26.965  1.00  0.00    -0.354 N 
ATOM     56  N   UNL A   1      46.706  29.274  27.362  1.00  0.00    -0.248 NA
ATOM     57  C   UNL A   1      48.383  30.900  27.324  1.00  0.00     0.031 C 
ATOM     58  C   UNL A   1      47.308  25.049  26.120  1.00  0.00     0.029 A 
ATOM     59  C   UNL A   1      47.146  26.369  26.510  1.00  0.00     0.049 A 
ATOM     60  H   UNL A   1      45.443  27.319  27.314  1.00  0.00     0.167 HD
ATOM     61  C   UNL A   1      47.878  28.711  26.869  1.00  0.00     0.074 A 
ATOM     62  C   UNL A   1      48.871  29.765  26.843  1.00  0.00     0.031 C 
ATOM     63  C   UNL A   1      48.112  27.436  26.474  1.00  0.00     0.037 A 
BRANCH  50  64
ATOM     64  C   UNL A   1      43.259  23.664  27.030  1.00  0.00     0.058 A 
ATOM     65  C   UNL A   1      42.894  23.216  25.751  1.00  0.00     0.135 A 
ATOM     66  C   UNL A   1      43.159  22.758  28.098  1.00  0.00     0.135 A 
ATOM     67  F   UNL A   1      42.951  24.051  24.701  1.00  0.00    -0.206 F 
ATOM     68  C   UNL A   1      42.448  21.918  25.537  1.00  0.00     0.059 A 
ATOM     69  C   UNL A   1      42.736  21.447  27.902  1.00  0.00     0.059 A 
ATOM     70  F   UNL A   1      43.488  23.141  29.342  1.00  0.00    -0.206 F 
ATOM     71  C   UNL A   1      42.382  21.037  26.618  1.00  0.00     0.060 A 
BRANCH  71  72
ATOM     72  S   UNL A   1      41.850  19.340  26.308  1.00  0.00     0.124 S 
ATOM     73  O   UNL A   1      42.255  18.677  27.544  1.00  0.00    -0.237 OA
ATOM     74  O   UNL A   1      40.412  19.497  26.113  1.00  0.00    -0.237 OA
ATOM     75  O   UNL A   1      42.603  18.959  25.117  1.00  0.00    -0.744 OA
ENDBRANCH  71  72
ENDBRANCH  50  64
BRANCH  51  76
ATOM     76  C   UNL A   1      46.600  33.006  28.292  1.00  0.00     0.058 A 
ATOM     77  C   UNL A   1      47.170  33.417  29.507  1.00  0.00     0.135 A 
ATOM     78  C   UNL A   1      46.508  33.951  27.260  1.00  0.00     0.135 A 
ATOM     79  F   UNL A   1      47.274  32.550  30.526  1.00  0.00    -0.206 F 
ATOM     80  C   UNL A   1      47.603  34.724  29.703  1.00  0.00     0.059 A 
ATOM     81  C   UNL A   1      46.956  35.258  27.424  1.00  0.00     0.059 A 
ATOM     82  F   UNL A   1      45.985  33.603  26.073  1.00  0.00    -0.206 F 
ATOM     83  C   UNL A   1      47.487  35.639  28.656  1.00  0.00     0.060 A 
BRANCH  83  84
ATOM     84  S   UNL A   1      48.064  37.330  28.917  1.00  0.00     0.124 S 
ATOM     85  O   UNL A   1      48.919  37.171  30.087  1.00  0.00    -0.237 OA
ATOM     86  O   UNL A   1      48.747  37.617  27.659  1.00  0.00    -0.237 OA
ATOM     87  O   UNL A   1      46.828  38.076  29.134  1.00  0.00    -0.744 OA
ENDBRANCH  83  84
ENDBRANCH  51  76
BRANCH  63  88
ATOM     88  C   UNL A   1      49.482  27.109  25.950  1.00  0.00     0.058 A 
ATOM     89  C   UNL A   1      50.482  26.591  26.786  1.00  0.00     0.135 A 
ATOM     90  C   UNL A   1      49.770  27.241  24.582  1.00  0.00     0.135 A 
ATOM     91  F   UNL A   1      50.257  26.451  28.102  1.00  0.00    -0.206 F 
ATOM     92  C   UNL A   1      51.726  26.223  26.286  1.00  0.00     0.059 A 
ATOM     93  C   UNL A   1      50.998  26.858  24.055  1.00  0.00     0.059 A 
ATOM     94  F   UNL A   1      48.842  27.723  23.740  1.00  0.00    -0.206 F 
ATOM     95  C   UNL A   1      51.972  26.355  24.917  1.00  0.00     0.060 A 
BRANCH  95  96
ATOM     96  S   UNL A   1      53.573  25.823  24.275  1.00  0.00     0.124 S 
ATOM     97  O   UNL A   1      54.486  26.717  24.979  1.00  0.00    -0.237 OA
ATOM     98  O   UNL A   1      53.621  24.421  24.680  1.00  0.00    -0.237 OA
ATOM     99  O   UNL A   1      53.456  26.050  22.837  1.00  0.00    -0.744 OA
ENDBRANCH  95  96
ENDBRANCH  63  88
ENDBRANCH  37  38
ENDBRANCH  29  32
ENDBRANCH  27  28
ENDBRANCH  26  27
ENDBRANCH   1  26
TORSDOF 19
ENDMDL
MODEL 3
REMARK VINA RESULT:     -10.8      4.896     10.705
REMARK SMILES Cn1nc(C(=O)N2C[C@@H](O)C[C@H]2C(=O)NCCCCCCNC(=O)c2ccc(-c3c4nc(c(-c5c(F)cc(S(=O)(=O)[O-])cc5F)c5ccc([nH]5)c(-c5c(F)cc(S(=O)(=O)[O-])cc5F)c5nc(c(-c6c(F)cc(S(=O)(=O)[O-])cc6F)c6ccc3[nH]6)C=C5)C=C4)cc2)ccc1=O
REMARK SMILES IDX 19 1 18 2 17 3 16 4 15 5 13 6 14 7 12 9 7 10 8 11 9 12 11 13
REMARK SMILES IDX 5 14 6 15 4 16 1 17 2 18 3 19 93 20 92 21 94 22 91 23 10 24
REMARK SMILES IDX 20 26 21 27 22 28 23 29 24 31 25 32 26 33 90 34 27 35 89 36
REMARK SMILES IDX 28 37 29 38 30 39 83 40 31 41 88 42 82 43 84 44 32 45 87 46
REMARK SMILES IDX 81 47 80 48 33 50 67 51 46 52 66 53 47 54 50 55 65 56 85 57
REMARK SMILES IDX 48 58 49 59 64 61 86 62 51 63 34 64 35 65 44 66 36 67 37 68
REMARK SMILES IDX 43 69 45 70 38 71 39 72 40 73 41 74 42 75 68 76 69 77 78 78
REMARK SMILES IDX 70 79 71 80 77 81 79 82 72 83 73 84 74 85 75 86 76 87 52 88
REMARK SMILES IDX 53 89 62 90 54 91 55 92 61 93 63 94 56 95 57 96 58 97 59 98
REMARK SMILES IDX 60 99
REMARK H PARENT 15 8 10 25 22 30 84 49 50 60
REMARK Flexibility Score: inf
ROOT
ATOM      1  C   UNL A   1      36.905  23.348  25.010  1.00  0.00     0.002 C 
ENDROOT
BRANCH   1   2
ATOM      2  C   UNL A   1      35.553  23.747  25.613  1.00  0.00     0.002 C 
BRANCH   2   3
ATOM      3  C   UNL A   1      34.623  24.528  24.677  1.00  0.00     0.021 C 
BRANCH   3   4
ATOM      4  C   UNL A   1      34.035  25.786  25.299  1.00  0.00     0.116 C 
BRANCH   4   5
ATOM      5  N   UNL A   1      32.733  25.549  25.881  1.00  0.00    -0.354 N 
ATOM      6  C   UNL A   1      31.488  25.724  25.357  1.00  0.00     0.242 C 
ATOM      7  O   UNL A   1      30.542  25.249  25.995  1.00  0.00    -0.273 OA
ATOM      8  H   UNL A   1      32.749  25.208  26.803  1.00  0.00     0.163 HD
BRANCH   6   9
ATOM      9  C   UNL A   1      31.260  26.314  23.952  1.00  0.00     0.177 C 
ATOM     10  N   UNL A   1      31.868  27.610  23.647  1.00  0.00    -0.323 N 
ATOM     11  C   UNL A   1      32.676  27.553  22.436  1.00  0.00     0.152 C 
ATOM     12  C   UNL A   1      32.223  26.279  21.728  1.00  0.00     0.136 C 
ATOM     13  C   UNL A   1      31.741  25.363  22.851  1.00  0.00     0.069 C 
BRANCH  10  14
ATOM     14  C   UNL A   1      31.259  28.729  24.196  1.00  0.00     0.275 C 
ATOM     15  O   UNL A   1      30.254  29.253  23.726  1.00  0.00    -0.267 OA
BRANCH  14  16
ATOM     16  C   UNL A   1      31.959  29.454  25.341  1.00  0.00     0.149 A 
ATOM     17  C   UNL A   1      34.992  29.111  27.218  1.00  0.00     0.178 C 
ATOM     18  N   UNL A   1      33.763  29.703  26.725  1.00  0.00    -0.232 N 
ATOM     19  N   UNL A   1      33.107  29.000  25.742  1.00  0.00    -0.165 NA
ATOM     20  C   UNL A   1      33.305  30.895  27.269  1.00  0.00     0.266 A 
ATOM     21  C   UNL A   1      32.002  31.380  26.755  1.00  0.00     0.076 A 
ATOM     22  O   UNL A   1      33.888  31.550  28.128  1.00  0.00    -0.268 OA
ATOM     23  C   UNL A   1      31.322  30.686  25.839  1.00  0.00     0.042 A 
ENDBRANCH  14  16
ENDBRANCH  10  14
BRANCH  12  24
ATOM     24  O   UNL A   1      33.264  25.668  20.984  1.00  0.00    -0.391 OA
ATOM     25  H   UNL A   1      33.715  25.011  21.539  1.00  0.00     0.211 HD
ENDBRANCH  12  24
ENDBRANCH   6   9
ENDBRANCH   4   5
ENDBRANCH   3   4
ENDBRANCH   2   3
ENDBRANCH   1   2
BRANCH   1  26
ATOM     26  C   UNL A   1      38.024  23.089  26.023  1.00  0.00     0.021 C 
BRANCH  26  27
ATOM     27  C   UNL A   1      38.801  24.332  26.439  1.00  0.00     0.116 C 
BRANCH  27  28
ATOM     28  N   UNL A   1      40.200  24.245  26.054  1.00  0.00    -0.352 N 
ATOM     29  C   UNL A   1      41.239  25.064  26.417  1.00  0.00     0.251 C 
ATOM     30  H   UNL A   1      40.433  23.500  25.453  1.00  0.00     0.163 HD
ATOM     31  O   UNL A   1      42.320  24.992  25.841  1.00  0.00    -0.269 OA
BRANCH  29  32
ATOM     32  C   UNL A   1      41.035  26.044  27.503  1.00  0.00     0.039 A 
ATOM     33  C   UNL A   1      40.070  25.791  28.478  1.00  0.00     0.014 A 
ATOM     34  C   UNL A   1      41.807  27.210  27.550  1.00  0.00     0.014 A 
ATOM     35  C   UNL A   1      39.905  26.691  29.532  1.00  0.00     0.010 A 
ATOM     36  C   UNL A   1      41.673  28.083  28.625  1.00  0.00     0.010 A 
ATOM     37  C   UNL A   1      40.716  27.835  29.620  1.00  0.00    -0.014 A 
BRANCH  37  38
ATOM     38  C   UNL A   1      40.538  28.813  30.720  1.00  0.00     0.031 A 
ATOM     39  C   UNL A   1      41.407  28.714  31.942  1.00  0.00     0.074 A 
ATOM     40  C   UNL A   1      39.584  29.760  30.631  1.00  0.00     0.049 A 
ATOM     41  N   UNL A   1      41.376  29.430  33.035  1.00  0.00    -0.248 NA
ATOM     42  C   UNL A   1      42.437  27.661  31.942  1.00  0.00     0.031 C 
ATOM     43  C   UNL A   1      38.673  29.943  29.499  1.00  0.00     0.029 A 
ATOM     44  N   UNL A   1      39.220  30.746  31.512  1.00  0.00    -0.354 N 
ATOM     45  C   UNL A   1      42.386  28.925  33.845  1.00  0.00     0.074 A 
ATOM     46  C   UNL A   1      42.973  27.804  33.145  1.00  0.00     0.031 C 
ATOM     47  C   UNL A   1      37.866  30.988  29.749  1.00  0.00     0.029 A 
ATOM     48  C   UNL A   1      38.182  31.531  31.068  1.00  0.00     0.049 A 
ATOM     49  H   UNL A   1      39.659  30.879  32.383  1.00  0.00     0.167 HD
ATOM     50  C   UNL A   1      42.805  29.377  35.050  1.00  0.00     0.037 A 
ATOM     51  C   UNL A   1      37.559  32.569  31.659  1.00  0.00     0.037 A 
ATOM     52  C   UNL A   1      42.229  30.503  35.734  1.00  0.00     0.049 A 
ATOM     53  C   UNL A   1      38.013  33.016  33.024  1.00  0.00     0.074 A 
ATOM     54  C   UNL A   1      42.598  31.048  36.952  1.00  0.00     0.029 A 
ATOM     55  N   UNL A   1      41.173  31.262  35.257  1.00  0.00    -0.354 N 
ATOM     56  N   UNL A   1      38.989  32.544  33.763  1.00  0.00    -0.248 NA
ATOM     57  C   UNL A   1      37.285  34.137  33.635  1.00  0.00     0.031 C 
ATOM     58  C   UNL A   1      41.743  32.119  37.226  1.00  0.00     0.029 A 
ATOM     59  C   UNL A   1      40.868  32.265  36.161  1.00  0.00     0.049 A 
ATOM     60  H   UNL A   1      40.708  31.112  34.402  1.00  0.00     0.167 HD
ATOM     61  C   UNL A   1      39.010  33.329  34.911  1.00  0.00     0.074 A 
ATOM     62  C   UNL A   1      37.955  34.311  34.766  1.00  0.00     0.031 C 
ATOM     63  C   UNL A   1      39.826  33.244  35.989  1.00  0.00     0.037 A 
BRANCH  50  64
ATOM     64  C   UNL A   1      43.964  28.675  35.696  1.00  0.00     0.058 A 
ATOM     65  C   UNL A   1      45.285  29.078  35.449  1.00  0.00     0.135 A 
ATOM     66  C   UNL A   1      43.754  27.649  36.632  1.00  0.00     0.135 A 
ATOM     67  F   UNL A   1      45.540  30.040  34.548  1.00  0.00    -0.206 F 
ATOM     68  C   UNL A   1      46.359  28.490  36.105  1.00  0.00     0.059 A 
ATOM     69  C   UNL A   1      44.813  27.060  37.316  1.00  0.00     0.059 A 
ATOM     70  F   UNL A   1      42.509  27.221  36.897  1.00  0.00    -0.206 F 
ATOM     71  C   UNL A   1      46.112  27.488  37.045  1.00  0.00     0.060 A 
BRANCH  71  72
ATOM     72  S   UNL A   1      47.517  26.773  37.924  1.00  0.00     0.124 S 
ATOM     73  O   UNL A   1      47.359  27.357  39.253  1.00  0.00    -0.237 OA
ATOM     74  O   UNL A   1      47.249  25.342  37.824  1.00  0.00    -0.237 OA
ATOM     75  O   UNL A   1      48.670  27.247  37.165  1.00  0.00    -0.744 OA
ENDBRANCH  71  72
ENDBRANCH  50  64
BRANCH  51  76
ATOM     76  C   UNL A   1      36.448  33.276  30.969  1.00  0.00     0.058 A 
ATOM     77  C   UNL A   1      36.707  34.144  29.897  1.00  0.00     0.135 A 
ATOM     78  C   UNL A   1      35.115  33.125  31.380  1.00  0.00     0.135 A 
ATOM     79  F   UNL A   1      37.966  34.326  29.471  1.00  0.00    -0.206 F 
ATOM     80  C   UNL A   1      35.688  34.861  29.277  1.00  0.00     0.059 A 
ATOM     81  C   UNL A   1      34.076  33.812  30.760  1.00  0.00     0.059 A 
ATOM     82  F   UNL A   1      34.813  32.294  32.390  1.00  0.00    -0.206 F 
ATOM     83  C   UNL A   1      34.376  34.691  29.719  1.00  0.00     0.060 A 
BRANCH  83  84
ATOM     84  S   UNL A   1      33.059  35.615  28.899  1.00  0.00     0.124 S 
ATOM     85  O   UNL A   1      33.824  36.558  28.090  1.00  0.00    -0.237 OA
ATOM     86  O   UNL A   1      32.359  34.564  28.166  1.00  0.00    -0.237 OA
ATOM     87  O   UNL A   1      32.314  36.196  30.011  1.00  0.00    -0.744 OA
ENDBRANCH  83  84
ENDBRANCH  51  76
BRANCH  63  88
ATOM     88  C   UNL A   1      39.640  34.255  37.086  1.00  0.00     0.058 A 
ATOM     89  C   UNL A   1      38.860  33.972  38.217  1.00  0.00     0.135 A 
ATOM     90  C   UNL A   1      40.315  35.485  37.040  1.00  0.00     0.135 A 
ATOM     91  F   UNL A   1      38.192  32.811  38.304  1.00  0.00    -0.206 F 
ATOM     92  C   UNL A   1      38.747  34.881  39.263  1.00  0.00     0.059 A 
ATOM     93  C   UNL A   1      40.234  36.399  38.085  1.00  0.00     0.059 A 
ATOM     94  F   UNL A   1      41.081  35.798  35.983  1.00  0.00    -0.206 F 
ATOM     95  C   UNL A   1      39.443  36.089  39.190  1.00  0.00     0.060 A 
BRANCH  95  96
ATOM     96  S   UNL A   1      39.328  37.235  40.581  1.00  0.00     0.124 S 
ATOM     97  O   UNL A   1      38.354  38.203  40.086  1.00  0.00    -0.237 OA
ATOM     98  O   UNL A   1      38.867  36.369  41.662  1.00  0.00    -0.237 OA
ATOM     99  O   UNL A   1      40.692  37.734  40.725  1.00  0.00    -0.744 OA
ENDBRANCH  95  96
ENDBRANCH  63  88
ENDBRANCH  37  38
ENDBRANCH  29  32
ENDBRANCH  27  28
ENDBRANCH  26  27
ENDBRANCH   1  26
TORSDOF 19
ENDMDL
