MODEL 1
REMARK VINA RESULT:     -11.3      0.000      0.000
REMARK SMILES O=C(NCCCCCCNC(=O)[C@H]1C[C@H]1c1ccc(C2CC2)cc1)c1ccc(-c2c3nc(c(-c4c(F)cc(S(=O)(=O)[O-])cc4F)c4ccc([nH]4)c(-c4c(F)cc(S(=O)(=O)[O-])cc4F)c4nc(c(-c5c(F)cc(S(=O)(=O)[O-])cc5F)c5ccc2[nH]5)C=C4)C=C3)cc1
REMARK SMILES IDX 6 1 5 2 4 3 3 4 1 5 2 6 25 8 26 9 90 10 27 11 89 12 28 13
REMARK SMILES IDX 29 14 30 15 83 16 31 17 88 18 82 19 84 20 32 21 87 22 81 23
REMARK SMILES IDX 80 24 33 26 67 27 46 28 66 29 47 30 50 31 65 32 85 33 48 34
REMARK SMILES IDX 49 35 64 37 86 38 51 39 34 40 35 41 44 42 36 43 37 44 43 45
REMARK SMILES IDX 45 46 38 47 39 48 40 49 41 50 42 51 68 52 69 53 78 54 70 55
REMARK SMILES IDX 71 56 77 57 79 58 72 59 73 60 74 61 75 62 76 63 52 64 53 65
REMARK SMILES IDX 62 66 54 67 55 68 61 69 63 70 56 71 57 72 58 73 59 74 60 75
REMARK SMILES IDX 7 76 8 77 9 78 10 79 11 80 12 82 13 83 14 84 15 85 16 86
REMARK SMILES IDX 17 87 24 88 18 89 23 90 19 91 20 92 21 93 22 94
REMARK H PARENT 3 7 84 25 50 36 10 81
REMARK Flexibility Score: inf
ROOT
ATOM      1  C   UNL A   1      37.751  22.659  25.394  1.00  0.00     0.002 C 
ENDROOT
BRANCH   1   2
ATOM      2  C   UNL A   1      38.269  23.725  26.360  1.00  0.00     0.021 C 
BRANCH   2   3
ATOM      3  C   UNL A   1      39.713  23.571  26.824  1.00  0.00     0.116 C 
BRANCH   3   4
ATOM      4  N   UNL A   1      40.677  24.186  25.930  1.00  0.00    -0.352 N 
ATOM      5  O   UNL A   1      42.084  25.764  25.151  1.00  0.00    -0.269 OA
ATOM      6  C   UNL A   1      41.384  25.359  26.074  1.00  0.00     0.251 C 
ATOM      7  H   UNL A   1      40.851  23.692  25.096  1.00  0.00     0.163 HD
BRANCH   6   8
ATOM      8  C   UNL A   1      41.272  26.155  27.321  1.00  0.00     0.039 A 
ATOM      9  C   UNL A   1      40.405  25.779  28.349  1.00  0.00     0.014 A 
ATOM     10  C   UNL A   1      42.055  27.306  27.461  1.00  0.00     0.014 A 
ATOM     11  C   UNL A   1      40.203  26.632  29.433  1.00  0.00     0.010 A 
ATOM     12  C   UNL A   1      41.908  28.121  28.589  1.00  0.00     0.010 A 
ATOM     13  C   UNL A   1      40.947  27.816  29.564  1.00  0.00    -0.014 A 
BRANCH  13  14
ATOM     14  C   UNL A   1      40.706  28.706  30.732  1.00  0.00     0.031 A 
ATOM     15  C   UNL A   1      41.585  28.640  31.954  1.00  0.00     0.074 A 
ATOM     16  C   UNL A   1      39.712  29.614  30.670  1.00  0.00     0.049 A 
ATOM     17  N   UNL A   1      41.555  29.385  33.031  1.00  0.00    -0.248 NA
ATOM     18  C   UNL A   1      42.625  27.600  31.978  1.00  0.00     0.031 C 
ATOM     19  C   UNL A   1      38.777  29.763  29.552  1.00  0.00     0.029 A 
ATOM     20  N   UNL A   1      39.338  30.598  31.549  1.00  0.00    -0.354 N 
ATOM     21  C   UNL A   1      42.549  28.891  33.868  1.00  0.00     0.074 A 
ATOM     22  C   UNL A   1      43.154  27.769  33.182  1.00  0.00     0.031 C 
ATOM     23  C   UNL A   1      37.973  30.811  29.789  1.00  0.00     0.029 A 
ATOM     24  C   UNL A   1      38.307  31.382  31.090  1.00  0.00     0.049 A 
ATOM     25  H   UNL A   1      39.768  30.730  32.426  1.00  0.00     0.167 HD
ATOM     26  C   UNL A   1      42.929  29.336  35.091  1.00  0.00     0.037 A 
ATOM     27  C   UNL A   1      37.698  32.446  31.648  1.00  0.00     0.037 A 
ATOM     28  C   UNL A   1      42.350  30.472  35.761  1.00  0.00     0.049 A 
ATOM     29  C   UNL A   1      38.162  32.940  32.989  1.00  0.00     0.074 A 
ATOM     30  C   UNL A   1      42.696  31.022  36.984  1.00  0.00     0.029 A 
ATOM     31  N   UNL A   1      41.305  31.237  35.262  1.00  0.00    -0.354 N 
ATOM     32  N   UNL A   1      39.125  32.477  33.748  1.00  0.00    -0.248 NA
ATOM     33  C   UNL A   1      37.455  34.100  33.547  1.00  0.00     0.031 C 
ATOM     34  C   UNL A   1      41.845  32.103  37.237  1.00  0.00     0.029 A 
ATOM     35  C   UNL A   1      40.989  32.247  36.157  1.00  0.00     0.049 A 
ATOM     36  H   UNL A   1      40.856  31.085  34.401  1.00  0.00     0.167 HD
ATOM     37  C   UNL A   1      39.153  33.300  34.867  1.00  0.00     0.074 A 
ATOM     38  C   UNL A   1      38.118  34.298  34.678  1.00  0.00     0.031 C 
ATOM     39  C   UNL A   1      39.961  33.235  35.953  1.00  0.00     0.037 A 
BRANCH  26  40
ATOM     40  C   UNL A   1      44.022  28.581  35.797  1.00  0.00     0.058 A 
ATOM     41  C   UNL A   1      43.741  27.508  36.657  1.00  0.00     0.135 A 
ATOM     42  C   UNL A   1      45.369  28.914  35.584  1.00  0.00     0.135 A 
ATOM     43  F   UNL A   1      42.469  27.158  36.906  1.00  0.00    -0.206 F 
ATOM     44  C   UNL A   1      44.755  26.807  37.301  1.00  0.00     0.059 A 
ATOM     45  C   UNL A   1      46.402  28.214  36.202  1.00  0.00     0.059 A 
ATOM     46  F   UNL A   1      45.693  29.930  34.770  1.00  0.00    -0.206 F 
ATOM     47  C   UNL A   1      46.083  27.172  37.071  1.00  0.00     0.060 A 
BRANCH  47  48
ATOM     48  S   UNL A   1      47.392  26.259  37.917  1.00  0.00     0.124 S 
ATOM     49  O   UNL A   1      47.792  25.305  36.887  1.00  0.00    -0.237 OA
ATOM     50  O   UNL A   1      48.363  27.305  38.219  1.00  0.00    -0.237 OA
ATOM     51  O   UNL A   1      46.713  25.687  39.075  1.00  0.00    -0.744 OA
ENDBRANCH  47  48
ENDBRANCH  26  40
BRANCH  27  52
ATOM     52  C   UNL A   1      36.603  33.131  30.918  1.00  0.00     0.058 A 
ATOM     53  C   UNL A   1      35.260  32.840  31.198  1.00  0.00     0.135 A 
ATOM     54  C   UNL A   1      36.876  34.112  29.953  1.00  0.00     0.135 A 
ATOM     55  F   UNL A   1      34.952  31.905  32.111  1.00  0.00    -0.206 F 
ATOM     56  C   UNL A   1      34.223  33.492  30.540  1.00  0.00     0.059 A 
ATOM     57  C   UNL A   1      35.855  34.793  29.299  1.00  0.00     0.059 A 
ATOM     58  F   UNL A   1      38.146  34.437  29.664  1.00  0.00    -0.206 F 
ATOM     59  C   UNL A   1      34.531  34.470  29.593  1.00  0.00     0.060 A 
BRANCH  59  60
ATOM     60  S   UNL A   1      33.182  35.364  28.792  1.00  0.00     0.124 S 
ATOM     61  O   UNL A   1      33.913  36.289  27.935  1.00  0.00    -0.237 OA
ATOM     62  O   UNL A   1      32.462  34.294  28.108  1.00  0.00    -0.237 OA
ATOM     63  O   UNL A   1      32.470  35.965  29.916  1.00  0.00    -0.744 OA
ENDBRANCH  59  60
ENDBRANCH  27  52
BRANCH  39  64
ATOM     64  C   UNL A   1      39.775  34.289  37.006  1.00  0.00     0.058 A 
ATOM     65  C   UNL A   1      39.004  34.052  38.154  1.00  0.00     0.135 A 
ATOM     66  C   UNL A   1      40.391  35.543  36.873  1.00  0.00     0.135 A 
ATOM     67  F   UNL A   1      38.389  32.870  38.322  1.00  0.00    -0.206 F 
ATOM     68  C   UNL A   1      38.826  35.033  39.124  1.00  0.00     0.059 A 
ATOM     69  C   UNL A   1      40.242  36.533  37.840  1.00  0.00     0.059 A 
ATOM     70  F   UNL A   1      41.145  35.815  35.797  1.00  0.00    -0.206 F 
ATOM     71  C   UNL A   1      39.444  36.273  38.955  1.00  0.00     0.060 A 
BRANCH  71  72
ATOM     72  S   UNL A   1      39.221  37.540  40.221  1.00  0.00     0.124 S 
ATOM     73  O   UNL A   1      38.781  36.740  41.360  1.00  0.00    -0.237 OA
ATOM     74  O   UNL A   1      40.557  38.119  40.331  1.00  0.00    -0.237 OA
ATOM     75  O   UNL A   1      38.211  38.421  39.642  1.00  0.00    -0.744 OA
ENDBRANCH  71  72
ENDBRANCH  39  64
ENDBRANCH  13  14
ENDBRANCH   6   8
ENDBRANCH   3   4
ENDBRANCH   2   3
ENDBRANCH   1   2
BRANCH   1  76
ATOM     76  C   UNL A   1      36.247  22.375  25.419  1.00  0.00     0.002 C 
BRANCH  76  77
ATOM     77  C   UNL A   1      35.354  23.397  26.128  1.00  0.00     0.021 C 
BRANCH  77  78
ATOM     78  C   UNL A   1      34.865  24.580  25.297  1.00  0.00     0.116 C 
BRANCH  78  79
ATOM     79  N   UNL A   1      34.768  24.290  23.883  1.00  0.00    -0.356 N 
ATOM     80  C   UNL A   1      33.671  24.275  23.067  1.00  0.00     0.223 C 
ATOM     81  H   UNL A   1      35.620  24.070  23.442  1.00  0.00     0.163 HD
ATOM     82  O   UNL A   1      33.802  23.978  21.881  1.00  0.00    -0.275 OA
BRANCH  80  83
ATOM     83  C   UNL A   1      32.314  24.480  23.624  1.00  0.00     0.086 C 
ATOM     84  C   UNL A   1      31.040  23.927  23.048  1.00  0.00     0.023 C 
ATOM     85  C   UNL A   1      31.567  23.362  24.341  1.00  0.00     0.032 C 
BRANCH  85  86
ATOM     86  C   UNL A   1      31.987  21.910  24.361  1.00  0.00    -0.044 A 
ATOM     87  C   UNL A   1      32.413  21.289  25.544  1.00  0.00     0.004 A 
ATOM     88  C   UNL A   1      32.054  21.142  23.193  1.00  0.00     0.004 A 
ATOM     89  C   UNL A   1      32.884  19.970  25.556  1.00  0.00     0.004 A 
ATOM     90  C   UNL A   1      32.526  19.819  23.205  1.00  0.00     0.004 A 
ATOM     91  C   UNL A   1      32.966  19.204  24.385  1.00  0.00    -0.045 A 
BRANCH  91  92
ATOM     92  C   UNL A   1      33.532  17.800  24.457  1.00  0.00     0.019 C 
ATOM     93  C   UNL A   1      34.055  17.032  23.270  1.00  0.00     0.009 C 
ATOM     94  C   UNL A   1      35.021  17.625  24.251  1.00  0.00     0.009 C 
ENDBRANCH  91  92
ENDBRANCH  85  86
ENDBRANCH  80  83
ENDBRANCH  78  79
ENDBRANCH  77  78
ENDBRANCH  76  77
ENDBRANCH   1  76
TORSDOF 18
ENDMDL
MODEL 2
REMARK VINA RESULT:     -11.3      1.434      2.961
REMARK SMILES O=C(NCCCCCCNC(=O)[C@H]1C[C@H]1c1ccc(C2CC2)cc1)c1ccc(-c2c3nc(c(-c4c(F)cc(S(=O)(=O)[O-])cc4F)c4ccc([nH]4)c(-c4c(F)cc(S(=O)(=O)[O-])cc4F)c4nc(c(-c5c(F)cc(S(=O)(=O)[O-])cc5F)c5ccc2[nH]5)C=C4)C=C3)cc1
REMARK SMILES IDX 6 1 5 2 4 3 3 4 1 5 2 6 25 8 26 9 90 10 27 11 89 12 28 13
REMARK SMILES IDX 29 14 30 15 83 16 31 17 88 18 82 19 84 20 32 21 87 22 81 23
REMARK SMILES IDX 80 24 33 26 67 27 46 28 66 29 47 30 50 31 65 32 85 33 48 34
REMARK SMILES IDX 49 35 64 37 86 38 51 39 34 40 35 41 44 42 36 43 37 44 43 45
REMARK SMILES IDX 45 46 38 47 39 48 40 49 41 50 42 51 68 52 69 53 78 54 70 55
REMARK SMILES IDX 71 56 77 57 79 58 72 59 73 60 74 61 75 62 76 63 52 64 53 65
REMARK SMILES IDX 62 66 54 67 55 68 61 69 63 70 56 71 57 72 58 73 59 74 60 75
REMARK SMILES IDX 7 76 8 77 9 78 10 79 11 80 12 82 13 83 14 84 15 85 16 86
REMARK SMILES IDX 17 87 24 88 18 89 23 90 19 91 20 92 21 93 22 94
REMARK H PARENT 3 7 84 25 50 36 10 81
REMARK Flexibility Score: inf
ROOT
ATOM      1  C   UNL A   1      40.452  21.471  26.342  1.00  0.00     0.002 C 
ENDROOT
BRANCH   1   2
ATOM      2  C   UNL A   1      41.189  22.034  27.558  1.00  0.00     0.021 C 
BRANCH   2   3
ATOM      3  C   UNL A   1      42.244  23.098  27.275  1.00  0.00     0.116 C 
BRANCH   3   4
ATOM      4  N   UNL A   1      41.926  23.939  26.135  1.00  0.00    -0.352 N 
ATOM      5  O   UNL A   1      41.175  25.755  25.031  1.00  0.00    -0.269 OA
ATOM      6  C   UNL A   1      41.488  25.244  26.104  1.00  0.00     0.251 C 
ATOM      7  H   UNL A   1      42.041  23.514  25.254  1.00  0.00     0.163 HD
BRANCH   6   8
ATOM      8  C   UNL A   1      41.354  26.022  27.360  1.00  0.00     0.039 A 
ATOM      9  C   UNL A   1      40.294  25.802  28.242  1.00  0.00     0.014 A 
ATOM     10  C   UNL A   1      42.313  26.995  27.658  1.00  0.00     0.014 A 
ATOM     11  C   UNL A   1      40.105  26.656  29.327  1.00  0.00     0.010 A 
ATOM     12  C   UNL A   1      42.165  27.801  28.793  1.00  0.00     0.010 A 
ATOM     13  C   UNL A   1      41.034  27.669  29.613  1.00  0.00    -0.014 A 
BRANCH  13  14
ATOM     14  C   UNL A   1      40.803  28.566  30.779  1.00  0.00     0.031 A 
ATOM     15  C   UNL A   1      41.700  28.516  31.988  1.00  0.00     0.074 A 
ATOM     16  C   UNL A   1      39.801  29.466  30.724  1.00  0.00     0.049 A 
ATOM     17  N   UNL A   1      41.680  29.269  33.060  1.00  0.00    -0.248 NA
ATOM     18  C   UNL A   1      42.749  27.485  32.004  1.00  0.00     0.031 C 
ATOM     19  C   UNL A   1      38.848  29.599  29.620  1.00  0.00     0.029 A 
ATOM     20  N   UNL A   1      39.432  30.453  31.601  1.00  0.00    -0.354 N 
ATOM     21  C   UNL A   1      42.690  28.789  33.886  1.00  0.00     0.074 A 
ATOM     22  C   UNL A   1      43.294  27.667  33.199  1.00  0.00     0.031 C 
ATOM     23  C   UNL A   1      38.039  30.642  29.861  1.00  0.00     0.029 A 
ATOM     24  C   UNL A   1      38.387  31.225  31.153  1.00  0.00     0.049 A 
ATOM     25  H   UNL A   1      39.873  30.595  32.471  1.00  0.00     0.167 HD
ATOM     26  C   UNL A   1      43.084  29.246  35.100  1.00  0.00     0.037 A 
ATOM     27  C   UNL A   1      37.778  32.288  31.712  1.00  0.00     0.037 A 
ATOM     28  C   UNL A   1      42.505  30.382  35.770  1.00  0.00     0.049 A 
ATOM     29  C   UNL A   1      38.256  32.795  33.042  1.00  0.00     0.074 A 
ATOM     30  C   UNL A   1      42.865  30.943  36.984  1.00  0.00     0.029 A 
ATOM     31  N   UNL A   1      41.447  31.134  35.281  1.00  0.00    -0.354 N 
ATOM     32  N   UNL A   1      39.235  32.346  33.790  1.00  0.00    -0.248 NA
ATOM     33  C   UNL A   1      37.548  33.954  33.602  1.00  0.00     0.031 C 
ATOM     34  C   UNL A   1      42.008  32.020  37.241  1.00  0.00     0.029 A 
ATOM     35  C   UNL A   1      41.135  32.149  36.173  1.00  0.00     0.049 A 
ATOM     36  H   UNL A   1      40.986  30.972  34.427  1.00  0.00     0.167 HD
ATOM     37  C   UNL A   1      39.272  33.178  34.903  1.00  0.00     0.074 A 
ATOM     38  C   UNL A   1      38.226  34.165  34.722  1.00  0.00     0.031 C 
ATOM     39  C   UNL A   1      40.097  33.127  35.977  1.00  0.00     0.037 A 
BRANCH  26  40
ATOM     40  C   UNL A   1      44.193  28.505  35.795  1.00  0.00     0.058 A 
ATOM     41  C   UNL A   1      43.943  27.365  36.574  1.00  0.00     0.135 A 
ATOM     42  C   UNL A   1      45.526  28.922  35.651  1.00  0.00     0.135 A 
ATOM     43  F   UNL A   1      42.685  26.933  36.756  1.00  0.00    -0.206 F 
ATOM     44  C   UNL A   1      44.974  26.678  37.209  1.00  0.00     0.059 A 
ATOM     45  C   UNL A   1      46.575  28.238  36.261  1.00  0.00     0.059 A 
ATOM     46  F   UNL A   1      45.820  30.005  34.916  1.00  0.00    -0.206 F 
ATOM     47  C   UNL A   1      46.286  27.126  37.050  1.00  0.00     0.060 A 
BRANCH  47  48
ATOM     48  S   UNL A   1      47.616  26.230  37.883  1.00  0.00     0.124 S 
ATOM     49  O   UNL A   1      47.059  26.066  39.222  1.00  0.00    -0.237 OA
ATOM     50  O   UNL A   1      47.721  25.011  37.089  1.00  0.00    -0.237 OA
ATOM     51  O   UNL A   1      48.753  27.140  37.781  1.00  0.00    -0.744 OA
ENDBRANCH  47  48
ENDBRANCH  26  40
BRANCH  27  52
ATOM     52  C   UNL A   1      36.667  32.959  30.993  1.00  0.00     0.058 A 
ATOM     53  C   UNL A   1      35.332  32.731  31.359  1.00  0.00     0.135 A 
ATOM     54  C   UNL A   1      36.917  33.863  29.950  1.00  0.00     0.135 A 
ATOM     55  F   UNL A   1      35.045  31.871  32.349  1.00  0.00    -0.206 F 
ATOM     56  C   UNL A   1      34.281  33.373  30.712  1.00  0.00     0.059 A 
ATOM     57  C   UNL A   1      35.884  34.533  29.303  1.00  0.00     0.059 A 
ATOM     58  F   UNL A   1      38.179  34.126  29.576  1.00  0.00    -0.206 F 
ATOM     59  C   UNL A   1      34.568  34.274  29.685  1.00  0.00     0.060 A 
BRANCH  59  60
ATOM     60  S   UNL A   1      33.205  35.157  28.895  1.00  0.00     0.124 S 
ATOM     61  O   UNL A   1      32.705  34.149  27.967  1.00  0.00    -0.237 OA
ATOM     62  O   UNL A   1      32.338  35.469  30.026  1.00  0.00    -0.237 OA
ATOM     63  O   UNL A   1      33.865  36.309  28.287  1.00  0.00    -0.744 OA
ENDBRANCH  59  60
ENDBRANCH  27  52
BRANCH  39  64
ATOM     64  C   UNL A   1      39.917  34.187  37.025  1.00  0.00     0.058 A 
ATOM     65  C   UNL A   1      39.051  34.004  38.114  1.00  0.00     0.135 A 
ATOM     66  C   UNL A   1      40.634  35.390  36.949  1.00  0.00     0.135 A 
ATOM     67  F   UNL A   1      38.337  32.872  38.226  1.00  0.00    -0.206 F 
ATOM     68  C   UNL A   1      38.880  34.991  39.078  1.00  0.00     0.059 A 
ATOM     69  C   UNL A   1      40.493  36.384  37.913  1.00  0.00     0.059 A 
ATOM     70  F   UNL A   1      41.481  35.609  35.932  1.00  0.00    -0.206 F 
ATOM     71  C   UNL A   1      39.601  36.181  38.966  1.00  0.00     0.060 A 
BRANCH  71  72
ATOM     72  S   UNL A   1      39.386  37.455  40.227  1.00  0.00     0.124 S 
ATOM     73  O   UNL A   1      40.759  37.911  40.419  1.00  0.00    -0.237 OA
ATOM     74  O   UNL A   1      38.489  38.403  39.570  1.00  0.00    -0.237 OA
ATOM     75  O   UNL A   1      38.801  36.725  41.347  1.00  0.00    -0.744 OA
ENDBRANCH  71  72
ENDBRANCH  39  64
ENDBRANCH  13  14
ENDBRANCH   6   8
ENDBRANCH   3   4
ENDBRANCH   2   3
ENDBRANCH   1   2
BRANCH   1  76
ATOM     76  C   UNL A   1      38.992  21.889  26.163  1.00  0.00     0.002 C 
BRANCH  76  77
ATOM     77  C   UNL A   1      38.110  20.994  25.287  1.00  0.00     0.021 C 
BRANCH  77  78
ATOM     78  C   UNL A   1      36.692  21.487  25.006  1.00  0.00     0.116 C 
BRANCH  78  79
ATOM     79  N   UNL A   1      35.879  21.612  26.195  1.00  0.00    -0.356 N 
ATOM     80  C   UNL A   1      34.529  21.459  26.351  1.00  0.00     0.223 C 
ATOM     81  H   UNL A   1      36.371  21.843  27.016  1.00  0.00     0.163 HD
ATOM     82  O   UNL A   1      34.024  21.632  27.458  1.00  0.00    -0.275 OA
BRANCH  80  83
ATOM     83  C   UNL A   1      33.657  21.220  25.178  1.00  0.00     0.086 C 
ATOM     84  C   UNL A   1      32.157  21.320  25.170  1.00  0.00     0.023 C 
ATOM     85  C   UNL A   1      32.966  22.365  24.448  1.00  0.00     0.032 C 
BRANCH  85  86
ATOM     86  C   UNL A   1      32.888  23.791  24.947  1.00  0.00    -0.044 A 
ATOM     87  C   UNL A   1      34.001  24.643  24.903  1.00  0.00     0.004 A 
ATOM     88  C   UNL A   1      31.733  24.302  25.552  1.00  0.00     0.004 A 
ATOM     89  C   UNL A   1      33.961  25.935  25.439  1.00  0.00     0.004 A 
ATOM     90  C   UNL A   1      31.694  25.599  26.088  1.00  0.00     0.004 A 
ATOM     91  C   UNL A   1      32.811  26.444  26.058  1.00  0.00    -0.045 A 
BRANCH  91  92
ATOM     92  C   UNL A   1      32.849  27.833  26.663  1.00  0.00     0.019 C 
ATOM     93  C   UNL A   1      31.810  28.898  26.414  1.00  0.00     0.009 C 
ATOM     94  C   UNL A   1      31.824  28.170  27.725  1.00  0.00     0.009 C 
ENDBRANCH  91  92
ENDBRANCH  85  86
ENDBRANCH  80  83
ENDBRANCH  78  79
ENDBRANCH  77  78
ENDBRANCH  76  77
ENDBRANCH   1  76
TORSDOF 18
ENDMDL
MODEL 3
REMARK VINA RESULT:     -11.2      5.319      9.885
REMARK SMILES O=C(NCCCCCCNC(=O)[C@H]1C[C@H]1c1ccc(C2CC2)cc1)c1ccc(-c2c3nc(c(-c4c(F)cc(S(=O)(=O)[O-])cc4F)c4ccc([nH]4)c(-c4c(F)cc(S(=O)(=O)[O-])cc4F)c4nc(c(-c5c(F)cc(S(=O)(=O)[O-])cc5F)c5ccc2[nH]5)C=C4)C=C3)cc1
REMARK SMILES IDX 6 1 5 2 4 3 3 4 1 5 2 6 25 8 26 9 90 10 27 11 89 12 28 13
REMARK SMILES IDX 29 14 30 15 83 16 31 17 88 18 82 19 84 20 32 21 87 22 81 23
REMARK SMILES IDX 80 24 33 26 67 27 46 28 66 29 47 30 50 31 65 32 85 33 48 34
REMARK SMILES IDX 49 35 64 37 86 38 51 39 34 40 35 41 44 42 36 43 37 44 43 45
REMARK SMILES IDX 45 46 38 47 39 48 40 49 41 50 42 51 68 52 69 53 78 54 70 55
REMARK SMILES IDX 71 56 77 57 79 58 72 59 73 60 74 61 75 62 76 63 52 64 53 65
REMARK SMILES IDX 62 66 54 67 55 68 61 69 63 70 56 71 57 72 58 73 59 74 60 75
REMARK SMILES IDX 7 76 8 77 9 78 10 79 11 80 12 82 13 83 14 84 15 85 16 86
REMARK SMILES IDX 17 87 24 88 18 89 23 90 19 91 20 92 21 93 22 94
REMARK H PARENT 3 7 84 25 50 36 10 81
REMARK Flexibility Score: inf
ROOT
ATOM      1  C   UNL A   1      32.215  28.865  25.093  1.00  0.00     0.002 C 
ENDROOT
BRANCH   1   2
ATOM      2  C   UNL A   1      33.540  28.259  25.558  1.00  0.00     0.021 C 
BRANCH   2   3
ATOM      3  C   UNL A   1      33.843  28.362  27.049  1.00  0.00     0.116 C 
BRANCH   3   4
ATOM      4  N   UNL A   1      33.687  29.704  27.580  1.00  0.00    -0.352 N 
ATOM      5  O   UNL A   1      34.242  31.577  28.704  1.00  0.00    -0.269 OA
ATOM      6  C   UNL A   1      34.599  30.497  28.240  1.00  0.00     0.251 C 
ATOM      7  H   UNL A   1      32.799  30.107  27.449  1.00  0.00     0.163 HD
BRANCH   6   8
ATOM      8  C   UNL A   1      35.997  30.038  28.429  1.00  0.00     0.039 A 
ATOM      9  C   UNL A   1      36.441  29.544  29.657  1.00  0.00     0.014 A 
ATOM     10  C   UNL A   1      36.883  30.105  27.348  1.00  0.00     0.014 A 
ATOM     11  C   UNL A   1      37.794  29.274  29.848  1.00  0.00     0.010 A 
ATOM     12  C   UNL A   1      38.227  29.757  27.521  1.00  0.00     0.010 A 
ATOM     13  C   UNL A   1      38.706  29.383  28.786  1.00  0.00    -0.014 A 
BRANCH  13  14
ATOM     14  C   UNL A   1      40.146  29.089  29.023  1.00  0.00     0.031 A 
ATOM     15  C   UNL A   1      40.743  27.762  28.633  1.00  0.00     0.074 A 
ATOM     16  C   UNL A   1      40.931  30.048  29.554  1.00  0.00     0.049 A 
ATOM     17  N   UNL A   1      41.989  27.367  28.709  1.00  0.00    -0.248 NA
ATOM     18  C   UNL A   1      39.826  26.745  28.097  1.00  0.00     0.031 C 
ATOM     19  C   UNL A   1      40.468  31.366  29.995  1.00  0.00     0.029 A 
ATOM     20  N   UNL A   1      42.281  30.074  29.789  1.00  0.00    -0.354 N 
ATOM     21  C   UNL A   1      42.003  26.051  28.258  1.00  0.00     0.074 A 
ATOM     22  C   UNL A   1      40.636  25.709  27.927  1.00  0.00     0.031 C 
ATOM     23  C   UNL A   1      41.524  32.090  30.396  1.00  0.00     0.029 A 
ATOM     24  C   UNL A   1      42.731  31.276  30.280  1.00  0.00     0.049 A 
ATOM     25  H   UNL A   1      42.873  29.304  29.622  1.00  0.00     0.167 HD
ATOM     26  C   UNL A   1      43.057  25.210  28.125  1.00  0.00     0.037 A 
ATOM     27  C   UNL A   1      43.974  31.684  30.599  1.00  0.00     0.037 A 
ATOM     28  C   UNL A   1      44.422  25.559  28.424  1.00  0.00     0.049 A 
ATOM     29  C   UNL A   1      45.129  30.744  30.409  1.00  0.00     0.074 A 
ATOM     30  C   UNL A   1      45.562  24.786  28.282  1.00  0.00     0.029 A 
ATOM     31  N   UNL A   1      44.833  26.787  28.922  1.00  0.00    -0.354 N 
ATOM     32  N   UNL A   1      45.123  29.516  29.950  1.00  0.00    -0.248 NA
ATOM     33  C   UNL A   1      46.459  31.246  30.779  1.00  0.00     0.031 C 
ATOM     34  C   UNL A   1      46.660  25.537  28.718  1.00  0.00     0.029 A 
ATOM     35  C   UNL A   1      46.208  26.789  29.101  1.00  0.00     0.049 A 
ATOM     36  H   UNL A   1      44.237  27.545  29.119  1.00  0.00     0.167 HD
ATOM     37  C   UNL A   1      46.450  29.102  29.960  1.00  0.00     0.074 A 
ATOM     38  C   UNL A   1      47.232  30.217  30.457  1.00  0.00     0.031 C 
ATOM     39  C   UNL A   1      46.973  27.907  29.591  1.00  0.00     0.037 A 
BRANCH  26  40
ATOM     40  C   UNL A   1      42.775  23.814  27.642  1.00  0.00     0.058 A 
ATOM     41  C   UNL A   1      42.540  22.757  28.536  1.00  0.00     0.135 A 
ATOM     42  C   UNL A   1      42.706  23.536  26.267  1.00  0.00     0.135 A 
ATOM     43  F   UNL A   1      42.608  22.965  29.860  1.00  0.00    -0.206 F 
ATOM     44  C   UNL A   1      42.272  21.469  28.084  1.00  0.00     0.059 A 
ATOM     45  C   UNL A   1      42.419  22.259  25.793  1.00  0.00     0.059 A 
ATOM     46  F   UNL A   1      42.922  24.510  25.370  1.00  0.00    -0.206 F 
ATOM     47  C   UNL A   1      42.219  21.228  26.710  1.00  0.00     0.060 A 
BRANCH  47  48
ATOM     48  S   UNL A   1      41.875  19.551  26.135  1.00  0.00     0.124 S 
ATOM     49  O   UNL A   1      42.246  18.763  27.305  1.00  0.00    -0.237 OA
ATOM     50  O   UNL A   1      40.448  19.605  25.836  1.00  0.00    -0.237 OA
ATOM     51  O   UNL A   1      42.749  19.405  24.975  1.00  0.00    -0.744 OA
ENDBRANCH  47  48
ENDBRANCH  26  40
BRANCH  27  52
ATOM     52  C   UNL A   1      44.186  33.064  31.102  1.00  0.00     0.058 A 
ATOM     53  C   UNL A   1      44.426  34.124  30.215  1.00  0.00     0.135 A 
ATOM     54  C   UNL A   1      44.121  33.356  32.472  1.00  0.00     0.135 A 
ATOM     55  F   UNL A   1      44.501  33.891  28.896  1.00  0.00    -0.206 F 
ATOM     56  C   UNL A   1      44.601  35.427  30.670  1.00  0.00     0.059 A 
ATOM     57  C   UNL A   1      44.270  34.654  32.949  1.00  0.00     0.059 A 
ATOM     58  F   UNL A   1      43.876  32.377  33.357  1.00  0.00    -0.206 F 
ATOM     59  C   UNL A   1      44.519  35.682  32.039  1.00  0.00     0.060 A 
BRANCH  59  60
ATOM     60  S   UNL A   1      44.677  37.385  32.620  1.00  0.00     0.124 S 
ATOM     61  O   UNL A   1      43.965  38.115  31.577  1.00  0.00    -0.237 OA
ATOM     62  O   UNL A   1      44.022  37.332  33.923  1.00  0.00    -0.237 OA
ATOM     63  O   UNL A   1      46.122  37.588  32.663  1.00  0.00    -0.744 OA
ENDBRANCH  59  60
ENDBRANCH  27  52
BRANCH  39  64
ATOM     64  C   UNL A   1      48.463  27.756  29.687  1.00  0.00     0.058 A 
ATOM     65  C   UNL A   1      49.076  27.241  30.839  1.00  0.00     0.135 A 
ATOM     66  C   UNL A   1      49.284  28.114  28.607  1.00  0.00     0.135 A 
ATOM     67  F   UNL A   1      48.333  26.891  31.901  1.00  0.00    -0.206 F 
ATOM     68  C   UNL A   1      50.458  27.110  30.928  1.00  0.00     0.059 A 
ATOM     69  C   UNL A   1      50.667  27.974  28.667  1.00  0.00     0.059 A 
ATOM     70  F   UNL A   1      48.744  28.604  27.481  1.00  0.00    -0.206 F 
ATOM     71  C   UNL A   1      51.246  27.486  29.838  1.00  0.00     0.060 A 
BRANCH  71  72
ATOM     72  S   UNL A   1      53.039  27.304  29.953  1.00  0.00     0.124 S 
ATOM     73  O   UNL A   1      53.196  26.813  31.319  1.00  0.00    -0.237 OA
ATOM     74  O   UNL A   1      53.329  26.339  28.896  1.00  0.00    -0.237 OA
ATOM     75  O   UNL A   1      53.531  28.656  29.709  1.00  0.00    -0.744 OA
ENDBRANCH  71  72
ENDBRANCH  39  64
ENDBRANCH  13  14
ENDBRANCH   6   8
ENDBRANCH   3   4
ENDBRANCH   2   3
ENDBRANCH   1   2
BRANCH   1  76
ATOM     76  C   UNL A   1      31.085  27.887  24.764  1.00  0.00     0.002 C 
BRANCH  76  77
ATOM     77  C   UNL A   1      30.663  26.909  25.865  1.00  0.00     0.021 C 
BRANCH  77  78
ATOM     78  C   UNL A   1      30.391  25.468  25.440  1.00  0.00     0.116 C 
BRANCH  78  79
ATOM     79  N   UNL A   1      30.848  24.488  26.401  1.00  0.00    -0.356 N 
ATOM     80  C   UNL A   1      32.123  24.114  26.728  1.00  0.00     0.223 C 
ATOM     81  H   UNL A   1      30.136  24.020  26.892  1.00  0.00     0.163 HD
ATOM     82  O   UNL A   1      32.298  23.235  27.568  1.00  0.00    -0.275 OA
BRANCH  80  83
ATOM     83  C   UNL A   1      33.283  24.661  25.987  1.00  0.00     0.086 C 
ATOM     84  C   UNL A   1      34.706  24.197  26.127  1.00  0.00     0.023 C 
ATOM     85  C   UNL A   1      33.952  23.881  24.861  1.00  0.00     0.032 C 
BRANCH  85  86
ATOM     86  C   UNL A   1      33.690  22.427  24.537  1.00  0.00    -0.044 A 
ATOM     87  C   UNL A   1      32.634  22.045  23.696  1.00  0.00     0.004 A 
ATOM     88  C   UNL A   1      34.428  21.392  25.123  1.00  0.00     0.004 A 
ATOM     89  C   UNL A   1      32.332  20.699  23.457  1.00  0.00     0.004 A 
ATOM     90  C   UNL A   1      34.125  20.042  24.882  1.00  0.00     0.004 A 
ATOM     91  C   UNL A   1      33.061  19.661  24.054  1.00  0.00    -0.045 A 
BRANCH  91  92
ATOM     92  C   UNL A   1      32.652  18.225  23.795  1.00  0.00     0.019 C 
ATOM     93  C   UNL A   1      32.252  17.685  22.445  1.00  0.00     0.009 C 
ATOM     94  C   UNL A   1      33.603  17.350  23.006  1.00  0.00     0.009 C 
ENDBRANCH  91  92
ENDBRANCH  85  86
ENDBRANCH  80  83
ENDBRANCH  78  79
ENDBRANCH  77  78
ENDBRANCH  76  77
ENDBRANCH   1  76
TORSDOF 18
ENDMDL
