MODEL 1
REMARK VINA RESULT:     -12.6      0.000      0.000
REMARK SMILES Cc1n[nH]c2c1[C@@]1(C(=O)N([C@@H](C)C(=O)NCCCCCCNC(=O)c3ccc(-c4c5nc(c(-c6c(F)cc(S(=O)(=O)[O-])cc6F)c6ccc([nH]6)c(-c6c(F)cc(S(=O)(=O)[O-])cc6F)c6nc(c(-c7c(F)cc(S(=O)(=O)[O-])cc7F)c7ccc4[nH]7)C=C6)C=C5)cc3)c3ccccc31)C(C#N)=C(N)O2
REMARK SMILES IDX 19 1 18 2 17 3 16 4 15 5 13 6 14 7 11 9 12 10 10 11 1 12
REMARK SMILES IDX 2 13 3 14 6 15 4 16 5 17 7 18 102 20 8 21 96 22 97 23 100 24
REMARK SMILES IDX 9 25 91 26 95 27 92 28 94 29 93 30 98 31 99 32 101 33 20 36
REMARK SMILES IDX 21 37 22 38 23 39 24 41 25 42 26 43 90 44 27 45 89 46 28 47
REMARK SMILES IDX 29 48 30 49 83 50 31 51 88 52 82 53 84 54 32 55 87 56 81 57
REMARK SMILES IDX 80 58 33 60 67 61 46 62 66 63 47 64 50 65 65 66 85 67 48 68
REMARK SMILES IDX 49 69 64 71 86 72 51 73 34 74 35 75 44 76 36 77 37 78 43 79
REMARK SMILES IDX 45 80 38 81 39 82 40 83 41 84 42 85 68 86 69 87 78 88 70 89
REMARK SMILES IDX 71 90 77 91 79 92 72 93 73 94 74 95 75 96 76 97 52 98 53 99
REMARK SMILES IDX 62 100 54 101 55 102 61 103 63 104 56 105 57 106 58 107
REMARK SMILES IDX 59 108 60 109
REMARK H PARENT 15 8 4 19 101 34 101 35 22 40 84 59 50 70
REMARK Flexibility Score: inf
ROOT
ATOM      1  C   UNL A   1      37.308  23.306  25.588  1.00  0.00     0.002 C 
ENDROOT
BRANCH   1   2
ATOM      2  C   UNL A   1      35.897  23.015  26.115  1.00  0.00     0.002 C 
BRANCH   2   3
ATOM      3  C   UNL A   1      35.314  21.707  25.595  1.00  0.00     0.021 C 
BRANCH   3   4
ATOM      4  C   UNL A   1      33.843  21.494  25.966  1.00  0.00     0.116 C 
BRANCH   4   5
ATOM      5  N   UNL A   1      32.978  21.844  24.855  1.00  0.00    -0.354 N 
ATOM      6  C   UNL A   1      31.979  22.755  24.722  1.00  0.00     0.242 C 
ATOM      7  O   UNL A   1      31.363  22.735  23.646  1.00  0.00    -0.273 OA
ATOM      8  H   UNL A   1      33.148  21.320  24.039  1.00  0.00     0.163 HD
BRANCH   6   9
ATOM      9  C   UNL A   1      31.556  23.774  25.811  1.00  0.00     0.176 C 
ATOM     10  C   UNL A   1      30.335  23.373  26.632  1.00  0.00     0.042 C 
BRANCH   9  11
ATOM     11  N   UNL A   1      31.564  25.171  25.373  1.00  0.00    -0.298 N 
ATOM     12  C   UNL A   1      33.262  25.741  22.074  1.00  0.00     0.069 C 
ATOM     13  C   UNL A   1      33.518  27.140  22.506  1.00  0.00     0.068 A 
ATOM     14  N   UNL A   1      34.372  27.911  21.814  1.00  0.00    -0.177 NA
ATOM     15  C   UNL A   1      33.064  27.800  23.676  1.00  0.00     0.063 A 
ATOM     16  N   UNL A   1      34.557  28.991  22.599  1.00  0.00    -0.246 N 
ATOM     17  C   UNL A   1      33.794  28.960  23.721  1.00  0.00     0.222 A 
ATOM     18  C   UNL A   1      32.265  27.389  24.860  1.00  0.00     0.149 C 
ATOM     19  H   UNL A   1      35.178  29.723  22.382  1.00  0.00     0.193 HD
ATOM     20  O   UNL A   1      33.875  29.838  24.713  1.00  0.00    -0.422 OA
ATOM     21  C   UNL A   1      32.705  25.970  25.270  1.00  0.00     0.248 C 
ATOM     22  C   UNL A   1      30.835  27.157  24.452  1.00  0.00     0.002 A 
ATOM     23  C   UNL A   1      32.422  28.393  26.005  1.00  0.00     0.114 C 
ATOM     24  C   UNL A   1      33.178  29.521  25.893  1.00  0.00     0.208 C 
ATOM     25  O   UNL A   1      33.867  25.610  25.361  1.00  0.00    -0.273 OA
ATOM     26  C   UNL A   1      30.455  25.857  24.830  1.00  0.00     0.050 A 
ATOM     27  C   UNL A   1      29.932  28.029  23.860  1.00  0.00     0.008 A 
ATOM     28  C   UNL A   1      29.169  25.401  24.602  1.00  0.00     0.027 A 
ATOM     29  C   UNL A   1      28.638  27.569  23.616  1.00  0.00     0.001 A 
ATOM     30  C   UNL A   1      28.262  26.267  23.982  1.00  0.00     0.002 A 
BRANCH  23  31
ATOM     31  C   UNL A   1      31.713  28.144  27.213  1.00  0.00     0.102 C 
ATOM     32  N   UNL A   1      31.110  27.938  28.191  1.00  0.00    -0.193 NA
ENDBRANCH  23  31
BRANCH  24  33
ATOM     33  N   UNL A   1      33.348  30.456  26.872  1.00  0.00    -0.369 N 
ATOM     34  H   UNL A   1      34.234  30.586  27.281  1.00  0.00     0.159 HD
ATOM     35  H   UNL A   1      32.584  31.001  27.170  1.00  0.00     0.159 HD
ENDBRANCH  24  33
ENDBRANCH   9  11
ENDBRANCH   6   9
ENDBRANCH   4   5
ENDBRANCH   3   4
ENDBRANCH   2   3
ENDBRANCH   1   2
BRANCH   1  36
ATOM     36  C   UNL A   1      38.346  22.204  25.861  1.00  0.00     0.021 C 
BRANCH  36  37
ATOM     37  C   UNL A   1      39.579  22.697  26.617  1.00  0.00     0.116 C 
BRANCH  37  38
ATOM     38  N   UNL A   1      40.800  22.575  25.847  1.00  0.00    -0.352 N 
ATOM     39  C   UNL A   1      41.924  23.330  25.694  1.00  0.00     0.251 C 
ATOM     40  H   UNL A   1      40.823  21.751  25.308  1.00  0.00     0.163 HD
ATOM     41  O   UNL A   1      42.783  22.873  24.934  1.00  0.00    -0.269 OA
BRANCH  39  42
ATOM     42  C   UNL A   1      42.134  24.672  26.293  1.00  0.00     0.039 A 
ATOM     43  C   UNL A   1      43.103  24.996  27.243  1.00  0.00     0.014 A 
ATOM     44  C   UNL A   1      41.194  25.650  25.922  1.00  0.00     0.014 A 
ATOM     45  C   UNL A   1      42.994  26.169  27.970  1.00  0.00     0.010 A 
ATOM     46  C   UNL A   1      41.125  26.855  26.596  1.00  0.00     0.010 A 
ATOM     47  C   UNL A   1      41.950  27.048  27.694  1.00  0.00    -0.014 A 
BRANCH  47  48
ATOM     48  C   UNL A   1      41.761  28.196  28.564  1.00  0.00     0.031 A 
ATOM     49  C   UNL A   1      42.855  29.202  28.494  1.00  0.00     0.074 A 
ATOM     50  C   UNL A   1      40.639  28.341  29.299  1.00  0.00     0.049 A 
ATOM     51  N   UNL A   1      43.687  29.533  29.425  1.00  0.00    -0.248 NA
ATOM     52  C   UNL A   1      43.184  29.769  27.176  1.00  0.00     0.031 C 
ATOM     53  C   UNL A   1      39.423  27.520  29.301  1.00  0.00     0.029 A 
ATOM     54  N   UNL A   1      40.314  29.360  30.140  1.00  0.00    -0.354 N 
ATOM     55  C   UNL A   1      44.505  30.518  28.877  1.00  0.00     0.074 A 
ATOM     56  C   UNL A   1      44.267  30.497  27.458  1.00  0.00     0.031 C 
ATOM     57  C   UNL A   1      38.415  28.212  29.880  1.00  0.00     0.029 A 
ATOM     58  C   UNL A   1      38.946  29.450  30.412  1.00  0.00     0.049 A 
ATOM     59  H   UNL A   1      40.981  29.978  30.520  1.00  0.00     0.167 HD
ATOM     60  C   UNL A   1      45.161  31.420  29.658  1.00  0.00     0.037 A 
ATOM     61  C   UNL A   1      38.334  30.558  30.909  1.00  0.00     0.037 A 
ATOM     62  C   UNL A   1      45.210  30.992  31.031  1.00  0.00     0.049 A 
ATOM     63  C   UNL A   1      39.401  31.315  31.637  1.00  0.00     0.074 A 
ATOM     64  C   UNL A   1      45.764  29.904  31.677  1.00  0.00     0.029 A 
ATOM     65  N   UNL A   1      44.272  31.503  31.898  1.00  0.00    -0.354 N 
ATOM     66  N   UNL A   1      40.016  30.834  32.691  1.00  0.00    -0.248 NA
ATOM     67  C   UNL A   1      40.153  32.307  30.877  1.00  0.00     0.031 C 
ATOM     68  C   UNL A   1      44.781  29.510  32.632  1.00  0.00     0.029 A 
ATOM     69  C   UNL A   1      43.738  30.435  32.578  1.00  0.00     0.049 A 
ATOM     70  H   UNL A   1      44.031  32.451  32.011  1.00  0.00     0.167 HD
ATOM     71  C   UNL A   1      41.359  31.136  32.495  1.00  0.00     0.074 A 
ATOM     72  C   UNL A   1      41.375  32.072  31.367  1.00  0.00     0.031 C 
ATOM     73  C   UNL A   1      42.366  30.388  33.039  1.00  0.00     0.037 A 
BRANCH  60  74
ATOM     74  C   UNL A   1      45.448  32.842  29.251  1.00  0.00     0.058 A 
ATOM     75  C   UNL A   1      44.382  33.742  29.063  1.00  0.00     0.135 A 
ATOM     76  C   UNL A   1      46.703  33.264  28.762  1.00  0.00     0.135 A 
ATOM     77  F   UNL A   1      43.144  33.436  29.486  1.00  0.00    -0.206 F 
ATOM     78  C   UNL A   1      44.539  34.946  28.375  1.00  0.00     0.059 A 
ATOM     79  C   UNL A   1      46.892  34.480  28.117  1.00  0.00     0.059 A 
ATOM     80  F   UNL A   1      47.784  32.473  28.796  1.00  0.00    -0.206 F 
ATOM     81  C   UNL A   1      45.797  35.297  27.892  1.00  0.00     0.060 A 
BRANCH  81  82
ATOM     82  S   UNL A   1      45.975  36.795  26.908  1.00  0.00     0.124 S 
ATOM     83  O   UNL A   1      46.733  36.305  25.762  1.00  0.00    -0.237 OA
ATOM     84  O   UNL A   1      44.584  37.151  26.650  1.00  0.00    -0.237 OA
ATOM     85  O   UNL A   1      46.695  37.700  27.799  1.00  0.00    -0.744 OA
ENDBRANCH  81  82
ENDBRANCH  60  74
BRANCH  61  86
ATOM     86  C   UNL A   1      37.105  31.184  30.328  1.00  0.00     0.058 A 
ATOM     87  C   UNL A   1      36.037  31.635  31.124  1.00  0.00     0.135 A 
ATOM     88  C   UNL A   1      37.057  31.571  28.970  1.00  0.00     0.135 A 
ATOM     89  F   UNL A   1      36.006  31.347  32.435  1.00  0.00    -0.206 F 
ATOM     90  C   UNL A   1      35.001  32.436  30.611  1.00  0.00     0.059 A 
ATOM     91  C   UNL A   1      36.037  32.355  28.436  1.00  0.00     0.059 A 
ATOM     92  F   UNL A   1      38.052  31.270  28.125  1.00  0.00    -0.206 F 
ATOM     93  C   UNL A   1      35.020  32.804  29.264  1.00  0.00     0.060 A 
BRANCH  93  94
ATOM     94  S   UNL A   1      33.776  33.948  28.612  1.00  0.00     0.124 S 
ATOM     95  O   UNL A   1      33.179  34.479  29.833  1.00  0.00    -0.237 OA
ATOM     96  O   UNL A   1      34.591  34.880  27.841  1.00  0.00    -0.237 OA
ATOM     97  O   UNL A   1      32.903  33.085  27.819  1.00  0.00    -0.744 OA
ENDBRANCH  93  94
ENDBRANCH  61  86
BRANCH  73  98
ATOM     98  C   UNL A   1      42.034  29.291  34.020  1.00  0.00     0.058 A 
ATOM     99  C   UNL A   1      41.783  27.952  33.663  1.00  0.00     0.135 A 
ATOM    100  C   UNL A   1      42.191  29.558  35.389  1.00  0.00     0.135 A 
ATOM    101  F   UNL A   1      41.735  27.584  32.376  1.00  0.00    -0.206 F 
ATOM    102  C   UNL A   1      41.653  26.940  34.619  1.00  0.00     0.059 A 
ATOM    103  C   UNL A   1      42.098  28.562  36.357  1.00  0.00     0.059 A 
ATOM    104  F   UNL A   1      42.507  30.798  35.796  1.00  0.00    -0.206 F 
ATOM    105  C   UNL A   1      41.814  27.256  35.967  1.00  0.00     0.060 A 
BRANCH 105 106
ATOM    106  S   UNL A   1      41.698  25.944  37.203  1.00  0.00     0.124 S 
ATOM    107  O   UNL A   1      41.955  24.749  36.408  1.00  0.00    -0.237 OA
ATOM    108  O   UNL A   1      42.744  26.311  38.154  1.00  0.00    -0.237 OA
ATOM    109  O   UNL A   1      40.334  26.072  37.711  1.00  0.00    -0.744 OA
ENDBRANCH 105 106
ENDBRANCH  73  98
ENDBRANCH  47  48
ENDBRANCH  39  42
ENDBRANCH  37  38
ENDBRANCH  36  37
ENDBRANCH   1  36
TORSDOF 19
ENDMDL
MODEL 2
REMARK VINA RESULT:     -12.6      1.231      2.152
REMARK SMILES Cc1n[nH]c2c1[C@@]1(C(=O)N([C@@H](C)C(=O)NCCCCCCNC(=O)c3ccc(-c4c5nc(c(-c6c(F)cc(S(=O)(=O)[O-])cc6F)c6ccc([nH]6)c(-c6c(F)cc(S(=O)(=O)[O-])cc6F)c6nc(c(-c7c(F)cc(S(=O)(=O)[O-])cc7F)c7ccc4[nH]7)C=C6)C=C5)cc3)c3ccccc31)C(C#N)=C(N)O2
REMARK SMILES IDX 19 1 18 2 17 3 16 4 15 5 13 6 14 7 11 9 12 10 10 11 1 12
REMARK SMILES IDX 2 13 3 14 6 15 4 16 5 17 7 18 102 20 8 21 96 22 97 23 100 24
REMARK SMILES IDX 9 25 91 26 95 27 92 28 94 29 93 30 98 31 99 32 101 33 20 36
REMARK SMILES IDX 21 37 22 38 23 39 24 41 25 42 26 43 90 44 27 45 89 46 28 47
REMARK SMILES IDX 29 48 30 49 83 50 31 51 88 52 82 53 84 54 32 55 87 56 81 57
REMARK SMILES IDX 80 58 33 60 67 61 46 62 66 63 47 64 50 65 65 66 85 67 48 68
REMARK SMILES IDX 49 69 64 71 86 72 51 73 34 74 35 75 44 76 36 77 37 78 43 79
REMARK SMILES IDX 45 80 38 81 39 82 40 83 41 84 42 85 68 86 69 87 78 88 70 89
REMARK SMILES IDX 71 90 77 91 79 92 72 93 73 94 74 95 75 96 76 97 52 98 53 99
REMARK SMILES IDX 62 100 54 101 55 102 61 103 63 104 56 105 57 106 58 107
REMARK SMILES IDX 59 108 60 109
REMARK H PARENT 15 8 4 19 101 34 101 35 22 40 84 59 50 70
REMARK Flexibility Score: inf
ROOT
ATOM      1  C   UNL A   1      41.229  21.692  27.729  1.00  0.00     0.002 C 
ENDROOT
BRANCH   1   2
ATOM      2  C   UNL A   1      40.186  22.692  27.214  1.00  0.00     0.002 C 
BRANCH   2   3
ATOM      3  C   UNL A   1      39.179  22.075  26.251  1.00  0.00     0.021 C 
BRANCH   3   4
ATOM      4  C   UNL A   1      37.910  22.913  26.061  1.00  0.00     0.116 C 
BRANCH   4   5
ATOM      5  N   UNL A   1      36.833  22.100  25.532  1.00  0.00    -0.354 N 
ATOM      6  C   UNL A   1      35.488  22.121  25.723  1.00  0.00     0.242 C 
ATOM      7  O   UNL A   1      34.847  21.208  25.184  1.00  0.00    -0.273 OA
ATOM      8  H   UNL A   1      37.134  21.394  24.915  1.00  0.00     0.163 HD
BRANCH   6   9
ATOM      9  C   UNL A   1      34.729  23.175  26.569  1.00  0.00     0.176 C 
ATOM     10  C   UNL A   1      34.054  22.630  27.824  1.00  0.00     0.042 C 
BRANCH   9  11
ATOM     11  N   UNL A   1      33.909  24.105  25.791  1.00  0.00    -0.298 N 
ATOM     12  C   UNL A   1      33.140  22.936  22.307  1.00  0.00     0.069 C 
ATOM     13  C   UNL A   1      32.967  24.362  21.923  1.00  0.00     0.068 A 
ATOM     14  N   UNL A   1      32.894  24.703  20.626  1.00  0.00    -0.177 NA
ATOM     15  C   UNL A   1      32.983  25.509  22.756  1.00  0.00     0.063 A 
ATOM     16  N   UNL A   1      32.993  26.048  20.630  1.00  0.00    -0.246 N 
ATOM     17  C   UNL A   1      33.050  26.565  21.884  1.00  0.00     0.222 A 
ATOM     18  C   UNL A   1      33.209  25.740  24.207  1.00  0.00     0.149 C 
ATOM     19  H   UNL A   1      33.021  26.595  19.813  1.00  0.00     0.193 HD
ATOM     20  O   UNL A   1      33.270  27.845  22.163  1.00  0.00    -0.422 OA
ATOM     21  C   UNL A   1      34.350  24.815  24.672  1.00  0.00     0.248 C 
ATOM     22  C   UNL A   1      32.043  25.202  24.993  1.00  0.00     0.002 A 
ATOM     23  C   UNL A   1      33.512  27.214  24.489  1.00  0.00     0.114 C 
ATOM     24  C   UNL A   1      33.527  28.160  23.508  1.00  0.00     0.208 C 
ATOM     25  O   UNL A   1      35.400  24.663  24.069  1.00  0.00    -0.273 OA
ATOM     26  C   UNL A   1      32.518  24.288  25.950  1.00  0.00     0.050 A 
ATOM     27  C   UNL A   1      30.697  25.532  24.916  1.00  0.00     0.008 A 
ATOM     28  C   UNL A   1      31.649  23.674  26.835  1.00  0.00     0.027 A 
ATOM     29  C   UNL A   1      29.815  24.906  25.796  1.00  0.00     0.001 A 
ATOM     30  C   UNL A   1      30.288  23.983  26.744  1.00  0.00     0.002 A 
BRANCH  23  31
ATOM     31  C   UNL A   1      33.747  27.600  25.838  1.00  0.00     0.102 C 
ATOM     32  N   UNL A   1      33.934  27.895  26.952  1.00  0.00    -0.193 NA
ENDBRANCH  23  31
BRANCH  24  33
ATOM     33  N   UNL A   1      33.781  29.488  23.699  1.00  0.00    -0.369 N 
ATOM     34  H   UNL A   1      34.386  29.775  24.421  1.00  0.00     0.159 HD
ATOM     35  H   UNL A   1      33.359  30.159  23.114  1.00  0.00     0.159 HD
ENDBRANCH  24  33
ENDBRANCH   9  11
ENDBRANCH   6   9
ENDBRANCH   4   5
ENDBRANCH   3   4
ENDBRANCH   2   3
ENDBRANCH   1   2
BRANCH   1  36
ATOM     36  C   UNL A   1      42.517  21.606  26.894  1.00  0.00     0.021 C 
BRANCH  36  37
ATOM     37  C   UNL A   1      42.307  21.897  25.409  1.00  0.00     0.116 C 
BRANCH  37  38
ATOM     38  N   UNL A   1      43.297  22.802  24.864  1.00  0.00    -0.352 N 
ATOM     39  C   UNL A   1      43.648  24.100  25.091  1.00  0.00     0.251 C 
ATOM     40  H   UNL A   1      43.849  22.379  24.166  1.00  0.00     0.163 HD
ATOM     41  O   UNL A   1      44.586  24.532  24.415  1.00  0.00    -0.269 OA
BRANCH  39  42
ATOM     42  C   UNL A   1      42.934  25.025  26.005  1.00  0.00     0.039 A 
ATOM     43  C   UNL A   1      42.002  25.990  25.620  1.00  0.00     0.014 A 
ATOM     44  C   UNL A   1      43.330  24.964  27.353  1.00  0.00     0.014 A 
ATOM     45  C   UNL A   1      41.657  27.006  26.495  1.00  0.00     0.010 A 
ATOM     46  C   UNL A   1      42.931  25.936  28.251  1.00  0.00     0.010 A 
ATOM     47  C   UNL A   1      42.197  27.014  27.779  1.00  0.00    -0.014 A 
BRANCH  47  48
ATOM     48  C   UNL A   1      41.947  28.164  28.629  1.00  0.00     0.031 A 
ATOM     49  C   UNL A   1      43.007  29.207  28.572  1.00  0.00     0.074 A 
ATOM     50  C   UNL A   1      40.802  28.279  29.335  1.00  0.00     0.049 A 
ATOM     51  N   UNL A   1      43.804  29.578  29.520  1.00  0.00    -0.248 NA
ATOM     52  C   UNL A   1      43.349  29.769  27.256  1.00  0.00     0.031 C 
ATOM     53  C   UNL A   1      39.615  27.417  29.317  1.00  0.00     0.029 A 
ATOM     54  N   UNL A   1      40.422  29.297  30.154  1.00  0.00    -0.354 N 
ATOM     55  C   UNL A   1      44.601  30.584  28.979  1.00  0.00     0.074 A 
ATOM     56  C   UNL A   1      44.398  30.538  27.555  1.00  0.00     0.031 C 
ATOM     57  C   UNL A   1      38.570  28.081  29.862  1.00  0.00     0.029 A 
ATOM     58  C   UNL A   1      39.045  29.343  30.391  1.00  0.00     0.049 A 
ATOM     59  H   UNL A   1      41.057  29.942  30.542  1.00  0.00     0.167 HD
ATOM     60  C   UNL A   1      45.206  31.518  29.764  1.00  0.00     0.037 A 
ATOM     61  C   UNL A   1      38.383  30.435  30.859  1.00  0.00     0.037 A 
ATOM     62  C   UNL A   1      45.235  31.108  31.144  1.00  0.00     0.049 A 
ATOM     63  C   UNL A   1      39.405  31.237  31.603  1.00  0.00     0.074 A 
ATOM     64  C   UNL A   1      45.810  30.048  31.816  1.00  0.00     0.029 A 
ATOM     65  N   UNL A   1      44.259  31.597  31.980  1.00  0.00    -0.354 N 
ATOM     66  N   UNL A   1      40.010  30.791  32.678  1.00  0.00    -0.248 NA
ATOM     67  C   UNL A   1      40.142  32.245  30.849  1.00  0.00     0.031 C 
ATOM     68  C   UNL A   1      44.818  29.631  32.752  1.00  0.00     0.029 A 
ATOM     69  C   UNL A   1      43.745  30.519  32.661  1.00  0.00     0.049 A 
ATOM     70  H   UNL A   1      43.983  32.537  32.075  1.00  0.00     0.167 HD
ATOM     71  C   UNL A   1      41.346  31.137  32.510  1.00  0.00     0.074 A 
ATOM     72  C   UNL A   1      41.359  32.058  31.372  1.00  0.00     0.031 C 
ATOM     73  C   UNL A   1      42.365  30.430  33.089  1.00  0.00     0.037 A 
BRANCH  60  74
ATOM     74  C   UNL A   1      45.453  32.943  29.346  1.00  0.00     0.058 A 
ATOM     75  C   UNL A   1      44.372  33.751  28.945  1.00  0.00     0.135 A 
ATOM     76  C   UNL A   1      46.740  33.446  29.051  1.00  0.00     0.135 A 
ATOM     77  F   UNL A   1      43.107  33.363  29.173  1.00  0.00    -0.206 F 
ATOM     78  C   UNL A   1      44.555  34.940  28.238  1.00  0.00     0.059 A 
ATOM     79  C   UNL A   1      46.946  34.652  28.391  1.00  0.00     0.059 A 
ATOM     80  F   UNL A   1      47.853  32.744  29.298  1.00  0.00    -0.206 F 
ATOM     81  C   UNL A   1      45.848  35.373  27.953  1.00  0.00     0.060 A 
BRANCH  81  82
ATOM     82  S   UNL A   1      46.080  36.847  26.945  1.00  0.00     0.124 S 
ATOM     83  O   UNL A   1      46.985  37.633  27.777  1.00  0.00    -0.237 OA
ATOM     84  O   UNL A   1      46.655  36.288  25.726  1.00  0.00    -0.237 OA
ATOM     85  O   UNL A   1      44.728  37.379  26.809  1.00  0.00    -0.744 OA
ENDBRANCH  81  82
ENDBRANCH  60  74
BRANCH  61  86
ATOM     86  C   UNL A   1      37.148  31.011  30.240  1.00  0.00     0.058 A 
ATOM     87  C   UNL A   1      36.104  31.561  31.005  1.00  0.00     0.135 A 
ATOM     88  C   UNL A   1      37.073  31.248  28.849  1.00  0.00     0.135 A 
ATOM     89  F   UNL A   1      36.101  31.418  32.340  1.00  0.00    -0.206 F 
ATOM     90  C   UNL A   1      35.066  32.315  30.430  1.00  0.00     0.059 A 
ATOM     91  C   UNL A   1      36.049  31.983  28.255  1.00  0.00     0.059 A 
ATOM     92  F   UNL A   1      38.044  30.843  28.020  1.00  0.00    -0.206 F 
ATOM     93  C   UNL A   1      35.057  32.534  29.052  1.00  0.00     0.060 A 
BRANCH  93  94
ATOM     94  S   UNL A   1      33.813  33.617  28.305  1.00  0.00     0.124 S 
ATOM     95  O   UNL A   1      32.960  32.664  27.601  1.00  0.00    -0.237 OA
ATOM     96  O   UNL A   1      33.223  34.259  29.475  1.00  0.00    -0.237 OA
ATOM     97  O   UNL A   1      34.599  34.498  27.445  1.00  0.00    -0.744 OA
ENDBRANCH  93  94
ENDBRANCH  61  86
BRANCH  73  98
ATOM     98  C   UNL A   1      42.046  29.334  34.076  1.00  0.00     0.058 A 
ATOM     99  C   UNL A   1      41.755  28.003  33.721  1.00  0.00     0.135 A 
ATOM    100  C   UNL A   1      42.257  29.590  35.439  1.00  0.00     0.135 A 
ATOM    101  F   UNL A   1      41.654  27.644  32.434  1.00  0.00    -0.206 F 
ATOM    102  C   UNL A   1      41.640  26.988  34.676  1.00  0.00     0.059 A 
ATOM    103  C   UNL A   1      42.179  28.591  36.405  1.00  0.00     0.059 A 
ATOM    104  F   UNL A   1      42.613  30.821  35.841  1.00  0.00    -0.206 F 
ATOM    105  C   UNL A   1      41.856  27.293  36.018  1.00  0.00     0.060 A 
BRANCH 105 106
ATOM    106  S   UNL A   1      41.757  25.976  37.251  1.00  0.00     0.124 S 
ATOM    107  O   UNL A   1      42.801  26.360  38.195  1.00  0.00    -0.237 OA
ATOM    108  O   UNL A   1      40.386  26.100  37.738  1.00  0.00    -0.237 OA
ATOM    109  O   UNL A   1      42.029  24.764  36.482  1.00  0.00    -0.744 OA
ENDBRANCH 105 106
ENDBRANCH  73  98
ENDBRANCH  47  48
ENDBRANCH  39  42
ENDBRANCH  37  38
ENDBRANCH  36  37
ENDBRANCH   1  36
TORSDOF 19
ENDMDL
MODEL 3
REMARK VINA RESULT:     -12.3      2.549      3.684
REMARK SMILES Cc1n[nH]c2c1[C@@]1(C(=O)N([C@@H](C)C(=O)NCCCCCCNC(=O)c3ccc(-c4c5nc(c(-c6c(F)cc(S(=O)(=O)[O-])cc6F)c6ccc([nH]6)c(-c6c(F)cc(S(=O)(=O)[O-])cc6F)c6nc(c(-c7c(F)cc(S(=O)(=O)[O-])cc7F)c7ccc4[nH]7)C=C6)C=C5)cc3)c3ccccc31)C(C#N)=C(N)O2
REMARK SMILES IDX 19 1 18 2 17 3 16 4 15 5 13 6 14 7 11 9 12 10 10 11 1 12
REMARK SMILES IDX 2 13 3 14 6 15 4 16 5 17 7 18 102 20 8 21 96 22 97 23 100 24
REMARK SMILES IDX 9 25 91 26 95 27 92 28 94 29 93 30 98 31 99 32 101 33 20 36
REMARK SMILES IDX 21 37 22 38 23 39 24 41 25 42 26 43 90 44 27 45 89 46 28 47
REMARK SMILES IDX 29 48 30 49 83 50 31 51 88 52 82 53 84 54 32 55 87 56 81 57
REMARK SMILES IDX 80 58 33 60 67 61 46 62 66 63 47 64 50 65 65 66 85 67 48 68
REMARK SMILES IDX 49 69 64 71 86 72 51 73 34 74 35 75 44 76 36 77 37 78 43 79
REMARK SMILES IDX 45 80 38 81 39 82 40 83 41 84 42 85 68 86 69 87 78 88 70 89
REMARK SMILES IDX 71 90 77 91 79 92 72 93 73 94 74 95 75 96 76 97 52 98 53 99
REMARK SMILES IDX 62 100 54 101 55 102 61 103 63 104 56 105 57 106 58 107
REMARK SMILES IDX 59 108 60 109
REMARK H PARENT 15 8 4 19 101 34 101 35 22 40 84 59 50 70
REMARK Flexibility Score: inf
ROOT
ATOM      1  C   UNL A   1      40.947  21.367  27.407  1.00  0.00     0.002 C 
ENDROOT
BRANCH   1   2
ATOM      2  C   UNL A   1      39.906  22.406  26.972  1.00  0.00     0.002 C 
BRANCH   2   3
ATOM      3  C   UNL A   1      38.912  21.875  25.947  1.00  0.00     0.021 C 
BRANCH   3   4
ATOM      4  C   UNL A   1      37.647  22.729  25.810  1.00  0.00     0.116 C 
BRANCH   4   5
ATOM      5  N   UNL A   1      36.507  21.904  25.459  1.00  0.00    -0.354 N 
ATOM      6  C   UNL A   1      35.192  21.965  25.795  1.00  0.00     0.242 C 
ATOM      7  O   UNL A   1      34.483  21.031  25.393  1.00  0.00    -0.273 OA
ATOM      8  H   UNL A   1      36.729  21.153  24.862  1.00  0.00     0.163 HD
BRANCH   6   9
ATOM      9  C   UNL A   1      34.545  23.087  26.646  1.00  0.00     0.176 C 
ATOM     10  C   UNL A   1      33.921  22.624  27.959  1.00  0.00     0.042 C 
BRANCH   9  11
ATOM     11  N   UNL A   1      33.729  24.035  25.885  1.00  0.00    -0.298 N 
ATOM     12  C   UNL A   1      33.144  23.041  22.312  1.00  0.00     0.069 C 
ATOM     13  C   UNL A   1      32.942  24.480  21.999  1.00  0.00     0.068 A 
ATOM     14  N   UNL A   1      32.913  24.891  20.721  1.00  0.00    -0.177 NA
ATOM     15  C   UNL A   1      32.886  25.579  22.893  1.00  0.00     0.063 A 
ATOM     16  N   UNL A   1      32.968  26.236  20.803  1.00  0.00    -0.246 N 
ATOM     17  C   UNL A   1      32.956  26.684  22.084  1.00  0.00     0.222 A 
ATOM     18  C   UNL A   1      33.043  25.735  24.363  1.00  0.00     0.149 C 
ATOM     19  H   UNL A   1      33.012  26.829  20.019  1.00  0.00     0.193 HD
ATOM     20  O   UNL A   1      33.122  27.952  22.442  1.00  0.00    -0.422 OA
ATOM     21  C   UNL A   1      34.193  24.819  24.826  1.00  0.00     0.248 C 
ATOM     22  C   UNL A   1      31.863  25.120  25.067  1.00  0.00     0.002 A 
ATOM     23  C   UNL A   1      33.287  27.199  24.739  1.00  0.00     0.114 C 
ATOM     24  C   UNL A   1      33.313  28.199  23.813  1.00  0.00     0.208 C 
ATOM     25  O   UNL A   1      35.271  24.733  24.263  1.00  0.00    -0.273 OA
ATOM     26  C   UNL A   1      32.327  24.168  25.993  1.00  0.00     0.050 A 
ATOM     27  C   UNL A   1      30.512  25.413  24.950  1.00  0.00     0.008 A 
ATOM     28  C   UNL A   1      31.442  23.479  26.803  1.00  0.00     0.027 A 
ATOM     29  C   UNL A   1      29.615  24.712  25.755  1.00  0.00     0.001 A 
ATOM     30  C   UNL A   1      30.076  23.753  26.670  1.00  0.00     0.002 A 
BRANCH  23  31
ATOM     31  C   UNL A   1      33.453  27.516  26.115  1.00  0.00     0.102 C 
ATOM     32  N   UNL A   1      33.606  27.795  27.238  1.00  0.00    -0.193 NA
ENDBRANCH  23  31
BRANCH  24  33
ATOM     33  N   UNL A   1      33.516  29.520  24.087  1.00  0.00    -0.369 N 
ATOM     34  H   UNL A   1      34.070  29.785  24.856  1.00  0.00     0.159 HD
ATOM     35  H   UNL A   1      33.107  30.210  23.514  1.00  0.00     0.159 HD
ENDBRANCH  24  33
ENDBRANCH   9  11
ENDBRANCH   6   9
ENDBRANCH   4   5
ENDBRANCH   3   4
ENDBRANCH   2   3
ENDBRANCH   1   2
BRANCH   1  36
ATOM     36  C   UNL A   1      41.136  20.189  26.437  1.00  0.00     0.021 C 
BRANCH  36  37
ATOM     37  C   UNL A   1      42.521  19.546  26.515  1.00  0.00     0.116 C 
BRANCH  37  38
ATOM     38  N   UNL A   1      43.240  19.597  25.259  1.00  0.00    -0.352 N 
ATOM     39  C   UNL A   1      44.003  20.529  24.620  1.00  0.00     0.251 C 
ATOM     40  H   UNL A   1      43.157  18.761  24.745  1.00  0.00     0.163 HD
ATOM     41  O   UNL A   1      44.474  20.187  23.532  1.00  0.00    -0.269 OA
BRANCH  39  42
ATOM     42  C   UNL A   1      44.219  21.919  25.093  1.00  0.00     0.039 A 
ATOM     43  C   UNL A   1      45.278  22.350  25.893  1.00  0.00     0.014 A 
ATOM     44  C   UNL A   1      43.197  22.830  24.773  1.00  0.00     0.014 A 
ATOM     45  C   UNL A   1      45.202  23.569  26.544  1.00  0.00     0.010 A 
ATOM     46  C   UNL A   1      43.152  24.078  25.364  1.00  0.00     0.010 A 
ATOM     47  C   UNL A   1      44.092  24.385  26.336  1.00  0.00    -0.014 A 
BRANCH  47  48
ATOM     48  C   UNL A   1      43.955  25.587  27.140  1.00  0.00     0.031 A 
ATOM     49  C   UNL A   1      44.991  26.621  26.875  1.00  0.00     0.074 A 
ATOM     50  C   UNL A   1      42.917  25.748  27.988  1.00  0.00     0.049 A 
ATOM     51  N   UNL A   1      45.907  27.047  27.679  1.00  0.00    -0.248 NA
ATOM     52  C   UNL A   1      45.145  27.099  25.492  1.00  0.00     0.031 C 
ATOM     53  C   UNL A   1      41.743  24.889  28.187  1.00  0.00     0.029 A 
ATOM     54  N   UNL A   1      42.646  26.815  28.787  1.00  0.00    -0.354 N 
ATOM     55  C   UNL A   1      46.617  28.016  26.973  1.00  0.00     0.074 A 
ATOM     56  C   UNL A   1      46.221  27.883  25.596  1.00  0.00     0.031 C 
ATOM     57  C   UNL A   1      40.780  25.588  28.828  1.00  0.00     0.029 A 
ATOM     58  C   UNL A   1      41.315  26.879  29.208  1.00  0.00     0.049 A 
ATOM     59  H   UNL A   1      43.325  27.481  29.045  1.00  0.00     0.167 HD
ATOM     60  C   UNL A   1      47.318  28.995  27.609  1.00  0.00     0.037 A 
ATOM     61  C   UNL A   1      40.717  27.999  29.694  1.00  0.00     0.037 A 
ATOM     62  C   UNL A   1      47.539  28.672  28.994  1.00  0.00     0.049 A 
ATOM     63  C   UNL A   1      41.827  28.844  30.240  1.00  0.00     0.074 A 
ATOM     64  C   UNL A   1      48.207  27.653  29.645  1.00  0.00     0.029 A 
ATOM     65  N   UNL A   1      46.684  29.213  29.925  1.00  0.00    -0.354 N 
ATOM     66  N   UNL A   1      42.575  28.463  31.247  1.00  0.00    -0.248 NA
ATOM     67  C   UNL A   1      42.447  29.801  29.331  1.00  0.00     0.031 C 
ATOM     68  C   UNL A   1      47.355  27.298  30.732  1.00  0.00     0.029 A 
ATOM     69  C   UNL A   1      46.274  28.181  30.734  1.00  0.00     0.049 A 
ATOM     70  H   UNL A   1      46.418  30.159  29.999  1.00  0.00     0.167 HD
ATOM     71  C   UNL A   1      43.874  28.794  30.877  1.00  0.00     0.074 A 
ATOM     72  C   UNL A   1      43.725  29.644  29.693  1.00  0.00     0.031 C 
ATOM     73  C   UNL A   1      44.967  28.122  31.353  1.00  0.00     0.037 A 
BRANCH  60  74
ATOM     74  C   UNL A   1      47.498  30.391  27.074  1.00  0.00     0.058 A 
ATOM     75  C   UNL A   1      48.779  30.977  27.067  1.00  0.00     0.135 A 
ATOM     76  C   UNL A   1      46.418  31.271  26.842  1.00  0.00     0.135 A 
ATOM     77  F   UNL A   1      49.874  30.229  27.283  1.00  0.00    -0.206 F 
ATOM     78  C   UNL A   1      48.967  32.350  26.910  1.00  0.00     0.059 A 
ATOM     79  C   UNL A   1      46.587  32.635  26.635  1.00  0.00     0.059 A 
ATOM     80  F   UNL A   1      45.143  30.867  26.907  1.00  0.00    -0.206 F 
ATOM     81  C   UNL A   1      47.861  33.173  26.710  1.00  0.00     0.060 A 
BRANCH  81  82
ATOM     82  S   UNL A   1      48.095  34.956  26.620  1.00  0.00     0.124 S 
ATOM     83  O   UNL A   1      48.750  35.102  25.325  1.00  0.00    -0.237 OA
ATOM     84  O   UNL A   1      46.721  35.442  26.700  1.00  0.00    -0.237 OA
ATOM     85  O   UNL A   1      48.927  35.247  27.783  1.00  0.00    -0.744 OA
ENDBRANCH  81  82
ENDBRANCH  60  74
BRANCH  61  86
ATOM     86  C   UNL A   1      39.405  28.540  29.216  1.00  0.00     0.058 A 
ATOM     87  C   UNL A   1      38.285  28.662  30.058  1.00  0.00     0.135 A 
ATOM     88  C   UNL A   1      39.293  29.174  27.959  1.00  0.00     0.135 A 
ATOM     89  F   UNL A   1      38.305  28.120  31.286  1.00  0.00    -0.206 F 
ATOM     90  C   UNL A   1      37.139  29.387  29.685  1.00  0.00     0.059 A 
ATOM     91  C   UNL A   1      38.165  29.888  27.563  1.00  0.00     0.059 A 
ATOM     92  F   UNL A   1      40.318  29.196  27.096  1.00  0.00    -0.206 F 
ATOM     93  C   UNL A   1      37.096  30.011  28.438  1.00  0.00     0.060 A 
BRANCH  93  94
ATOM     94  S   UNL A   1      35.693  31.065  27.990  1.00  0.00     0.124 S 
ATOM     95  O   UNL A   1      34.883  31.027  29.204  1.00  0.00    -0.237 OA
ATOM     96  O   UNL A   1      36.345  32.335  27.696  1.00  0.00    -0.237 OA
ATOM     97  O   UNL A   1      35.111  30.384  26.836  1.00  0.00    -0.744 OA
ENDBRANCH  93  94
ENDBRANCH  61  86
BRANCH  73  98
ATOM     98  C   UNL A   1      44.793  27.090  32.440  1.00  0.00     0.058 A 
ATOM     99  C   UNL A   1      44.646  27.391  33.807  1.00  0.00     0.135 A 
ATOM    100  C   UNL A   1      44.549  25.762  32.057  1.00  0.00     0.135 A 
ATOM    101  F   UNL A   1      44.745  28.653  34.245  1.00  0.00    -0.206 F 
ATOM    102  C   UNL A   1      44.313  26.414  34.751  1.00  0.00     0.059 A 
ATOM    103  C   UNL A   1      44.185  24.779  32.974  1.00  0.00     0.059 A 
ATOM    104  F   UNL A   1      44.597  25.420  30.760  1.00  0.00    -0.206 F 
ATOM    105  C   UNL A   1      44.083  25.109  34.323  1.00  0.00     0.060 A 
BRANCH 105 106
ATOM    106  S   UNL A   1      43.604  23.853  35.530  1.00  0.00     0.124 S 
ATOM    107  O   UNL A   1      44.146  22.635  34.939  1.00  0.00    -0.237 OA
ATOM    108  O   UNL A   1      44.266  24.315  36.747  1.00  0.00    -0.237 OA
ATOM    109  O   UNL A   1      42.146  23.939  35.554  1.00  0.00    -0.744 OA
ENDBRANCH 105 106
ENDBRANCH  73  98
ENDBRANCH  47  48
ENDBRANCH  39  42
ENDBRANCH  37  38
ENDBRANCH  36  37
ENDBRANCH   1  36
TORSDOF 19
ENDMDL
