MODEL 1
REMARK VINA RESULT:     -12.6      0.000      0.000
REMARK SMILES CC1(C)[C@@]2(C(=O)NCCCCCCNC(=O)c3ccc(-c4c5nc(c(-c6c(F)cc(S(=O)(=O)[O-])cc6F)c6ccc([nH]6)c(-c6c(F)cc(S(=O)(=O)[O-])cc6F)c6nc(c(-c7c(F)cc(S(=O)(=O)[O-])cc7F)c7ccc4[nH]7)C=C6)C=C5)cc3)CC[C@]1(C)/C(=N/NC(=O)c1ccc(Cl)cc1)C2
REMARK SMILES IDX 11 1 10 2 9 3 8 4 7 5 5 6 6 7 4 9 1 10 2 11 3 12 85 13 83 14
REMARK SMILES IDX 99 15 84 16 86 17 87 18 88 19 89 20 90 21 91 23 92 24 93 25
REMARK SMILES IDX 98 26 94 27 97 28 95 29 96 30 12 31 13 32 14 33 15 34 16 36
REMARK SMILES IDX 17 37 18 38 82 39 19 40 81 41 20 42 21 43 22 44 75 45 23 46
REMARK SMILES IDX 80 47 74 48 76 49 24 50 79 51 73 52 72 53 25 55 59 56 38 57
REMARK SMILES IDX 58 58 39 59 42 60 57 61 77 62 40 63 41 64 56 66 78 67 43 68
REMARK SMILES IDX 26 69 27 70 36 71 28 72 29 73 35 74 37 75 30 76 31 77 32 78
REMARK SMILES IDX 33 79 34 80 60 81 61 82 70 83 62 84 63 85 69 86 71 87 64 88
REMARK SMILES IDX 65 89 66 90 67 91 68 92 44 93 45 94 54 95 46 96 47 97 53 98
REMARK SMILES IDX 55 99 48 100 49 101 50 102 51 103 52 104
REMARK H PARENT 7 8 89 22 14 35 76 54 42 65
REMARK Flexibility Score: inf
ROOT
ATOM      1  C   UNL A   1      41.935  21.682  27.795  1.00  0.00     0.002 C 
ENDROOT
BRANCH   1   2
ATOM      2  C   UNL A   1      40.486  21.962  27.380  1.00  0.00     0.002 C 
BRANCH   2   3
ATOM      3  C   UNL A   1      39.987  21.231  26.123  1.00  0.00     0.021 C 
BRANCH   3   4
ATOM      4  C   UNL A   1      38.505  21.394  25.774  1.00  0.00     0.116 C 
BRANCH   4   5
ATOM      5  N   UNL A   1      37.982  22.733  25.989  1.00  0.00    -0.356 N 
ATOM      6  C   UNL A   1      36.737  23.274  25.915  1.00  0.00     0.227 C 
ATOM      7  O   UNL A   1      36.605  24.386  26.433  1.00  0.00    -0.274 OA
ATOM      8  H   UNL A   1      38.674  23.385  26.244  1.00  0.00     0.163 HD
BRANCH   6   9
ATOM      9  C   UNL A   1      35.575  22.603  25.179  1.00  0.00     0.060 C 
ATOM     10  C   UNL A   1      34.362  21.603  27.282  1.00  0.00     0.013 C 
ATOM     11  C   UNL A   1      34.236  22.508  26.029  1.00  0.00    -0.010 C 
ATOM     12  C   UNL A   1      33.587  23.839  26.477  1.00  0.00     0.013 C 
ATOM     13  C   UNL A   1      33.462  21.856  24.847  1.00  0.00     0.014 C 
ATOM     14  C   UNL A   1      35.772  21.130  24.735  1.00  0.00     0.019 C 
ATOM     15  C   UNL A   1      35.145  23.422  23.940  1.00  0.00     0.071 C 
ATOM     16  C   UNL A   1      34.332  20.629  24.494  1.00  0.00     0.014 C 
ATOM     17  C   UNL A   1      31.996  21.529  25.046  1.00  0.00     0.018 C 
ATOM     18  C   UNL A   1      33.766  22.879  23.727  1.00  0.00     0.046 C 
ATOM     19  N   UNL A   1      32.916  23.066  22.773  1.00  0.00    -0.181 NA
BRANCH  19  20
ATOM     20  N   UNL A   1      33.024  23.829  21.657  1.00  0.00    -0.243 N 
ATOM     21  C   UNL A   1      32.860  25.145  21.286  1.00  0.00     0.271 C 
ATOM     22  H   UNL A   1      33.302  23.282  20.886  1.00  0.00     0.194 HD
ATOM     23  O   UNL A   1      32.941  25.448  20.093  1.00  0.00    -0.267 OA
BRANCH  21  24
ATOM     24  C   UNL A   1      32.542  26.237  22.201  1.00  0.00     0.041 A 
ATOM     25  C   UNL A   1      31.319  26.907  22.095  1.00  0.00     0.015 A 
ATOM     26  C   UNL A   1      33.545  26.738  23.036  1.00  0.00     0.015 A 
ATOM     27  C   UNL A   1      31.051  27.996  22.931  1.00  0.00     0.021 A 
ATOM     28  C   UNL A   1      33.256  27.799  23.899  1.00  0.00     0.021 A 
ATOM     29  C   UNL A   1      32.006  28.409  23.858  1.00  0.00     0.041 A 
ATOM     30  Cl  UNL A   1      31.650  29.681  24.960  1.00  0.00    -0.084 Cl
ENDBRANCH  21  24
ENDBRANCH  19  20
ENDBRANCH   6   9
ENDBRANCH   4   5
ENDBRANCH   3   4
ENDBRANCH   2   3
ENDBRANCH   1   2
BRANCH   1  31
ATOM     31  C   UNL A   1      42.618  22.762  28.641  1.00  0.00     0.021 C 
BRANCH  31  32
ATOM     32  C   UNL A   1      43.664  23.610  27.915  1.00  0.00     0.116 C 
BRANCH  32  33
ATOM     33  N   UNL A   1      43.187  24.080  26.624  1.00  0.00    -0.352 N 
ATOM     34  C   UNL A   1      42.352  25.138  26.358  1.00  0.00     0.251 C 
ATOM     35  H   UNL A   1      43.502  23.575  25.840  1.00  0.00     0.163 HD
ATOM     36  O   UNL A   1      41.861  25.274  25.236  1.00  0.00    -0.269 OA
BRANCH  34  37
ATOM     37  C   UNL A   1      42.031  26.109  27.427  1.00  0.00     0.039 A 
ATOM     38  C   UNL A   1      40.918  25.889  28.241  1.00  0.00     0.014 A 
ATOM     39  C   UNL A   1      42.832  27.240  27.619  1.00  0.00     0.014 A 
ATOM     40  C   UNL A   1      40.637  26.775  29.286  1.00  0.00     0.010 A 
ATOM     41  C   UNL A   1      42.580  28.093  28.693  1.00  0.00     0.010 A 
ATOM     42  C   UNL A   1      41.479  27.872  29.534  1.00  0.00    -0.014 A 
BRANCH  42  43
ATOM     43  C   UNL A   1      41.219  28.800  30.666  1.00  0.00     0.031 A 
ATOM     44  C   UNL A   1      42.032  28.700  31.929  1.00  0.00     0.074 A 
ATOM     45  C   UNL A   1      40.210  29.691  30.585  1.00  0.00     0.049 A 
ATOM     46  N   UNL A   1      41.911  29.373  33.045  1.00  0.00    -0.248 NA
ATOM     47  C   UNL A   1      43.105  27.693  31.948  1.00  0.00     0.031 C 
ATOM     48  C   UNL A   1      39.316  29.853  29.437  1.00  0.00     0.029 A 
ATOM     49  N   UNL A   1      39.758  30.617  31.491  1.00  0.00    -0.354 N 
ATOM     50  C   UNL A   1      42.875  28.860  33.904  1.00  0.00     0.074 A 
ATOM     51  C   UNL A   1      43.549  27.794  33.194  1.00  0.00     0.031 C 
ATOM     52  C   UNL A   1      38.430  30.827  29.705  1.00  0.00     0.029 A 
ATOM     53  C   UNL A   1      38.675  31.340  31.050  1.00  0.00     0.049 A 
ATOM     54  H   UNL A   1      40.171  30.753  32.375  1.00  0.00     0.167 HD
ATOM     55  C   UNL A   1      43.184  29.252  35.163  1.00  0.00     0.037 A 
ATOM     56  C   UNL A   1      37.956  32.303  31.659  1.00  0.00     0.037 A 
ATOM     57  C   UNL A   1      42.539  30.338  35.854  1.00  0.00     0.049 A 
ATOM     58  C   UNL A   1      38.340  32.748  33.043  1.00  0.00     0.074 A 
ATOM     59  C   UNL A   1      42.831  30.858  37.103  1.00  0.00     0.029 A 
ATOM     60  N   UNL A   1      41.473  31.073  35.355  1.00  0.00    -0.354 N 
ATOM     61  N   UNL A   1      39.296  32.294  33.816  1.00  0.00    -0.248 NA
ATOM     62  C   UNL A   1      37.556  33.841  33.634  1.00  0.00     0.031 C 
ATOM     63  C   UNL A   1      41.922  31.886  37.374  1.00  0.00     0.029 A 
ATOM     64  C   UNL A   1      41.087  32.032  36.278  1.00  0.00     0.049 A 
ATOM     65  H   UNL A   1      41.054  30.934  34.477  1.00  0.00     0.167 HD
ATOM     66  C   UNL A   1      39.242  33.057  34.977  1.00  0.00     0.074 A 
ATOM     67  C   UNL A   1      38.165  34.010  34.800  1.00  0.00     0.031 C 
ATOM     68  C   UNL A   1      40.015  32.976  36.088  1.00  0.00     0.037 A 
BRANCH  55  69
ATOM     69  C   UNL A   1      44.276  28.507  35.877  1.00  0.00     0.058 A 
ATOM     70  C   UNL A   1      45.623  28.886  35.762  1.00  0.00     0.135 A 
ATOM     71  C   UNL A   1      43.970  27.425  36.719  1.00  0.00     0.135 A 
ATOM     72  F   UNL A   1      45.972  29.903  34.959  1.00  0.00    -0.206 F 
ATOM     73  C   UNL A   1      46.631  28.204  36.437  1.00  0.00     0.059 A 
ATOM     74  C   UNL A   1      44.960  26.744  37.422  1.00  0.00     0.059 A 
ATOM     75  F   UNL A   1      42.698  27.021  36.865  1.00  0.00    -0.206 F 
ATOM     76  C   UNL A   1      46.289  27.133  37.264  1.00  0.00     0.060 A 
BRANCH  76  77
ATOM     77  S   UNL A   1      47.605  26.264  38.141  1.00  0.00     0.124 S 
ATOM     78  O   UNL A   1      47.973  25.238  37.169  1.00  0.00    -0.237 OA
ATOM     79  O   UNL A   1      48.593  27.319  38.350  1.00  0.00    -0.237 OA
ATOM     80  O   UNL A   1      46.946  25.778  39.348  1.00  0.00    -0.744 OA
ENDBRANCH  76  77
ENDBRANCH  55  69
BRANCH  56  81
ATOM     81  C   UNL A   1      36.814  32.932  30.944  1.00  0.00     0.058 A 
ATOM     82  C   UNL A   1      35.491  32.640  31.303  1.00  0.00     0.135 A 
ATOM     83  C   UNL A   1      37.025  33.861  29.913  1.00  0.00     0.135 A 
ATOM     84  F   UNL A   1      35.241  31.753  32.277  1.00  0.00    -0.206 F 
ATOM     85  C   UNL A   1      34.413  33.245  30.664  1.00  0.00     0.059 A 
ATOM     86  C   UNL A   1      35.964  34.493  29.272  1.00  0.00     0.059 A 
ATOM     87  F   UNL A   1      38.274  34.185  29.544  1.00  0.00    -0.206 F 
ATOM     88  C   UNL A   1      34.661  34.174  29.653  1.00  0.00     0.060 A 
BRANCH  88  89
ATOM     89  S   UNL A   1      33.258  35.013  28.882  1.00  0.00     0.124 S 
ATOM     90  O   UNL A   1      32.386  35.241  30.028  1.00  0.00    -0.237 OA
ATOM     91  O   UNL A   1      33.886  36.199  28.309  1.00  0.00    -0.237 OA
ATOM     92  O   UNL A   1      32.781  34.036  27.907  1.00  0.00    -0.744 OA
ENDBRANCH  88  89
ENDBRANCH  56  81
BRANCH  68  93
ATOM     93  C   UNL A   1      39.744  33.957  37.192  1.00  0.00     0.058 A 
ATOM     94  C   UNL A   1      38.963  33.612  38.306  1.00  0.00     0.135 A 
ATOM     95  C   UNL A   1      40.320  35.238  37.164  1.00  0.00     0.135 A 
ATOM     96  F   UNL A   1      38.386  32.403  38.377  1.00  0.00    -0.206 F 
ATOM     97  C   UNL A   1      38.748  34.509  39.347  1.00  0.00     0.059 A 
ATOM     98  C   UNL A   1      40.135  36.143  38.204  1.00  0.00     0.059 A 
ATOM     99  F   UNL A   1      41.084  35.612  36.125  1.00  0.00    -0.206 F 
ATOM    100  C   UNL A   1      39.339  35.773  39.287  1.00  0.00     0.060 A 
BRANCH 100 101
ATOM    101  S   UNL A   1      39.082  36.918  40.660  1.00  0.00     0.124 S 
ATOM    102  O   UNL A   1      38.285  37.963  40.024  1.00  0.00    -0.237 OA
ATOM    103  O   UNL A   1      38.378  36.090  41.633  1.00  0.00    -0.237 OA
ATOM    104  O   UNL A   1      40.438  37.304  41.038  1.00  0.00    -0.744 OA
ENDBRANCH 100 101
ENDBRANCH  68  93
ENDBRANCH  42  43
ENDBRANCH  34  37
ENDBRANCH  32  33
ENDBRANCH  31  32
ENDBRANCH   1  31
TORSDOF 18
ENDMDL
MODEL 2
REMARK VINA RESULT:     -12.3      6.227     11.875
REMARK SMILES CC1(C)[C@@]2(C(=O)NCCCCCCNC(=O)c3ccc(-c4c5nc(c(-c6c(F)cc(S(=O)(=O)[O-])cc6F)c6ccc([nH]6)c(-c6c(F)cc(S(=O)(=O)[O-])cc6F)c6nc(c(-c7c(F)cc(S(=O)(=O)[O-])cc7F)c7ccc4[nH]7)C=C6)C=C5)cc3)CC[C@]1(C)/C(=N/NC(=O)c1ccc(Cl)cc1)C2
REMARK SMILES IDX 11 1 10 2 9 3 8 4 7 5 5 6 6 7 4 9 1 10 2 11 3 12 85 13 83 14
REMARK SMILES IDX 99 15 84 16 86 17 87 18 88 19 89 20 90 21 91 23 92 24 93 25
REMARK SMILES IDX 98 26 94 27 97 28 95 29 96 30 12 31 13 32 14 33 15 34 16 36
REMARK SMILES IDX 17 37 18 38 82 39 19 40 81 41 20 42 21 43 22 44 75 45 23 46
REMARK SMILES IDX 80 47 74 48 76 49 24 50 79 51 73 52 72 53 25 55 59 56 38 57
REMARK SMILES IDX 58 58 39 59 42 60 57 61 77 62 40 63 41 64 56 66 78 67 43 68
REMARK SMILES IDX 26 69 27 70 36 71 28 72 29 73 35 74 37 75 30 76 31 77 32 78
REMARK SMILES IDX 33 79 34 80 60 81 61 82 70 83 62 84 63 85 69 86 71 87 64 88
REMARK SMILES IDX 65 89 66 90 67 91 68 92 44 93 45 94 54 95 46 96 47 97 53 98
REMARK SMILES IDX 55 99 48 100 49 101 50 102 51 103 52 104
REMARK H PARENT 7 8 89 22 14 35 76 54 42 65
REMARK Flexibility Score: inf
ROOT
ATOM      1  C   UNL A   1      34.962  32.834  28.812  1.00  0.00     0.002 C 
ENDROOT
BRANCH   1   2
ATOM      2  C   UNL A   1      35.239  31.875  27.649  1.00  0.00     0.002 C 
BRANCH   2   3
ATOM      3  C   UNL A   1      35.014  30.381  27.933  1.00  0.00     0.021 C 
BRANCH   3   4
ATOM      4  C   UNL A   1      33.871  29.701  27.173  1.00  0.00     0.116 C 
BRANCH   4   5
ATOM      5  N   UNL A   1      34.042  29.673  25.730  1.00  0.00    -0.356 N 
ATOM      6  C   UNL A   1      33.555  28.873  24.746  1.00  0.00     0.227 C 
ATOM      7  O   UNL A   1      33.682  29.301  23.596  1.00  0.00    -0.274 OA
ATOM      8  H   UNL A   1      34.637  30.383  25.395  1.00  0.00     0.163 HD
BRANCH   6   9
ATOM      9  C   UNL A   1      32.946  27.495  25.011  1.00  0.00     0.060 C 
ATOM     10  C   UNL A   1      31.071  28.256  26.684  1.00  0.00     0.013 C 
ATOM     11  C   UNL A   1      31.396  27.524  25.356  1.00  0.00    -0.010 C 
ATOM     12  C   UNL A   1      30.440  28.076  24.272  1.00  0.00     0.013 C 
ATOM     13  C   UNL A   1      31.326  25.972  25.453  1.00  0.00     0.014 C 
ATOM     14  C   UNL A   1      33.519  26.684  26.203  1.00  0.00     0.019 C 
ATOM     15  C   UNL A   1      33.006  26.600  23.752  1.00  0.00     0.071 C 
ATOM     16  C   UNL A   1      32.421  25.637  26.491  1.00  0.00     0.014 C 
ATOM     17  C   UNL A   1      29.985  25.333  25.750  1.00  0.00     0.018 C 
ATOM     18  C   UNL A   1      31.956  25.588  24.092  1.00  0.00     0.046 C 
ATOM     19  N   UNL A   1      31.604  24.496  23.501  1.00  0.00    -0.181 NA
BRANCH  19  20
ATOM     20  N   UNL A   1      32.094  23.928  22.370  1.00  0.00    -0.243 N 
ATOM     21  C   UNL A   1      33.204  23.221  21.968  1.00  0.00     0.271 C 
ATOM     22  H   UNL A   1      31.473  24.061  21.617  1.00  0.00     0.194 HD
ATOM     23  O   UNL A   1      33.353  22.967  20.771  1.00  0.00    -0.267 OA
BRANCH  21  24
ATOM     24  C   UNL A   1      34.276  22.773  22.853  1.00  0.00     0.041 A 
ATOM     25  C   UNL A   1      33.989  21.930  23.932  1.00  0.00     0.015 A 
ATOM     26  C   UNL A   1      35.541  23.356  22.737  1.00  0.00     0.015 A 
ATOM     27  C   UNL A   1      35.011  21.562  24.814  1.00  0.00     0.021 A 
ATOM     28  C   UNL A   1      36.567  22.951  23.594  1.00  0.00     0.021 A 
ATOM     29  C   UNL A   1      36.304  22.041  24.614  1.00  0.00     0.041 A 
ATOM     30  Cl  UNL A   1      37.589  21.514  25.630  1.00  0.00    -0.084 Cl
ENDBRANCH  21  24
ENDBRANCH  19  20
ENDBRANCH   6   9
ENDBRANCH   4   5
ENDBRANCH   3   4
ENDBRANCH   2   3
ENDBRANCH   1   2
BRANCH   1  31
ATOM     31  C   UNL A   1      36.110  33.768  29.210  1.00  0.00     0.021 C 
BRANCH  31  32
ATOM     32  C   UNL A   1      36.916  33.343  30.439  1.00  0.00     0.116 C 
BRANCH  32  33
ATOM     33  N   UNL A   1      36.308  32.216  31.128  1.00  0.00    -0.352 N 
ATOM     34  C   UNL A   1      36.729  30.908  31.157  1.00  0.00     0.251 C 
ATOM     35  H   UNL A   1      35.490  32.415  31.639  1.00  0.00     0.163 HD
ATOM     36  O   UNL A   1      35.988  30.028  31.599  1.00  0.00    -0.269 OA
BRANCH  34  37
ATOM     37  C   UNL A   1      38.070  30.555  30.644  1.00  0.00     0.039 A 
ATOM     38  C   UNL A   1      39.117  30.347  31.546  1.00  0.00     0.014 A 
ATOM     39  C   UNL A   1      38.292  30.435  29.268  1.00  0.00     0.014 A 
ATOM     40  C   UNL A   1      40.375  29.964  31.072  1.00  0.00     0.010 A 
ATOM     41  C   UNL A   1      39.533  30.003  28.801  1.00  0.00     0.010 A 
ATOM     42  C   UNL A   1      40.588  29.767  29.697  1.00  0.00    -0.014 A 
BRANCH  42  43
ATOM     43  C   UNL A   1      41.907  29.319  29.179  1.00  0.00     0.031 A 
ATOM     44  C   UNL A   1      43.039  30.300  29.041  1.00  0.00     0.074 A 
ATOM     45  C   UNL A   1      42.069  28.044  28.770  1.00  0.00     0.049 A 
ATOM     46  N   UNL A   1      44.238  30.115  28.550  1.00  0.00    -0.248 NA
ATOM     47  C   UNL A   1      42.782  31.677  29.494  1.00  0.00     0.031 C 
ATOM     48  C   UNL A   1      41.035  27.008  28.803  1.00  0.00     0.029 A 
ATOM     49  N   UNL A   1      43.160  27.407  28.234  1.00  0.00    -0.354 N 
ATOM     50  C   UNL A   1      44.869  31.352  28.613  1.00  0.00     0.074 A 
ATOM     51  C   UNL A   1      43.909  32.288  29.157  1.00  0.00     0.031 C 
ATOM     52  C   UNL A   1      41.544  25.864  28.317  1.00  0.00     0.029 A 
ATOM     53  C   UNL A   1      42.930  26.089  27.916  1.00  0.00     0.049 A 
ATOM     54  H   UNL A   1      44.027  27.851  28.090  1.00  0.00     0.167 HD
ATOM     55  C   UNL A   1      46.139  31.674  28.267  1.00  0.00     0.037 A 
ATOM     56  C   UNL A   1      43.740  25.167  27.360  1.00  0.00     0.037 A 
ATOM     57  C   UNL A   1      47.104  30.734  27.762  1.00  0.00     0.049 A 
ATOM     58  C   UNL A   1      45.156  25.538  27.017  1.00  0.00     0.074 A 
ATOM     59  C   UNL A   1      48.436  30.950  27.453  1.00  0.00     0.029 A 
ATOM     60  N   UNL A   1      46.844  29.398  27.493  1.00  0.00    -0.354 N 
ATOM     61  N   UNL A   1      45.755  26.697  27.144  1.00  0.00    -0.248 NA
ATOM     62  C   UNL A   1      46.010  24.476  26.466  1.00  0.00     0.031 C 
ATOM     63  C   UNL A   1      48.973  29.753  26.966  1.00  0.00     0.029 A 
ATOM     64  C   UNL A   1      47.986  28.781  27.008  1.00  0.00     0.049 A 
ATOM     65  H   UNL A   1      45.976  28.954  27.627  1.00  0.00     0.167 HD
ATOM     66  C   UNL A   1      47.061  26.500  26.706  1.00  0.00     0.074 A 
ATOM     67  C   UNL A   1      47.167  25.108  26.323  1.00  0.00     0.031 C 
ATOM     68  C   UNL A   1      48.079  27.393  26.632  1.00  0.00     0.037 A 
BRANCH  55  69
ATOM     69  C   UNL A   1      46.562  33.107  28.430  1.00  0.00     0.058 A 
ATOM     70  C   UNL A   1      47.166  33.566  29.612  1.00  0.00     0.135 A 
ATOM     71  C   UNL A   1      46.402  34.023  27.378  1.00  0.00     0.135 A 
ATOM     72  F   UNL A   1      47.329  32.735  30.654  1.00  0.00    -0.206 F 
ATOM     73  C   UNL A   1      47.572  34.889  29.755  1.00  0.00     0.059 A 
ATOM     74  C   UNL A   1      46.823  35.345  27.490  1.00  0.00     0.059 A 
ATOM     75  F   UNL A   1      45.831  33.637  26.226  1.00  0.00    -0.206 F 
ATOM     76  C   UNL A   1      47.394  35.772  28.688  1.00  0.00     0.060 A 
BRANCH  76  77
ATOM     77  S   UNL A   1      47.935  37.483  28.882  1.00  0.00     0.124 S 
ATOM     78  O   UNL A   1      47.809  37.984  27.516  1.00  0.00    -0.237 OA
ATOM     79  O   UNL A   1      46.967  38.011  29.841  1.00  0.00    -0.237 OA
ATOM     80  O   UNL A   1      49.299  37.354  29.381  1.00  0.00    -0.744 OA
ENDBRANCH  76  77
ENDBRANCH  55  69
BRANCH  56  81
ATOM     81  C   UNL A   1      43.232  23.791  27.120  1.00  0.00     0.058 A 
ATOM     82  C   UNL A   1      42.834  23.383  25.839  1.00  0.00     0.135 A 
ATOM     83  C   UNL A   1      43.167  22.849  28.159  1.00  0.00     0.135 A 
ATOM     84  F   UNL A   1      42.872  24.251  24.818  1.00  0.00    -0.206 F 
ATOM     85  C   UNL A   1      42.387  22.088  25.594  1.00  0.00     0.059 A 
ATOM     86  C   UNL A   1      42.741  21.543  27.935  1.00  0.00     0.059 A 
ATOM     87  F   UNL A   1      43.551  23.188  29.399  1.00  0.00    -0.206 F 
ATOM     88  C   UNL A   1      42.348  21.174  26.648  1.00  0.00     0.060 A 
BRANCH  88  89
ATOM     89  S   UNL A   1      41.840  19.475  26.306  1.00  0.00     0.124 S 
ATOM     90  O   UNL A   1      42.605  19.177  25.101  1.00  0.00    -0.237 OA
ATOM     91  O   UNL A   1      42.259  18.778  27.518  1.00  0.00    -0.237 OA
ATOM     92  O   UNL A   1      40.395  19.589  26.127  1.00  0.00    -0.744 OA
ENDBRANCH  88  89
ENDBRANCH  56  81
BRANCH  68  93
ATOM     93  C   UNL A   1      49.405  26.890  26.138  1.00  0.00     0.058 A 
ATOM     94  C   UNL A   1      49.823  27.100  24.815  1.00  0.00     0.135 A 
ATOM     95  C   UNL A   1      50.292  26.243  27.014  1.00  0.00     0.135 A 
ATOM     96  F   UNL A   1      49.010  27.708  23.938  1.00  0.00    -0.206 F 
ATOM     97  C   UNL A   1      51.070  26.669  24.372  1.00  0.00     0.059 A 
ATOM     98  C   UNL A   1      51.551  25.823  26.598  1.00  0.00     0.059 A 
ATOM     99  F   UNL A   1      49.942  26.028  28.292  1.00  0.00    -0.206 F 
ATOM    100  C   UNL A   1      51.927  26.031  25.271  1.00  0.00     0.060 A 
BRANCH 100 101
ATOM    101  S   UNL A   1      53.556  25.506  24.695  1.00  0.00     0.124 S 
ATOM    102  O   UNL A   1      54.417  26.529  25.279  1.00  0.00    -0.237 OA
ATOM    103  O   UNL A   1      53.678  24.171  25.270  1.00  0.00    -0.237 OA
ATOM    104  O   UNL A   1      53.430  25.546  23.241  1.00  0.00    -0.744 OA
ENDBRANCH 100 101
ENDBRANCH  68  93
ENDBRANCH  42  43
ENDBRANCH  34  37
ENDBRANCH  32  33
ENDBRANCH  31  32
ENDBRANCH   1  31
TORSDOF 18
ENDMDL
MODEL 3
REMARK VINA RESULT:     -12.2      1.061      2.034
REMARK SMILES CC1(C)[C@@]2(C(=O)NCCCCCCNC(=O)c3ccc(-c4c5nc(c(-c6c(F)cc(S(=O)(=O)[O-])cc6F)c6ccc([nH]6)c(-c6c(F)cc(S(=O)(=O)[O-])cc6F)c6nc(c(-c7c(F)cc(S(=O)(=O)[O-])cc7F)c7ccc4[nH]7)C=C6)C=C5)cc3)CC[C@]1(C)/C(=N/NC(=O)c1ccc(Cl)cc1)C2
REMARK SMILES IDX 11 1 10 2 9 3 8 4 7 5 5 6 6 7 4 9 1 10 2 11 3 12 85 13 83 14
REMARK SMILES IDX 99 15 84 16 86 17 87 18 88 19 89 20 90 21 91 23 92 24 93 25
REMARK SMILES IDX 98 26 94 27 97 28 95 29 96 30 12 31 13 32 14 33 15 34 16 36
REMARK SMILES IDX 17 37 18 38 82 39 19 40 81 41 20 42 21 43 22 44 75 45 23 46
REMARK SMILES IDX 80 47 74 48 76 49 24 50 79 51 73 52 72 53 25 55 59 56 38 57
REMARK SMILES IDX 58 58 39 59 42 60 57 61 77 62 40 63 41 64 56 66 78 67 43 68
REMARK SMILES IDX 26 69 27 70 36 71 28 72 29 73 35 74 37 75 30 76 31 77 32 78
REMARK SMILES IDX 33 79 34 80 60 81 61 82 70 83 62 84 63 85 69 86 71 87 64 88
REMARK SMILES IDX 65 89 66 90 67 91 68 92 44 93 45 94 54 95 46 96 47 97 53 98
REMARK SMILES IDX 55 99 48 100 49 101 50 102 51 103 52 104
REMARK H PARENT 7 8 89 22 14 35 76 54 42 65
REMARK Flexibility Score: inf
ROOT
ATOM      1  C   UNL A   1      40.040  22.153  26.527  1.00  0.00     0.002 C 
ENDROOT
BRANCH   1   2
ATOM      2  C   UNL A   1      38.972  23.208  26.834  1.00  0.00     0.002 C 
BRANCH   2   3
ATOM      3  C   UNL A   1      38.087  23.641  25.654  1.00  0.00     0.021 C 
BRANCH   3   4
ATOM      4  C   UNL A   1      36.861  22.771  25.358  1.00  0.00     0.116 C 
BRANCH   4   5
ATOM      5  N   UNL A   1      35.818  22.841  26.367  1.00  0.00    -0.356 N 
ATOM      6  C   UNL A   1      34.462  22.762  26.318  1.00  0.00     0.227 C 
ATOM      7  O   UNL A   1      33.897  22.582  27.400  1.00  0.00    -0.274 OA
ATOM      8  H   UNL A   1      36.166  22.972  27.279  1.00  0.00     0.163 HD
BRANCH   6   9
ATOM      9  C   UNL A   1      33.658  22.951  25.030  1.00  0.00     0.060 C 
ATOM     10  C   UNL A   1      31.410  21.876  25.859  1.00  0.00     0.013 C 
ATOM     11  C   UNL A   1      32.097  23.131  25.259  1.00  0.00    -0.010 C 
ATOM     12  C   UNL A   1      31.640  24.355  26.087  1.00  0.00     0.013 C 
ATOM     13  C   UNL A   1      31.836  23.332  23.737  1.00  0.00     0.014 C 
ATOM     14  C   UNL A   1      33.694  21.796  23.995  1.00  0.00     0.019 C 
ATOM     15  C   UNL A   1      34.058  24.256  24.304  1.00  0.00     0.071 C 
ATOM     16  C   UNL A   1      32.462  22.067  23.106  1.00  0.00     0.014 C 
ATOM     17  C   UNL A   1      30.416  23.603  23.284  1.00  0.00     0.018 C 
ATOM     18  C   UNL A   1      32.855  24.457  23.435  1.00  0.00     0.046 C 
ATOM     19  N   UNL A   1      32.617  25.309  22.494  1.00  0.00    -0.181 NA
BRANCH  19  20
ATOM     20  N   UNL A   1      33.406  26.298  22.005  1.00  0.00    -0.243 N 
ATOM     21  C   UNL A   1      33.750  27.594  22.318  1.00  0.00     0.271 C 
ATOM     22  H   UNL A   1      33.869  26.003  21.188  1.00  0.00     0.194 HD
ATOM     23  O   UNL A   1      34.441  28.240  21.527  1.00  0.00    -0.267 OA
BRANCH  21  24
ATOM     24  C   UNL A   1      33.315  28.308  23.515  1.00  0.00     0.041 A 
ATOM     25  C   UNL A   1      33.974  28.103  24.732  1.00  0.00     0.015 A 
ATOM     26  C   UNL A   1      32.119  29.030  23.480  1.00  0.00     0.015 A 
ATOM     27  C   UNL A   1      33.509  28.739  25.888  1.00  0.00     0.021 A 
ATOM     28  C   UNL A   1      31.684  29.699  24.627  1.00  0.00     0.021 A 
ATOM     29  C   UNL A   1      32.391  29.568  25.819  1.00  0.00     0.041 A 
ATOM     30  Cl  UNL A   1      31.870  30.436  27.211  1.00  0.00    -0.084 Cl
ENDBRANCH  21  24
ENDBRANCH  19  20
ENDBRANCH   6   9
ENDBRANCH   4   5
ENDBRANCH   3   4
ENDBRANCH   2   3
ENDBRANCH   1   2
BRANCH   1  31
ATOM     31  C   UNL A   1      41.085  21.907  27.622  1.00  0.00     0.021 C 
BRANCH  31  32
ATOM     32  C   UNL A   1      42.306  22.827  27.593  1.00  0.00     0.116 C 
BRANCH  32  33
ATOM     33  N   UNL A   1      42.386  23.591  26.358  1.00  0.00    -0.352 N 
ATOM     34  C   UNL A   1      42.121  24.925  26.164  1.00  0.00     0.251 C 
ATOM     35  H   UNL A   1      42.664  23.088  25.559  1.00  0.00     0.163 HD
ATOM     36  O   UNL A   1      42.016  25.377  25.022  1.00  0.00    -0.269 OA
BRANCH  34  37
ATOM     37  C   UNL A   1      41.948  25.819  27.330  1.00  0.00     0.039 A 
ATOM     38  C   UNL A   1      42.944  26.750  27.634  1.00  0.00     0.014 A 
ATOM     39  C   UNL A   1      40.801  25.729  28.125  1.00  0.00     0.014 A 
ATOM     40  C   UNL A   1      42.765  27.632  28.704  1.00  0.00     0.010 A 
ATOM     41  C   UNL A   1      40.601  26.643  29.160  1.00  0.00     0.010 A 
ATOM     42  C   UNL A   1      41.582  27.601  29.462  1.00  0.00    -0.014 A 
BRANCH  42  43
ATOM     43  C   UNL A   1      41.356  28.558  30.576  1.00  0.00     0.031 A 
ATOM     44  C   UNL A   1      42.189  28.474  31.827  1.00  0.00     0.074 A 
ATOM     45  C   UNL A   1      40.360  29.463  30.492  1.00  0.00     0.049 A 
ATOM     46  N   UNL A   1      42.098  29.175  32.929  1.00  0.00    -0.248 NA
ATOM     47  C   UNL A   1      43.247  27.452  31.851  1.00  0.00     0.031 C 
ATOM     48  C   UNL A   1      39.448  29.613  29.355  1.00  0.00     0.029 A 
ATOM     49  N   UNL A   1      39.937  30.416  31.384  1.00  0.00    -0.354 N 
ATOM     50  C   UNL A   1      43.069  28.666  33.783  1.00  0.00     0.074 A 
ATOM     51  C   UNL A   1      43.714  27.573  33.086  1.00  0.00     0.031 C 
ATOM     52  C   UNL A   1      38.582  30.605  29.616  1.00  0.00     0.029 A 
ATOM     53  C   UNL A   1      38.857  31.146  30.944  1.00  0.00     0.049 A 
ATOM     54  H   UNL A   1      40.367  30.565  32.257  1.00  0.00     0.167 HD
ATOM     55  C   UNL A   1      43.404  29.082  35.028  1.00  0.00     0.037 A 
ATOM     56  C   UNL A   1      38.164  32.133  31.543  1.00  0.00     0.037 A 
ATOM     57  C   UNL A   1      42.789  30.193  35.704  1.00  0.00     0.049 A 
ATOM     58  C   UNL A   1      38.578  32.603  32.910  1.00  0.00     0.074 A 
ATOM     59  C   UNL A   1      43.110  30.736  36.936  1.00  0.00     0.029 A 
ATOM     60  N   UNL A   1      41.725  30.933  35.207  1.00  0.00    -0.354 N 
ATOM     61  N   UNL A   1      39.541  32.152  33.677  1.00  0.00    -0.248 NA
ATOM     62  C   UNL A   1      37.820  33.721  33.490  1.00  0.00     0.031 C 
ATOM     63  C   UNL A   1      42.221  31.784  37.199  1.00  0.00     0.029 A 
ATOM     64  C   UNL A   1      41.369  31.918  36.114  1.00  0.00     0.049 A 
ATOM     65  H   UNL A   1      41.289  30.780  34.339  1.00  0.00     0.167 HD
ATOM     66  C   UNL A   1      39.517  32.942  34.821  1.00  0.00     0.074 A 
ATOM     67  C   UNL A   1      38.453  33.907  34.641  1.00  0.00     0.031 C 
ATOM     68  C   UNL A   1      40.309  32.874  35.920  1.00  0.00     0.037 A 
BRANCH  55  69
ATOM     69  C   UNL A   1      44.498  28.336  35.740  1.00  0.00     0.058 A 
ATOM     70  C   UNL A   1      44.220  27.248  36.583  1.00  0.00     0.135 A 
ATOM     71  C   UNL A   1      45.845  28.685  35.544  1.00  0.00     0.135 A 
ATOM     72  F   UNL A   1      42.949  26.883  36.815  1.00  0.00    -0.206 F 
ATOM     73  C   UNL A   1      45.234  26.549  37.228  1.00  0.00     0.059 A 
ATOM     74  C   UNL A   1      46.877  27.983  36.160  1.00  0.00     0.059 A 
ATOM     75  F   UNL A   1      46.167  29.716  34.747  1.00  0.00    -0.206 F 
ATOM     76  C   UNL A   1      46.561  26.926  37.011  1.00  0.00     0.060 A 
BRANCH  76  77
ATOM     77  S   UNL A   1      47.869  26.003  37.845  1.00  0.00     0.124 S 
ATOM     78  O   UNL A   1      47.106  25.258  38.844  1.00  0.00    -0.237 OA
ATOM     79  O   UNL A   1      48.434  25.207  36.759  1.00  0.00    -0.237 OA
ATOM     80  O   UNL A   1      48.740  27.048  38.371  1.00  0.00    -0.744 OA
ENDBRANCH  76  77
ENDBRANCH  55  69
BRANCH  56  81
ATOM     81  C   UNL A   1      37.019  32.763  30.834  1.00  0.00     0.058 A 
ATOM     82  C   UNL A   1      35.704  32.342  31.073  1.00  0.00     0.135 A 
ATOM     83  C   UNL A   1      37.217  33.819  29.930  1.00  0.00     0.135 A 
ATOM     84  F   UNL A   1      35.468  31.332  31.922  1.00  0.00    -0.206 F 
ATOM     85  C   UNL A   1      34.620  32.944  30.440  1.00  0.00     0.059 A 
ATOM     86  C   UNL A   1      36.148  34.449  29.300  1.00  0.00     0.059 A 
ATOM     87  F   UNL A   1      38.457  34.267  29.680  1.00  0.00    -0.206 F 
ATOM     88  C   UNL A   1      34.853  34.000  29.558  1.00  0.00     0.060 A 
BRANCH  88  89
ATOM     89  S   UNL A   1      33.437  34.827  28.800  1.00  0.00     0.124 S 
ATOM     90  O   UNL A   1      32.537  34.969  29.938  1.00  0.00    -0.237 OA
ATOM     91  O   UNL A   1      34.033  36.061  28.298  1.00  0.00    -0.237 OA
ATOM     92  O   UNL A   1      33.013  33.883  27.770  1.00  0.00    -0.744 OA
ENDBRANCH  88  89
ENDBRANCH  56  81
BRANCH  68  93
ATOM     93  C   UNL A   1      40.072  33.884  37.007  1.00  0.00     0.058 A 
ATOM     94  C   UNL A   1      40.733  35.122  37.016  1.00  0.00     0.135 A 
ATOM     95  C   UNL A   1      39.130  33.634  38.018  1.00  0.00     0.135 A 
ATOM     96  F   UNL A   1      41.647  35.406  36.075  1.00  0.00    -0.206 F 
ATOM     97  C   UNL A   1      40.481  36.072  38.001  1.00  0.00     0.059 A 
ATOM     98  C   UNL A   1      38.847  34.577  39.000  1.00  0.00     0.059 A 
ATOM     99  F   UNL A   1      38.464  32.469  38.047  1.00  0.00    -0.206 F 
ATOM    100  C   UNL A   1      39.536  35.790  38.989  1.00  0.00     0.060 A 
BRANCH 100 101
ATOM    101  S   UNL A   1      39.191  37.043  40.243  1.00  0.00     0.124 S 
ATOM    102  O   UNL A   1      40.535  37.377  40.702  1.00  0.00    -0.237 OA
ATOM    103  O   UNL A   1      38.509  38.078  39.474  1.00  0.00    -0.237 OA
ATOM    104  O   UNL A   1      38.355  36.335  41.208  1.00  0.00    -0.744 OA
ENDBRANCH 100 101
ENDBRANCH  68  93
ENDBRANCH  42  43
ENDBRANCH  34  37
ENDBRANCH  32  33
ENDBRANCH  31  32
ENDBRANCH   1  31
TORSDOF 18
ENDMDL
