MODEL 1
REMARK VINA RESULT:     -13.3      0.000      0.000
REMARK SMILES COc1ccc(C)cc1[C@@H](C)NC(=O)CC1(C(=O)NCCCCCCNC(=O)c2ccc(-c3c4nc(c(-c5c(F)cc(S(=O)(=O)[O-])cc5F)c5ccc([nH]5)c(-c5c(F)cc(S(=O)(=O)[O-])cc5F)c5nc(c(-c6c(F)cc(S(=O)(=O)[O-])cc6F)c6ccc3[nH]6)C=C5)C=C4)cc2)CCCC1
REMARK SMILES IDX 21 1 20 2 19 3 17 4 18 5 16 7 95 8 98 9 96 10 97 11 15 12
REMARK SMILES IDX 13 13 12 14 14 16 10 17 11 18 9 19 3 20 4 21 5 22 8 23 6 24
REMARK SMILES IDX 7 25 2 26 1 27 22 28 23 29 24 30 25 31 26 32 27 33 28 35
REMARK SMILES IDX 29 36 30 37 94 38 31 39 93 40 32 41 33 42 34 43 87 44 35 45
REMARK SMILES IDX 92 46 86 47 88 48 36 49 91 50 85 51 84 52 37 54 71 55 50 56
REMARK SMILES IDX 70 57 51 58 54 59 69 60 89 61 52 62 53 63 68 65 90 66 55 67
REMARK SMILES IDX 38 68 39 69 48 70 40 71 41 72 47 73 49 74 42 75 43 76 44 77
REMARK SMILES IDX 45 78 46 79 72 80 73 81 82 82 74 83 75 84 81 85 83 86 76 87
REMARK SMILES IDX 77 88 78 89 79 90 80 91 56 92 57 93 66 94 58 95 59 96 65 97
REMARK SMILES IDX 67 98 60 99 61 100 62 101 63 102 64 103
REMARK H PARENT 19 6 12 15 26 34 88 53 54 64
REMARK Flexibility Score: inf
ROOT
ATOM      1  C   UNL A   1      31.491  27.352  26.924  1.00  0.00     0.021 C 
ENDROOT
BRANCH   1   2
ATOM      2  C   UNL A   1      31.719  25.937  26.391  1.00  0.00     0.116 C 
BRANCH   2   3
ATOM      3  N   UNL A   1      31.211  25.745  25.050  1.00  0.00    -0.356 N 
ATOM      4  C   UNL A   1      31.785  25.652  23.825  1.00  0.00     0.226 C 
ATOM      5  O   UNL A   1      30.985  25.452  22.901  1.00  0.00    -0.274 OA
ATOM      6  H   UNL A   1      30.231  25.666  25.019  1.00  0.00     0.163 HD
BRANCH   4   7
ATOM      7  C   UNL A   1      33.274  25.933  23.494  1.00  0.00     0.058 C 
ATOM      8  C   UNL A   1      34.020  27.022  24.264  1.00  0.00     0.017 C 
ATOM      9  C   UNL A   1      33.328  26.454  22.035  1.00  0.00     0.017 C 
ATOM     10  C   UNL A   1      34.147  28.262  23.381  1.00  0.00     0.001 C 
ATOM     11  C   UNL A   1      33.334  27.972  22.138  1.00  0.00     0.001 C 
BRANCH   7  12
ATOM     12  C   UNL A   1      34.082  24.598  23.602  1.00  0.00     0.117 C 
BRANCH  12  13
ATOM     13  C   UNL A   1      33.611  23.419  22.756  1.00  0.00     0.221 C 
ATOM     14  N   UNL A   1      33.292  22.205  23.268  1.00  0.00    -0.349 N 
ATOM     15  H   UNL A   1      32.922  21.596  22.589  1.00  0.00     0.164 HD
ATOM     16  O   UNL A   1      33.565  23.501  21.524  1.00  0.00    -0.275 OA
BRANCH  14  17
ATOM     17  C   UNL A   1      33.369  21.588  24.596  1.00  0.00     0.113 C 
ATOM     18  C   UNL A   1      33.011  22.622  25.669  1.00  0.00     0.036 C 
BRANCH  17  19
ATOM     19  C   UNL A   1      34.767  21.022  24.831  1.00  0.00     0.016 A 
ATOM     20  C   UNL A   1      35.044  19.642  24.763  1.00  0.00     0.124 A 
ATOM     21  C   UNL A   1      36.369  19.195  24.834  1.00  0.00     0.047 A 
ATOM     22  C   UNL A   1      37.415  20.091  25.068  1.00  0.00     0.007 A 
ATOM     23  C   UNL A   1      35.834  21.903  25.113  1.00  0.00     0.013 A 
ATOM     24  C   UNL A   1      37.151  21.447  25.245  1.00  0.00    -0.051 A 
ATOM     25  C   UNL A   1      38.246  22.402  25.613  1.00  0.00     0.044 C 
BRANCH  20  26
ATOM     26  O   UNL A   1      33.966  18.801  24.651  1.00  0.00    -0.496 OA
ATOM     27  C   UNL A   1      34.228  17.427  24.384  1.00  0.00     0.278 C 
ENDBRANCH  20  26
ENDBRANCH  17  19
ENDBRANCH  14  17
ENDBRANCH  12  13
ENDBRANCH   7  12
ENDBRANCH   4   7
ENDBRANCH   2   3
ENDBRANCH   1   2
BRANCH   1  28
ATOM     28  C   UNL A   1      31.322  28.440  25.857  1.00  0.00     0.002 C 
BRANCH  28  29
ATOM     29  C   UNL A   1      32.196  29.697  26.003  1.00  0.00     0.002 C 
BRANCH  29  30
ATOM     30  C   UNL A   1      32.985  29.833  27.306  1.00  0.00     0.021 C 
BRANCH  30  31
ATOM     31  C   UNL A   1      34.493  29.705  27.133  1.00  0.00     0.116 C 
BRANCH  31  32
ATOM     32  N   UNL A   1      35.210  30.921  27.482  1.00  0.00    -0.352 N 
ATOM     33  C   UNL A   1      36.347  31.011  28.268  1.00  0.00     0.251 C 
ATOM     34  H   UNL A   1      34.851  31.765  27.123  1.00  0.00     0.163 HD
ATOM     35  O   UNL A   1      36.690  32.023  28.849  1.00  0.00    -0.269 OA
BRANCH  33  36
ATOM     36  C   UNL A   1      37.231  29.829  28.233  1.00  0.00     0.039 A 
ATOM     37  C   UNL A   1      37.312  29.068  29.406  1.00  0.00     0.014 A 
ATOM     38  C   UNL A   1      38.169  29.700  27.213  1.00  0.00     0.014 A 
ATOM     39  C   UNL A   1      38.441  28.292  29.637  1.00  0.00     0.010 A 
ATOM     40  C   UNL A   1      39.324  28.996  27.479  1.00  0.00     0.010 A 
ATOM     41  C   UNL A   1      39.479  28.337  28.709  1.00  0.00    -0.014 A 
BRANCH  41  42
ATOM     42  C   UNL A   1      40.792  27.752  28.940  1.00  0.00     0.031 A 
ATOM     43  C   UNL A   1      41.019  26.337  28.584  1.00  0.00     0.074 A 
ATOM     44  C   UNL A   1      41.806  28.537  29.362  1.00  0.00     0.049 A 
ATOM     45  N   UNL A   1      42.048  25.643  28.927  1.00  0.00    -0.248 NA
ATOM     46  C   UNL A   1      40.028  25.563  27.846  1.00  0.00     0.031 C 
ATOM     47  C   UNL A   1      43.233  28.240  29.323  1.00  0.00     0.029 A 
ATOM     48  N   UNL A   1      41.710  29.701  30.132  1.00  0.00    -0.354 N 
ATOM     49  C   UNL A   1      41.998  24.442  28.250  1.00  0.00     0.074 A 
ATOM     50  C   UNL A   1      40.680  24.413  27.667  1.00  0.00     0.031 C 
ATOM     51  C   UNL A   1      43.861  29.010  30.227  1.00  0.00     0.029 A 
ATOM     52  C   UNL A   1      42.832  29.703  30.985  1.00  0.00     0.049 A 
ATOM     53  H   UNL A   1      41.001  30.382  30.088  1.00  0.00     0.167 HD
ATOM     54  C   UNL A   1      43.136  23.691  28.171  1.00  0.00     0.037 A 
ATOM     55  C   UNL A   1      42.679  29.606  32.339  1.00  0.00     0.037 A 
ATOM     56  C   UNL A   1      44.143  24.206  29.107  1.00  0.00     0.049 A 
ATOM     57  C   UNL A   1      43.312  28.364  32.931  1.00  0.00     0.074 A 
ATOM     58  C   UNL A   1      45.248  25.028  28.953  1.00  0.00     0.029 A 
ATOM     59  N   UNL A   1      43.888  24.148  30.476  1.00  0.00    -0.354 N 
ATOM     60  N   UNL A   1      43.622  27.297  32.243  1.00  0.00    -0.248 NA
ATOM     61  C   UNL A   1      43.669  28.238  34.341  1.00  0.00     0.031 C 
ATOM     62  C   UNL A   1      45.588  25.548  30.231  1.00  0.00     0.029 A 
ATOM     63  C   UNL A   1      44.718  25.012  31.166  1.00  0.00     0.049 A 
ATOM     64  H   UNL A   1      43.208  23.572  30.895  1.00  0.00     0.167 HD
ATOM     65  C   UNL A   1      44.200  26.365  33.068  1.00  0.00     0.074 A 
ATOM     66  C   UNL A   1      44.222  27.011  34.369  1.00  0.00     0.031 C 
ATOM     67  C   UNL A   1      44.624  25.145  32.615  1.00  0.00     0.037 A 
BRANCH  54  68
ATOM     68  C   UNL A   1      43.440  22.689  27.059  1.00  0.00     0.058 A 
ATOM     69  C   UNL A   1      42.736  21.464  26.983  1.00  0.00     0.135 A 
ATOM     70  C   UNL A   1      44.471  22.807  26.102  1.00  0.00     0.135 A 
ATOM     71  F   UNL A   1      41.676  21.218  27.766  1.00  0.00    -0.206 F 
ATOM     72  C   UNL A   1      43.088  20.423  26.113  1.00  0.00     0.059 A 
ATOM     73  C   UNL A   1      44.867  21.771  25.250  1.00  0.00     0.059 A 
ATOM     74  F   UNL A   1      45.127  23.951  25.899  1.00  0.00    -0.206 F 
ATOM     75  C   UNL A   1      44.179  20.572  25.271  1.00  0.00     0.060 A 
BRANCH  75  76
ATOM     76  S   UNL A   1      44.676  19.211  24.200  1.00  0.00     0.124 S 
ATOM     77  O   UNL A   1      46.081  19.041  24.554  1.00  0.00    -0.237 OA
ATOM     78  O   UNL A   1      43.777  18.143  24.623  1.00  0.00    -0.237 OA
ATOM     79  O   UNL A   1      44.437  19.730  22.855  1.00  0.00    -0.744 OA
ENDBRANCH  75  76
ENDBRANCH  54  68
BRANCH  55  80
ATOM     80  C   UNL A   1      41.460  30.308  32.834  1.00  0.00     0.058 A 
ATOM     81  C   UNL A   1      40.328  29.517  33.119  1.00  0.00     0.135 A 
ATOM     82  C   UNL A   1      41.529  31.571  33.437  1.00  0.00     0.135 A 
ATOM     83  F   UNL A   1      40.197  28.306  32.552  1.00  0.00    -0.206 F 
ATOM     84  C   UNL A   1      39.402  29.880  34.094  1.00  0.00     0.059 A 
ATOM     85  C   UNL A   1      40.601  31.963  34.407  1.00  0.00     0.059 A 
ATOM     86  F   UNL A   1      42.576  32.377  33.201  1.00  0.00    -0.206 F 
ATOM     87  C   UNL A   1      39.588  31.077  34.781  1.00  0.00     0.060 A 
BRANCH  87  88
ATOM     88  S   UNL A   1      38.590  31.368  36.265  1.00  0.00     0.124 S 
ATOM     89  O   UNL A   1      39.529  32.075  37.129  1.00  0.00    -0.237 OA
ATOM     90  O   UNL A   1      37.488  32.175  35.741  1.00  0.00    -0.237 OA
ATOM     91  O   UNL A   1      38.227  30.023  36.693  1.00  0.00    -0.744 OA
ENDBRANCH  87  88
ENDBRANCH  55  80
BRANCH  67  92
ATOM     92  C   UNL A   1      45.083  23.985  33.477  1.00  0.00     0.058 A 
ATOM     93  C   UNL A   1      46.327  23.929  34.130  1.00  0.00     0.135 A 
ATOM     94  C   UNL A   1      44.190  22.929  33.789  1.00  0.00     0.135 A 
ATOM     95  F   UNL A   1      47.221  24.921  34.018  1.00  0.00    -0.206 F 
ATOM     96  C   UNL A   1      46.687  22.872  34.971  1.00  0.00     0.059 A 
ATOM     97  C   UNL A   1      44.506  21.898  34.671  1.00  0.00     0.059 A 
ATOM     98  F   UNL A   1      42.961  22.869  33.255  1.00  0.00    -0.206 F 
ATOM     99  C   UNL A   1      45.770  21.861  35.238  1.00  0.00     0.060 A 
BRANCH  99 100
ATOM    100  S   UNL A   1      46.196  20.536  36.383  1.00  0.00     0.124 S 
ATOM    101  O   UNL A   1      45.379  19.439  35.874  1.00  0.00    -0.237 OA
ATOM    102  O   UNL A   1      47.636  20.391  36.192  1.00  0.00    -0.237 OA
ATOM    103  O   UNL A   1      45.796  21.075  37.679  1.00  0.00    -0.744 OA
ENDBRANCH  99 100
ENDBRANCH  67  92
ENDBRANCH  41  42
ENDBRANCH  33  36
ENDBRANCH  31  32
ENDBRANCH  30  31
ENDBRANCH  29  30
ENDBRANCH  28  29
ENDBRANCH   1  28
TORSDOF 21
ENDMDL
MODEL 2
REMARK VINA RESULT:     -12.9      1.485      2.440
REMARK SMILES COc1ccc(C)cc1[C@@H](C)NC(=O)CC1(C(=O)NCCCCCCNC(=O)c2ccc(-c3c4nc(c(-c5c(F)cc(S(=O)(=O)[O-])cc5F)c5ccc([nH]5)c(-c5c(F)cc(S(=O)(=O)[O-])cc5F)c5nc(c(-c6c(F)cc(S(=O)(=O)[O-])cc6F)c6ccc3[nH]6)C=C5)C=C4)cc2)CCCC1
REMARK SMILES IDX 21 1 20 2 19 3 17 4 18 5 16 7 95 8 98 9 96 10 97 11 15 12
REMARK SMILES IDX 13 13 12 14 14 16 10 17 11 18 9 19 3 20 4 21 5 22 8 23 6 24
REMARK SMILES IDX 7 25 2 26 1 27 22 28 23 29 24 30 25 31 26 32 27 33 28 35
REMARK SMILES IDX 29 36 30 37 94 38 31 39 93 40 32 41 33 42 34 43 87 44 35 45
REMARK SMILES IDX 92 46 86 47 88 48 36 49 91 50 85 51 84 52 37 54 71 55 50 56
REMARK SMILES IDX 70 57 51 58 54 59 69 60 89 61 52 62 53 63 68 65 90 66 55 67
REMARK SMILES IDX 38 68 39 69 48 70 40 71 41 72 47 73 49 74 42 75 43 76 44 77
REMARK SMILES IDX 45 78 46 79 72 80 73 81 82 82 74 83 75 84 81 85 83 86 76 87
REMARK SMILES IDX 77 88 78 89 79 90 80 91 56 92 57 93 66 94 58 95 59 96 65 97
REMARK SMILES IDX 67 98 60 99 61 100 62 101 63 102 64 103
REMARK H PARENT 19 6 12 15 26 34 88 53 54 64
REMARK Flexibility Score: inf
ROOT
ATOM      1  C   UNL A   1      31.224  27.953  25.262  1.00  0.00     0.021 C 
ENDROOT
BRANCH   1   2
ATOM      2  C   UNL A   1      30.935  27.299  23.911  1.00  0.00     0.116 C 
BRANCH   2   3
ATOM      3  N   UNL A   1      32.109  27.179  23.073  1.00  0.00    -0.356 N 
ATOM      4  C   UNL A   1      33.025  26.202  22.860  1.00  0.00     0.226 C 
ATOM      5  O   UNL A   1      33.886  26.485  22.017  1.00  0.00    -0.274 OA
ATOM      6  H   UNL A   1      32.282  27.987  22.539  1.00  0.00     0.163 HD
BRANCH   4   7
ATOM      7  C   UNL A   1      33.163  24.892  23.679  1.00  0.00     0.058 C 
ATOM      8  C   UNL A   1      31.964  24.371  24.469  1.00  0.00     0.017 C 
ATOM      9  C   UNL A   1      34.211  25.155  24.790  1.00  0.00     0.017 C 
ATOM     10  C   UNL A   1      32.167  24.684  25.951  1.00  0.00     0.001 C 
ATOM     11  C   UNL A   1      33.415  25.538  26.028  1.00  0.00     0.001 C 
BRANCH   7  12
ATOM     12  C   UNL A   1      33.676  23.753  22.736  1.00  0.00     0.117 C 
BRANCH  12  13
ATOM     13  C   UNL A   1      34.865  22.926  23.214  1.00  0.00     0.221 C 
ATOM     14  N   UNL A   1      34.767  21.912  24.108  1.00  0.00    -0.349 N 
ATOM     15  H   UNL A   1      35.618  21.432  24.229  1.00  0.00     0.164 HD
ATOM     16  O   UNL A   1      36.014  23.197  22.848  1.00  0.00    -0.275 OA
BRANCH  14  17
ATOM     17  C   UNL A   1      33.689  21.362  24.937  1.00  0.00     0.113 C 
ATOM     18  C   UNL A   1      34.132  21.319  26.402  1.00  0.00     0.036 C 
BRANCH  17  19
ATOM     19  C   UNL A   1      33.306  19.969  24.442  1.00  0.00     0.016 A 
ATOM     20  C   UNL A   1      32.603  19.761  23.239  1.00  0.00     0.124 A 
ATOM     21  C   UNL A   1      32.416  18.459  22.760  1.00  0.00     0.047 A 
ATOM     22  C   UNL A   1      32.833  17.355  23.507  1.00  0.00     0.007 A 
ATOM     23  C   UNL A   1      33.678  18.837  25.201  1.00  0.00     0.013 A 
ATOM     24  C   UNL A   1      33.435  17.535  24.750  1.00  0.00    -0.051 A 
ATOM     25  C   UNL A   1      33.782  16.361  25.614  1.00  0.00     0.044 C 
BRANCH  20  26
ATOM     26  O   UNL A   1      32.115  20.877  22.610  1.00  0.00    -0.496 OA
ATOM     27  C   UNL A   1      31.579  20.714  21.299  1.00  0.00     0.278 C 
ENDBRANCH  20  26
ENDBRANCH  17  19
ENDBRANCH  14  17
ENDBRANCH  12  13
ENDBRANCH   7  12
ENDBRANCH   4   7
ENDBRANCH   2   3
ENDBRANCH   1   2
BRANCH   1  28
ATOM     28  C   UNL A   1      31.649  29.425  25.205  1.00  0.00     0.002 C 
BRANCH  28  29
ATOM     29  C   UNL A   1      33.159  29.709  25.136  1.00  0.00     0.002 C 
BRANCH  29  30
ATOM     30  C   UNL A   1      34.052  28.890  26.070  1.00  0.00     0.021 C 
BRANCH  30  31
ATOM     31  C   UNL A   1      34.218  29.494  27.457  1.00  0.00     0.116 C 
BRANCH  31  32
ATOM     32  N   UNL A   1      34.979  30.733  27.450  1.00  0.00    -0.352 N 
ATOM     33  C   UNL A   1      36.204  30.952  28.059  1.00  0.00     0.251 C 
ATOM     34  H   UNL A   1      34.584  31.492  26.961  1.00  0.00     0.163 HD
ATOM     35  O   UNL A   1      36.621  32.053  28.364  1.00  0.00    -0.269 OA
BRANCH  33  36
ATOM     36  C   UNL A   1      37.070  29.762  28.175  1.00  0.00     0.039 A 
ATOM     37  C   UNL A   1      37.202  29.201  29.452  1.00  0.00     0.014 A 
ATOM     38  C   UNL A   1      37.952  29.448  27.145  1.00  0.00     0.014 A 
ATOM     39  C   UNL A   1      38.331  28.450  29.751  1.00  0.00     0.010 A 
ATOM     40  C   UNL A   1      39.111  28.773  27.467  1.00  0.00     0.010 A 
ATOM     41  C   UNL A   1      39.320  28.321  28.779  1.00  0.00    -0.014 A 
BRANCH  41  42
ATOM     42  C   UNL A   1      40.637  27.755  29.039  1.00  0.00     0.031 A 
ATOM     43  C   UNL A   1      40.900  26.351  28.663  1.00  0.00     0.074 A 
ATOM     44  C   UNL A   1      41.623  28.549  29.506  1.00  0.00     0.049 A 
ATOM     45  N   UNL A   1      41.930  25.668  29.024  1.00  0.00    -0.248 NA
ATOM     46  C   UNL A   1      39.945  25.575  27.881  1.00  0.00     0.031 C 
ATOM     47  C   UNL A   1      43.056  28.277  29.505  1.00  0.00     0.029 A 
ATOM     48  N   UNL A   1      41.483  29.695  30.295  1.00  0.00    -0.354 N 
ATOM     49  C   UNL A   1      41.922  24.480  28.323  1.00  0.00     0.074 A 
ATOM     50  C   UNL A   1      40.622  24.440  27.699  1.00  0.00     0.031 C 
ATOM     51  C   UNL A   1      43.642  29.040  30.442  1.00  0.00     0.029 A 
ATOM     52  C   UNL A   1      42.579  29.700  31.181  1.00  0.00     0.049 A 
ATOM     53  H   UNL A   1      40.764  30.365  30.242  1.00  0.00     0.167 HD
ATOM     54  C   UNL A   1      43.075  23.750  28.263  1.00  0.00     0.037 A 
ATOM     55  C   UNL A   1      42.388  29.574  32.528  1.00  0.00     0.037 A 
ATOM     56  C   UNL A   1      44.044  24.264  29.240  1.00  0.00     0.049 A 
ATOM     57  C   UNL A   1      43.025  28.332  33.115  1.00  0.00     0.074 A 
ATOM     58  C   UNL A   1      45.138  25.108  29.134  1.00  0.00     0.029 A 
ATOM     59  N   UNL A   1      43.749  24.175  30.599  1.00  0.00    -0.354 N 
ATOM     60  N   UNL A   1      43.374  27.284  32.417  1.00  0.00    -0.248 NA
ATOM     61  C   UNL A   1      43.342  28.184  34.532  1.00  0.00     0.031 C 
ATOM     62  C   UNL A   1      45.430  25.609  30.432  1.00  0.00     0.029 A 
ATOM     63  C   UNL A   1      44.542  25.040  31.330  1.00  0.00     0.049 A 
ATOM     64  H   UNL A   1      43.068  23.579  30.986  1.00  0.00     0.167 HD
ATOM     65  C   UNL A   1      43.944  26.347  33.241  1.00  0.00     0.074 A 
ATOM     66  C   UNL A   1      43.915  26.967  34.554  1.00  0.00     0.031 C 
ATOM     67  C   UNL A   1      44.402  25.143  32.778  1.00  0.00     0.037 A 
BRANCH  54  68
ATOM     68  C   UNL A   1      43.430  22.776  27.142  1.00  0.00     0.058 A 
ATOM     69  C   UNL A   1      42.823  21.499  27.081  1.00  0.00     0.135 A 
ATOM     70  C   UNL A   1      44.425  22.975  26.161  1.00  0.00     0.135 A 
ATOM     71  F   UNL A   1      41.804  21.171  27.889  1.00  0.00    -0.206 F 
ATOM     72  C   UNL A   1      43.235  20.489  26.200  1.00  0.00     0.059 A 
ATOM     73  C   UNL A   1      44.881  21.974  25.298  1.00  0.00     0.059 A 
ATOM     74  F   UNL A   1      44.984  24.167  25.945  1.00  0.00    -0.206 F 
ATOM     75  C   UNL A   1      44.290  20.725  25.333  1.00  0.00     0.060 A 
BRANCH  75  76
ATOM     76  S   UNL A   1      44.867  19.407  24.247  1.00  0.00     0.124 S 
ATOM     77  O   UNL A   1      46.295  19.372  24.541  1.00  0.00    -0.237 OA
ATOM     78  O   UNL A   1      44.091  18.264  24.713  1.00  0.00    -0.237 OA
ATOM     79  O   UNL A   1      44.523  19.890  22.911  1.00  0.00    -0.744 OA
ENDBRANCH  75  76
ENDBRANCH  54  68
BRANCH  55  80
ATOM     80  C   UNL A   1      41.142  30.245  32.999  1.00  0.00     0.058 A 
ATOM     81  C   UNL A   1      41.086  31.651  32.897  1.00  0.00     0.135 A 
ATOM     82  C   UNL A   1      39.923  29.560  33.092  1.00  0.00     0.135 A 
ATOM     83  F   UNL A   1      42.224  32.363  32.827  1.00  0.00    -0.206 F 
ATOM     84  C   UNL A   1      39.885  32.330  32.713  1.00  0.00     0.059 A 
ATOM     85  C   UNL A   1      38.703  30.224  32.926  1.00  0.00     0.059 A 
ATOM     86  F   UNL A   1      39.906  28.223  33.199  1.00  0.00    -0.206 F 
ATOM     87  C   UNL A   1      38.702  31.596  32.660  1.00  0.00     0.060 A 
BRANCH  87  88
ATOM     88  S   UNL A   1      37.206  32.435  32.081  1.00  0.00     0.124 S 
ATOM     89  O   UNL A   1      37.748  33.409  31.140  1.00  0.00    -0.237 OA
ATOM     90  O   UNL A   1      36.448  31.336  31.483  1.00  0.00    -0.237 OA
ATOM     91  O   UNL A   1      36.637  32.989  33.304  1.00  0.00    -0.744 OA
ENDBRANCH  87  88
ENDBRANCH  55  80
BRANCH  67  92
ATOM     92  C   UNL A   1      44.857  23.975  33.631  1.00  0.00     0.058 A 
ATOM     93  C   UNL A   1      44.026  22.910  34.022  1.00  0.00     0.135 A 
ATOM     94  C   UNL A   1      46.226  23.825  33.967  1.00  0.00     0.135 A 
ATOM     95  F   UNL A   1      42.734  22.866  33.668  1.00  0.00    -0.206 F 
ATOM     96  C   UNL A   1      44.499  21.816  34.752  1.00  0.00     0.059 A 
ATOM     97  C   UNL A   1      46.730  22.715  34.640  1.00  0.00     0.059 A 
ATOM     98  F   UNL A   1      47.135  24.754  33.634  1.00  0.00    -0.206 F 
ATOM     99  C   UNL A   1      45.854  21.725  35.056  1.00  0.00     0.060 A 
BRANCH  99 100
ATOM    100  S   UNL A   1      46.487  20.281  35.927  1.00  0.00     0.124 S 
ATOM    101  O   UNL A   1      46.067  19.199  35.041  1.00  0.00    -0.237 OA
ATOM    102  O   UNL A   1      47.924  20.533  35.976  1.00  0.00    -0.237 OA
ATOM    103  O   UNL A   1      45.805  20.344  37.216  1.00  0.00    -0.744 OA
ENDBRANCH  99 100
ENDBRANCH  67  92
ENDBRANCH  41  42
ENDBRANCH  33  36
ENDBRANCH  31  32
ENDBRANCH  30  31
ENDBRANCH  29  30
ENDBRANCH  28  29
ENDBRANCH   1  28
TORSDOF 21
ENDMDL
MODEL 3
REMARK VINA RESULT:     -11.9      1.632      2.648
REMARK SMILES COc1ccc(C)cc1[C@@H](C)NC(=O)CC1(C(=O)NCCCCCCNC(=O)c2ccc(-c3c4nc(c(-c5c(F)cc(S(=O)(=O)[O-])cc5F)c5ccc([nH]5)c(-c5c(F)cc(S(=O)(=O)[O-])cc5F)c5nc(c(-c6c(F)cc(S(=O)(=O)[O-])cc6F)c6ccc3[nH]6)C=C5)C=C4)cc2)CCCC1
REMARK SMILES IDX 21 1 20 2 19 3 17 4 18 5 16 7 95 8 98 9 96 10 97 11 15 12
REMARK SMILES IDX 13 13 12 14 14 16 10 17 11 18 9 19 3 20 4 21 5 22 8 23 6 24
REMARK SMILES IDX 7 25 2 26 1 27 22 28 23 29 24 30 25 31 26 32 27 33 28 35
REMARK SMILES IDX 29 36 30 37 94 38 31 39 93 40 32 41 33 42 34 43 87 44 35 45
REMARK SMILES IDX 92 46 86 47 88 48 36 49 91 50 85 51 84 52 37 54 71 55 50 56
REMARK SMILES IDX 70 57 51 58 54 59 69 60 89 61 52 62 53 63 68 65 90 66 55 67
REMARK SMILES IDX 38 68 39 69 48 70 40 71 41 72 47 73 49 74 42 75 43 76 44 77
REMARK SMILES IDX 45 78 46 79 72 80 73 81 82 82 74 83 75 84 81 85 83 86 76 87
REMARK SMILES IDX 77 88 78 89 79 90 80 91 56 92 57 93 66 94 58 95 59 96 65 97
REMARK SMILES IDX 67 98 60 99 61 100 62 101 63 102 64 103
REMARK H PARENT 19 6 12 15 26 34 88 53 54 64
REMARK Flexibility Score: inf
ROOT
ATOM      1  C   UNL A   1      32.474  29.876  25.185  1.00  0.00     0.021 C 
ENDROOT
BRANCH   1   2
ATOM      2  C   UNL A   1      31.185  29.117  24.868  1.00  0.00     0.116 C 
BRANCH   2   3
ATOM      3  N   UNL A   1      31.080  28.729  23.478  1.00  0.00    -0.356 N 
ATOM      4  C   UNL A   1      30.876  27.552  22.836  1.00  0.00     0.226 C 
ATOM      5  O   UNL A   1      30.820  27.646  21.603  1.00  0.00    -0.274 OA
ATOM      6  H   UNL A   1      31.181  29.488  22.860  1.00  0.00     0.163 HD
BRANCH   4   7
ATOM      7  C   UNL A   1      30.879  26.146  23.492  1.00  0.00     0.058 C 
ATOM      8  C   UNL A   1      29.604  25.624  24.152  1.00  0.00     0.017 C 
ATOM      9  C   UNL A   1      31.877  26.197  24.677  1.00  0.00     0.017 C 
ATOM     10  C   UNL A   1      29.742  25.741  25.669  1.00  0.00     0.001 C 
ATOM     11  C   UNL A   1      31.037  26.485  25.913  1.00  0.00     0.001 C 
BRANCH   7  12
ATOM     12  C   UNL A   1      31.368  25.094  22.442  1.00  0.00     0.117 C 
BRANCH  12  13
ATOM     13  C   UNL A   1      32.873  24.942  22.246  1.00  0.00     0.221 C 
ATOM     14  N   UNL A   1      33.556  23.801  22.513  1.00  0.00    -0.349 N 
ATOM     15  H   UNL A   1      34.501  23.856  22.242  1.00  0.00     0.164 HD
ATOM     16  O   UNL A   1      33.567  25.901  21.891  1.00  0.00    -0.275 OA
BRANCH  14  17
ATOM     17  C   UNL A   1      33.216  22.506  23.110  1.00  0.00     0.113 C 
ATOM     18  C   UNL A   1      32.012  21.900  22.382  1.00  0.00     0.036 C 
BRANCH  17  19
ATOM     19  C   UNL A   1      32.921  22.677  24.599  1.00  0.00     0.016 A 
ATOM     20  C   UNL A   1      33.923  22.999  25.536  1.00  0.00     0.124 A 
ATOM     21  C   UNL A   1      33.569  23.294  26.858  1.00  0.00     0.047 A 
ATOM     22  C   UNL A   1      32.245  23.181  27.287  1.00  0.00     0.007 A 
ATOM     23  C   UNL A   1      31.596  22.524  25.066  1.00  0.00     0.013 A 
ATOM     24  C   UNL A   1      31.254  22.760  26.403  1.00  0.00    -0.051 A 
ATOM     25  C   UNL A   1      29.853  22.519  26.876  1.00  0.00     0.044 C 
BRANCH  20  26
ATOM     26  O   UNL A   1      35.218  22.981  25.084  1.00  0.00    -0.496 OA
ATOM     27  C   UNL A   1      36.210  23.593  25.902  1.00  0.00     0.278 C 
ENDBRANCH  20  26
ENDBRANCH  17  19
ENDBRANCH  14  17
ENDBRANCH  12  13
ENDBRANCH   7  12
ENDBRANCH   4   7
ENDBRANCH   2   3
ENDBRANCH   1   2
BRANCH   1  28
ATOM     28  C   UNL A   1      33.771  29.083  24.994  1.00  0.00     0.002 C 
BRANCH  28  29
ATOM     29  C   UNL A   1      34.202  28.169  26.154  1.00  0.00     0.002 C 
BRANCH  29  30
ATOM     30  C   UNL A   1      35.250  28.732  27.115  1.00  0.00     0.021 C 
BRANCH  30  31
ATOM     31  C   UNL A   1      34.748  29.886  27.971  1.00  0.00     0.116 C 
BRANCH  31  32
ATOM     32  N   UNL A   1      35.572  31.079  27.857  1.00  0.00    -0.352 N 
ATOM     33  C   UNL A   1      36.859  31.241  28.345  1.00  0.00     0.251 C 
ATOM     34  H   UNL A   1      35.177  31.847  27.384  1.00  0.00     0.163 HD
ATOM     35  O   UNL A   1      37.363  32.324  28.576  1.00  0.00    -0.269 OA
BRANCH  33  36
ATOM     36  C   UNL A   1      37.665  30.007  28.417  1.00  0.00     0.039 A 
ATOM     37  C   UNL A   1      37.798  29.415  29.680  1.00  0.00     0.014 A 
ATOM     38  C   UNL A   1      38.504  29.667  27.360  1.00  0.00     0.014 A 
ATOM     39  C   UNL A   1      38.894  28.601  29.937  1.00  0.00     0.010 A 
ATOM     40  C   UNL A   1      39.633  28.928  27.640  1.00  0.00     0.010 A 
ATOM     41  C   UNL A   1      39.851  28.440  28.938  1.00  0.00    -0.014 A 
BRANCH  41  42
ATOM     42  C   UNL A   1      41.143  27.802  29.154  1.00  0.00     0.031 A 
ATOM     43  C   UNL A   1      41.317  26.389  28.763  1.00  0.00     0.074 A 
ATOM     44  C   UNL A   1      42.184  28.539  29.594  1.00  0.00     0.049 A 
ATOM     45  N   UNL A   1      42.320  25.649  29.089  1.00  0.00    -0.248 NA
ATOM     46  C   UNL A   1      40.298  25.670  28.008  1.00  0.00     0.031 C 
ATOM     47  C   UNL A   1      43.600  28.190  29.547  1.00  0.00     0.029 A 
ATOM     48  N   UNL A   1      42.132  29.686  30.392  1.00  0.00    -0.354 N 
ATOM     49  C   UNL A   1      42.226  24.467  28.383  1.00  0.00     0.074 A 
ATOM     50  C   UNL A   1      40.907  24.501  27.800  1.00  0.00     0.031 C 
ATOM     51  C   UNL A   1      44.255  28.914  30.469  1.00  0.00     0.029 A 
ATOM     52  C   UNL A   1      43.253  29.626  31.244  1.00  0.00     0.049 A 
ATOM     53  H   UNL A   1      41.448  30.394  30.365  1.00  0.00     0.167 HD
ATOM     54  C   UNL A   1      43.335  23.677  28.284  1.00  0.00     0.037 A 
ATOM     55  C   UNL A   1      43.096  29.501  32.595  1.00  0.00     0.037 A 
ATOM     56  C   UNL A   1      44.360  24.131  29.232  1.00  0.00     0.049 A 
ATOM     57  C   UNL A   1      43.683  28.223  33.157  1.00  0.00     0.074 A 
ATOM     58  C   UNL A   1      45.495  24.916  29.097  1.00  0.00     0.029 A 
ATOM     59  N   UNL A   1      44.103  24.050  30.599  1.00  0.00    -0.354 N 
ATOM     60  N   UNL A   1      43.953  27.163  32.443  1.00  0.00    -0.248 NA
ATOM     61  C   UNL A   1      44.035  28.050  34.563  1.00  0.00     0.031 C 
ATOM     62  C   UNL A   1      45.853  25.392  30.387  1.00  0.00     0.029 A 
ATOM     63  C   UNL A   1      44.964  24.866  31.309  1.00  0.00     0.049 A 
ATOM     64  H   UNL A   1      43.403  23.489  31.005  1.00  0.00     0.167 HD
ATOM     65  C   UNL A   1      44.497  26.190  33.245  1.00  0.00     0.074 A 
ATOM     66  C   UNL A   1      44.542  26.803  34.561  1.00  0.00     0.031 C 
ATOM     67  C   UNL A   1      44.875  24.967  32.762  1.00  0.00     0.037 A 
BRANCH  54  68
ATOM     68  C   UNL A   1      43.602  22.692  27.148  1.00  0.00     0.058 A 
ATOM     69  C   UNL A   1      42.818  21.522  27.012  1.00  0.00     0.135 A 
ATOM     70  C   UNL A   1      44.666  22.768  26.224  1.00  0.00     0.135 A 
ATOM     71  F   UNL A   1      41.721  21.326  27.758  1.00  0.00    -0.206 F 
ATOM     72  C   UNL A   1      43.123  20.487  26.118  1.00  0.00     0.059 A 
ATOM     73  C   UNL A   1      45.015  21.734  25.349  1.00  0.00     0.059 A 
ATOM     74  F   UNL A   1      45.406  23.869  26.077  1.00  0.00    -0.206 F 
ATOM     75  C   UNL A   1      44.247  20.586  25.311  1.00  0.00     0.060 A 
BRANCH  75  76
ATOM     76  S   UNL A   1      44.680  19.229  24.209  1.00  0.00     0.124 S 
ATOM     77  O   UNL A   1      43.754  18.183  24.632  1.00  0.00    -0.237 OA
ATOM     78  O   UNL A   1      44.429  19.808  22.894  1.00  0.00    -0.237 OA
ATOM     79  O   UNL A   1      46.085  18.972  24.518  1.00  0.00    -0.744 OA
ENDBRANCH  75  76
ENDBRANCH  54  68
BRANCH  55  80
ATOM     80  C   UNL A   1      41.904  30.236  33.108  1.00  0.00     0.058 A 
ATOM     81  C   UNL A   1      42.048  31.620  33.342  1.00  0.00     0.135 A 
ATOM     82  C   UNL A   1      40.603  29.747  32.932  1.00  0.00     0.135 A 
ATOM     83  F   UNL A   1      43.270  32.142  33.540  1.00  0.00    -0.206 F 
ATOM     84  C   UNL A   1      40.977  32.502  33.227  1.00  0.00     0.059 A 
ATOM     85  C   UNL A   1      39.509  30.614  32.829  1.00  0.00     0.059 A 
ATOM     86  F   UNL A   1      40.396  28.440  32.713  1.00  0.00    -0.206 F 
ATOM     87  C   UNL A   1      39.722  31.993  32.901  1.00  0.00     0.060 A 
BRANCH  87  88
ATOM     88  S   UNL A   1      38.429  33.165  32.417  1.00  0.00     0.124 S 
ATOM     89  O   UNL A   1      39.174  34.415  32.313  1.00  0.00    -0.237 OA
ATOM     90  O   UNL A   1      37.962  32.603  31.151  1.00  0.00    -0.237 OA
ATOM     91  O   UNL A   1      37.477  33.088  33.519  1.00  0.00    -0.744 OA
ENDBRANCH  87  88
ENDBRANCH  55  80
BRANCH  67  92
ATOM     92  C   UNL A   1      45.291  23.770  33.594  1.00  0.00     0.058 A 
ATOM     93  C   UNL A   1      46.585  23.578  34.111  1.00  0.00     0.135 A 
ATOM     94  C   UNL A   1      44.324  22.827  34.024  1.00  0.00     0.135 A 
ATOM     95  F   UNL A   1      47.567  24.459  33.882  1.00  0.00    -0.206 F 
ATOM     96  C   UNL A   1      46.912  22.494  34.932  1.00  0.00     0.059 A 
ATOM     97  C   UNL A   1      44.615  21.775  34.890  1.00  0.00     0.059 A 
ATOM     98  F   UNL A   1      43.045  22.904  33.627  1.00  0.00    -0.206 F 
ATOM     99  C   UNL A   1      45.921  21.598  35.319  1.00  0.00     0.060 A 
BRANCH  99 100
ATOM    100  S   UNL A   1      46.316  20.245  36.440  1.00  0.00     0.124 S 
ATOM    101  O   UNL A   1      47.772  20.333  36.500  1.00  0.00    -0.237 OA
ATOM    102  O   UNL A   1      45.612  20.618  37.663  1.00  0.00    -0.237 OA
ATOM    103  O   UNL A   1      45.781  19.075  35.751  1.00  0.00    -0.744 OA
ENDBRANCH  99 100
ENDBRANCH  67  92
ENDBRANCH  41  42
ENDBRANCH  33  36
ENDBRANCH  31  32
ENDBRANCH  30  31
ENDBRANCH  29  30
ENDBRANCH  28  29
ENDBRANCH   1  28
TORSDOF 21
ENDMDL
