MODEL 1
REMARK VINA RESULT:     -10.6      0.000      0.000
REMARK SMILES C[C@@H](C(=O)NCCCCCCNC(=O)c1ccc(-c2c3nc(c(-c4c(F)cc(S(=O)(=O)[O-])cc4F)c4ccc([nH]4)c(-c4c(F)cc(S(=O)(=O)[O-])cc4F)c4nc(c(-c5c(F)cc(S(=O)(=O)[O-])cc5F)c5ccc2[nH]5)C=C4)C=C3)cc1)c1ccc(C[C@H]2CCC[C@@H]2O)cc1
REMARK SMILES IDX 8 1 7 2 6 3 5 4 3 5 4 6 2 8 1 9 81 10 82 11 93 12 83 13
REMARK SMILES IDX 92 14 84 15 85 16 86 17 87 18 90 19 88 20 89 21 91 22 9 24
REMARK SMILES IDX 10 25 11 26 12 27 13 28 14 30 15 31 16 32 80 33 17 34 79 35
REMARK SMILES IDX 18 36 19 37 20 38 73 39 21 40 78 41 72 42 74 43 22 44 77 45
REMARK SMILES IDX 71 46 70 47 23 49 57 50 36 51 56 52 37 53 40 54 55 55 75 56
REMARK SMILES IDX 38 57 39 58 54 60 76 61 41 62 24 63 25 64 34 65 26 66 27 67
REMARK SMILES IDX 33 68 35 69 28 70 29 71 30 72 31 73 32 74 58 75 59 76 68 77
REMARK SMILES IDX 60 78 61 79 67 80 69 81 62 82 63 83 64 84 65 85 66 86 42 87
REMARK SMILES IDX 43 88 52 89 44 90 45 91 51 92 53 93 46 94 47 95 48 96 49 97
REMARK SMILES IDX 50 98
REMARK H PARENT 5 7 91 23 12 29 74 48 40 59
REMARK Flexibility Score: inf
ROOT
ATOM      1  C   UNL A   1      33.626  23.685  26.874  1.00  0.00     0.002 C 
ENDROOT
BRANCH   1   2
ATOM      2  C   UNL A   1      34.374  22.415  27.305  1.00  0.00     0.021 C 
BRANCH   2   3
ATOM      3  C   UNL A   1      33.631  21.110  26.993  1.00  0.00     0.116 C 
BRANCH   3   4
ATOM      4  N   UNL A   1      34.338  20.371  25.966  1.00  0.00    -0.356 N 
ATOM      5  C   UNL A   1      33.836  19.722  24.874  1.00  0.00     0.227 C 
ATOM      6  O   UNL A   1      34.535  18.822  24.406  1.00  0.00    -0.274 OA
ATOM      7  H   UNL A   1      35.316  20.332  26.070  1.00  0.00     0.163 HD
BRANCH   5   8
ATOM      8  C   UNL A   1      32.464  20.141  24.308  1.00  0.00     0.105 C 
ATOM      9  C   UNL A   1      32.169  19.245  23.092  1.00  0.00     0.023 C 
BRANCH   8  10
ATOM     10  C   UNL A   1      32.335  21.627  23.945  1.00  0.00    -0.036 A 
ATOM     11  C   UNL A   1      31.365  22.429  24.568  1.00  0.00     0.005 A 
ATOM     12  C   UNL A   1      33.157  22.244  22.991  1.00  0.00     0.005 A 
ATOM     13  C   UNL A   1      31.102  23.725  24.122  1.00  0.00     0.004 A 
ATOM     14  C   UNL A   1      32.877  23.530  22.522  1.00  0.00     0.004 A 
ATOM     15  C   UNL A   1      31.795  24.252  23.032  1.00  0.00    -0.048 A 
BRANCH  15  16
ATOM     16  C   UNL A   1      31.349  25.529  22.366  1.00  0.00     0.041 C 
BRANCH  16  17
ATOM     17  C   UNL A   1      32.002  26.816  22.911  1.00  0.00     0.022 C 
ATOM     18  C   UNL A   1      31.875  27.051  24.428  1.00  0.00     0.007 C 
ATOM     19  C   UNL A   1      33.498  26.984  22.631  1.00  0.00     0.117 C 
ATOM     20  C   UNL A   1      33.170  27.748  24.861  1.00  0.00     0.003 C 
ATOM     21  C   UNL A   1      33.891  28.112  23.574  1.00  0.00     0.032 C 
BRANCH  19  22
ATOM     22  O   UNL A   1      33.747  27.349  21.285  1.00  0.00    -0.393 OA
ATOM     23  H   UNL A   1      33.209  26.797  20.697  1.00  0.00     0.210 HD
ENDBRANCH  19  22
ENDBRANCH  16  17
ENDBRANCH  15  16
ENDBRANCH   8  10
ENDBRANCH   5   8
ENDBRANCH   3   4
ENDBRANCH   2   3
ENDBRANCH   1   2
BRANCH   1  24
ATOM     24  C   UNL A   1      34.353  24.541  25.837  1.00  0.00     0.002 C 
BRANCH  24  25
ATOM     25  C   UNL A   1      35.486  23.827  25.098  1.00  0.00     0.021 C 
BRANCH  25  26
ATOM     26  C   UNL A   1      36.883  24.256  25.527  1.00  0.00     0.116 C 
BRANCH  26  27
ATOM     27  N   UNL A   1      37.810  23.135  25.567  1.00  0.00    -0.352 N 
ATOM     28  C   UNL A   1      39.082  23.102  26.082  1.00  0.00     0.251 C 
ATOM     29  H   UNL A   1      37.482  22.293  25.176  1.00  0.00     0.163 HD
ATOM     30  O   UNL A   1      39.817  22.141  25.874  1.00  0.00    -0.269 OA
BRANCH  28  31
ATOM     31  C   UNL A   1      39.561  24.253  26.875  1.00  0.00     0.039 A 
ATOM     32  C   UNL A   1      40.385  25.207  26.272  1.00  0.00     0.014 A 
ATOM     33  C   UNL A   1      39.163  24.396  28.207  1.00  0.00     0.014 A 
ATOM     34  C   UNL A   1      40.765  26.342  26.993  1.00  0.00     0.010 A 
ATOM     35  C   UNL A   1      39.487  25.557  28.898  1.00  0.00     0.010 A 
ATOM     36  C   UNL A   1      40.297  26.537  28.302  1.00  0.00    -0.014 A 
BRANCH  36  37
ATOM     37  C   UNL A   1      40.655  27.738  29.097  1.00  0.00     0.031 A 
ATOM     38  C   UNL A   1      41.913  27.727  29.919  1.00  0.00     0.074 A 
ATOM     39  C   UNL A   1      39.807  28.781  29.168  1.00  0.00     0.049 A 
ATOM     40  N   UNL A   1      42.323  28.580  30.820  1.00  0.00    -0.248 NA
ATOM     41  C   UNL A   1      42.811  26.576  29.727  1.00  0.00     0.031 C 
ATOM     42  C   UNL A   1      38.540  28.893  28.444  1.00  0.00     0.029 A 
ATOM     43  N   UNL A   1      39.868  29.933  29.911  1.00  0.00    -0.354 N 
ATOM     44  C   UNL A   1      43.503  28.053  31.328  1.00  0.00     0.074 A 
ATOM     45  C   UNL A   1      43.721  26.786  30.664  1.00  0.00     0.031 C 
ATOM     46  C   UNL A   1      37.944  30.049  28.779  1.00  0.00     0.029 A 
ATOM     47  C   UNL A   1      38.763  30.739  29.773  1.00  0.00     0.049 A 
ATOM     48  H   UNL A   1      40.632  30.162  30.489  1.00  0.00     0.167 HD
ATOM     49  C   UNL A   1      44.338  28.583  32.254  1.00  0.00     0.037 A 
ATOM     50  C   UNL A   1      38.436  31.889  30.393  1.00  0.00     0.037 A 
ATOM     51  C   UNL A   1      44.128  29.860  32.883  1.00  0.00     0.049 A 
ATOM     52  C   UNL A   1      39.384  32.477  31.402  1.00  0.00     0.074 A 
ATOM     53  C   UNL A   1      44.941  30.518  33.788  1.00  0.00     0.029 A 
ATOM     54  N   UNL A   1      43.025  30.675  32.669  1.00  0.00    -0.354 N 
ATOM     55  N   UNL A   1      40.521  31.990  31.841  1.00  0.00    -0.248 NA
ATOM     56  C   UNL A   1      39.013  33.768  31.997  1.00  0.00     0.031 C 
ATOM     57  C   UNL A   1      44.310  31.713  34.152  1.00  0.00     0.029 A 
ATOM     58  C   UNL A   1      43.129  31.823  33.435  1.00  0.00     0.049 A 
ATOM     59  H   UNL A   1      42.278  30.466  32.062  1.00  0.00     0.167 HD
ATOM     60  C   UNL A   1      41.017  32.930  32.737  1.00  0.00     0.074 A 
ATOM     61  C   UNL A   1      40.055  34.012  32.782  1.00  0.00     0.031 C 
ATOM     62  C   UNL A   1      42.169  32.901  33.451  1.00  0.00     0.037 A 
BRANCH  49  63
ATOM     63  C   UNL A   1      45.541  27.769  32.645  1.00  0.00     0.058 A 
ATOM     64  C   UNL A   1      45.502  26.858  33.712  1.00  0.00     0.135 A 
ATOM     65  C   UNL A   1      46.753  27.915  31.953  1.00  0.00     0.135 A 
ATOM     66  F   UNL A   1      44.372  26.688  34.417  1.00  0.00    -0.206 F 
ATOM     67  C   UNL A   1      46.636  26.161  34.116  1.00  0.00     0.059 A 
ATOM     68  C   UNL A   1      47.893  27.205  32.320  1.00  0.00     0.059 A 
ATOM     69  F   UNL A   1      46.846  28.768  30.921  1.00  0.00    -0.206 F 
ATOM     70  C   UNL A   1      47.831  26.351  33.420  1.00  0.00     0.060 A 
BRANCH  70  71
ATOM     71  S   UNL A   1      49.307  25.477  33.980  1.00  0.00     0.124 S 
ATOM     72  O   UNL A   1      48.973  24.097  33.638  1.00  0.00    -0.237 OA
ATOM     73  O   UNL A   1      50.361  26.090  33.177  1.00  0.00    -0.237 OA
ATOM     74  O   UNL A   1      49.358  25.775  35.407  1.00  0.00    -0.744 OA
ENDBRANCH  70  71
ENDBRANCH  49  63
BRANCH  50  75
ATOM     75  C   UNL A   1      37.158  32.566  30.047  1.00  0.00     0.058 A 
ATOM     76  C   UNL A   1      35.997  32.338  30.799  1.00  0.00     0.135 A 
ATOM     77  C   UNL A   1      37.088  33.500  29.002  1.00  0.00     0.135 A 
ATOM     78  F   UNL A   1      36.012  31.448  31.803  1.00  0.00    -0.206 F 
ATOM     79  C   UNL A   1      34.812  33.017  30.534  1.00  0.00     0.059 A 
ATOM     80  C   UNL A   1      35.921  34.208  28.730  1.00  0.00     0.059 A 
ATOM     81  F   UNL A   1      38.177  33.766  28.264  1.00  0.00    -0.206 F 
ATOM     82  C   UNL A   1      34.787  33.958  29.503  1.00  0.00     0.060 A 
BRANCH  82  83
ATOM     83  S   UNL A   1      33.270  34.901  29.228  1.00  0.00     0.124 S 
ATOM     84  O   UNL A   1      32.584  34.074  28.242  1.00  0.00    -0.237 OA
ATOM     85  O   UNL A   1      32.681  34.927  30.563  1.00  0.00    -0.237 OA
ATOM     86  O   UNL A   1      33.760  36.188  28.744  1.00  0.00    -0.744 OA
ENDBRANCH  82  83
ENDBRANCH  50  75
BRANCH  62  87
ATOM     87  C   UNL A   1      42.495  34.092  34.308  1.00  0.00     0.058 A 
ATOM     88  C   UNL A   1      42.162  34.136  35.669  1.00  0.00     0.135 A 
ATOM     89  C   UNL A   1      43.243  35.155  33.777  1.00  0.00     0.135 A 
ATOM     90  F   UNL A   1      41.441  33.149  36.222  1.00  0.00    -0.206 F 
ATOM     91  C   UNL A   1      42.562  35.196  36.478  1.00  0.00     0.059 A 
ATOM     92  C   UNL A   1      43.672  36.213  34.571  1.00  0.00     0.059 A 
ATOM     93  F   UNL A   1      43.593  35.154  32.481  1.00  0.00    -0.206 F 
ATOM     94  C   UNL A   1      43.325  36.226  35.922  1.00  0.00     0.060 A 
BRANCH  94  95
ATOM     95  S   UNL A   1      43.904  37.555  36.998  1.00  0.00     0.124 S 
ATOM     96  O   UNL A   1      45.114  36.969  37.563  1.00  0.00    -0.237 OA
ATOM     97  O   UNL A   1      44.109  38.651  36.058  1.00  0.00    -0.237 OA
ATOM     98  O   UNL A   1      42.798  37.739  37.934  1.00  0.00    -0.744 OA
ENDBRANCH  94  95
ENDBRANCH  62  87
ENDBRANCH  36  37
ENDBRANCH  28  31
ENDBRANCH  26  27
ENDBRANCH  25  26
ENDBRANCH  24  25
ENDBRANCH   1  24
TORSDOF 20
ENDMDL
MODEL 2
REMARK VINA RESULT:     -10.2      5.173      9.834
REMARK SMILES C[C@@H](C(=O)NCCCCCCNC(=O)c1ccc(-c2c3nc(c(-c4c(F)cc(S(=O)(=O)[O-])cc4F)c4ccc([nH]4)c(-c4c(F)cc(S(=O)(=O)[O-])cc4F)c4nc(c(-c5c(F)cc(S(=O)(=O)[O-])cc5F)c5ccc2[nH]5)C=C4)C=C3)cc1)c1ccc(C[C@H]2CCC[C@@H]2O)cc1
REMARK SMILES IDX 8 1 7 2 6 3 5 4 3 5 4 6 2 8 1 9 81 10 82 11 93 12 83 13
REMARK SMILES IDX 92 14 84 15 85 16 86 17 87 18 90 19 88 20 89 21 91 22 9 24
REMARK SMILES IDX 10 25 11 26 12 27 13 28 14 30 15 31 16 32 80 33 17 34 79 35
REMARK SMILES IDX 18 36 19 37 20 38 73 39 21 40 78 41 72 42 74 43 22 44 77 45
REMARK SMILES IDX 71 46 70 47 23 49 57 50 36 51 56 52 37 53 40 54 55 55 75 56
REMARK SMILES IDX 38 57 39 58 54 60 76 61 41 62 24 63 25 64 34 65 26 66 27 67
REMARK SMILES IDX 33 68 35 69 28 70 29 71 30 72 31 73 32 74 58 75 59 76 68 77
REMARK SMILES IDX 60 78 61 79 67 80 69 81 62 82 63 83 64 84 65 85 66 86 42 87
REMARK SMILES IDX 43 88 52 89 44 90 45 91 51 92 53 93 46 94 47 95 48 96 49 97
REMARK SMILES IDX 50 98
REMARK H PARENT 5 7 91 23 12 29 74 48 40 59
REMARK Flexibility Score: inf
ROOT
ATOM      1  C   UNL A   1      35.504  21.739  24.141  1.00  0.00     0.002 C 
ENDROOT
BRANCH   1   2
ATOM      2  C   UNL A   1      34.490  22.874  24.336  1.00  0.00     0.021 C 
BRANCH   2   3
ATOM      3  C   UNL A   1      34.450  23.446  25.759  1.00  0.00     0.116 C 
BRANCH   3   4
ATOM      4  N   UNL A   1      33.078  23.677  26.161  1.00  0.00    -0.356 N 
ATOM      5  C   UNL A   1      32.372  24.845  26.180  1.00  0.00     0.227 C 
ATOM      6  O   UNL A   1      31.410  24.891  26.949  1.00  0.00    -0.274 OA
ATOM      7  H   UNL A   1      32.585  22.880  26.464  1.00  0.00     0.163 HD
BRANCH   5   8
ATOM      8  C   UNL A   1      32.806  26.008  25.264  1.00  0.00     0.105 C 
ATOM      9  C   UNL A   1      33.515  27.054  26.142  1.00  0.00     0.023 C 
BRANCH   8  10
ATOM     10  C   UNL A   1      31.678  26.647  24.443  1.00  0.00    -0.036 A 
ATOM     11  C   UNL A   1      31.935  27.766  23.633  1.00  0.00     0.005 A 
ATOM     12  C   UNL A   1      30.364  26.161  24.461  1.00  0.00     0.005 A 
ATOM     13  C   UNL A   1      30.895  28.477  23.031  1.00  0.00     0.004 A 
ATOM     14  C   UNL A   1      29.318  26.886  23.884  1.00  0.00     0.004 A 
ATOM     15  C   UNL A   1      29.569  28.094  23.229  1.00  0.00    -0.048 A 
BRANCH  15  16
ATOM     16  C   UNL A   1      28.428  28.991  22.820  1.00  0.00     0.041 C 
BRANCH  16  17
ATOM     17  C   UNL A   1      28.840  30.391  22.320  1.00  0.00     0.022 C 
ATOM     18  C   UNL A   1      28.144  30.885  21.038  1.00  0.00     0.007 C 
ATOM     19  C   UNL A   1      28.655  31.543  23.312  1.00  0.00     0.117 C 
ATOM     20  C   UNL A   1      27.984  32.401  21.196  1.00  0.00     0.003 C 
ATOM     21  C   UNL A   1      28.792  32.773  22.428  1.00  0.00     0.032 C 
BRANCH  19  22
ATOM     22  O   UNL A   1      29.649  31.538  24.320  1.00  0.00    -0.393 OA
ATOM     23  H   UNL A   1      29.456  32.233  24.968  1.00  0.00     0.210 HD
ENDBRANCH  19  22
ENDBRANCH  16  17
ENDBRANCH  15  16
ENDBRANCH   8  10
ENDBRANCH   5   8
ENDBRANCH   3   4
ENDBRANCH   2   3
ENDBRANCH   1   2
BRANCH   1  24
ATOM     24  C   UNL A   1      36.902  22.019  24.695  1.00  0.00     0.002 C 
BRANCH  24  25
ATOM     25  C   UNL A   1      37.727  20.770  25.011  1.00  0.00     0.021 C 
BRANCH  25  26
ATOM     26  C   UNL A   1      38.985  21.040  25.826  1.00  0.00     0.116 C 
BRANCH  26  27
ATOM     27  N   UNL A   1      39.828  19.858  25.934  1.00  0.00    -0.352 N 
ATOM     28  C   UNL A   1      41.190  19.797  26.094  1.00  0.00     0.251 C 
ATOM     29  H   UNL A   1      39.361  18.992  25.887  1.00  0.00     0.163 HD
ATOM     30  O   UNL A   1      41.787  18.731  25.978  1.00  0.00    -0.269 OA
BRANCH  28  31
ATOM     31  C   UNL A   1      41.930  21.041  26.390  1.00  0.00     0.039 A 
ATOM     32  C   UNL A   1      42.266  21.905  25.345  1.00  0.00     0.014 A 
ATOM     33  C   UNL A   1      42.259  21.360  27.711  1.00  0.00     0.014 A 
ATOM     34  C   UNL A   1      42.886  23.124  25.632  1.00  0.00     0.010 A 
ATOM     35  C   UNL A   1      42.813  22.601  27.999  1.00  0.00     0.010 A 
ATOM     36  C   UNL A   1      43.139  23.492  26.962  1.00  0.00    -0.014 A 
BRANCH  36  37
ATOM     37  C   UNL A   1      43.773  24.787  27.316  1.00  0.00     0.031 A 
ATOM     38  C   UNL A   1      42.918  25.900  27.852  1.00  0.00     0.074 A 
ATOM     39  C   UNL A   1      45.077  24.997  27.055  1.00  0.00     0.049 A 
ATOM     40  N   UNL A   1      43.221  27.157  28.050  1.00  0.00    -0.248 NA
ATOM     41  C   UNL A   1      41.521  25.560  28.168  1.00  0.00     0.031 C 
ATOM     42  C   UNL A   1      46.000  24.004  26.504  1.00  0.00     0.029 A 
ATOM     43  N   UNL A   1      45.844  26.127  27.189  1.00  0.00    -0.354 N 
ATOM     44  C   UNL A   1      42.047  27.764  28.478  1.00  0.00     0.074 A 
ATOM     45  C   UNL A   1      41.017  26.747  28.470  1.00  0.00     0.031 C 
ATOM     46  C   UNL A   1      47.208  24.570  26.345  1.00  0.00     0.029 A 
ATOM     47  C   UNL A   1      47.135  25.974  26.743  1.00  0.00     0.049 A 
ATOM     48  H   UNL A   1      45.502  26.968  27.570  1.00  0.00     0.167 HD
ATOM     49  C   UNL A   1      41.848  29.048  28.858  1.00  0.00     0.037 A 
ATOM     50  C   UNL A   1      48.138  26.868  26.644  1.00  0.00     0.037 A 
ATOM     51  C   UNL A   1      42.887  30.043  28.894  1.00  0.00     0.049 A 
ATOM     52  C   UNL A   1      47.907  28.285  27.090  1.00  0.00     0.074 A 
ATOM     53  C   UNL A   1      42.807  31.356  29.318  1.00  0.00     0.029 A 
ATOM     54  N   UNL A   1      44.198  29.830  28.491  1.00  0.00    -0.354 N 
ATOM     55  N   UNL A   1      46.803  28.836  27.536  1.00  0.00    -0.248 NA
ATOM     56  C   UNL A   1      49.054  29.202  27.027  1.00  0.00     0.031 C 
ATOM     57  C   UNL A   1      44.061  31.950  29.136  1.00  0.00     0.029 A 
ATOM     58  C   UNL A   1      44.935  30.992  28.645  1.00  0.00     0.049 A 
ATOM     59  H   UNL A   1      44.552  28.978  28.146  1.00  0.00     0.167 HD
ATOM     60  C   UNL A   1      47.130  30.153  27.838  1.00  0.00     0.074 A 
ATOM     61  C   UNL A   1      48.533  30.319  27.520  1.00  0.00     0.031 C 
ATOM     62  C   UNL A   1      46.338  31.133  28.341  1.00  0.00     0.037 A 
BRANCH  49  63
ATOM     63  C   UNL A   1      40.449  29.443  29.246  1.00  0.00     0.058 A 
ATOM     64  C   UNL A   1      39.446  29.654  28.286  1.00  0.00     0.135 A 
ATOM     65  C   UNL A   1      40.113  29.631  30.596  1.00  0.00     0.135 A 
ATOM     66  F   UNL A   1      39.717  29.501  26.980  1.00  0.00    -0.206 F 
ATOM     67  C   UNL A   1      38.175  30.090  28.646  1.00  0.00     0.059 A 
ATOM     68  C   UNL A   1      38.838  30.037  30.981  1.00  0.00     0.059 A 
ATOM     69  F   UNL A   1      41.031  29.440  31.556  1.00  0.00    -0.206 F 
ATOM     70  C   UNL A   1      37.885  30.290  29.996  1.00  0.00     0.060 A 
BRANCH  70  71
ATOM     71  S   UNL A   1      36.247  30.899  30.448  1.00  0.00     0.124 S 
ATOM     72  O   UNL A   1      35.934  30.059  31.600  1.00  0.00    -0.237 OA
ATOM     73  O   UNL A   1      36.503  32.306  30.740  1.00  0.00    -0.237 OA
ATOM     74  O   UNL A   1      35.449  30.647  29.252  1.00  0.00    -0.744 OA
ENDBRANCH  70  71
ENDBRANCH  49  63
BRANCH  50  75
ATOM     75  C   UNL A   1      49.458  26.426  26.119  1.00  0.00     0.058 A 
ATOM     76  C   UNL A   1      49.852  26.738  24.811  1.00  0.00     0.135 A 
ATOM     77  C   UNL A   1      50.374  25.745  26.935  1.00  0.00     0.135 A 
ATOM     78  F   UNL A   1      49.007  27.382  23.991  1.00  0.00    -0.206 F 
ATOM     79  C   UNL A   1      51.111  26.396  24.329  1.00  0.00     0.059 A 
ATOM     80  C   UNL A   1      51.648  25.411  26.483  1.00  0.00     0.059 A 
ATOM     81  F   UNL A   1      50.050  25.439  28.201  1.00  0.00    -0.206 F 
ATOM     82  C   UNL A   1      52.006  25.741  25.176  1.00  0.00     0.060 A 
BRANCH  82  83
ATOM     83  S   UNL A   1      53.671  25.385  24.571  1.00  0.00     0.124 S 
ATOM     84  O   UNL A   1      53.543  25.703  23.153  1.00  0.00    -0.237 OA
ATOM     85  O   UNL A   1      54.485  26.304  25.361  1.00  0.00    -0.237 OA
ATOM     86  O   UNL A   1      53.849  23.972  24.890  1.00  0.00    -0.744 OA
ENDBRANCH  82  83
ENDBRANCH  50  75
BRANCH  62  87
ATOM     87  C   UNL A   1      46.970  32.465  28.635  1.00  0.00     0.058 A 
ATOM     88  C   UNL A   1      47.592  32.732  29.863  1.00  0.00     0.135 A 
ATOM     89  C   UNL A   1      47.041  33.445  27.632  1.00  0.00     0.135 A 
ATOM     90  F   UNL A   1      47.545  31.832  30.856  1.00  0.00    -0.206 F 
ATOM     91  C   UNL A   1      48.267  33.929  30.086  1.00  0.00     0.059 A 
ATOM     92  C   UNL A   1      47.730  34.637  27.825  1.00  0.00     0.059 A 
ATOM     93  F   UNL A   1      46.468  33.231  26.437  1.00  0.00    -0.206 F 
ATOM     94  C   UNL A   1      48.338  34.871  29.058  1.00  0.00     0.060 A 
BRANCH  94  95
ATOM     95  S   UNL A   1      49.283  36.385  29.333  1.00  0.00     0.124 S 
ATOM     96  O   UNL A   1      50.654  35.906  29.192  1.00  0.00    -0.237 OA
ATOM     97  O   UNL A   1      48.802  37.253  28.264  1.00  0.00    -0.237 OA
ATOM     98  O   UNL A   1      48.893  36.788  30.682  1.00  0.00    -0.744 OA
ENDBRANCH  94  95
ENDBRANCH  62  87
ENDBRANCH  36  37
ENDBRANCH  28  31
ENDBRANCH  26  27
ENDBRANCH  25  26
ENDBRANCH  24  25
ENDBRANCH   1  24
TORSDOF 20
ENDMDL
MODEL 3
REMARK VINA RESULT:     -10.1      2.518      3.666
REMARK SMILES C[C@@H](C(=O)NCCCCCCNC(=O)c1ccc(-c2c3nc(c(-c4c(F)cc(S(=O)(=O)[O-])cc4F)c4ccc([nH]4)c(-c4c(F)cc(S(=O)(=O)[O-])cc4F)c4nc(c(-c5c(F)cc(S(=O)(=O)[O-])cc5F)c5ccc2[nH]5)C=C4)C=C3)cc1)c1ccc(C[C@H]2CCC[C@@H]2O)cc1
REMARK SMILES IDX 8 1 7 2 6 3 5 4 3 5 4 6 2 8 1 9 81 10 82 11 93 12 83 13
REMARK SMILES IDX 92 14 84 15 85 16 86 17 87 18 90 19 88 20 89 21 91 22 9 24
REMARK SMILES IDX 10 25 11 26 12 27 13 28 14 30 15 31 16 32 80 33 17 34 79 35
REMARK SMILES IDX 18 36 19 37 20 38 73 39 21 40 78 41 72 42 74 43 22 44 77 45
REMARK SMILES IDX 71 46 70 47 23 49 57 50 36 51 56 52 37 53 40 54 55 55 75 56
REMARK SMILES IDX 38 57 39 58 54 60 76 61 41 62 24 63 25 64 34 65 26 66 27 67
REMARK SMILES IDX 33 68 35 69 28 70 29 71 30 72 31 73 32 74 58 75 59 76 68 77
REMARK SMILES IDX 60 78 61 79 67 80 69 81 62 82 63 83 64 84 65 85 66 86 42 87
REMARK SMILES IDX 43 88 52 89 44 90 45 91 51 92 53 93 46 94 47 95 48 96 49 97
REMARK SMILES IDX 50 98
REMARK H PARENT 5 7 91 23 12 29 74 48 40 59
REMARK Flexibility Score: inf
ROOT
ATOM      1  C   UNL A   1      40.117  21.933  27.027  1.00  0.00     0.002 C 
ENDROOT
BRANCH   1   2
ATOM      2  C   UNL A   1      39.194  21.512  25.875  1.00  0.00     0.021 C 
BRANCH   2   3
ATOM      3  C   UNL A   1      37.839  22.229  25.859  1.00  0.00     0.116 C 
BRANCH   3   4
ATOM      4  N   UNL A   1      37.620  22.846  24.566  1.00  0.00    -0.356 N 
ATOM      5  C   UNL A   1      36.459  22.972  23.859  1.00  0.00     0.227 C 
ATOM      6  O   UNL A   1      36.574  23.119  22.640  1.00  0.00    -0.274 OA
ATOM      7  H   UNL A   1      38.421  23.227  24.137  1.00  0.00     0.163 HD
BRANCH   5   8
ATOM      8  C   UNL A   1      35.109  22.925  24.603  1.00  0.00     0.105 C 
ATOM      9  C   UNL A   1      34.356  21.671  24.126  1.00  0.00     0.023 C 
BRANCH   8  10
ATOM     10  C   UNL A   1      34.240  24.182  24.457  1.00  0.00    -0.036 A 
ATOM     11  C   UNL A   1      34.556  25.351  25.169  1.00  0.00     0.005 A 
ATOM     12  C   UNL A   1      33.111  24.225  23.627  1.00  0.00     0.005 A 
ATOM     13  C   UNL A   1      33.679  26.437  25.201  1.00  0.00     0.004 A 
ATOM     14  C   UNL A   1      32.218  25.298  23.680  1.00  0.00     0.004 A 
ATOM     15  C   UNL A   1      32.458  26.381  24.529  1.00  0.00    -0.048 A 
BRANCH  15  16
ATOM     16  C   UNL A   1      31.389  27.416  24.766  1.00  0.00     0.041 C 
BRANCH  16  17
ATOM     17  C   UNL A   1      30.543  27.781  23.528  1.00  0.00     0.022 C 
ATOM     18  C   UNL A   1      29.026  27.546  23.650  1.00  0.00     0.007 C 
ATOM     19  C   UNL A   1      30.658  29.227  23.035  1.00  0.00     0.117 C 
ATOM     20  C   UNL A   1      28.354  28.661  22.840  1.00  0.00     0.003 C 
ATOM     21  C   UNL A   1      29.477  29.352  22.084  1.00  0.00     0.032 C 
BRANCH  19  22
ATOM     22  O   UNL A   1      31.877  29.457  22.352  1.00  0.00    -0.393 OA
ATOM     23  H   UNL A   1      31.797  29.150  21.436  1.00  0.00     0.210 HD
ENDBRANCH  19  22
ENDBRANCH  16  17
ENDBRANCH  15  16
ENDBRANCH   8  10
ENDBRANCH   5   8
ENDBRANCH   3   4
ENDBRANCH   2   3
ENDBRANCH   1   2
BRANCH   1  24
ATOM     24  C   UNL A   1      41.604  21.662  26.796  1.00  0.00     0.002 C 
BRANCH  24  25
ATOM     25  C   UNL A   1      42.532  22.234  27.869  1.00  0.00     0.021 C 
BRANCH  25  26
ATOM     26  C   UNL A   1      43.313  23.466  27.431  1.00  0.00     0.116 C 
BRANCH  26  27
ATOM     27  N   UNL A   1      42.779  24.043  26.206  1.00  0.00    -0.352 N 
ATOM     28  C   UNL A   1      42.090  25.219  26.051  1.00  0.00     0.251 C 
ATOM     29  H   UNL A   1      42.933  23.522  25.384  1.00  0.00     0.163 HD
ATOM     30  O   UNL A   1      41.535  25.484  24.989  1.00  0.00    -0.269 OA
BRANCH  28  31
ATOM     31  C   UNL A   1      42.009  26.155  27.191  1.00  0.00     0.039 A 
ATOM     32  C   UNL A   1      42.865  27.258  27.237  1.00  0.00     0.014 A 
ATOM     33  C   UNL A   1      41.060  25.949  28.197  1.00  0.00     0.014 A 
ATOM     34  C   UNL A   1      42.730  28.192  28.267  1.00  0.00     0.010 A 
ATOM     35  C   UNL A   1      40.883  26.914  29.181  1.00  0.00     0.010 A 
ATOM     36  C   UNL A   1      41.721  28.041  29.231  1.00  0.00    -0.014 A 
BRANCH  36  37
ATOM     37  C   UNL A   1      41.525  29.020  30.328  1.00  0.00     0.031 A 
ATOM     38  C   UNL A   1      42.397  28.939  31.549  1.00  0.00     0.074 A 
ATOM     39  C   UNL A   1      40.505  29.898  30.279  1.00  0.00     0.049 A 
ATOM     40  N   UNL A   1      42.284  29.564  32.692  1.00  0.00    -0.248 NA
ATOM     41  C   UNL A   1      43.526  27.996  31.487  1.00  0.00     0.031 C 
ATOM     42  C   UNL A   1      39.570  30.048  29.163  1.00  0.00     0.029 A 
ATOM     43  N   UNL A   1      40.065  30.809  31.206  1.00  0.00    -0.354 N 
ATOM     44  C   UNL A   1      43.301  29.064  33.496  1.00  0.00     0.074 A 
ATOM     45  C   UNL A   1      43.994  28.055  32.724  1.00  0.00     0.031 C 
ATOM     46  C   UNL A   1      38.667  30.993  29.471  1.00  0.00     0.029 A 
ATOM     47  C   UNL A   1      38.932  31.485  30.821  1.00  0.00     0.049 A 
ATOM     48  H   UNL A   1      40.519  30.964  32.067  1.00  0.00     0.167 HD
ATOM     49  C   UNL A   1      43.637  29.423  34.757  1.00  0.00     0.037 A 
ATOM     50  C   UNL A   1      38.179  32.381  31.488  1.00  0.00     0.037 A 
ATOM     51  C   UNL A   1      42.961  30.452  35.504  1.00  0.00     0.049 A 
ATOM     52  C   UNL A   1      38.578  32.786  32.881  1.00  0.00     0.074 A 
ATOM     53  C   UNL A   1      43.257  30.936  36.765  1.00  0.00     0.029 A 
ATOM     54  N   UNL A   1      41.854  31.157  35.053  1.00  0.00    -0.354 N 
ATOM     55  N   UNL A   1      39.570  32.339  33.613  1.00  0.00    -0.248 NA
ATOM     56  C   UNL A   1      37.763  33.819  33.536  1.00  0.00     0.031 C 
ATOM     57  C   UNL A   1      42.305  31.907  37.093  1.00  0.00     0.029 A 
ATOM     58  C   UNL A   1      41.446  32.064  36.016  1.00  0.00     0.049 A 
ATOM     59  H   UNL A   1      41.422  31.031  34.177  1.00  0.00     0.167 HD
ATOM     60  C   UNL A   1      39.520  33.058  34.802  1.00  0.00     0.074 A 
ATOM     61  C   UNL A   1      38.397  33.966  34.693  1.00  0.00     0.031 C 
ATOM     62  C   UNL A   1      40.336  32.976  35.882  1.00  0.00     0.037 A 
BRANCH  49  63
ATOM     63  C   UNL A   1      44.774  28.683  35.406  1.00  0.00     0.058 A 
ATOM     64  C   UNL A   1      44.562  27.533  36.182  1.00  0.00     0.135 A 
ATOM     65  C   UNL A   1      46.094  29.141  35.263  1.00  0.00     0.135 A 
ATOM     66  F   UNL A   1      43.318  27.059  36.364  1.00  0.00    -0.206 F 
ATOM     67  C   UNL A   1      45.608  26.894  36.839  1.00  0.00     0.059 A 
ATOM     68  C   UNL A   1      47.161  28.499  35.886  1.00  0.00     0.059 A 
ATOM     69  F   UNL A   1      46.355  30.233  34.528  1.00  0.00    -0.206 F 
ATOM     70  C   UNL A   1      46.903  27.393  36.694  1.00  0.00     0.060 A 
BRANCH  70  71
ATOM     71  S   UNL A   1      48.247  26.584  37.587  1.00  0.00     0.124 S 
ATOM     72  O   UNL A   1      48.388  25.342  36.833  1.00  0.00    -0.237 OA
ATOM     73  O   UNL A   1      49.342  27.539  37.443  1.00  0.00    -0.237 OA
ATOM     74  O   UNL A   1      47.719  26.441  38.939  1.00  0.00    -0.744 OA
ENDBRANCH  70  71
ENDBRANCH  49  63
BRANCH  50  75
ATOM     75  C   UNL A   1      36.986  32.968  30.823  1.00  0.00     0.058 A 
ATOM     76  C   UNL A   1      35.691  32.579  31.193  1.00  0.00     0.135 A 
ATOM     77  C   UNL A   1      37.114  33.976  29.855  1.00  0.00     0.135 A 
ATOM     78  F   UNL A   1      35.518  31.614  32.109  1.00  0.00    -0.206 F 
ATOM     79  C   UNL A   1      34.564  33.170  30.633  1.00  0.00     0.059 A 
ATOM     80  C   UNL A   1      36.002  34.598  29.294  1.00  0.00     0.059 A 
ATOM     81  F   UNL A   1      38.332  34.397  29.479  1.00  0.00    -0.206 F 
ATOM     82  C   UNL A   1      34.730  34.186  29.691  1.00  0.00     0.060 A 
BRANCH  82  83
ATOM     83  S   UNL A   1      33.261  35.012  29.039  1.00  0.00     0.124 S 
ATOM     84  O   UNL A   1      32.775  34.032  28.075  1.00  0.00    -0.237 OA
ATOM     85  O   UNL A   1      32.450  35.185  30.241  1.00  0.00    -0.237 OA
ATOM     86  O   UNL A   1      33.794  36.247  28.472  1.00  0.00    -0.744 OA
ENDBRANCH  82  83
ENDBRANCH  50  75
BRANCH  62  87
ATOM     87  C   UNL A   1      40.091  33.926  37.021  1.00  0.00     0.058 A 
ATOM     88  C   UNL A   1      40.674  35.201  37.058  1.00  0.00     0.135 A 
ATOM     89  C   UNL A   1      39.178  33.588  38.033  1.00  0.00     0.135 A 
ATOM     90  F   UNL A   1      41.559  35.568  36.119  1.00  0.00    -0.206 F 
ATOM     91  C   UNL A   1      40.357  36.112  38.062  1.00  0.00     0.059 A 
ATOM     92  C   UNL A   1      38.830  34.490  39.031  1.00  0.00     0.059 A 
ATOM     93  F   UNL A   1      38.589  32.382  38.036  1.00  0.00    -0.206 F 
ATOM     94  C   UNL A   1      39.427  35.751  39.039  1.00  0.00     0.060 A 
BRANCH  94  95
ATOM     95  S   UNL A   1      38.966  36.969  40.289  1.00  0.00     0.124 S 
ATOM     96  O   UNL A   1      40.260  37.284  40.884  1.00  0.00    -0.237 OA
ATOM     97  O   UNL A   1      38.362  38.027  39.487  1.00  0.00    -0.237 OA
ATOM     98  O   UNL A   1      38.040  36.238  41.150  1.00  0.00    -0.744 OA
ENDBRANCH  94  95
ENDBRANCH  62  87
ENDBRANCH  36  37
ENDBRANCH  28  31
ENDBRANCH  26  27
ENDBRANCH  25  26
ENDBRANCH  24  25
ENDBRANCH   1  24
TORSDOF 20
ENDMDL
