MODEL 1
REMARK VINA RESULT:     -12.9      0.000      0.000
REMARK SMILES CC(C)(C(=O)N1C[C@@H]2c3ccccc3OC[C@]2(C(=O)NCCCCCCNC(=O)c2ccc(-c3c4nc(c(-c5c(F)cc(S(=O)(=O)[O-])cc5F)c5ccc([nH]5)c(-c5c(F)cc(S(=O)(=O)[O-])cc5F)c5nc(c(-c6c(F)cc(S(=O)(=O)[O-])cc6F)c6ccc3[nH]6)C=C5)C=C4)cc2)C1)[NH+]1CCOCC1
REMARK SMILES IDX 23 1 22 2 21 3 20 4 18 5 19 6 17 8 6 9 7 10 96 11 8 12 9 13
REMARK SMILES IDX 16 14 10 15 14 16 15 17 11 18 13 19 12 20 4 21 5 22 2 23
REMARK SMILES IDX 1 24 3 25 97 26 98 27 102 28 99 30 101 31 100 32 24 33 25 34
REMARK SMILES IDX 26 35 27 36 28 37 29 39 30 40 31 41 95 42 32 43 94 44 33 45
REMARK SMILES IDX 34 46 35 47 88 48 36 49 93 50 87 51 89 52 37 53 92 54 86 55
REMARK SMILES IDX 85 56 38 58 72 59 51 60 71 61 52 62 55 63 70 64 90 65 53 66
REMARK SMILES IDX 54 67 69 69 91 70 56 71 39 72 40 73 49 74 41 75 42 76 48 77
REMARK SMILES IDX 50 78 43 79 44 80 45 81 46 82 47 83 73 84 74 85 83 86 75 87
REMARK SMILES IDX 76 88 82 89 84 90 77 91 78 92 79 93 80 94 81 95 57 96 58 97
REMARK SMILES IDX 67 98 59 99 60 100 66 101 68 102 61 103 62 104 63 105 64 106
REMARK SMILES IDX 65 107
REMARK H PARENT 20 7 97 29 27 38 89 57 55 68
REMARK Flexibility Score: inf
ROOT
ATOM      1  C   UNL A   1      34.125  28.700  27.209  1.00  0.00     0.002 C 
ENDROOT
BRANCH   1   2
ATOM      2  C   UNL A   1      32.819  28.851  26.426  1.00  0.00     0.021 C 
BRANCH   2   3
ATOM      3  C   UNL A   1      32.899  29.496  25.052  1.00  0.00     0.116 C 
BRANCH   3   4
ATOM      4  N   UNL A   1      33.882  28.934  24.140  1.00  0.00    -0.355 N 
ATOM      5  C   UNL A   1      33.580  28.322  22.933  1.00  0.00     0.232 C 
ATOM      6  O   UNL A   1      34.404  28.368  22.017  1.00  0.00    -0.274 OA
ATOM      7  H   UNL A   1      34.831  28.994  24.397  1.00  0.00     0.163 HD
BRANCH   5   8
ATOM      8  C   UNL A   1      32.206  27.572  22.861  1.00  0.00     0.109 C 
ATOM      9  N   UNL A   1      32.418  25.183  23.401  1.00  0.00    -0.335 N 
ATOM     10  C   UNL A   1      31.022  25.481  23.272  1.00  0.00     0.129 C 
ATOM     11  C   UNL A   1      33.105  26.439  23.634  1.00  0.00     0.141 C 
ATOM     12  C   UNL A   1      30.957  26.960  23.666  1.00  0.00     0.063 C 
ATOM     13  C   UNL A   1      29.559  27.480  23.429  1.00  0.00     0.000 A 
ATOM     14  C   UNL A   1      31.619  29.056  22.865  1.00  0.00     0.249 C 
ATOM     15  C   UNL A   1      28.439  26.934  24.075  1.00  0.00     0.008 A 
ATOM     16  C   UNL A   1      29.378  28.581  22.608  1.00  0.00     0.122 A 
ATOM     17  O   UNL A   1      30.454  29.163  22.015  1.00  0.00    -0.492 OA
ATOM     18  C   UNL A   1      27.169  27.482  23.875  1.00  0.00     0.001 A 
ATOM     19  C   UNL A   1      28.116  29.123  22.383  1.00  0.00     0.047 A 
ATOM     20  C   UNL A   1      27.007  28.578  23.027  1.00  0.00     0.004 A 
BRANCH   9  21
ATOM     21  C   UNL A   1      32.962  24.059  22.788  1.00  0.00     0.283 C 
ATOM     22  O   UNL A   1      33.223  24.116  21.580  1.00  0.00    -0.268 OA
BRANCH  21  23
ATOM     23  C   UNL A   1      33.096  22.701  23.627  1.00  0.00     0.171 C 
ATOM     24  C   UNL A   1      32.382  22.735  24.989  1.00  0.00     0.090 C 
ATOM     25  C   UNL A   1      32.374  21.628  22.775  1.00  0.00     0.090 C 
BRANCH  23  26
ATOM     26  N   UNL A   1      34.562  22.441  23.766  1.00  0.00    -0.319 N 
ATOM     27  C   UNL A   1      35.041  21.352  24.625  1.00  0.00     0.291 C 
ATOM     28  C   UNL A   1      35.466  23.599  23.910  1.00  0.00     0.291 C 
ATOM     29  H   UNL A   1      34.627  22.092  22.810  1.00  0.00     0.349 HD
ATOM     30  C   UNL A   1      35.221  21.793  26.081  1.00  0.00     0.221 C 
ATOM     31  C   UNL A   1      35.791  23.980  25.374  1.00  0.00     0.221 C 
ATOM     32  O   UNL A   1      36.178  22.853  26.164  1.00  0.00    -0.370 OA
ENDBRANCH  23  26
ENDBRANCH  21  23
ENDBRANCH   9  21
ENDBRANCH   5   8
ENDBRANCH   3   4
ENDBRANCH   2   3
ENDBRANCH   1   2
BRANCH   1  33
ATOM     33  C   UNL A   1      35.105  29.876  27.223  1.00  0.00     0.002 C 
BRANCH  33  34
ATOM     34  C   UNL A   1      34.681  31.149  27.952  1.00  0.00     0.021 C 
BRANCH  34  35
ATOM     35  C   UNL A   1      35.609  31.655  29.047  1.00  0.00     0.116 C 
BRANCH  35  36
ATOM     36  N   UNL A   1      35.552  30.884  30.278  1.00  0.00    -0.352 N 
ATOM     37  C   UNL A   1      36.542  30.147  30.891  1.00  0.00     0.251 C 
ATOM     38  H   UNL A   1      34.683  30.890  30.740  1.00  0.00     0.163 HD
ATOM     39  O   UNL A   1      36.283  29.506  31.908  1.00  0.00    -0.269 OA
BRANCH  37  40
ATOM     40  C   UNL A   1      37.899  30.083  30.299  1.00  0.00     0.039 A 
ATOM     41  C   UNL A   1      38.087  30.114  28.917  1.00  0.00     0.014 A 
ATOM     42  C   UNL A   1      39.004  29.948  31.147  1.00  0.00     0.014 A 
ATOM     43  C   UNL A   1      39.337  29.815  28.383  1.00  0.00     0.010 A 
ATOM     44  C   UNL A   1      40.278  29.739  30.606  1.00  0.00     0.010 A 
ATOM     45  C   UNL A   1      40.446  29.604  29.220  1.00  0.00    -0.014 A 
BRANCH  45  46
ATOM     46  C   UNL A   1      41.748  29.209  28.617  1.00  0.00     0.031 A 
ATOM     47  C   UNL A   1      42.906  30.175  28.582  1.00  0.00     0.074 A 
ATOM     48  C   UNL A   1      41.920  27.945  28.181  1.00  0.00     0.049 A 
ATOM     49  N   UNL A   1      44.133  29.977  28.171  1.00  0.00    -0.248 NA
ATOM     50  C   UNL A   1      42.654  31.542  29.067  1.00  0.00     0.031 C 
ATOM     51  C   UNL A   1      40.881  26.912  28.169  1.00  0.00     0.029 A 
ATOM     52  N   UNL A   1      43.033  27.298  27.705  1.00  0.00    -0.354 N 
ATOM     53  C   UNL A   1      44.795  31.188  28.343  1.00  0.00     0.074 A 
ATOM     54  C   UNL A   1      43.822  32.130  28.850  1.00  0.00     0.031 C 
ATOM     55  C   UNL A   1      41.422  25.748  27.780  1.00  0.00     0.029 A 
ATOM     56  C   UNL A   1      42.831  25.961  27.460  1.00  0.00     0.049 A 
ATOM     57  H   UNL A   1      43.895  27.751  27.553  1.00  0.00     0.167 HD
ATOM     58  C   UNL A   1      46.100  31.485  28.121  1.00  0.00     0.037 A 
ATOM     59  C   UNL A   1      43.680  25.008  27.027  1.00  0.00     0.037 A 
ATOM     60  C   UNL A   1      47.074  30.540  27.640  1.00  0.00     0.049 A 
ATOM     61  C   UNL A   1      45.106  25.374  26.731  1.00  0.00     0.074 A 
ATOM     62  C   UNL A   1      48.424  30.739  27.411  1.00  0.00     0.029 A 
ATOM     63  N   UNL A   1      46.804  29.217  27.319  1.00  0.00    -0.354 N 
ATOM     64  N   UNL A   1      45.714  26.522  26.910  1.00  0.00    -0.248 NA
ATOM     65  C   UNL A   1      45.957  24.324  26.154  1.00  0.00     0.031 C 
ATOM     66  C   UNL A   1      48.961  29.548  26.909  1.00  0.00     0.029 A 
ATOM     67  C   UNL A   1      47.954  28.598  26.861  1.00  0.00     0.049 A 
ATOM     68  H   UNL A   1      45.923  28.784  27.403  1.00  0.00     0.167 HD
ATOM     69  C   UNL A   1      47.018  26.334  26.466  1.00  0.00     0.074 A 
ATOM     70  C   UNL A   1      47.117  24.956  26.030  1.00  0.00     0.031 C 
ATOM     71  C   UNL A   1      48.036  27.228  26.417  1.00  0.00     0.037 A 
BRANCH  58  72
ATOM     72  C   UNL A   1      46.550  32.894  28.397  1.00  0.00     0.058 A 
ATOM     73  C   UNL A   1      46.512  33.884  27.403  1.00  0.00     0.135 A 
ATOM     74  C   UNL A   1      46.997  33.267  29.674  1.00  0.00     0.135 A 
ATOM     75  F   UNL A   1      46.105  33.581  26.161  1.00  0.00    -0.206 F 
ATOM     76  C   UNL A   1      46.934  35.187  27.656  1.00  0.00     0.059 A 
ATOM     77  C   UNL A   1      47.402  34.569  29.957  1.00  0.00     0.059 A 
ATOM     78  F   UNL A   1      47.051  32.360  30.664  1.00  0.00    -0.206 F 
ATOM     79  C   UNL A   1      47.382  35.518  28.936  1.00  0.00     0.060 A 
BRANCH  79  80
ATOM     80  S   UNL A   1      47.944  37.207  29.239  1.00  0.00     0.124 S 
ATOM     81  O   UNL A   1      49.382  37.010  29.397  1.00  0.00    -0.237 OA
ATOM     82  O   UNL A   1      47.532  37.898  28.021  1.00  0.00    -0.237 OA
ATOM     83  O   UNL A   1      47.228  37.594  30.450  1.00  0.00    -0.744 OA
ENDBRANCH  79  80
ENDBRANCH  58  72
BRANCH  59  84
ATOM     84  C   UNL A   1      43.193  23.614  26.861  1.00  0.00     0.058 A 
ATOM     85  C   UNL A   1      42.951  23.084  25.587  1.00  0.00     0.135 A 
ATOM     86  C   UNL A   1      43.016  22.768  27.968  1.00  0.00     0.135 A 
ATOM     87  F   UNL A   1      43.097  23.856  24.500  1.00  0.00    -0.206 F 
ATOM     88  C   UNL A   1      42.560  21.760  25.413  1.00  0.00     0.059 A 
ATOM     89  C   UNL A   1      42.648  21.436  27.818  1.00  0.00     0.059 A 
ATOM     90  F   UNL A   1      43.245  23.227  29.208  1.00  0.00    -0.206 F 
ATOM     91  C   UNL A   1      42.421  20.940  26.535  1.00  0.00     0.060 A 
BRANCH  91  92
ATOM     92  S   UNL A   1      41.995  19.202  26.289  1.00  0.00     0.124 S 
ATOM     93  O   UNL A   1      40.581  19.291  25.943  1.00  0.00    -0.237 OA
ATOM     94  O   UNL A   1      42.895  18.818  25.207  1.00  0.00    -0.237 OA
ATOM     95  O   UNL A   1      42.292  18.598  27.585  1.00  0.00    -0.744 OA
ENDBRANCH  91  92
ENDBRANCH  59  84
BRANCH  71  96
ATOM     96  C   UNL A   1      49.346  26.763  25.850  1.00  0.00     0.058 A 
ATOM     97  C   UNL A   1      49.721  27.088  24.537  1.00  0.00     0.135 A 
ATOM     98  C   UNL A   1      50.277  26.082  26.652  1.00  0.00     0.135 A 
ATOM     99  F   UNL A   1      48.863  27.728  23.729  1.00  0.00    -0.206 F 
ATOM    100  C   UNL A   1      50.978  26.759  24.040  1.00  0.00     0.059 A 
ATOM    101  C   UNL A   1      51.547  25.763  26.181  1.00  0.00     0.059 A 
ATOM    102  F   UNL A   1      49.967  25.754  27.916  1.00  0.00    -0.206 F 
ATOM    103  C   UNL A   1      51.888  26.108  24.874  1.00  0.00     0.060 A 
BRANCH 103 104
ATOM    104  S   UNL A   1      53.544  25.767  24.239  1.00  0.00     0.124 S 
ATOM    105  O   UNL A   1      53.752  24.391  24.680  1.00  0.00    -0.237 OA
ATOM    106  O   UNL A   1      53.369  25.952  22.802  1.00  0.00    -0.237 OA
ATOM    107  O   UNL A   1      54.376  26.769  24.899  1.00  0.00    -0.744 OA
ENDBRANCH 103 104
ENDBRANCH  71  96
ENDBRANCH  45  46
ENDBRANCH  37  40
ENDBRANCH  35  36
ENDBRANCH  34  35
ENDBRANCH  33  34
ENDBRANCH   1  33
TORSDOF 19
ENDMDL
MODEL 2
REMARK VINA RESULT:     -12.4      5.865      8.017
REMARK SMILES CC(C)(C(=O)N1C[C@@H]2c3ccccc3OC[C@]2(C(=O)NCCCCCCNC(=O)c2ccc(-c3c4nc(c(-c5c(F)cc(S(=O)(=O)[O-])cc5F)c5ccc([nH]5)c(-c5c(F)cc(S(=O)(=O)[O-])cc5F)c5nc(c(-c6c(F)cc(S(=O)(=O)[O-])cc6F)c6ccc3[nH]6)C=C5)C=C4)cc2)C1)[NH+]1CCOCC1
REMARK SMILES IDX 23 1 22 2 21 3 20 4 18 5 19 6 17 8 6 9 7 10 96 11 8 12 9 13
REMARK SMILES IDX 16 14 10 15 14 16 15 17 11 18 13 19 12 20 4 21 5 22 2 23
REMARK SMILES IDX 1 24 3 25 97 26 98 27 102 28 99 30 101 31 100 32 24 33 25 34
REMARK SMILES IDX 26 35 27 36 28 37 29 39 30 40 31 41 95 42 32 43 94 44 33 45
REMARK SMILES IDX 34 46 35 47 88 48 36 49 93 50 87 51 89 52 37 53 92 54 86 55
REMARK SMILES IDX 85 56 38 58 72 59 51 60 71 61 52 62 55 63 70 64 90 65 53 66
REMARK SMILES IDX 54 67 69 69 91 70 56 71 39 72 40 73 49 74 41 75 42 76 48 77
REMARK SMILES IDX 50 78 43 79 44 80 45 81 46 82 47 83 73 84 74 85 83 86 75 87
REMARK SMILES IDX 76 88 82 89 84 90 77 91 78 92 79 93 80 94 81 95 57 96 58 97
REMARK SMILES IDX 67 98 59 99 60 100 66 101 68 102 61 103 62 104 63 105 64 106
REMARK SMILES IDX 65 107
REMARK H PARENT 20 7 97 29 27 38 89 57 55 68
REMARK Flexibility Score: inf
ROOT
ATOM      1  C   UNL A   1      34.582  29.296  27.584  1.00  0.00     0.002 C 
ENDROOT
BRANCH   1   2
ATOM      2  C   UNL A   1      33.262  28.915  26.910  1.00  0.00     0.021 C 
BRANCH   2   3
ATOM      3  C   UNL A   1      33.065  29.349  25.467  1.00  0.00     0.116 C 
BRANCH   3   4
ATOM      4  N   UNL A   1      34.047  28.858  24.513  1.00  0.00    -0.355 N 
ATOM      5  C   UNL A   1      33.756  28.452  23.220  1.00  0.00     0.232 C 
ATOM      6  O   UNL A   1      34.620  28.574  22.347  1.00  0.00    -0.274 OA
ATOM      7  H   UNL A   1      34.986  28.811  24.807  1.00  0.00     0.163 HD
BRANCH   5   8
ATOM      8  C   UNL A   1      32.340  27.822  22.992  1.00  0.00     0.109 C 
ATOM      9  N   UNL A   1      32.288  25.425  23.538  1.00  0.00    -0.335 N 
ATOM     10  C   UNL A   1      30.945  25.841  23.257  1.00  0.00     0.129 C 
ATOM     11  C   UNL A   1      33.049  26.620  23.853  1.00  0.00     0.141 C 
ATOM     12  C   UNL A   1      30.962  27.322  23.650  1.00  0.00     0.063 C 
ATOM     13  C   UNL A   1      29.648  27.958  23.264  1.00  0.00     0.000 A 
ATOM     14  C   UNL A   1      31.884  29.350  22.940  1.00  0.00     0.249 C 
ATOM     15  C   UNL A   1      28.422  27.511  23.779  1.00  0.00     0.008 A 
ATOM     16  C   UNL A   1      29.653  29.067  22.435  1.00  0.00     0.122 A 
ATOM     17  O   UNL A   1      30.833  29.553  21.966  1.00  0.00    -0.492 OA
ATOM     18  C   UNL A   1      27.232  28.164  23.444  1.00  0.00     0.001 A 
ATOM     19  C   UNL A   1      28.474  29.714  22.075  1.00  0.00     0.047 A 
ATOM     20  C   UNL A   1      27.258  29.266  22.590  1.00  0.00     0.004 A 
BRANCH   9  21
ATOM     21  C   UNL A   1      32.799  24.257  22.982  1.00  0.00     0.283 C 
ATOM     22  O   UNL A   1      33.263  24.305  21.837  1.00  0.00    -0.268 OA
BRANCH  21  23
ATOM     23  C   UNL A   1      32.639  22.878  23.782  1.00  0.00     0.171 C 
ATOM     24  C   UNL A   1      31.518  22.893  24.835  1.00  0.00     0.090 C 
ATOM     25  C   UNL A   1      32.227  21.838  22.712  1.00  0.00     0.090 C 
BRANCH  23  26
ATOM     26  N   UNL A   1      33.975  22.591  24.387  1.00  0.00    -0.319 N 
ATOM     27  C   UNL A   1      34.380  21.208  24.661  1.00  0.00     0.291 C 
ATOM     28  C   UNL A   1      34.445  23.456  25.486  1.00  0.00     0.291 C 
ATOM     29  H   UNL A   1      34.461  22.860  23.530  1.00  0.00     0.349 HD
ATOM     30  C   UNL A   1      33.917  20.726  26.039  1.00  0.00     0.221 C 
ATOM     31  C   UNL A   1      34.125  22.922  26.903  1.00  0.00     0.221 C 
ATOM     32  O   UNL A   1      34.480  21.547  27.067  1.00  0.00    -0.370 OA
ENDBRANCH  23  26
ENDBRANCH  21  23
ENDBRANCH   9  21
ENDBRANCH   5   8
ENDBRANCH   3   4
ENDBRANCH   2   3
ENDBRANCH   1   2
BRANCH   1  33
ATOM     33  C   UNL A   1      34.797  30.756  27.993  1.00  0.00     0.002 C 
BRANCH  33  34
ATOM     34  C   UNL A   1      33.568  31.658  28.084  1.00  0.00     0.021 C 
BRANCH  34  35
ATOM     35  C   UNL A   1      33.524  32.854  27.143  1.00  0.00     0.116 C 
BRANCH  35  36
ATOM     36  N   UNL A   1      32.854  34.019  27.695  1.00  0.00    -0.352 N 
ATOM     37  C   UNL A   1      33.187  34.774  28.799  1.00  0.00     0.251 C 
ATOM     38  H   UNL A   1      32.048  34.311  27.212  1.00  0.00     0.163 HD
ATOM     39  O   UNL A   1      32.456  35.697  29.150  1.00  0.00    -0.269 OA
BRANCH  37  40
ATOM     40  C   UNL A   1      34.395  34.442  29.592  1.00  0.00     0.039 A 
ATOM     41  C   UNL A   1      35.674  34.566  29.047  1.00  0.00     0.014 A 
ATOM     42  C   UNL A   1      34.239  33.956  30.895  1.00  0.00     0.014 A 
ATOM     43  C   UNL A   1      36.766  34.026  29.721  1.00  0.00     0.010 A 
ATOM     44  C   UNL A   1      35.354  33.499  31.608  1.00  0.00     0.010 A 
ATOM     45  C   UNL A   1      36.619  33.469  31.002  1.00  0.00    -0.014 A 
BRANCH  45  46
ATOM     46  C   UNL A   1      37.793  32.830  31.658  1.00  0.00     0.031 A 
ATOM     47  C   UNL A   1      38.278  33.309  33.003  1.00  0.00     0.074 A 
ATOM     48  C   UNL A   1      38.371  31.756  31.083  1.00  0.00     0.049 A 
ATOM     49  N   UNL A   1      39.231  32.821  33.758  1.00  0.00    -0.248 NA
ATOM     50  C   UNL A   1      37.611  34.490  33.576  1.00  0.00     0.031 C 
ATOM     51  C   UNL A   1      37.988  31.191  29.787  1.00  0.00     0.029 A 
ATOM     52  N   UNL A   1      39.368  30.924  31.526  1.00  0.00    -0.354 N 
ATOM     53  C   UNL A   1      39.280  33.633  34.886  1.00  0.00     0.074 A 
ATOM     54  C   UNL A   1      38.294  34.675  34.697  1.00  0.00     0.031 C 
ATOM     55  C   UNL A   1      38.688  30.066  29.574  1.00  0.00     0.029 A 
ATOM     56  C   UNL A   1      39.609  29.860  30.689  1.00  0.00     0.049 A 
ATOM     57  H   UNL A   1      39.862  31.075  32.364  1.00  0.00     0.167 HD
ATOM     58  C   UNL A   1      40.057  33.512  35.990  1.00  0.00     0.037 A 
ATOM     59  C   UNL A   1      40.473  28.831  30.801  1.00  0.00     0.037 A 
ATOM     60  C   UNL A   1      41.020  32.460  36.189  1.00  0.00     0.049 A 
ATOM     61  C   UNL A   1      41.366  28.750  32.006  1.00  0.00     0.074 A 
ATOM     62  C   UNL A   1      41.835  32.236  37.285  1.00  0.00     0.029 A 
ATOM     63  N   UNL A   1      41.296  31.454  35.274  1.00  0.00    -0.354 N 
ATOM     64  N   UNL A   1      41.389  29.521  33.066  1.00  0.00    -0.248 NA
ATOM     65  C   UNL A   1      42.366  27.673  32.022  1.00  0.00     0.031 C 
ATOM     66  C   UNL A   1      42.635  31.120  37.014  1.00  0.00     0.029 A 
ATOM     67  C   UNL A   1      42.292  30.627  35.766  1.00  0.00     0.049 A 
ATOM     68  H   UNL A   1      40.849  31.345  34.403  1.00  0.00     0.167 HD
ATOM     69  C   UNL A   1      42.405  29.026  33.873  1.00  0.00     0.074 A 
ATOM     70  C   UNL A   1      42.959  27.874  33.191  1.00  0.00     0.031 C 
ATOM     71  C   UNL A   1      42.844  29.491  35.069  1.00  0.00     0.037 A 
BRANCH  58  72
ATOM     72  C   UNL A   1      39.898  34.545  37.072  1.00  0.00     0.058 A 
ATOM     73  C   UNL A   1      39.025  34.348  38.153  1.00  0.00     0.135 A 
ATOM     74  C   UNL A   1      40.648  35.732  37.046  1.00  0.00     0.135 A 
ATOM     75  F   UNL A   1      38.275  33.238  38.222  1.00  0.00    -0.206 F 
ATOM     76  C   UNL A   1      38.873  35.306  39.151  1.00  0.00     0.059 A 
ATOM     77  C   UNL A   1      40.531  36.694  38.046  1.00  0.00     0.059 A 
ATOM     78  F   UNL A   1      41.502  35.971  36.037  1.00  0.00    -0.206 F 
ATOM     79  C   UNL A   1      39.627  36.479  39.086  1.00  0.00     0.060 A 
BRANCH  79  80
ATOM     80  S   UNL A   1      39.402  37.718  40.379  1.00  0.00     0.124 S 
ATOM     81  O   UNL A   1      39.309  36.881  41.571  1.00  0.00    -0.237 OA
ATOM     82  O   UNL A   1      40.617  38.519  40.262  1.00  0.00    -0.237 OA
ATOM     83  O   UNL A   1      38.168  38.396  39.992  1.00  0.00    -0.744 OA
ENDBRANCH  79  80
ENDBRANCH  58  72
BRANCH  59  84
ATOM     84  C   UNL A   1      40.516  27.793  29.739  1.00  0.00     0.058 A 
ATOM     85  C   UNL A   1      41.541  27.784  28.784  1.00  0.00     0.135 A 
ATOM     86  C   UNL A   1      39.568  26.757  29.693  1.00  0.00     0.135 A 
ATOM     87  F   UNL A   1      42.465  28.757  28.782  1.00  0.00    -0.206 F 
ATOM     88  C   UNL A   1      41.633  26.780  27.825  1.00  0.00     0.059 A 
ATOM     89  C   UNL A   1      39.652  25.732  28.759  1.00  0.00     0.059 A 
ATOM     90  F   UNL A   1      38.573  26.717  30.593  1.00  0.00    -0.206 F 
ATOM     91  C   UNL A   1      40.689  25.751  27.828  1.00  0.00     0.060 A 
BRANCH  91  92
ATOM     92  S   UNL A   1      40.868  24.409  26.632  1.00  0.00     0.124 S 
ATOM     93  O   UNL A   1      41.362  23.327  27.476  1.00  0.00    -0.237 OA
ATOM     94  O   UNL A   1      39.505  24.260  26.135  1.00  0.00    -0.237 OA
ATOM     95  O   UNL A   1      41.824  24.945  25.667  1.00  0.00    -0.744 OA
ENDBRANCH  91  92
ENDBRANCH  59  84
BRANCH  71  96
ATOM     96  C   UNL A   1      43.997  28.779  35.715  1.00  0.00     0.058 A 
ATOM     97  C   UNL A   1      43.784  27.684  36.566  1.00  0.00     0.135 A 
ATOM     98  C   UNL A   1      45.322  29.122  35.402  1.00  0.00     0.135 A 
ATOM     99  F   UNL A   1      42.536  27.324  36.903  1.00  0.00    -0.206 F 
ATOM    100  C   UNL A   1      44.846  26.947  37.079  1.00  0.00     0.059 A 
ATOM    101  C   UNL A   1      46.399  28.386  35.887  1.00  0.00     0.059 A 
ATOM    102  F   UNL A   1      45.578  30.158  34.588  1.00  0.00    -0.206 F 
ATOM    103  C   UNL A   1      46.149  27.298  36.724  1.00  0.00     0.060 A 
BRANCH 103 104
ATOM    104  S   UNL A   1      47.510  26.279  37.331  1.00  0.00     0.124 S 
ATOM    105  O   UNL A   1      48.664  26.927  36.714  1.00  0.00    -0.237 OA
ATOM    106  O   UNL A   1      47.394  26.436  38.778  1.00  0.00    -0.237 OA
ATOM    107  O   UNL A   1      47.193  24.948  36.823  1.00  0.00    -0.744 OA
ENDBRANCH 103 104
ENDBRANCH  71  96
ENDBRANCH  45  46
ENDBRANCH  37  40
ENDBRANCH  35  36
ENDBRANCH  34  35
ENDBRANCH  33  34
ENDBRANCH   1  33
TORSDOF 19
ENDMDL
MODEL 3
REMARK VINA RESULT:     -12.4      5.980     10.535
REMARK SMILES CC(C)(C(=O)N1C[C@@H]2c3ccccc3OC[C@]2(C(=O)NCCCCCCNC(=O)c2ccc(-c3c4nc(c(-c5c(F)cc(S(=O)(=O)[O-])cc5F)c5ccc([nH]5)c(-c5c(F)cc(S(=O)(=O)[O-])cc5F)c5nc(c(-c6c(F)cc(S(=O)(=O)[O-])cc6F)c6ccc3[nH]6)C=C5)C=C4)cc2)C1)[NH+]1CCOCC1
REMARK SMILES IDX 23 1 22 2 21 3 20 4 18 5 19 6 17 8 6 9 7 10 96 11 8 12 9 13
REMARK SMILES IDX 16 14 10 15 14 16 15 17 11 18 13 19 12 20 4 21 5 22 2 23
REMARK SMILES IDX 1 24 3 25 97 26 98 27 102 28 99 30 101 31 100 32 24 33 25 34
REMARK SMILES IDX 26 35 27 36 28 37 29 39 30 40 31 41 95 42 32 43 94 44 33 45
REMARK SMILES IDX 34 46 35 47 88 48 36 49 93 50 87 51 89 52 37 53 92 54 86 55
REMARK SMILES IDX 85 56 38 58 72 59 51 60 71 61 52 62 55 63 70 64 90 65 53 66
REMARK SMILES IDX 54 67 69 69 91 70 56 71 39 72 40 73 49 74 41 75 42 76 48 77
REMARK SMILES IDX 50 78 43 79 44 80 45 81 46 82 47 83 73 84 74 85 83 86 75 87
REMARK SMILES IDX 76 88 82 89 84 90 77 91 78 92 79 93 80 94 81 95 57 96 58 97
REMARK SMILES IDX 67 98 59 99 60 100 66 101 68 102 61 103 62 104 63 105 64 106
REMARK SMILES IDX 65 107
REMARK H PARENT 20 7 97 29 27 38 89 57 55 68
REMARK Flexibility Score: inf
ROOT
ATOM      1  C   UNL A   1      34.818  29.502  27.562  1.00  0.00     0.002 C 
ENDROOT
BRANCH   1   2
ATOM      2  C   UNL A   1      33.421  28.974  27.229  1.00  0.00     0.021 C 
BRANCH   2   3
ATOM      3  C   UNL A   1      32.934  29.140  25.799  1.00  0.00     0.116 C 
BRANCH   3   4
ATOM      4  N   UNL A   1      33.923  28.910  24.758  1.00  0.00    -0.355 N 
ATOM      5  C   UNL A   1      33.623  28.608  23.438  1.00  0.00     0.232 C 
ATOM      6  O   UNL A   1      34.410  28.952  22.553  1.00  0.00    -0.274 OA
ATOM      7  H   UNL A   1      34.873  28.974  25.008  1.00  0.00     0.163 HD
BRANCH   5   8
ATOM      8  C   UNL A   1      32.304  27.798  23.194  1.00  0.00     0.109 C 
ATOM      9  N   UNL A   1      32.628  25.378  23.482  1.00  0.00    -0.335 N 
ATOM     10  C   UNL A   1      31.226  25.614  23.295  1.00  0.00     0.129 C 
ATOM     11  C   UNL A   1      33.222  26.635  23.896  1.00  0.00     0.141 C 
ATOM     12  C   UNL A   1      31.048  27.034  23.843  1.00  0.00     0.063 C 
ATOM     13  C   UNL A   1      29.638  27.501  23.574  1.00  0.00     0.000 A 
ATOM     14  C   UNL A   1      31.628  29.239  23.322  1.00  0.00     0.249 C 
ATOM     15  C   UNL A   1      28.517  26.827  24.080  1.00  0.00     0.008 A 
ATOM     16  C   UNL A   1      29.440  28.677  22.868  1.00  0.00     0.122 A 
ATOM     17  O   UNL A   1      30.512  29.378  22.413  1.00  0.00    -0.492 OA
ATOM     18  C   UNL A   1      27.230  27.325  23.859  1.00  0.00     0.001 A 
ATOM     19  C   UNL A   1      28.163  29.172  22.621  1.00  0.00     0.047 A 
ATOM     20  C   UNL A   1      27.052  28.499  23.127  1.00  0.00     0.004 A 
BRANCH   9  21
ATOM     21  C   UNL A   1      33.275  24.362  22.787  1.00  0.00     0.283 C 
ATOM     22  O   UNL A   1      33.280  24.406  21.551  1.00  0.00    -0.268 OA
BRANCH  21  23
ATOM     23  C   UNL A   1      33.858  23.111  23.600  1.00  0.00     0.171 C 
ATOM     24  C   UNL A   1      33.148  21.781  23.297  1.00  0.00     0.090 C 
ATOM     25  C   UNL A   1      35.318  22.955  23.106  1.00  0.00     0.090 C 
BRANCH  23  26
ATOM     26  N   UNL A   1      33.772  23.479  25.046  1.00  0.00    -0.319 N 
ATOM     27  C   UNL A   1      34.962  23.401  25.901  1.00  0.00     0.291 C 
ATOM     28  C   UNL A   1      32.598  23.021  25.815  1.00  0.00     0.291 C 
ATOM     29  H   UNL A   1      33.651  24.468  24.825  1.00  0.00     0.349 HD
ATOM     30  C   UNL A   1      35.153  22.009  26.510  1.00  0.00     0.221 C 
ATOM     31  C   UNL A   1      32.807  21.686  26.569  1.00  0.00     0.221 C 
ATOM     32  O   UNL A   1      34.025  21.661  27.318  1.00  0.00    -0.370 OA
ENDBRANCH  23  26
ENDBRANCH  21  23
ENDBRANCH   9  21
ENDBRANCH   5   8
ENDBRANCH   3   4
ENDBRANCH   2   3
ENDBRANCH   1   2
BRANCH   1  33
ATOM     33  C   UNL A   1      34.946  30.920  28.125  1.00  0.00     0.002 C 
BRANCH  33  34
ATOM     34  C   UNL A   1      33.704  31.808  28.107  1.00  0.00     0.021 C 
BRANCH  34  35
ATOM     35  C   UNL A   1      33.771  33.065  27.251  1.00  0.00     0.116 C 
BRANCH  35  36
ATOM     36  N   UNL A   1      33.064  34.204  27.811  1.00  0.00    -0.352 N 
ATOM     37  C   UNL A   1      33.276  34.859  29.005  1.00  0.00     0.251 C 
ATOM     38  H   UNL A   1      32.331  34.558  27.260  1.00  0.00     0.163 HD
ATOM     39  O   UNL A   1      32.527  35.775  29.340  1.00  0.00    -0.269 OA
BRANCH  37  40
ATOM     40  C   UNL A   1      34.369  34.428  29.908  1.00  0.00     0.039 A 
ATOM     41  C   UNL A   1      35.709  34.576  29.544  1.00  0.00     0.014 A 
ATOM     42  C   UNL A   1      34.044  33.825  31.128  1.00  0.00     0.014 A 
ATOM     43  C   UNL A   1      36.701  33.952  30.295  1.00  0.00     0.010 A 
ATOM     44  C   UNL A   1      35.055  33.278  31.929  1.00  0.00     0.010 A 
ATOM     45  C   UNL A   1      36.386  33.279  31.487  1.00  0.00    -0.014 A 
BRANCH  45  46
ATOM     46  C   UNL A   1      37.462  32.556  32.221  1.00  0.00     0.031 A 
ATOM     47  C   UNL A   1      38.178  31.391  31.587  1.00  0.00     0.074 A 
ATOM     48  C   UNL A   1      37.858  33.008  33.428  1.00  0.00     0.049 A 
ATOM     49  N   UNL A   1      39.190  30.697  32.044  1.00  0.00    -0.248 NA
ATOM     50  C   UNL A   1      37.695  30.941  30.271  1.00  0.00     0.031 C 
ATOM     51  C   UNL A   1      37.252  34.132  34.145  1.00  0.00     0.029 A 
ATOM     52  N   UNL A   1      38.886  32.610  34.246  1.00  0.00    -0.354 N 
ATOM     53  C   UNL A   1      39.461  29.732  31.079  1.00  0.00     0.074 A 
ATOM     54  C   UNL A   1      38.476  29.897  30.033  1.00  0.00     0.031 C 
ATOM     55  C   UNL A   1      37.962  34.380  35.256  1.00  0.00     0.029 A 
ATOM     56  C   UNL A   1      39.038  33.398  35.362  1.00  0.00     0.049 A 
ATOM     57  H   UNL A   1      39.459  31.833  34.051  1.00  0.00     0.167 HD
ATOM     58  C   UNL A   1      40.451  28.807  31.054  1.00  0.00     0.037 A 
ATOM     59  C   UNL A   1      39.941  33.342  36.361  1.00  0.00     0.037 A 
ATOM     60  C   UNL A   1      41.447  28.660  32.085  1.00  0.00     0.049 A 
ATOM     61  C   UNL A   1      40.994  32.272  36.342  1.00  0.00     0.074 A 
ATOM     62  C   UNL A   1      42.506  27.771  32.135  1.00  0.00     0.029 A 
ATOM     63  N   UNL A   1      41.508  29.422  33.242  1.00  0.00    -0.354 N 
ATOM     64  N   UNL A   1      41.238  31.377  35.416  1.00  0.00    -0.248 NA
ATOM     65  C   UNL A   1      41.879  32.187  37.512  1.00  0.00     0.031 C 
ATOM     66  C   UNL A   1      43.182  27.967  33.345  1.00  0.00     0.029 A 
ATOM     67  C   UNL A   1      42.567  29.002  34.029  1.00  0.00     0.049 A 
ATOM     68  H   UNL A   1      40.889  30.153  33.470  1.00  0.00     0.167 HD
ATOM     69  C   UNL A   1      42.303  30.621  35.891  1.00  0.00     0.074 A 
ATOM     70  C   UNL A   1      42.671  31.178  37.177  1.00  0.00     0.031 C 
ATOM     71  C   UNL A   1      42.913  29.556  35.315  1.00  0.00     0.037 A 
BRANCH  58  72
ATOM     72  C   UNL A   1      40.508  27.878  29.872  1.00  0.00     0.058 A 
ATOM     73  C   UNL A   1      41.476  28.029  28.866  1.00  0.00     0.135 A 
ATOM     74  C   UNL A   1      39.606  26.809  29.755  1.00  0.00     0.135 A 
ATOM     75  F   UNL A   1      42.355  29.041  28.920  1.00  0.00    -0.206 F 
ATOM     76  C   UNL A   1      41.526  27.174  27.769  1.00  0.00     0.059 A 
ATOM     77  C   UNL A   1      39.652  25.926  28.679  1.00  0.00     0.059 A 
ATOM     78  F   UNL A   1      38.662  26.615  30.690  1.00  0.00    -0.206 F 
ATOM     79  C   UNL A   1      40.606  26.128  27.681  1.00  0.00     0.060 A 
BRANCH  79  80
ATOM     80  S   UNL A   1      40.674  25.042  26.241  1.00  0.00     0.124 S 
ATOM     81  O   UNL A   1      39.279  24.623  26.127  1.00  0.00    -0.237 OA
ATOM     82  O   UNL A   1      41.152  25.939  25.194  1.00  0.00    -0.237 OA
ATOM     83  O   UNL A   1      41.610  23.997  26.644  1.00  0.00    -0.744 OA
ENDBRANCH  79  80
ENDBRANCH  58  72
BRANCH  59  84
ATOM     84  C   UNL A   1      39.884  34.348  37.455  1.00  0.00     0.058 A 
ATOM     85  C   UNL A   1      40.627  35.533  37.381  1.00  0.00     0.135 A 
ATOM     86  C   UNL A   1      39.044  34.169  38.566  1.00  0.00     0.135 A 
ATOM     87  F   UNL A   1      41.451  35.745  36.343  1.00  0.00    -0.206 F 
ATOM     88  C   UNL A   1      40.533  36.513  38.363  1.00  0.00     0.059 A 
ATOM     89  C   UNL A   1      38.916  35.143  39.549  1.00  0.00     0.059 A 
ATOM     90  F   UNL A   1      38.305  33.055  38.677  1.00  0.00    -0.206 F 
ATOM     91  C   UNL A   1      39.666  36.313  39.439  1.00  0.00     0.060 A 
BRANCH  91  92
ATOM     92  S   UNL A   1      39.489  37.629  40.664  1.00  0.00     0.124 S 
ATOM     93  O   UNL A   1      39.243  36.867  41.883  1.00  0.00    -0.237 OA
ATOM     94  O   UNL A   1      40.782  38.300  40.579  1.00  0.00    -0.237 OA
ATOM     95  O   UNL A   1      38.356  38.403  40.164  1.00  0.00    -0.744 OA
ENDBRANCH  91  92
ENDBRANCH  59  84
BRANCH  71  96
ATOM     96  C   UNL A   1      44.029  28.896  36.073  1.00  0.00     0.058 A 
ATOM     97  C   UNL A   1      45.331  29.416  36.040  1.00  0.00     0.135 A 
ATOM     98  C   UNL A   1      43.776  27.804  36.919  1.00  0.00     0.135 A 
ATOM     99  F   UNL A   1      45.624  30.452  35.240  1.00  0.00    -0.206 F 
ATOM    100  C   UNL A   1      46.346  28.881  36.826  1.00  0.00     0.059 A 
ATOM    101  C   UNL A   1      44.772  27.266  37.730  1.00  0.00     0.059 A 
ATOM    102  F   UNL A   1      42.546  27.273  36.990  1.00  0.00    -0.206 F 
ATOM    103  C   UNL A   1      46.053  27.814  37.677  1.00  0.00     0.060 A 
BRANCH 103 104
ATOM    104  S   UNL A   1      47.362  27.188  38.753  1.00  0.00     0.124 S 
ATOM    105  O   UNL A   1      46.591  26.616  39.854  1.00  0.00    -0.237 OA
ATOM    106  O   UNL A   1      48.040  26.227  37.889  1.00  0.00    -0.237 OA
ATOM    107  O   UNL A   1      48.134  28.382  39.082  1.00  0.00    -0.744 OA
ENDBRANCH 103 104
ENDBRANCH  71  96
ENDBRANCH  45  46
ENDBRANCH  37  40
ENDBRANCH  35  36
ENDBRANCH  34  35
ENDBRANCH  33  34
ENDBRANCH   1  33
TORSDOF 19
ENDMDL
