MODEL 1
REMARK VINA RESULT:      -9.8      0.000      0.000
REMARK SMILES C[C@@](O)(c1ccc(Cl)cc1Cl)[C@@H](F)C(=O)NCCCCCCNC(=O)c1ccc(-c2c3nc(c(-c4c(F)cc(S(=O)(=O)[O-])cc4F)c4ccc([nH]4)c(-c4c(F)cc(S(=O)(=O)[O-])cc4F)c4nc(c(-c5c(F)cc(S(=O)(=O)[O-])cc5F)c5ccc2[nH]5)C=C4)C=C3)cc1
REMARK SMILES IDX 20 1 19 2 18 3 17 4 16 5 14 6 15 7 12 9 13 10 2 11 1 12 3 13
REMARK SMILES IDX 4 15 5 16 10 17 6 18 9 19 11 20 7 21 8 22 21 23 22 24 23 25
REMARK SMILES IDX 24 26 25 28 26 29 27 30 91 31 28 32 90 33 29 34 30 35 31 36
REMARK SMILES IDX 84 37 32 38 89 39 83 40 85 41 33 42 88 43 82 44 81 45 34 47
REMARK SMILES IDX 68 48 47 49 67 50 48 51 51 52 66 53 86 54 49 55 50 56 65 58
REMARK SMILES IDX 87 59 52 60 35 61 36 62 45 63 37 64 38 65 44 66 46 67 39 68
REMARK SMILES IDX 40 69 41 70 42 71 43 72 69 73 70 74 79 75 71 76 72 77 78 78
REMARK SMILES IDX 80 79 73 80 74 81 75 82 76 83 77 84 53 85 54 86 63 87 55 88
REMARK SMILES IDX 56 89 62 90 64 91 57 92 58 93 59 94 60 95 61 96
REMARK H PARENT 16 8 3 14 23 27 85 46 51 57
REMARK Flexibility Score: inf
ROOT
ATOM      1  C   UNL A   1      34.242  35.294  28.870  1.00  0.00     0.002 C 
ENDROOT
BRANCH   1   2
ATOM      2  C   UNL A   1      32.994  35.231  29.753  1.00  0.00     0.002 C 
BRANCH   2   3
ATOM      3  C   UNL A   1      32.918  36.309  30.836  1.00  0.00     0.021 C 
BRANCH   3   4
ATOM      4  C   UNL A   1      33.936  36.138  31.966  1.00  0.00     0.116 C 
BRANCH   4   5
ATOM      5  N   UNL A   1      33.535  35.047  32.837  1.00  0.00    -0.353 N 
ATOM      6  C   UNL A   1      33.909  33.735  32.813  1.00  0.00     0.257 C 
ATOM      7  O   UNL A   1      33.234  32.939  33.477  1.00  0.00    -0.272 OA
ATOM      8  H   UNL A   1      32.902  35.290  33.551  1.00  0.00     0.163 HD
BRANCH   6   9
ATOM      9  C   UNL A   1      35.064  33.231  31.945  1.00  0.00     0.291 C 
ATOM     10  F   UNL A   1      34.809  32.004  31.426  1.00  0.00    -0.233 F 
BRANCH   9  11
ATOM     11  C   UNL A   1      36.436  33.306  32.681  1.00  0.00     0.128 C 
ATOM     12  C   UNL A   1      36.866  32.025  33.405  1.00  0.00     0.051 C 
BRANCH  11  13
ATOM     13  O   UNL A   1      36.311  34.284  33.754  1.00  0.00    -0.382 OA
ATOM     14  H   UNL A   1      36.722  35.118  33.479  1.00  0.00     0.212 HD
ENDBRANCH  11  13
BRANCH  11  15
ATOM     15  C   UNL A   1      37.571  33.798  31.751  1.00  0.00     0.005 A 
ATOM     16  C   UNL A   1      37.346  33.807  30.353  1.00  0.00     0.010 A 
ATOM     17  C   UNL A   1      38.822  34.292  32.190  1.00  0.00     0.048 A 
ATOM     18  C   UNL A   1      38.293  34.294  29.448  1.00  0.00     0.021 A 
ATOM     19  C   UNL A   1      39.779  34.763  31.276  1.00  0.00     0.041 A 
ATOM     20  Cl  UNL A   1      39.293  34.414  33.850  1.00  0.00    -0.084 Cl
ATOM     21  C   UNL A   1      39.508  34.769  29.915  1.00  0.00     0.042 A 
ATOM     22  Cl  UNL A   1      40.672  35.380  28.806  1.00  0.00    -0.084 Cl
ENDBRANCH  11  15
ENDBRANCH   9  11
ENDBRANCH   6   9
ENDBRANCH   4   5
ENDBRANCH   3   4
ENDBRANCH   2   3
ENDBRANCH   1   2
BRANCH   1  23
ATOM     23  C   UNL A   1      34.334  34.215  27.787  1.00  0.00     0.021 C 
BRANCH  23  24
ATOM     24  C   UNL A   1      35.016  32.917  28.216  1.00  0.00     0.116 C 
BRANCH  24  25
ATOM     25  N   UNL A   1      34.161  31.758  28.017  1.00  0.00    -0.352 N 
ATOM     26  C   UNL A   1      34.499  30.437  27.899  1.00  0.00     0.251 C 
ATOM     27  H   UNL A   1      33.198  31.953  27.962  1.00  0.00     0.163 HD
ATOM     28  O   UNL A   1      33.650  29.621  27.532  1.00  0.00    -0.269 OA
BRANCH  26  29
ATOM     29  C   UNL A   1      35.876  29.989  28.190  1.00  0.00     0.039 A 
ATOM     30  C   UNL A   1      36.829  30.034  27.170  1.00  0.00     0.014 A 
ATOM     31  C   UNL A   1      36.225  29.509  29.457  1.00  0.00     0.014 A 
ATOM     32  C   UNL A   1      38.144  29.647  27.435  1.00  0.00     0.010 A 
ATOM     33  C   UNL A   1      37.551  29.184  29.736  1.00  0.00     0.010 A 
ATOM     34  C   UNL A   1      38.523  29.248  28.727  1.00  0.00    -0.014 A 
BRANCH  34  35
ATOM     35  C   UNL A   1      39.938  28.914  29.032  1.00  0.00     0.031 A 
ATOM     36  C   UNL A   1      40.830  29.910  29.719  1.00  0.00     0.074 A 
ATOM     37  C   UNL A   1      40.429  27.719  28.647  1.00  0.00     0.049 A 
ATOM     38  N   UNL A   1      42.085  29.787  30.073  1.00  0.00    -0.248 NA
ATOM     39  C   UNL A   1      40.247  31.225  30.026  1.00  0.00     0.031 C 
ATOM     40  C   UNL A   1      39.679  26.693  27.921  1.00  0.00     0.029 A 
ATOM     41  N   UNL A   1      41.674  27.166  28.813  1.00  0.00    -0.354 N 
ATOM     42  C   UNL A   1      42.444  31.007  30.632  1.00  0.00     0.074 A 
ATOM     43  C   UNL A   1      41.289  31.874  30.525  1.00  0.00     0.031 C 
ATOM     44  C   UNL A   1      40.466  25.622  27.735  1.00  0.00     0.029 A 
ATOM     45  C   UNL A   1      41.783  25.894  28.302  1.00  0.00     0.049 A 
ATOM     46  H   UNL A   1      42.417  27.635  29.255  1.00  0.00     0.167 HD
ATOM     47  C   UNL A   1      43.620  31.366  31.201  1.00  0.00     0.037 A 
ATOM     48  C   UNL A   1      42.824  25.040  28.299  1.00  0.00     0.037 A 
ATOM     49  C   UNL A   1      44.758  30.491  31.324  1.00  0.00     0.049 A 
ATOM     50  C   UNL A   1      44.113  25.453  28.951  1.00  0.00     0.074 A 
ATOM     51  C   UNL A   1      45.966  30.731  31.954  1.00  0.00     0.029 A 
ATOM     52  N   UNL A   1      44.831  29.209  30.798  1.00  0.00    -0.354 N 
ATOM     53  N   UNL A   1      44.410  26.582  29.551  1.00  0.00    -0.248 NA
ATOM     54  C   UNL A   1      45.208  24.475  28.933  1.00  0.00     0.031 C 
ATOM     55  C   UNL A   1      46.786  29.610  31.773  1.00  0.00     0.029 A 
ATOM     56  C   UNL A   1      46.073  28.655  31.066  1.00  0.00     0.049 A 
ATOM     57  H   UNL A   1      44.107  28.758  30.307  1.00  0.00     0.167 HD
ATOM     58  C   UNL A   1      45.719  26.444  29.996  1.00  0.00     0.074 A 
ATOM     59  C   UNL A   1      46.150  25.114  29.612  1.00  0.00     0.031 C 
ATOM     60  C   UNL A   1      46.493  27.335  30.663  1.00  0.00     0.037 A 
BRANCH  47  61
ATOM     61  C   UNL A   1      43.733  32.771  31.731  1.00  0.00     0.058 A 
ATOM     62  C   UNL A   1      43.191  33.137  32.974  1.00  0.00     0.135 A 
ATOM     63  C   UNL A   1      44.401  33.761  30.993  1.00  0.00     0.135 A 
ATOM     64  F   UNL A   1      42.533  32.233  33.717  1.00  0.00    -0.206 F 
ATOM     65  C   UNL A   1      43.271  34.443  33.447  1.00  0.00     0.059 A 
ATOM     66  C   UNL A   1      44.515  35.068  31.458  1.00  0.00     0.059 A 
ATOM     67  F   UNL A   1      44.940  33.467  29.799  1.00  0.00    -0.206 F 
ATOM     68  C   UNL A   1      43.930  35.403  32.678  1.00  0.00     0.060 A 
BRANCH  68  69
ATOM     69  S   UNL A   1      44.007  37.099  33.292  1.00  0.00     0.124 S 
ATOM     70  O   UNL A   1      45.415  37.211  33.658  1.00  0.00    -0.237 OA
ATOM     71  O   UNL A   1      43.592  37.874  32.127  1.00  0.00    -0.237 OA
ATOM     72  O   UNL A   1      43.066  37.100  34.408  1.00  0.00    -0.744 OA
ENDBRANCH  68  69
ENDBRANCH  47  61
BRANCH  48  73
ATOM     73  C   UNL A   1      42.668  23.690  27.697  1.00  0.00     0.058 A 
ATOM     74  C   UNL A   1      42.816  23.501  26.316  1.00  0.00     0.135 A 
ATOM     75  C   UNL A   1      42.406  22.563  28.490  1.00  0.00     0.135 A 
ATOM     76  F   UNL A   1      43.060  24.551  25.517  1.00  0.00    -0.206 F 
ATOM     77  C   UNL A   1      42.705  22.241  25.737  1.00  0.00     0.059 A 
ATOM     78  C   UNL A   1      42.313  21.289  27.937  1.00  0.00     0.059 A 
ATOM     79  F   UNL A   1      42.272  22.691  29.819  1.00  0.00    -0.206 F 
ATOM     80  C   UNL A   1      42.459  21.138  26.559  1.00  0.00     0.060 A 
BRANCH  80  81
ATOM     81  S   UNL A   1      42.392  19.498  25.808  1.00  0.00     0.124 S 
ATOM     82  O   UNL A   1      42.697  18.640  26.948  1.00  0.00    -0.237 OA
ATOM     83  O   UNL A   1      41.019  19.441  25.314  1.00  0.00    -0.237 OA
ATOM     84  O   UNL A   1      43.419  19.562  24.773  1.00  0.00    -0.744 OA
ENDBRANCH  80  81
ENDBRANCH  48  73
BRANCH  60  85
ATOM     85  C   UNL A   1      47.884  26.894  31.026  1.00  0.00     0.058 A 
ATOM     86  C   UNL A   1      48.999  27.281  30.266  1.00  0.00     0.135 A 
ATOM     87  C   UNL A   1      48.107  26.091  32.157  1.00  0.00     0.135 A 
ATOM     88  F   UNL A   1      48.840  28.042  29.172  1.00  0.00    -0.206 F 
ATOM     89  C   UNL A   1      50.283  26.860  30.594  1.00  0.00     0.059 A 
ATOM     90  C   UNL A   1      49.386  25.680  32.518  1.00  0.00     0.059 A 
ATOM     91  F   UNL A   1      47.077  25.703  32.925  1.00  0.00    -0.206 F 
ATOM     92  C   UNL A   1      50.466  26.055  31.720  1.00  0.00     0.060 A 
BRANCH  92  93
ATOM     93  S   UNL A   1      52.138  25.519  32.141  1.00  0.00     0.124 S 
ATOM     94  O   UNL A   1      52.460  26.407  33.253  1.00  0.00    -0.237 OA
ATOM     95  O   UNL A   1      51.941  24.115  32.487  1.00  0.00    -0.237 OA
ATOM     96  O   UNL A   1      52.888  25.755  30.911  1.00  0.00    -0.744 OA
ENDBRANCH  92  93
ENDBRANCH  60  85
ENDBRANCH  34  35
ENDBRANCH  26  29
ENDBRANCH  24  25
ENDBRANCH  23  24
ENDBRANCH   1  23
TORSDOF 19
ENDMDL
MODEL 2
REMARK VINA RESULT:      -9.8      1.067      2.184
REMARK SMILES C[C@@](O)(c1ccc(Cl)cc1Cl)[C@@H](F)C(=O)NCCCCCCNC(=O)c1ccc(-c2c3nc(c(-c4c(F)cc(S(=O)(=O)[O-])cc4F)c4ccc([nH]4)c(-c4c(F)cc(S(=O)(=O)[O-])cc4F)c4nc(c(-c5c(F)cc(S(=O)(=O)[O-])cc5F)c5ccc2[nH]5)C=C4)C=C3)cc1
REMARK SMILES IDX 20 1 19 2 18 3 17 4 16 5 14 6 15 7 12 9 13 10 2 11 1 12 3 13
REMARK SMILES IDX 4 15 5 16 10 17 6 18 9 19 11 20 7 21 8 22 21 23 22 24 23 25
REMARK SMILES IDX 24 26 25 28 26 29 27 30 91 31 28 32 90 33 29 34 30 35 31 36
REMARK SMILES IDX 84 37 32 38 89 39 83 40 85 41 33 42 88 43 82 44 81 45 34 47
REMARK SMILES IDX 68 48 47 49 67 50 48 51 51 52 66 53 86 54 49 55 50 56 65 58
REMARK SMILES IDX 87 59 52 60 35 61 36 62 45 63 37 64 38 65 44 66 46 67 39 68
REMARK SMILES IDX 40 69 41 70 42 71 43 72 69 73 70 74 79 75 71 76 72 77 78 78
REMARK SMILES IDX 80 79 73 80 74 81 75 82 76 83 77 84 53 85 54 86 63 87 55 88
REMARK SMILES IDX 56 89 62 90 64 91 57 92 58 93 59 94 60 95 61 96
REMARK H PARENT 16 8 3 14 23 27 85 46 51 57
REMARK Flexibility Score: inf
ROOT
ATOM      1  C   UNL A   1      34.070  35.024  28.504  1.00  0.00     0.002 C 
ENDROOT
BRANCH   1   2
ATOM      2  C   UNL A   1      32.975  36.038  28.844  1.00  0.00     0.002 C 
BRANCH   2   3
ATOM      3  C   UNL A   1      32.703  36.211  30.339  1.00  0.00     0.021 C 
BRANCH   3   4
ATOM      4  C   UNL A   1      33.834  35.720  31.245  1.00  0.00     0.116 C 
BRANCH   4   5
ATOM      5  N   UNL A   1      33.332  34.725  32.176  1.00  0.00    -0.353 N 
ATOM      6  C   UNL A   1      34.020  33.849  32.964  1.00  0.00     0.257 C 
ATOM      7  O   UNL A   1      33.382  32.916  33.466  1.00  0.00    -0.272 OA
ATOM      8  H   UNL A   1      32.352  34.676  32.251  1.00  0.00     0.163 HD
BRANCH   6   9
ATOM      9  C   UNL A   1      35.533  33.949  33.168  1.00  0.00     0.291 C 
ATOM     10  F   UNL A   1      35.962  35.236  33.153  1.00  0.00    -0.233 F 
BRANCH   9  11
ATOM     11  C   UNL A   1      36.325  33.033  32.186  1.00  0.00     0.128 C 
ATOM     12  C   UNL A   1      36.876  33.728  30.936  1.00  0.00     0.051 C 
BRANCH  11  13
ATOM     13  O   UNL A   1      35.395  32.048  31.651  1.00  0.00    -0.382 OA
ATOM     14  H   UNL A   1      34.756  32.489  31.070  1.00  0.00     0.212 HD
ENDBRANCH  11  13
BRANCH  11  15
ATOM     15  C   UNL A   1      37.453  32.250  32.900  1.00  0.00     0.005 A 
ATOM     16  C   UNL A   1      37.361  30.838  32.966  1.00  0.00     0.010 A 
ATOM     17  C   UNL A   1      38.613  32.832  33.464  1.00  0.00     0.048 A 
ATOM     18  C   UNL A   1      38.365  30.051  33.536  1.00  0.00     0.021 A 
ATOM     19  C   UNL A   1      39.611  32.039  34.054  1.00  0.00     0.041 A 
ATOM     20  Cl  UNL A   1      38.954  34.527  33.457  1.00  0.00    -0.084 Cl
ATOM     21  C   UNL A   1      39.486  30.656  34.080  1.00  0.00     0.042 A 
ATOM     22  Cl  UNL A   1      40.729  29.691  34.773  1.00  0.00    -0.084 Cl
ENDBRANCH  11  15
ENDBRANCH   9  11
ENDBRANCH   6   9
ENDBRANCH   4   5
ENDBRANCH   3   4
ENDBRANCH   2   3
ENDBRANCH   1   2
BRANCH   1  23
ATOM     23  C   UNL A   1      33.572  33.645  28.058  1.00  0.00     0.021 C 
BRANCH  23  24
ATOM     24  C   UNL A   1      34.510  32.481  28.369  1.00  0.00     0.116 C 
BRANCH  24  25
ATOM     25  N   UNL A   1      33.899  31.194  28.083  1.00  0.00    -0.352 N 
ATOM     26  C   UNL A   1      34.486  29.966  27.933  1.00  0.00     0.251 C 
ATOM     27  H   UNL A   1      32.920  31.207  27.985  1.00  0.00     0.163 HD
ATOM     28  O   UNL A   1      33.823  29.023  27.492  1.00  0.00    -0.269 OA
BRANCH  26  29
ATOM     29  C   UNL A   1      35.909  29.770  28.279  1.00  0.00     0.039 A 
ATOM     30  C   UNL A   1      36.236  29.349  29.569  1.00  0.00     0.014 A 
ATOM     31  C   UNL A   1      36.918  30.017  27.343  1.00  0.00     0.014 A 
ATOM     32  C   UNL A   1      37.573  29.124  29.905  1.00  0.00     0.010 A 
ATOM     33  C   UNL A   1      38.245  29.731  27.660  1.00  0.00     0.010 A 
ATOM     34  C   UNL A   1      38.585  29.285  28.945  1.00  0.00    -0.014 A 
BRANCH  34  35
ATOM     35  C   UNL A   1      39.998  28.969  29.275  1.00  0.00     0.031 A 
ATOM     36  C   UNL A   1      40.853  29.959  30.017  1.00  0.00     0.074 A 
ATOM     37  C   UNL A   1      40.524  27.798  28.864  1.00  0.00     0.049 A 
ATOM     38  N   UNL A   1      42.101  29.849  30.399  1.00  0.00    -0.248 NA
ATOM     39  C   UNL A   1      40.235  31.252  30.351  1.00  0.00     0.031 C 
ATOM     40  C   UNL A   1      39.814  26.781  28.086  1.00  0.00     0.029 A 
ATOM     41  N   UNL A   1      41.775  27.264  29.045  1.00  0.00    -0.354 N 
ATOM     42  C   UNL A   1      42.420  31.058  31.007  1.00  0.00     0.074 A 
ATOM     43  C   UNL A   1      41.251  31.904  30.898  1.00  0.00     0.031 C 
ATOM     44  C   UNL A   1      40.627  25.733  27.886  1.00  0.00     0.029 A 
ATOM     45  C   UNL A   1      41.924  26.012  28.496  1.00  0.00     0.049 A 
ATOM     46  H   UNL A   1      42.497  27.733  29.520  1.00  0.00     0.167 HD
ATOM     47  C   UNL A   1      43.574  31.420  31.617  1.00  0.00     0.037 A 
ATOM     48  C   UNL A   1      42.981  25.179  28.492  1.00  0.00     0.037 A 
ATOM     49  C   UNL A   1      44.726  30.564  31.741  1.00  0.00     0.049 A 
ATOM     50  C   UNL A   1      44.245  25.596  29.190  1.00  0.00     0.074 A 
ATOM     51  C   UNL A   1      45.913  30.808  32.410  1.00  0.00     0.029 A 
ATOM     52  N   UNL A   1      44.839  29.302  31.175  1.00  0.00    -0.354 N 
ATOM     53  N   UNL A   1      44.503  26.711  29.833  1.00  0.00    -0.248 NA
ATOM     54  C   UNL A   1      45.360  24.640  29.168  1.00  0.00     0.031 C 
ATOM     55  C   UNL A   1      46.760  29.710  32.213  1.00  0.00     0.029 A 
ATOM     56  C   UNL A   1      46.084  28.765  31.457  1.00  0.00     0.049 A 
ATOM     57  H   UNL A   1      44.136  28.853  30.652  1.00  0.00     0.167 HD
ATOM     58  C   UNL A   1      45.803  26.583  30.308  1.00  0.00     0.074 A 
ATOM     59  C   UNL A   1      46.271  25.275  29.892  1.00  0.00     0.031 C 
ATOM     60  C   UNL A   1      46.542  27.467  31.023  1.00  0.00     0.037 A 
BRANCH  47  61
ATOM     61  C   UNL A   1      43.645  32.809  32.195  1.00  0.00     0.058 A 
ATOM     62  C   UNL A   1      44.020  33.915  31.414  1.00  0.00     0.135 A 
ATOM     63  C   UNL A   1      43.324  33.040  33.542  1.00  0.00     0.135 A 
ATOM     64  F   UNL A   1      44.348  33.750  30.123  1.00  0.00    -0.206 F 
ATOM     65  C   UNL A   1      44.114  35.192  31.958  1.00  0.00     0.059 A 
ATOM     66  C   UNL A   1      43.386  34.313  34.101  1.00  0.00     0.059 A 
ATOM     67  F   UNL A   1      42.957  32.020  34.335  1.00  0.00    -0.206 F 
ATOM     68  C   UNL A   1      43.801  35.380  33.305  1.00  0.00     0.060 A 
BRANCH  68  69
ATOM     69  S   UNL A   1      43.948  37.038  34.004  1.00  0.00     0.124 S 
ATOM     70  O   UNL A   1      44.985  37.619  33.157  1.00  0.00    -0.237 OA
ATOM     71  O   UNL A   1      42.605  37.577  33.820  1.00  0.00    -0.237 OA
ATOM     72  O   UNL A   1      44.336  36.790  35.388  1.00  0.00    -0.744 OA
ENDBRANCH  68  69
ENDBRANCH  47  61
BRANCH  48  73
ATOM     73  C   UNL A   1      42.868  23.847  27.842  1.00  0.00     0.058 A 
ATOM     74  C   UNL A   1      42.585  22.703  28.601  1.00  0.00     0.135 A 
ATOM     75  C   UNL A   1      43.001  23.698  26.454  1.00  0.00     0.135 A 
ATOM     76  F   UNL A   1      42.455  22.796  29.933  1.00  0.00    -0.206 F 
ATOM     77  C   UNL A   1      42.442  21.453  28.008  1.00  0.00     0.059 A 
ATOM     78  C   UNL A   1      42.841  22.461  25.835  1.00  0.00     0.059 A 
ATOM     79  F   UNL A   1      43.256  24.767  25.683  1.00  0.00    -0.206 F 
ATOM     80  C   UNL A   1      42.567  21.343  26.621  1.00  0.00     0.060 A 
BRANCH  80  81
ATOM     81  S   UNL A   1      42.306  19.730  25.854  1.00  0.00     0.124 S 
ATOM     82  O   UNL A   1      43.292  19.753  24.779  1.00  0.00    -0.237 OA
ATOM     83  O   UNL A   1      42.584  18.816  26.958  1.00  0.00    -0.237 OA
ATOM     84  O   UNL A   1      40.910  19.783  25.432  1.00  0.00    -0.744 OA
ENDBRANCH  80  81
ENDBRANCH  48  73
BRANCH  60  85
ATOM     85  C   UNL A   1      47.932  27.042  31.407  1.00  0.00     0.058 A 
ATOM     86  C   UNL A   1      49.030  27.271  30.563  1.00  0.00     0.135 A 
ATOM     87  C   UNL A   1      48.172  26.414  32.641  1.00  0.00     0.135 A 
ATOM     88  F   UNL A   1      48.853  27.861  29.370  1.00  0.00    -0.206 F 
ATOM     89  C   UNL A   1      50.313  26.864  30.913  1.00  0.00     0.059 A 
ATOM     90  C   UNL A   1      49.451  26.022  33.022  1.00  0.00     0.059 A 
ATOM     91  F   UNL A   1      47.159  26.181  33.490  1.00  0.00    -0.206 F 
ATOM     92  C   UNL A   1      50.512  26.235  32.144  1.00  0.00     0.060 A 
BRANCH  92  93
ATOM     93  S   UNL A   1      52.183  25.716  32.591  1.00  0.00     0.124 S 
ATOM     94  O   UNL A   1      52.067  24.264  32.525  1.00  0.00    -0.237 OA
ATOM     95  O   UNL A   1      52.995  26.335  31.548  1.00  0.00    -0.237 OA
ATOM     96  O   UNL A   1      52.363  26.272  33.929  1.00  0.00    -0.744 OA
ENDBRANCH  92  93
ENDBRANCH  60  85
ENDBRANCH  34  35
ENDBRANCH  26  29
ENDBRANCH  24  25
ENDBRANCH  23  24
ENDBRANCH   1  23
TORSDOF 19
ENDMDL
MODEL 3
REMARK VINA RESULT:      -9.8      5.605     11.930
REMARK SMILES C[C@@](O)(c1ccc(Cl)cc1Cl)[C@@H](F)C(=O)NCCCCCCNC(=O)c1ccc(-c2c3nc(c(-c4c(F)cc(S(=O)(=O)[O-])cc4F)c4ccc([nH]4)c(-c4c(F)cc(S(=O)(=O)[O-])cc4F)c4nc(c(-c5c(F)cc(S(=O)(=O)[O-])cc5F)c5ccc2[nH]5)C=C4)C=C3)cc1
REMARK SMILES IDX 20 1 19 2 18 3 17 4 16 5 14 6 15 7 12 9 13 10 2 11 1 12 3 13
REMARK SMILES IDX 4 15 5 16 10 17 6 18 9 19 11 20 7 21 8 22 21 23 22 24 23 25
REMARK SMILES IDX 24 26 25 28 26 29 27 30 91 31 28 32 90 33 29 34 30 35 31 36
REMARK SMILES IDX 84 37 32 38 89 39 83 40 85 41 33 42 88 43 82 44 81 45 34 47
REMARK SMILES IDX 68 48 47 49 67 50 48 51 51 52 66 53 86 54 49 55 50 56 65 58
REMARK SMILES IDX 87 59 52 60 35 61 36 62 45 63 37 64 38 65 44 66 46 67 39 68
REMARK SMILES IDX 40 69 41 70 42 71 43 72 69 73 70 74 79 75 71 76 72 77 78 78
REMARK SMILES IDX 80 79 73 80 74 81 75 82 76 83 77 84 53 85 54 86 63 87 55 88
REMARK SMILES IDX 56 89 62 90 64 91 57 92 58 93 59 94 60 95 61 96
REMARK H PARENT 16 8 3 14 23 27 85 46 51 57
REMARK Flexibility Score: inf
ROOT
ATOM      1  C   UNL A   1      37.397  23.942  25.891  1.00  0.00     0.002 C 
ENDROOT
BRANCH   1   2
ATOM      2  C   UNL A   1      35.961  23.429  26.021  1.00  0.00     0.002 C 
BRANCH   2   3
ATOM      3  C   UNL A   1      35.829  21.908  26.124  1.00  0.00     0.021 C 
BRANCH   3   4
ATOM      4  C   UNL A   1      34.570  21.435  26.854  1.00  0.00     0.116 C 
BRANCH   4   5
ATOM      5  N   UNL A   1      33.738  20.651  25.957  1.00  0.00    -0.353 N 
ATOM      6  C   UNL A   1      32.520  20.950  25.421  1.00  0.00     0.257 C 
ATOM      7  O   UNL A   1      31.882  20.023  24.908  1.00  0.00    -0.272 OA
ATOM      8  H   UNL A   1      34.108  19.777  25.697  1.00  0.00     0.163 HD
BRANCH   6   9
ATOM      9  C   UNL A   1      31.911  22.351  25.508  1.00  0.00     0.291 C 
ATOM     10  F   UNL A   1      30.600  22.313  25.854  1.00  0.00    -0.233 F 
BRANCH   9  11
ATOM     11  C   UNL A   1      32.175  23.194  24.224  1.00  0.00     0.128 C 
ATOM     12  C   UNL A   1      31.018  23.246  23.220  1.00  0.00     0.051 C 
BRANCH  11  13
ATOM     13  O   UNL A   1      33.248  22.546  23.481  1.00  0.00    -0.382 OA
ATOM     14  H   UNL A   1      33.970  23.177  23.340  1.00  0.00     0.212 HD
ENDBRANCH  11  13
BRANCH  11  15
ATOM     15  C   UNL A   1      32.657  24.627  24.555  1.00  0.00     0.005 A 
ATOM     16  C   UNL A   1      32.663  25.044  25.908  1.00  0.00     0.010 A 
ATOM     17  C   UNL A   1      33.144  25.558  23.607  1.00  0.00     0.048 A 
ATOM     18  C   UNL A   1      33.141  26.298  26.300  1.00  0.00     0.021 A 
ATOM     19  C   UNL A   1      33.605  26.825  24.002  1.00  0.00     0.041 A 
ATOM     20  Cl  UNL A   1      33.269  25.246  21.910  1.00  0.00    -0.084 Cl
ATOM     21  C   UNL A   1      33.609  27.184  25.344  1.00  0.00     0.042 A 
ATOM     22  Cl  UNL A   1      34.209  28.723  25.821  1.00  0.00    -0.084 Cl
ENDBRANCH  11  15
ENDBRANCH   9  11
ENDBRANCH   6   9
ENDBRANCH   4   5
ENDBRANCH   3   4
ENDBRANCH   2   3
ENDBRANCH   1   2
BRANCH   1  23
ATOM     23  C   UNL A   1      38.491  22.904  26.161  1.00  0.00     0.021 C 
BRANCH  23  24
ATOM     24  C   UNL A   1      39.658  23.394  27.016  1.00  0.00     0.116 C 
BRANCH  24  25
ATOM     25  N   UNL A   1      40.789  23.818  26.206  1.00  0.00    -0.352 N 
ATOM     26  C   UNL A   1      41.465  25.009  26.211  1.00  0.00     0.251 C 
ATOM     27  H   UNL A   1      41.117  23.151  25.561  1.00  0.00     0.163 HD
ATOM     28  O   UNL A   1      42.269  25.257  25.310  1.00  0.00    -0.269 OA
BRANCH  26  29
ATOM     29  C   UNL A   1      41.223  26.001  27.278  1.00  0.00     0.039 A 
ATOM     30  C   UNL A   1      40.229  25.743  28.226  1.00  0.00     0.014 A 
ATOM     31  C   UNL A   1      41.957  27.190  27.336  1.00  0.00     0.014 A 
ATOM     32  C   UNL A   1      40.009  26.653  29.262  1.00  0.00     0.010 A 
ATOM     33  C   UNL A   1      41.779  28.065  28.407  1.00  0.00     0.010 A 
ATOM     34  C   UNL A   1      40.802  27.806  29.378  1.00  0.00    -0.014 A 
BRANCH  34  35
ATOM     35  C   UNL A   1      40.624  28.734  30.524  1.00  0.00     0.031 A 
ATOM     36  C   UNL A   1      41.488  28.616  31.748  1.00  0.00     0.074 A 
ATOM     37  C   UNL A   1      39.647  29.661  30.474  1.00  0.00     0.049 A 
ATOM     38  N   UNL A   1      41.482  29.344  32.837  1.00  0.00    -0.248 NA
ATOM     39  C   UNL A   1      42.471  27.521  31.765  1.00  0.00     0.031 C 
ATOM     40  C   UNL A   1      38.705  29.837  29.367  1.00  0.00     0.029 A 
ATOM     41  N   UNL A   1      39.285  30.632  31.375  1.00  0.00    -0.354 N 
ATOM     42  C   UNL A   1      42.448  28.791  33.670  1.00  0.00     0.074 A 
ATOM     43  C   UNL A   1      42.985  27.637  32.982  1.00  0.00     0.031 C 
ATOM     44  C   UNL A   1      37.897  30.873  29.637  1.00  0.00     0.029 A 
ATOM     45  C   UNL A   1      38.242  31.419  30.946  1.00  0.00     0.049 A 
ATOM     46  H   UNL A   1      39.728  30.751  32.245  1.00  0.00     0.167 HD
ATOM     47  C   UNL A   1      42.862  29.219  34.887  1.00  0.00     0.037 A 
ATOM     48  C   UNL A   1      37.638  32.467  31.536  1.00  0.00     0.037 A 
ATOM     49  C   UNL A   1      42.338  30.382  35.556  1.00  0.00     0.049 A 
ATOM     50  C   UNL A   1      38.127  32.934  32.878  1.00  0.00     0.074 A 
ATOM     51  C   UNL A   1      42.746  30.944  36.753  1.00  0.00     0.029 A 
ATOM     52  N   UNL A   1      41.285  31.156  35.090  1.00  0.00    -0.354 N 
ATOM     53  N   UNL A   1      39.098  32.451  33.616  1.00  0.00    -0.248 NA
ATOM     54  C   UNL A   1      37.442  34.093  33.466  1.00  0.00     0.031 C 
ATOM     55  C   UNL A   1      41.912  32.034  37.031  1.00  0.00     0.029 A 
ATOM     56  C   UNL A   1      41.011  32.176  35.987  1.00  0.00     0.049 A 
ATOM     57  H   UNL A   1      40.803  31.004  34.245  1.00  0.00     0.167 HD
ATOM     58  C   UNL A   1      39.153  33.256  34.747  1.00  0.00     0.074 A 
ATOM     59  C   UNL A   1      38.128  34.269  34.587  1.00  0.00     0.031 C 
ATOM     60  C   UNL A   1      39.977  33.167  35.821  1.00  0.00     0.037 A 
BRANCH  47  61
ATOM     61  C   UNL A   1      43.936  28.417  35.573  1.00  0.00     0.058 A 
ATOM     62  C   UNL A   1      45.300  28.674  35.359  1.00  0.00     0.135 A 
ATOM     63  C   UNL A   1      43.598  27.387  36.465  1.00  0.00     0.135 A 
ATOM     64  F   UNL A   1      45.680  29.639  34.507  1.00  0.00    -0.206 F 
ATOM     65  C   UNL A   1      46.290  27.911  35.971  1.00  0.00     0.059 A 
ATOM     66  C   UNL A   1      44.571  26.628  37.109  1.00  0.00     0.059 A 
ATOM     67  F   UNL A   1      42.310  27.099  36.710  1.00  0.00    -0.206 F 
ATOM     68  C   UNL A   1      45.915  26.885  36.840  1.00  0.00     0.060 A 
BRANCH  68  69
ATOM     69  S   UNL A   1      47.208  25.889  37.611  1.00  0.00     0.124 S 
ATOM     70  O   UNL A   1      47.148  26.354  38.993  1.00  0.00    -0.237 OA
ATOM     71  O   UNL A   1      46.735  24.528  37.381  1.00  0.00    -0.237 OA
ATOM     72  O   UNL A   1      48.410  26.264  36.874  1.00  0.00    -0.744 OA
ENDBRANCH  68  69
ENDBRANCH  47  61
BRANCH  48  73
ATOM     73  C   UNL A   1      36.536  33.174  30.833  1.00  0.00     0.058 A 
ATOM     74  C   UNL A   1      35.212  33.060  31.282  1.00  0.00     0.135 A 
ATOM     75  C   UNL A   1      36.786  34.002  29.729  1.00  0.00     0.135 A 
ATOM     76  F   UNL A   1      34.924  32.275  32.330  1.00  0.00    -0.206 F 
ATOM     77  C   UNL A   1      34.171  33.739  30.658  1.00  0.00     0.059 A 
ATOM     78  C   UNL A   1      35.764  34.709  29.102  1.00  0.00     0.059 A 
ATOM     79  F   UNL A   1      38.039  34.155  29.273  1.00  0.00    -0.206 F 
ATOM     80  C   UNL A   1      34.459  34.567  29.570  1.00  0.00     0.060 A 
BRANCH  80  81
ATOM     81  S   UNL A   1      33.112  35.502  28.814  1.00  0.00     0.124 S 
ATOM     82  O   UNL A   1      33.844  36.493  28.033  1.00  0.00    -0.237 OA
ATOM     83  O   UNL A   1      32.414  34.473  28.049  1.00  0.00    -0.237 OA
ATOM     84  O   UNL A   1      32.378  36.021  29.965  1.00  0.00    -0.744 OA
ENDBRANCH  80  81
ENDBRANCH  48  73
BRANCH  60  85
ATOM     85  C   UNL A   1      39.807  34.200  36.901  1.00  0.00     0.058 A 
ATOM     86  C   UNL A   1      40.408  35.465  36.808  1.00  0.00     0.135 A 
ATOM     87  C   UNL A   1      39.019  33.928  38.031  1.00  0.00     0.135 A 
ATOM     88  F   UNL A   1      41.176  35.772  35.751  1.00  0.00    -0.206 F 
ATOM     89  C   UNL A   1      40.262  36.414  37.814  1.00  0.00     0.059 A 
ATOM     90  C   UNL A   1      38.838  34.871  39.038  1.00  0.00     0.059 A 
ATOM     91  F   UNL A   1      38.413  32.738  38.164  1.00  0.00    -0.206 F 
ATOM     92  C   UNL A   1      39.478  36.105  38.928  1.00  0.00     0.060 A 
BRANCH  92  93
ATOM     93  S   UNL A   1      39.290  37.347  40.226  1.00  0.00     0.124 S 
ATOM     94  O   UNL A   1      38.655  36.570  41.285  1.00  0.00    -0.237 OA
ATOM     95  O   UNL A   1      40.670  37.752  40.477  1.00  0.00    -0.237 OA
ATOM     96  O   UNL A   1      38.449  38.364  39.602  1.00  0.00    -0.744 OA
ENDBRANCH  92  93
ENDBRANCH  60  85
ENDBRANCH  34  35
ENDBRANCH  26  29
ENDBRANCH  24  25
ENDBRANCH  23  24
ENDBRANCH   1  23
TORSDOF 19
ENDMDL
