MODEL 1
REMARK VINA RESULT:     -11.9      0.000      0.000
REMARK SMILES Nc1oc(-c2ccccc2)cc1C(=O)NCCCCCCNC(=O)c1ccc(-c2c3nc(c(-c4c(F)cc(S(=O)(=O)[O-])cc4F)c4ccc([nH]4)c(-c4c(F)cc(S(=O)(=O)[O-])cc4F)c4nc(c(-c5c(F)cc(S(=O)(=O)[O-])cc5F)c5ccc2[nH]5)C=C4)C=C3)cc1
REMARK SMILES IDX 19 1 18 2 17 3 16 4 15 5 13 6 14 7 12 9 2 10 3 11 4 12 11 13
REMARK SMILES IDX 1 14 5 17 6 18 10 19 7 20 9 21 8 22 20 23 21 24 22 25 23 26
REMARK SMILES IDX 24 28 25 29 26 30 90 31 27 32 89 33 28 34 29 35 30 36 83 37
REMARK SMILES IDX 31 38 88 39 82 40 84 41 32 42 87 43 81 44 80 45 33 47 67 48
REMARK SMILES IDX 46 49 66 50 47 51 50 52 65 53 85 54 48 55 49 56 64 58 86 59
REMARK SMILES IDX 51 60 34 61 35 62 44 63 36 64 37 65 43 66 45 67 38 68 39 69
REMARK SMILES IDX 40 70 41 71 42 72 68 73 69 74 78 75 70 76 71 77 77 78 79 79
REMARK SMILES IDX 72 80 73 81 74 82 75 83 76 84 52 85 53 86 62 87 54 88 55 89
REMARK SMILES IDX 61 90 63 91 56 92 57 93 58 94 59 95 60 96
REMARK H PARENT 15 8 1 15 1 16 22 27 84 46 50 57
REMARK Flexibility Score: inf
ROOT
ATOM      1  C   UNL A   1      38.014  23.471  26.328  1.00  0.00     0.002 C 
ENDROOT
BRANCH   1   2
ATOM      2  C   UNL A   1      36.949  23.701  25.241  1.00  0.00     0.002 C 
BRANCH   2   3
ATOM      3  C   UNL A   1      36.118  22.471  24.857  1.00  0.00     0.021 C 
BRANCH   3   4
ATOM      4  C   UNL A   1      35.343  21.876  26.033  1.00  0.00     0.116 C 
BRANCH   4   5
ATOM      5  N   UNL A   1      34.073  21.332  25.596  1.00  0.00    -0.352 N 
ATOM      6  C   UNL A   1      32.798  21.838  25.579  1.00  0.00     0.256 C 
ATOM      7  O   UNL A   1      31.931  21.107  25.091  1.00  0.00    -0.269 OA
ATOM      8  H   UNL A   1      34.139  20.416  25.242  1.00  0.00     0.163 HD
BRANCH   6   9
ATOM      9  C   UNL A   1      32.497  23.182  26.047  1.00  0.00     0.103 A 
ATOM     10  C   UNL A   1      31.298  23.533  26.654  1.00  0.00     0.203 A 
ATOM     11  O   UNL A   1      31.224  24.871  26.884  1.00  0.00    -0.440 OA
ATOM     12  C   UNL A   1      32.407  25.392  26.470  1.00  0.00     0.137 A 
ATOM     13  C   UNL A   1      33.248  24.387  26.055  1.00  0.00     0.067 A 
BRANCH  10  14
ATOM     14  N   UNL A   1      30.234  22.815  27.024  1.00  0.00    -0.369 N 
ATOM     15  H   UNL A   1      29.668  22.385  26.342  1.00  0.00     0.159 HD
ATOM     16  H   UNL A   1      30.014  22.715  27.979  1.00  0.00     0.159 HD
ENDBRANCH  10  14
BRANCH  12  17
ATOM     17  C   UNL A   1      32.582  26.828  26.491  1.00  0.00     0.017 A 
ATOM     18  C   UNL A   1      31.624  27.663  27.069  1.00  0.00     0.012 A 
ATOM     19  C   UNL A   1      33.807  27.370  26.070  1.00  0.00     0.012 A 
ATOM     20  C   UNL A   1      31.906  29.018  27.262  1.00  0.00     0.001 A 
ATOM     21  C   UNL A   1      34.085  28.724  26.256  1.00  0.00     0.001 A 
ATOM     22  C   UNL A   1      33.137  29.544  26.866  1.00  0.00     0.000 A 
ENDBRANCH  12  17
ENDBRANCH   6   9
ENDBRANCH   4   5
ENDBRANCH   3   4
ENDBRANCH   2   3
ENDBRANCH   1   2
BRANCH   1  23
ATOM     23  C   UNL A   1      38.913  22.237  26.150  1.00  0.00     0.021 C 
BRANCH  23  24
ATOM     24  C   UNL A   1      40.144  22.250  27.040  1.00  0.00     0.116 C 
BRANCH  24  25
ATOM     25  N   UNL A   1      41.377  22.077  26.271  1.00  0.00    -0.352 N 
ATOM     26  C   UNL A   1      42.214  23.043  25.742  1.00  0.00     0.251 C 
ATOM     27  H   UNL A   1      41.650  21.145  26.110  1.00  0.00     0.163 HD
ATOM     28  O   UNL A   1      42.989  22.775  24.842  1.00  0.00    -0.269 OA
BRANCH  26  29
ATOM     29  C   UNL A   1      42.144  24.406  26.301  1.00  0.00     0.039 A 
ATOM     30  C   UNL A   1      41.317  25.389  25.750  1.00  0.00     0.014 A 
ATOM     31  C   UNL A   1      42.912  24.671  27.428  1.00  0.00     0.014 A 
ATOM     32  C   UNL A   1      41.219  26.620  26.397  1.00  0.00     0.010 A 
ATOM     33  C   UNL A   1      42.659  25.791  28.167  1.00  0.00     0.010 A 
ATOM     34  C   UNL A   1      41.887  26.806  27.616  1.00  0.00    -0.014 A 
BRANCH  34  35
ATOM     35  C   UNL A   1      41.765  28.043  28.379  1.00  0.00     0.031 A 
ATOM     36  C   UNL A   1      42.852  29.037  28.158  1.00  0.00     0.074 A 
ATOM     37  C   UNL A   1      40.618  28.361  29.020  1.00  0.00     0.049 A 
ATOM     38  N   UNL A   1      43.706  29.493  29.012  1.00  0.00    -0.248 NA
ATOM     39  C   UNL A   1      43.095  29.492  26.777  1.00  0.00     0.031 C 
ATOM     40  C   UNL A   1      39.341  27.631  29.039  1.00  0.00     0.029 A 
ATOM     41  N   UNL A   1      40.314  29.490  29.708  1.00  0.00    -0.354 N 
ATOM     42  C   UNL A   1      44.459  30.450  28.333  1.00  0.00     0.074 A 
ATOM     43  C   UNL A   1      44.166  30.273  26.934  1.00  0.00     0.031 C 
ATOM     44  C   UNL A   1      38.358  28.443  29.482  1.00  0.00     0.029 A 
ATOM     45  C   UNL A   1      38.959  29.672  29.957  1.00  0.00     0.049 A 
ATOM     46  H   UNL A   1      40.999  30.130  30.008  1.00  0.00     0.167 HD
ATOM     47  C   UNL A   1      45.101  31.459  28.987  1.00  0.00     0.037 A 
ATOM     48  C   UNL A   1      38.375  30.773  30.492  1.00  0.00     0.037 A 
ATOM     49  C   UNL A   1      45.207  31.180  30.397  1.00  0.00     0.049 A 
ATOM     50  C   UNL A   1      39.450  31.526  31.192  1.00  0.00     0.074 A 
ATOM     51  C   UNL A   1      45.802  30.176  31.138  1.00  0.00     0.029 A 
ATOM     52  N   UNL A   1      44.298  31.773  31.241  1.00  0.00    -0.354 N 
ATOM     53  N   UNL A   1      40.093  31.074  32.236  1.00  0.00    -0.248 NA
ATOM     54  C   UNL A   1      40.135  32.567  30.443  1.00  0.00     0.031 C 
ATOM     55  C   UNL A   1      44.877  29.896  32.186  1.00  0.00     0.029 A 
ATOM     56  C   UNL A   1      43.812  30.792  32.073  1.00  0.00     0.049 A 
ATOM     57  H   UNL A   1      44.043  32.724  31.249  1.00  0.00     0.167 HD
ATOM     58  C   UNL A   1      41.412  31.461  32.041  1.00  0.00     0.074 A 
ATOM     59  C   UNL A   1      41.359  32.447  30.962  1.00  0.00     0.031 C 
ATOM     60  C   UNL A   1      42.451  30.746  32.570  1.00  0.00     0.037 A 
BRANCH  47  61
ATOM     61  C   UNL A   1      45.354  32.831  28.405  1.00  0.00     0.058 A 
ATOM     62  C   UNL A   1      46.675  33.302  28.259  1.00  0.00     0.135 A 
ATOM     63  C   UNL A   1      44.342  33.798  28.212  1.00  0.00     0.135 A 
ATOM     64  F   UNL A   1      47.719  32.479  28.441  1.00  0.00    -0.206 F 
ATOM     65  C   UNL A   1      46.967  34.642  27.986  1.00  0.00     0.059 A 
ATOM     66  C   UNL A   1      44.608  35.123  27.884  1.00  0.00     0.059 A 
ATOM     67  F   UNL A   1      43.049  33.529  28.429  1.00  0.00    -0.206 F 
ATOM     68  C   UNL A   1      45.925  35.546  27.809  1.00  0.00     0.060 A 
BRANCH  68  69
ATOM     69  S   UNL A   1      46.293  37.290  27.545  1.00  0.00     0.124 S 
ATOM     70  O   UNL A   1      45.001  37.905  27.821  1.00  0.00    -0.237 OA
ATOM     71  O   UNL A   1      47.341  37.531  28.531  1.00  0.00    -0.237 OA
ATOM     72  O   UNL A   1      46.729  37.334  26.153  1.00  0.00    -0.744 OA
ENDBRANCH  68  69
ENDBRANCH  47  61
BRANCH  48  73
ATOM     73  C   UNL A   1      37.064  31.374  30.132  1.00  0.00     0.058 A 
ATOM     74  C   UNL A   1      36.204  31.885  31.118  1.00  0.00     0.135 A 
ATOM     75  C   UNL A   1      36.756  31.716  28.799  1.00  0.00     0.135 A 
ATOM     76  F   UNL A   1      36.435  31.623  32.414  1.00  0.00    -0.206 F 
ATOM     77  C   UNL A   1      35.133  32.731  30.808  1.00  0.00     0.059 A 
ATOM     78  C   UNL A   1      35.689  32.551  28.465  1.00  0.00     0.059 A 
ATOM     79  F   UNL A   1      37.541  31.326  27.784  1.00  0.00    -0.206 F 
ATOM     80  C   UNL A   1      34.898  33.078  29.477  1.00  0.00     0.060 A 
BRANCH  80  81
ATOM     81  S   UNL A   1      33.640  34.320  29.091  1.00  0.00     0.124 S 
ATOM     82  O   UNL A   1      34.432  35.362  28.450  1.00  0.00    -0.237 OA
ATOM     83  O   UNL A   1      32.734  33.579  28.220  1.00  0.00    -0.237 OA
ATOM     84  O   UNL A   1      33.094  34.667  30.401  1.00  0.00    -0.744 OA
ENDBRANCH  80  81
ENDBRANCH  48  73
BRANCH  60  85
ATOM     85  C   UNL A   1      42.137  29.670  33.587  1.00  0.00     0.058 A 
ATOM     86  C   UNL A   1      41.862  28.326  33.269  1.00  0.00     0.135 A 
ATOM     87  C   UNL A   1      42.280  29.977  34.947  1.00  0.00     0.135 A 
ATOM     88  F   UNL A   1      41.812  27.915  31.995  1.00  0.00    -0.206 F 
ATOM     89  C   UNL A   1      41.695  27.348  34.253  1.00  0.00     0.059 A 
ATOM     90  C   UNL A   1      42.150  29.013  35.946  1.00  0.00     0.059 A 
ATOM     91  F   UNL A   1      42.605  31.225  35.322  1.00  0.00    -0.206 F 
ATOM     92  C   UNL A   1      41.843  27.702  35.592  1.00  0.00     0.060 A 
BRANCH  92  93
ATOM     93  S   UNL A   1      41.700  26.424  36.861  1.00  0.00     0.124 S 
ATOM     94  O   UNL A   1      42.874  26.680  37.689  1.00  0.00    -0.237 OA
ATOM     95  O   UNL A   1      40.411  26.728  37.478  1.00  0.00    -0.237 OA
ATOM     96  O   UNL A   1      41.735  25.179  36.096  1.00  0.00    -0.744 OA
ENDBRANCH  92  93
ENDBRANCH  60  85
ENDBRANCH  34  35
ENDBRANCH  26  29
ENDBRANCH  24  25
ENDBRANCH  23  24
ENDBRANCH   1  23
TORSDOF 18
ENDMDL
MODEL 2
REMARK VINA RESULT:     -11.9      4.285     10.937
REMARK SMILES Nc1oc(-c2ccccc2)cc1C(=O)NCCCCCCNC(=O)c1ccc(-c2c3nc(c(-c4c(F)cc(S(=O)(=O)[O-])cc4F)c4ccc([nH]4)c(-c4c(F)cc(S(=O)(=O)[O-])cc4F)c4nc(c(-c5c(F)cc(S(=O)(=O)[O-])cc5F)c5ccc2[nH]5)C=C4)C=C3)cc1
REMARK SMILES IDX 19 1 18 2 17 3 16 4 15 5 13 6 14 7 12 9 2 10 3 11 4 12 11 13
REMARK SMILES IDX 1 14 5 17 6 18 10 19 7 20 9 21 8 22 20 23 21 24 22 25 23 26
REMARK SMILES IDX 24 28 25 29 26 30 90 31 27 32 89 33 28 34 29 35 30 36 83 37
REMARK SMILES IDX 31 38 88 39 82 40 84 41 32 42 87 43 81 44 80 45 33 47 67 48
REMARK SMILES IDX 46 49 66 50 47 51 50 52 65 53 85 54 48 55 49 56 64 58 86 59
REMARK SMILES IDX 51 60 34 61 35 62 44 63 36 64 37 65 43 66 45 67 38 68 39 69
REMARK SMILES IDX 40 70 41 71 42 72 68 73 69 74 78 75 70 76 71 77 77 78 79 79
REMARK SMILES IDX 72 80 73 81 74 82 75 83 76 84 52 85 53 86 62 87 54 88 55 89
REMARK SMILES IDX 61 90 63 91 56 92 57 93 58 94 59 95 60 96
REMARK H PARENT 15 8 1 15 1 16 22 27 84 46 50 57
REMARK Flexibility Score: inf
ROOT
ATOM      1  C   UNL A   1      35.719  34.438  32.570  1.00  0.00     0.002 C 
ENDROOT
BRANCH   1   2
ATOM      2  C   UNL A   1      35.558  33.411  33.706  1.00  0.00     0.002 C 
BRANCH   2   3
ATOM      3  C   UNL A   1      35.879  33.927  35.115  1.00  0.00     0.021 C 
BRANCH   3   4
ATOM      4  C   UNL A   1      37.268  33.520  35.604  1.00  0.00     0.116 C 
BRANCH   4   5
ATOM      5  N   UNL A   1      37.457  32.087  35.497  1.00  0.00    -0.352 N 
ATOM      6  C   UNL A   1      38.278  31.310  34.718  1.00  0.00     0.256 C 
ATOM      7  O   UNL A   1      38.214  30.092  34.911  1.00  0.00    -0.269 OA
ATOM      8  H   UNL A   1      36.882  31.568  36.104  1.00  0.00     0.163 HD
BRANCH   6   9
ATOM      9  C   UNL A   1      39.213  31.891  33.767  1.00  0.00     0.103 A 
ATOM     10  C   UNL A   1      40.527  32.211  34.082  1.00  0.00     0.203 A 
ATOM     11  O   UNL A   1      41.148  32.852  33.056  1.00  0.00    -0.440 OA
ATOM     12  C   UNL A   1      40.246  32.907  32.043  1.00  0.00     0.137 A 
ATOM     13  C   UNL A   1      39.096  32.241  32.396  1.00  0.00     0.067 A 
BRANCH  10  14
ATOM     14  N   UNL A   1      41.260  32.020  35.183  1.00  0.00    -0.369 N 
ATOM     15  H   UNL A   1      42.216  31.795  35.106  1.00  0.00     0.159 HD
ATOM     16  H   UNL A   1      40.845  32.103  36.072  1.00  0.00     0.159 HD
ENDBRANCH  10  14
BRANCH  12  17
ATOM     17  C   UNL A   1      40.590  33.637  30.842  1.00  0.00     0.017 A 
ATOM     18  C   UNL A   1      39.657  34.455  30.204  1.00  0.00     0.012 A 
ATOM     19  C   UNL A   1      41.926  33.646  30.412  1.00  0.00     0.012 A 
ATOM     20  C   UNL A   1      40.066  35.306  29.173  1.00  0.00     0.001 A 
ATOM     21  C   UNL A   1      42.332  34.490  29.379  1.00  0.00     0.001 A 
ATOM     22  C   UNL A   1      41.402  35.330  28.769  1.00  0.00     0.000 A 
ENDBRANCH  12  17
ENDBRANCH   6   9
ENDBRANCH   4   5
ENDBRANCH   3   4
ENDBRANCH   2   3
ENDBRANCH   1   2
BRANCH   1  23
ATOM     23  C   UNL A   1      35.425  33.932  31.149  1.00  0.00     0.021 C 
BRANCH  23  24
ATOM     24  C   UNL A   1      34.781  32.556  31.116  1.00  0.00     0.116 C 
BRANCH  24  25
ATOM     25  N   UNL A   1      34.373  32.175  29.763  1.00  0.00    -0.352 N 
ATOM     26  C   UNL A   1      35.140  31.641  28.743  1.00  0.00     0.251 C 
ATOM     27  H   UNL A   1      33.422  32.316  29.550  1.00  0.00     0.163 HD
ATOM     28  O   UNL A   1      34.771  31.704  27.584  1.00  0.00    -0.269 OA
BRANCH  26  29
ATOM     29  C   UNL A   1      36.415  30.992  29.098  1.00  0.00     0.039 A 
ATOM     30  C   UNL A   1      36.489  29.633  29.418  1.00  0.00     0.014 A 
ATOM     31  C   UNL A   1      37.560  31.780  29.069  1.00  0.00     0.014 A 
ATOM     32  C   UNL A   1      37.742  29.064  29.635  1.00  0.00     0.010 A 
ATOM     33  C   UNL A   1      38.788  31.183  29.078  1.00  0.00     0.010 A 
ATOM     34  C   UNL A   1      38.890  29.848  29.450  1.00  0.00    -0.014 A 
BRANCH  34  35
ATOM     35  C   UNL A   1      40.231  29.293  29.588  1.00  0.00     0.031 A 
ATOM     36  C   UNL A   1      40.701  29.104  30.990  1.00  0.00     0.074 A 
ATOM     37  C   UNL A   1      40.877  28.747  28.534  1.00  0.00     0.049 A 
ATOM     38  N   UNL A   1      41.700  29.667  31.583  1.00  0.00    -0.248 NA
ATOM     39  C   UNL A   1      39.875  28.271  31.883  1.00  0.00     0.031 C 
ATOM     40  C   UNL A   1      40.393  28.553  27.158  1.00  0.00     0.029 A 
ATOM     41  N   UNL A   1      42.085  28.130  28.503  1.00  0.00    -0.354 N 
ATOM     42  C   UNL A   1      41.763  29.102  32.856  1.00  0.00     0.074 A 
ATOM     43  C   UNL A   1      40.520  28.399  33.044  1.00  0.00     0.031 C 
ATOM     44  C   UNL A   1      41.181  27.664  26.518  1.00  0.00     0.029 A 
ATOM     45  C   UNL A   1      42.324  27.376  27.361  1.00  0.00     0.049 A 
ATOM     46  H   UNL A   1      42.741  28.210  29.233  1.00  0.00     0.167 HD
ATOM     47  C   UNL A   1      42.920  29.073  33.575  1.00  0.00     0.037 A 
ATOM     48  C   UNL A   1      43.378  26.552  27.140  1.00  0.00     0.037 A 
ATOM     49  C   UNL A   1      43.891  29.991  33.036  1.00  0.00     0.049 A 
ATOM     50  C   UNL A   1      44.442  26.959  28.096  1.00  0.00     0.074 A 
ATOM     51  C   UNL A   1      43.919  31.359  32.843  1.00  0.00     0.029 A 
ATOM     52  N   UNL A   1      44.875  29.483  32.221  1.00  0.00    -0.354 N 
ATOM     53  N   UNL A   1      45.044  28.118  28.065  1.00  0.00    -0.248 NA
ATOM     54  C   UNL A   1      44.495  26.266  29.374  1.00  0.00     0.031 C 
ATOM     55  C   UNL A   1      44.547  31.539  31.575  1.00  0.00     0.029 A 
ATOM     56  C   UNL A   1      44.934  30.283  31.104  1.00  0.00     0.049 A 
ATOM     57  H   UNL A   1      45.433  28.693  32.402  1.00  0.00     0.167 HD
ATOM     58  C   UNL A   1      45.185  28.487  29.396  1.00  0.00     0.074 A 
ATOM     59  C   UNL A   1      44.902  27.269  30.155  1.00  0.00     0.031 C 
ATOM     60  C   UNL A   1      45.237  29.802  29.771  1.00  0.00     0.037 A 
BRANCH  47  61
ATOM     61  C   UNL A   1      43.281  27.994  34.570  1.00  0.00     0.058 A 
ATOM     62  C   UNL A   1      43.464  28.321  35.930  1.00  0.00     0.135 A 
ATOM     63  C   UNL A   1      43.695  26.695  34.200  1.00  0.00     0.135 A 
ATOM     64  F   UNL A   1      43.129  29.536  36.392  1.00  0.00    -0.206 F 
ATOM     65  C   UNL A   1      44.054  27.440  36.840  1.00  0.00     0.059 A 
ATOM     66  C   UNL A   1      44.232  25.781  35.102  1.00  0.00     0.059 A 
ATOM     67  F   UNL A   1      43.691  26.281  32.927  1.00  0.00    -0.206 F 
ATOM     68  C   UNL A   1      44.443  26.174  36.412  1.00  0.00     0.060 A 
BRANCH  68  69
ATOM     69  S   UNL A   1      45.284  25.065  37.557  1.00  0.00     0.124 S 
ATOM     70  O   UNL A   1      44.842  23.762  37.077  1.00  0.00    -0.237 OA
ATOM     71  O   UNL A   1      46.685  25.393  37.322  1.00  0.00    -0.237 OA
ATOM     72  O   UNL A   1      44.762  25.469  38.860  1.00  0.00    -0.744 OA
ENDBRANCH  68  69
ENDBRANCH  47  61
BRANCH  48  73
ATOM     73  C   UNL A   1      43.379  25.247  26.430  1.00  0.00     0.058 A 
ATOM     74  C   UNL A   1      44.145  25.053  25.267  1.00  0.00     0.135 A 
ATOM     75  C   UNL A   1      42.858  24.083  27.033  1.00  0.00     0.135 A 
ATOM     76  F   UNL A   1      44.695  26.104  24.641  1.00  0.00    -0.206 F 
ATOM     77  C   UNL A   1      44.425  23.778  24.763  1.00  0.00     0.059 A 
ATOM     78  C   UNL A   1      43.116  22.802  26.543  1.00  0.00     0.059 A 
ATOM     79  F   UNL A   1      42.158  24.148  28.175  1.00  0.00    -0.206 F 
ATOM     80  C   UNL A   1      43.924  22.655  25.422  1.00  0.00     0.060 A 
BRANCH  80  81
ATOM     81  S   UNL A   1      44.440  21.005  24.888  1.00  0.00     0.124 S 
ATOM     82  O   UNL A   1      44.523  21.169  23.442  1.00  0.00    -0.237 OA
ATOM     83  O   UNL A   1      45.710  20.839  25.586  1.00  0.00    -0.237 OA
ATOM     84  O   UNL A   1      43.358  20.144  25.358  1.00  0.00    -0.744 OA
ENDBRANCH  80  81
ENDBRANCH  48  73
BRANCH  60  85
ATOM     85  C   UNL A   1      45.397  30.849  28.691  1.00  0.00     0.058 A 
ATOM     86  C   UNL A   1      44.328  31.476  28.021  1.00  0.00     0.135 A 
ATOM     87  C   UNL A   1      46.680  31.355  28.439  1.00  0.00     0.135 A 
ATOM     88  F   UNL A   1      43.059  31.134  28.275  1.00  0.00    -0.206 F 
ATOM     89  C   UNL A   1      44.529  32.522  27.116  1.00  0.00     0.059 A 
ATOM     90  C   UNL A   1      46.903  32.419  27.565  1.00  0.00     0.059 A 
ATOM     91  F   UNL A   1      47.740  30.849  29.090  1.00  0.00    -0.206 F 
ATOM     92  C   UNL A   1      45.823  32.988  26.896  1.00  0.00     0.060 A 
BRANCH  92  93
ATOM     93  S   UNL A   1      46.076  34.389  25.783  1.00  0.00     0.124 S 
ATOM     94  O   UNL A   1      45.073  34.147  24.751  1.00  0.00    -0.237 OA
ATOM     95  O   UNL A   1      45.829  35.537  26.651  1.00  0.00    -0.237 OA
ATOM     96  O   UNL A   1      47.464  34.234  25.351  1.00  0.00    -0.744 OA
ENDBRANCH  92  93
ENDBRANCH  60  85
ENDBRANCH  34  35
ENDBRANCH  26  29
ENDBRANCH  24  25
ENDBRANCH  23  24
ENDBRANCH   1  23
TORSDOF 18
ENDMDL
MODEL 3
REMARK VINA RESULT:     -11.8      2.680      4.465
REMARK SMILES Nc1oc(-c2ccccc2)cc1C(=O)NCCCCCCNC(=O)c1ccc(-c2c3nc(c(-c4c(F)cc(S(=O)(=O)[O-])cc4F)c4ccc([nH]4)c(-c4c(F)cc(S(=O)(=O)[O-])cc4F)c4nc(c(-c5c(F)cc(S(=O)(=O)[O-])cc5F)c5ccc2[nH]5)C=C4)C=C3)cc1
REMARK SMILES IDX 19 1 18 2 17 3 16 4 15 5 13 6 14 7 12 9 2 10 3 11 4 12 11 13
REMARK SMILES IDX 1 14 5 17 6 18 10 19 7 20 9 21 8 22 20 23 21 24 22 25 23 26
REMARK SMILES IDX 24 28 25 29 26 30 90 31 27 32 89 33 28 34 29 35 30 36 83 37
REMARK SMILES IDX 31 38 88 39 82 40 84 41 32 42 87 43 81 44 80 45 33 47 67 48
REMARK SMILES IDX 46 49 66 50 47 51 50 52 65 53 85 54 48 55 49 56 64 58 86 59
REMARK SMILES IDX 51 60 34 61 35 62 44 63 36 64 37 65 43 66 45 67 38 68 39 69
REMARK SMILES IDX 40 70 41 71 42 72 68 73 69 74 78 75 70 76 71 77 77 78 79 79
REMARK SMILES IDX 72 80 73 81 74 82 75 83 76 84 52 85 53 86 62 87 54 88 55 89
REMARK SMILES IDX 61 90 63 91 56 92 57 93 58 94 59 95 60 96
REMARK H PARENT 15 8 1 15 1 16 22 27 84 46 50 57
REMARK Flexibility Score: inf
ROOT
ATOM      1  C   UNL A   1      41.010  21.554  27.548  1.00  0.00     0.002 C 
ENDROOT
BRANCH   1   2
ATOM      2  C   UNL A   1      40.231  22.135  26.355  1.00  0.00     0.002 C 
BRANCH   2   3
ATOM      3  C   UNL A   1      38.917  22.845  26.704  1.00  0.00     0.021 C 
BRANCH   3   4
ATOM      4  C   UNL A   1      37.791  22.551  25.713  1.00  0.00     0.116 C 
BRANCH   4   5
ATOM      5  N   UNL A   1      36.667  23.441  25.925  1.00  0.00    -0.352 N 
ATOM      6  C   UNL A   1      35.322  23.322  25.678  1.00  0.00     0.256 C 
ATOM      7  O   UNL A   1      34.620  24.276  26.025  1.00  0.00    -0.269 OA
ATOM      8  H   UNL A   1      36.919  24.304  26.326  1.00  0.00     0.163 HD
BRANCH   6   9
ATOM      9  C   UNL A   1      34.751  22.115  25.101  1.00  0.00     0.103 A 
ATOM     10  C   UNL A   1      33.802  22.124  24.086  1.00  0.00     0.203 A 
ATOM     11  O   UNL A   1      33.345  20.872  23.814  1.00  0.00    -0.440 OA
ATOM     12  C   UNL A   1      34.038  20.032  24.624  1.00  0.00     0.137 A 
ATOM     13  C   UNL A   1      34.976  20.734  25.343  1.00  0.00     0.067 A 
BRANCH  10  14
ATOM     14  N   UNL A   1      33.266  23.114  23.365  1.00  0.00    -0.369 N 
ATOM     15  H   UNL A   1      33.841  23.678  22.799  1.00  0.00     0.159 HD
ATOM     16  H   UNL A   1      32.297  23.280  23.401  1.00  0.00     0.159 HD
ENDBRANCH  10  14
BRANCH  12  17
ATOM     17  C   UNL A   1      33.687  18.629  24.636  1.00  0.00     0.017 A 
ATOM     18  C   UNL A   1      34.394  17.702  23.868  1.00  0.00     0.012 A 
ATOM     19  C   UNL A   1      32.729  18.176  25.557  1.00  0.00     0.012 A 
ATOM     20  C   UNL A   1      34.175  16.334  24.051  1.00  0.00     0.001 A 
ATOM     21  C   UNL A   1      32.506  16.810  25.733  1.00  0.00     0.001 A 
ATOM     22  C   UNL A   1      33.240  15.890  24.988  1.00  0.00     0.000 A 
ENDBRANCH  12  17
ENDBRANCH   6   9
ENDBRANCH   4   5
ENDBRANCH   3   4
ENDBRANCH   2   3
ENDBRANCH   1   2
BRANCH   1  23
ATOM     23  C   UNL A   1      41.914  20.348  27.249  1.00  0.00     0.021 C 
BRANCH  23  24
ATOM     24  C   UNL A   1      41.984  19.993  25.774  1.00  0.00     0.116 C 
BRANCH  24  25
ATOM     25  N   UNL A   1      43.356  19.728  25.339  1.00  0.00    -0.352 N 
ATOM     26  C   UNL A   1      44.356  20.629  25.021  1.00  0.00     0.251 C 
ATOM     27  H   UNL A   1      43.602  18.777  25.262  1.00  0.00     0.163 HD
ATOM     28  O   UNL A   1      45.312  20.292  24.346  1.00  0.00    -0.269 OA
BRANCH  26  29
ATOM     29  C   UNL A   1      44.235  22.009  25.527  1.00  0.00     0.039 A 
ATOM     30  C   UNL A   1      43.429  22.960  24.895  1.00  0.00     0.014 A 
ATOM     31  C   UNL A   1      44.932  22.324  26.687  1.00  0.00     0.014 A 
ATOM     32  C   UNL A   1      43.277  24.210  25.491  1.00  0.00     0.010 A 
ATOM     33  C   UNL A   1      44.621  23.466  27.370  1.00  0.00     0.010 A 
ATOM     34  C   UNL A   1      43.870  24.449  26.739  1.00  0.00    -0.014 A 
BRANCH  34  35
ATOM     35  C   UNL A   1      43.686  25.709  27.449  1.00  0.00     0.031 A 
ATOM     36  C   UNL A   1      44.700  26.760  27.153  1.00  0.00     0.074 A 
ATOM     37  C   UNL A   1      42.539  25.983  28.109  1.00  0.00     0.049 A 
ATOM     38  N   UNL A   1      45.545  27.309  27.961  1.00  0.00    -0.248 NA
ATOM     39  C   UNL A   1      44.877  27.166  25.747  1.00  0.00     0.031 C 
ATOM     40  C   UNL A   1      41.313  25.173  28.196  1.00  0.00     0.029 A 
ATOM     41  N   UNL A   1      42.179  27.120  28.754  1.00  0.00    -0.354 N 
ATOM     42  C   UNL A   1      46.216  28.280  27.219  1.00  0.00     0.074 A 
ATOM     43  C   UNL A   1      45.898  28.020  25.839  1.00  0.00     0.031 C 
ATOM     44  C   UNL A   1      40.290  25.940  28.630  1.00  0.00     0.029 A 
ATOM     45  C   UNL A   1      40.822  27.226  29.033  1.00  0.00     0.049 A 
ATOM     46  H   UNL A   1      42.828  27.816  29.006  1.00  0.00     0.167 HD
ATOM     47  C   UNL A   1      46.807  29.357  27.809  1.00  0.00     0.037 A 
ATOM     48  C   UNL A   1      40.181  28.310  29.536  1.00  0.00     0.037 A 
ATOM     49  C   UNL A   1      46.967  29.151  29.227  1.00  0.00     0.049 A 
ATOM     50  C   UNL A   1      41.222  29.162  30.170  1.00  0.00     0.074 A 
ATOM     51  C   UNL A   1      47.645  28.223  29.994  1.00  0.00     0.029 A 
ATOM     52  N   UNL A   1      46.043  29.723  30.069  1.00  0.00    -0.354 N 
ATOM     53  N   UNL A   1      41.920  28.802  31.214  1.00  0.00    -0.248 NA
ATOM     54  C   UNL A   1      41.818  30.210  29.357  1.00  0.00     0.031 C 
ATOM     55  C   UNL A   1      46.767  27.932  31.080  1.00  0.00     0.029 A 
ATOM     56  C   UNL A   1      45.643  28.752  30.957  1.00  0.00     0.049 A 
ATOM     57  H   UNL A   1      45.726  30.654  30.042  1.00  0.00     0.167 HD
ATOM     58  C   UNL A   1      43.205  29.263  30.965  1.00  0.00     0.074 A 
ATOM     59  C   UNL A   1      43.060  30.192  29.845  1.00  0.00     0.031 C 
ATOM     60  C   UNL A   1      44.302  28.641  31.495  1.00  0.00     0.037 A 
BRANCH  47  61
ATOM     61  C   UNL A   1      46.954  30.714  27.160  1.00  0.00     0.058 A 
ATOM     62  C   UNL A   1      48.219  31.333  27.100  1.00  0.00     0.135 A 
ATOM     63  C   UNL A   1      45.861  31.538  26.811  1.00  0.00     0.135 A 
ATOM     64  F   UNL A   1      49.330  30.655  27.432  1.00  0.00    -0.206 F 
ATOM     65  C   UNL A   1      48.380  32.681  26.764  1.00  0.00     0.059 A 
ATOM     66  C   UNL A   1      46.002  32.865  26.418  1.00  0.00     0.059 A 
ATOM     67  F   UNL A   1      44.592  31.126  26.929  1.00  0.00    -0.206 F 
ATOM     68  C   UNL A   1      47.261  33.440  26.433  1.00  0.00     0.060 A 
BRANCH  68  69
ATOM     69  S   UNL A   1      47.449  35.198  26.085  1.00  0.00     0.124 S 
ATOM     70  O   UNL A   1      47.917  35.701  27.370  1.00  0.00    -0.237 OA
ATOM     71  O   UNL A   1      48.428  35.190  25.004  1.00  0.00    -0.237 OA
ATOM     72  O   UNL A   1      46.102  35.609  25.698  1.00  0.00    -0.744 OA
ENDBRANCH  68  69
ENDBRANCH  47  61
BRANCH  48  73
ATOM     73  C   UNL A   1      38.825  28.808  29.187  1.00  0.00     0.058 A 
ATOM     74  C   UNL A   1      37.853  29.024  30.179  1.00  0.00     0.135 A 
ATOM     75  C   UNL A   1      38.547  29.352  27.915  1.00  0.00     0.135 A 
ATOM     76  F   UNL A   1      38.045  28.557  31.422  1.00  0.00    -0.206 F 
ATOM     77  C   UNL A   1      36.700  29.781  29.941  1.00  0.00     0.059 A 
ATOM     78  C   UNL A   1      37.401  30.102  27.652  1.00  0.00     0.059 A 
ATOM     79  F   UNL A   1      39.431  29.251  26.911  1.00  0.00    -0.206 F 
ATOM     80  C   UNL A   1      36.494  30.337  28.677  1.00  0.00     0.060 A 
BRANCH  80  81
ATOM     81  S   UNL A   1      35.108  31.471  28.420  1.00  0.00     0.124 S 
ATOM     82  O   UNL A   1      34.126  30.606  27.779  1.00  0.00    -0.237 OA
ATOM     83  O   UNL A   1      34.797  31.891  29.782  1.00  0.00    -0.237 OA
ATOM     84  O   UNL A   1      35.677  32.511  27.565  1.00  0.00    -0.744 OA
ENDBRANCH  80  81
ENDBRANCH  48  73
BRANCH  60  85
ATOM     85  C   UNL A   1      44.085  27.595  32.567  1.00  0.00     0.058 A 
ATOM     86  C   UNL A   1      43.783  27.881  33.912  1.00  0.00     0.135 A 
ATOM     87  C   UNL A   1      44.021  26.249  32.181  1.00  0.00     0.135 A 
ATOM     88  F   UNL A   1      43.715  29.144  34.351  1.00  0.00    -0.206 F 
ATOM     89  C   UNL A   1      43.475  26.877  34.835  1.00  0.00     0.059 A 
ATOM     90  C   UNL A   1      43.686  25.233  33.074  1.00  0.00     0.059 A 
ATOM     91  F   UNL A   1      44.235  25.908  30.899  1.00  0.00    -0.206 F 
ATOM     92  C   UNL A   1      43.427  25.553  34.404  1.00  0.00     0.060 A 
BRANCH  92  93
ATOM     93  S   UNL A   1      42.958  24.263  35.579  1.00  0.00     0.124 S 
ATOM     94  O   UNL A   1      41.500  24.298  35.507  1.00  0.00    -0.237 OA
ATOM     95  O   UNL A   1      43.592  23.073  35.017  1.00  0.00    -0.237 OA
ATOM     96  O   UNL A   1      43.532  24.725  36.841  1.00  0.00    -0.744 OA
ENDBRANCH  92  93
ENDBRANCH  60  85
ENDBRANCH  34  35
ENDBRANCH  26  29
ENDBRANCH  24  25
ENDBRANCH  23  24
ENDBRANCH   1  23
TORSDOF 18
ENDMDL
