MODEL 1
REMARK VINA RESULT:     -10.0      0.000      0.000
REMARK SMILES CC(=O)/C=C(/C)NCC(=O)NCCCCCCNC(=O)c1ccc(-c2c3nc(c(-c4c(F)cc(S(=O)(=O)[O-])cc4F)c4ccc([nH]4)c(-c4c(F)cc(S(=O)(=O)[O-])cc4F)c4nc(c(-c5c(F)cc(S(=O)(=O)[O-])cc5F)c5ccc2[nH]5)C=C4)C=C3)cc1
REMARK SMILES IDX 14 1 13 2 12 3 11 4 9 5 10 6 8 8 7 9 5 11 4 12 6 13 2 14
REMARK SMILES IDX 1 15 3 16 15 17 16 18 17 19 18 20 19 21 20 23 21 24 22 25
REMARK SMILES IDX 86 26 23 27 85 28 24 29 25 30 26 31 79 32 27 33 84 34 78 35
REMARK SMILES IDX 80 36 28 37 83 38 77 39 76 40 29 42 63 43 42 44 62 45 43 46
REMARK SMILES IDX 46 47 61 48 81 49 44 50 45 51 60 53 82 54 47 55 30 56 31 57
REMARK SMILES IDX 40 58 32 59 33 60 39 61 41 62 34 63 35 64 36 65 37 66 38 67
REMARK SMILES IDX 64 68 65 69 74 70 66 71 67 72 73 73 75 74 68 75 69 76 70 77
REMARK SMILES IDX 71 78 72 79 48 80 49 81 58 82 50 83 51 84 57 85 59 86 52 87
REMARK SMILES IDX 53 88 54 89 55 90 56 91
REMARK H PARENT 11 7 7 10 18 22 80 41 46 52
REMARK Flexibility Score: inf
ROOT
ATOM      1  C   UNL A   1      38.491  23.153  26.318  1.00  0.00     0.002 C 
ENDROOT
BRANCH   1   2
ATOM      2  C   UNL A   1      37.157  23.261  25.569  1.00  0.00     0.021 C 
BRANCH   2   3
ATOM      3  C   UNL A   1      36.275  22.025  25.733  1.00  0.00     0.116 C 
BRANCH   3   4
ATOM      4  N   UNL A   1      35.351  22.176  26.838  1.00  0.00    -0.355 N 
ATOM      5  C   UNL A   1      34.067  21.746  26.992  1.00  0.00     0.239 C 
ATOM      6  O   UNL A   1      33.497  22.065  28.043  1.00  0.00    -0.273 OA
ATOM      7  H   UNL A   1      35.710  22.674  27.609  1.00  0.00     0.163 HD
BRANCH   5   8
ATOM      8  C   UNL A   1      33.352  20.832  25.985  1.00  0.00     0.213 C 
BRANCH   8   9
ATOM      9  N   UNL A   1      31.983  21.192  25.669  1.00  0.00    -0.380 N 
ATOM     10  H   UNL A   1      31.363  20.427  25.684  1.00  0.00     0.160 HD
BRANCH   9  11
ATOM     11  C   UNL A   1      31.370  22.391  25.353  1.00  0.00     0.011 C 
ATOM     12  C   UNL A   1      31.509  23.263  24.330  1.00  0.00     0.067 C 
ATOM     13  C   UNL A   1      30.412  22.840  26.459  1.00  0.00     0.064 C 
BRANCH  12  14
ATOM     14  C   UNL A   1      32.327  23.444  23.093  1.00  0.00     0.154 C 
ATOM     15  C   UNL A   1      32.379  24.725  22.323  1.00  0.00     0.093 C 
ATOM     16  O   UNL A   1      33.003  22.481  22.718  1.00  0.00    -0.295 OA
ENDBRANCH  12  14
ENDBRANCH   9  11
ENDBRANCH   8   9
ENDBRANCH   5   8
ENDBRANCH   3   4
ENDBRANCH   2   3
ENDBRANCH   1   2
BRANCH   1  17
ATOM     17  C   UNL A   1      39.223  21.817  26.137  1.00  0.00     0.002 C 
BRANCH  17  18
ATOM     18  C   UNL A   1      40.541  21.689  26.908  1.00  0.00     0.021 C 
BRANCH  18  19
ATOM     19  C   UNL A   1      41.142  23.016  27.363  1.00  0.00     0.116 C 
BRANCH  19  20
ATOM     20  N   UNL A   1      41.685  23.775  26.251  1.00  0.00    -0.352 N 
ATOM     21  C   UNL A   1      41.753  25.132  26.068  1.00  0.00     0.251 C 
ATOM     22  H   UNL A   1      42.060  23.235  25.518  1.00  0.00     0.163 HD
ATOM     23  O   UNL A   1      42.065  25.577  24.968  1.00  0.00    -0.269 OA
BRANCH  21  24
ATOM     24  C   UNL A   1      41.448  26.056  27.183  1.00  0.00     0.039 A 
ATOM     25  C   UNL A   1      42.263  27.178  27.363  1.00  0.00     0.014 A 
ATOM     26  C   UNL A   1      40.409  25.796  28.081  1.00  0.00     0.014 A 
ATOM     27  C   UNL A   1      42.023  28.046  28.430  1.00  0.00     0.010 A 
ATOM     28  C   UNL A   1      40.127  26.701  29.104  1.00  0.00     0.010 A 
ATOM     29  C   UNL A   1      40.947  27.820  29.305  1.00  0.00    -0.014 A 
BRANCH  29  30
ATOM     30  C   UNL A   1      40.713  28.714  30.467  1.00  0.00     0.031 A 
ATOM     31  C   UNL A   1      41.566  28.580  31.701  1.00  0.00     0.074 A 
ATOM     32  C   UNL A   1      39.730  29.635  30.418  1.00  0.00     0.049 A 
ATOM     33  N   UNL A   1      41.512  29.253  32.822  1.00  0.00    -0.248 NA
ATOM     34  C   UNL A   1      42.602  27.533  31.684  1.00  0.00     0.031 C 
ATOM     35  C   UNL A   1      38.810  29.834  29.294  1.00  0.00     0.029 A 
ATOM     36  N   UNL A   1      39.343  30.579  31.334  1.00  0.00    -0.354 N 
ATOM     37  C   UNL A   1      42.499  28.713  33.638  1.00  0.00     0.074 A 
ATOM     38  C   UNL A   1      43.092  27.612  32.913  1.00  0.00     0.031 C 
ATOM     39  C   UNL A   1      37.989  30.858  29.576  1.00  0.00     0.029 A 
ATOM     40  C   UNL A   1      38.302  31.371  30.905  1.00  0.00     0.049 A 
ATOM     41  H   UNL A   1      39.769  30.681  32.215  1.00  0.00     0.167 HD
ATOM     42  C   UNL A   1      42.902  29.119  34.867  1.00  0.00     0.037 A 
ATOM     43  C   UNL A   1      37.679  32.397  31.516  1.00  0.00     0.037 A 
ATOM     44  C   UNL A   1      42.328  30.233  35.575  1.00  0.00     0.049 A 
ATOM     45  C   UNL A   1      38.146  32.827  32.882  1.00  0.00     0.074 A 
ATOM     46  C   UNL A   1      42.682  30.744  36.811  1.00  0.00     0.029 A 
ATOM     47  N   UNL A   1      41.285  31.017  35.103  1.00  0.00    -0.354 N 
ATOM     48  N   UNL A   1      39.112  32.331  33.620  1.00  0.00    -0.248 NA
ATOM     49  C   UNL A   1      37.446  33.964  33.493  1.00  0.00     0.031 C 
ATOM     50  C   UNL A   1      41.835  31.819  37.100  1.00  0.00     0.029 A 
ATOM     51  C   UNL A   1      40.980  32.003  36.025  1.00  0.00     0.049 A 
ATOM     52  H   UNL A   1      40.831  30.891  34.239  1.00  0.00     0.167 HD
ATOM     53  C   UNL A   1      39.153  33.116  34.768  1.00  0.00     0.074 A 
ATOM     54  C   UNL A   1      38.129  34.128  34.617  1.00  0.00     0.031 C 
ATOM     55  C   UNL A   1      39.963  33.009  35.851  1.00  0.00     0.037 A 
BRANCH  42  56
ATOM     56  C   UNL A   1      44.032  28.364  35.512  1.00  0.00     0.058 A 
ATOM     57  C   UNL A   1      45.371  28.729  35.298  1.00  0.00     0.135 A 
ATOM     58  C   UNL A   1      43.779  27.289  36.379  1.00  0.00     0.135 A 
ATOM     59  F   UNL A   1      45.672  29.737  34.464  1.00  0.00    -0.206 F 
ATOM     60  C   UNL A   1      46.420  28.039  35.897  1.00  0.00     0.059 A 
ATOM     61  C   UNL A   1      44.811  26.601  37.012  1.00  0.00     0.059 A 
ATOM     62  F   UNL A   1      42.518  26.895  36.619  1.00  0.00    -0.206 F 
ATOM     63  C   UNL A   1      46.130  26.976  36.754  1.00  0.00     0.060 A 
BRANCH  63  64
ATOM     64  S   UNL A   1      47.502  26.100  37.532  1.00  0.00     0.124 S 
ATOM     65  O   UNL A   1      48.616  27.004  37.263  1.00  0.00    -0.237 OA
ATOM     66  O   UNL A   1      47.074  26.020  38.925  1.00  0.00    -0.237 OA
ATOM     67  O   UNL A   1      47.541  24.827  36.818  1.00  0.00    -0.744 OA
ENDBRANCH  63  64
ENDBRANCH  42  56
BRANCH  43  68
ATOM     68  C   UNL A   1      36.569  33.116  30.836  1.00  0.00     0.058 A 
ATOM     69  C   UNL A   1      36.832  34.163  29.940  1.00  0.00     0.135 A 
ATOM     70  C   UNL A   1      35.227  32.793  31.088  1.00  0.00     0.135 A 
ATOM     71  F   UNL A   1      38.100  34.511  29.669  1.00  0.00    -0.206 F 
ATOM     72  C   UNL A   1      35.806  34.890  29.345  1.00  0.00     0.059 A 
ATOM     73  C   UNL A   1      34.183  33.488  30.485  1.00  0.00     0.059 A 
ATOM     74  F   UNL A   1      34.922  31.787  31.923  1.00  0.00    -0.206 F 
ATOM     75  C   UNL A   1      34.483  34.547  29.628  1.00  0.00     0.060 A 
BRANCH  75  76
ATOM     76  S   UNL A   1      33.157  35.490  28.846  1.00  0.00     0.124 S 
ATOM     77  O   UNL A   1      32.443  34.446  28.121  1.00  0.00    -0.237 OA
ATOM     78  O   UNL A   1      32.463  36.059  29.998  1.00  0.00    -0.237 OA
ATOM     79  O   UNL A   1      33.876  36.455  28.019  1.00  0.00    -0.744 OA
ENDBRANCH  75  76
ENDBRANCH  43  68
BRANCH  55  80
ATOM     80  C   UNL A   1      39.795  34.038  36.934  1.00  0.00     0.058 A 
ATOM     81  C   UNL A   1      38.972  33.810  38.047  1.00  0.00     0.135 A 
ATOM     82  C   UNL A   1      40.479  35.263  36.863  1.00  0.00     0.135 A 
ATOM     83  F   UNL A   1      38.292  32.658  38.161  1.00  0.00    -0.206 F 
ATOM     84  C   UNL A   1      38.798  34.777  39.032  1.00  0.00     0.059 A 
ATOM     85  C   UNL A   1      40.344  36.232  37.851  1.00  0.00     0.059 A 
ATOM     86  F   UNL A   1      41.291  35.525  35.827  1.00  0.00    -0.206 F 
ATOM     87  C   UNL A   1      39.485  35.987  38.922  1.00  0.00     0.060 A 
BRANCH  87  88
ATOM     88  S   UNL A   1      39.255  37.235  40.206  1.00  0.00     0.124 S 
ATOM     89  O   UNL A   1      38.513  38.265  39.485  1.00  0.00    -0.237 OA
ATOM     90  O   UNL A   1      38.501  36.506  41.221  1.00  0.00    -0.237 OA
ATOM     91  O   UNL A   1      40.619  37.590  40.583  1.00  0.00    -0.744 OA
ENDBRANCH  87  88
ENDBRANCH  55  80
ENDBRANCH  29  30
ENDBRANCH  21  24
ENDBRANCH  19  20
ENDBRANCH  18  19
ENDBRANCH  17  18
ENDBRANCH   1  17
TORSDOF 19
ENDMDL
MODEL 2
REMARK VINA RESULT:      -9.8      3.395      9.631
REMARK SMILES CC(=O)/C=C(/C)NCC(=O)NCCCCCCNC(=O)c1ccc(-c2c3nc(c(-c4c(F)cc(S(=O)(=O)[O-])cc4F)c4ccc([nH]4)c(-c4c(F)cc(S(=O)(=O)[O-])cc4F)c4nc(c(-c5c(F)cc(S(=O)(=O)[O-])cc5F)c5ccc2[nH]5)C=C4)C=C3)cc1
REMARK SMILES IDX 14 1 13 2 12 3 11 4 9 5 10 6 8 8 7 9 5 11 4 12 6 13 2 14
REMARK SMILES IDX 1 15 3 16 15 17 16 18 17 19 18 20 19 21 20 23 21 24 22 25
REMARK SMILES IDX 86 26 23 27 85 28 24 29 25 30 26 31 79 32 27 33 84 34 78 35
REMARK SMILES IDX 80 36 28 37 83 38 77 39 76 40 29 42 63 43 42 44 62 45 43 46
REMARK SMILES IDX 46 47 61 48 81 49 44 50 45 51 60 53 82 54 47 55 30 56 31 57
REMARK SMILES IDX 40 58 32 59 33 60 39 61 41 62 34 63 35 64 36 65 37 66 38 67
REMARK SMILES IDX 64 68 65 69 74 70 66 71 67 72 73 73 75 74 68 75 69 76 70 77
REMARK SMILES IDX 71 78 72 79 48 80 49 81 58 82 50 83 51 84 57 85 59 86 52 87
REMARK SMILES IDX 53 88 54 89 55 90 56 91
REMARK H PARENT 11 7 7 10 18 22 80 41 46 52
REMARK Flexibility Score: inf
ROOT
ATOM      1  C   UNL A   1      31.042  27.979  24.600  1.00  0.00     0.002 C 
ENDROOT
BRANCH   1   2
ATOM      2  C   UNL A   1      31.018  27.110  25.863  1.00  0.00     0.021 C 
BRANCH   2   3
ATOM      3  C   UNL A   1      30.308  25.774  25.659  1.00  0.00     0.116 C 
BRANCH   3   4
ATOM      4  N   UNL A   1      30.677  24.815  26.680  1.00  0.00    -0.355 N 
ATOM      5  C   UNL A   1      31.262  23.589  26.581  1.00  0.00     0.239 C 
ATOM      6  O   UNL A   1      31.420  22.962  27.637  1.00  0.00    -0.273 OA
ATOM      7  H   UNL A   1      30.470  25.096  27.601  1.00  0.00     0.163 HD
BRANCH   5   8
ATOM      8  C   UNL A   1      31.801  23.008  25.264  1.00  0.00     0.213 C 
BRANCH   8   9
ATOM      9  N   UNL A   1      31.993  21.571  25.241  1.00  0.00    -0.380 N 
ATOM     10  H   UNL A   1      31.156  21.062  25.342  1.00  0.00     0.160 HD
BRANCH   9  11
ATOM     11  C   UNL A   1      33.112  20.768  25.106  1.00  0.00     0.011 C 
ATOM     12  C   UNL A   1      33.302  19.511  24.649  1.00  0.00     0.067 C 
ATOM     13  C   UNL A   1      34.356  21.438  25.693  1.00  0.00     0.064 C 
BRANCH  12  14
ATOM     14  C   UNL A   1      32.511  18.366  24.108  1.00  0.00     0.154 C 
ATOM     15  C   UNL A   1      32.412  18.052  22.649  1.00  0.00     0.093 C 
ATOM     16  O   UNL A   1      31.934  17.642  24.926  1.00  0.00    -0.295 OA
ENDBRANCH  12  14
ENDBRANCH   9  11
ENDBRANCH   8   9
ENDBRANCH   5   8
ENDBRANCH   3   4
ENDBRANCH   2   3
ENDBRANCH   1   2
BRANCH   1  17
ATOM     17  C   UNL A   1      32.179  29.006  24.547  1.00  0.00     0.002 C 
BRANCH  17  18
ATOM     18  C   UNL A   1      33.585  28.430  24.747  1.00  0.00     0.021 C 
BRANCH  18  19
ATOM     19  C   UNL A   1      34.206  28.730  26.108  1.00  0.00     0.116 C 
BRANCH  19  20
ATOM     20  N   UNL A   1      33.869  30.062  26.577  1.00  0.00    -0.352 N 
ATOM     21  C   UNL A   1      34.457  30.820  27.555  1.00  0.00     0.251 C 
ATOM     22  H   UNL A   1      33.103  30.484  26.124  1.00  0.00     0.163 HD
ATOM     23  O   UNL A   1      33.898  31.841  27.944  1.00  0.00    -0.269 OA
BRANCH  21  24
ATOM     24  C   UNL A   1      35.752  30.413  28.145  1.00  0.00     0.039 A 
ATOM     25  C   UNL A   1      35.743  29.581  29.269  1.00  0.00     0.014 A 
ATOM     26  C   UNL A   1      36.965  30.889  27.638  1.00  0.00     0.014 A 
ATOM     27  C   UNL A   1      36.947  29.213  29.870  1.00  0.00     0.010 A 
ATOM     28  C   UNL A   1      38.170  30.463  28.196  1.00  0.00     0.010 A 
ATOM     29  C   UNL A   1      38.173  29.643  29.333  1.00  0.00    -0.014 A 
BRANCH  29  30
ATOM     30  C   UNL A   1      39.456  29.292  29.993  1.00  0.00     0.031 A 
ATOM     31  C   UNL A   1      39.895  30.038  31.225  1.00  0.00     0.074 A 
ATOM     32  C   UNL A   1      40.228  28.313  29.479  1.00  0.00     0.049 A 
ATOM     33  N   UNL A   1      40.984  29.892  31.938  1.00  0.00    -0.248 NA
ATOM     34  C   UNL A   1      39.007  31.109  31.708  1.00  0.00     0.031 C 
ATOM     35  C   UNL A   1      39.930  27.546  28.267  1.00  0.00     0.029 A 
ATOM     36  N   UNL A   1      41.420  27.794  29.915  1.00  0.00    -0.354 N 
ATOM     37  C   UNL A   1      40.911  30.846  32.945  1.00  0.00     0.074 A 
ATOM     38  C   UNL A   1      39.707  31.614  32.713  1.00  0.00     0.031 C 
ATOM     39  C   UNL A   1      40.897  26.634  28.076  1.00  0.00     0.029 A 
ATOM     40  C   UNL A   1      41.895  26.767  29.132  1.00  0.00     0.049 A 
ATOM     41  H   UNL A   1      41.893  28.125  30.712  1.00  0.00     0.167 HD
ATOM     42  C   UNL A   1      41.750  31.046  33.989  1.00  0.00     0.037 A 
ATOM     43  C   UNL A   1      43.006  26.016  29.259  1.00  0.00     0.037 A 
ATOM     44  C   UNL A   1      42.934  30.263  34.232  1.00  0.00     0.049 A 
ATOM     45  C   UNL A   1      43.922  26.259  30.429  1.00  0.00     0.074 A 
ATOM     46  C   UNL A   1      43.836  30.364  35.276  1.00  0.00     0.029 A 
ATOM     47  N   UNL A   1      43.373  29.224  33.424  1.00  0.00    -0.354 N 
ATOM     48  N   UNL A   1      43.813  27.140  31.397  1.00  0.00    -0.248 NA
ATOM     49  C   UNL A   1      45.108  25.399  30.530  1.00  0.00     0.031 C 
ATOM     50  C   UNL A   1      44.837  29.406  35.085  1.00  0.00     0.029 A 
ATOM     51  C   UNL A   1      44.535  28.680  33.944  1.00  0.00     0.049 A 
ATOM     52  H   UNL A   1      42.924  28.919  32.604  1.00  0.00     0.167 HD
ATOM     53  C   UNL A   1      44.899  26.916  32.237  1.00  0.00     0.074 A 
ATOM     54  C   UNL A   1      45.641  25.808  31.673  1.00  0.00     0.031 C 
ATOM     55  C   UNL A   1      45.254  27.569  33.372  1.00  0.00     0.037 A 
BRANCH  42  56
ATOM     56  C   UNL A   1      41.404  32.142  34.960  1.00  0.00     0.058 A 
ATOM     57  C   UNL A   1      40.491  31.931  36.006  1.00  0.00     0.135 A 
ATOM     58  C   UNL A   1      42.012  33.405  34.869  1.00  0.00     0.135 A 
ATOM     59  F   UNL A   1      39.866  30.749  36.130  1.00  0.00    -0.206 F 
ATOM     60  C   UNL A   1      40.172  32.937  36.911  1.00  0.00     0.059 A 
ATOM     61  C   UNL A   1      41.729  34.420  35.780  1.00  0.00     0.059 A 
ATOM     62  F   UNL A   1      42.890  33.663  33.887  1.00  0.00    -0.206 F 
ATOM     63  C   UNL A   1      40.797  34.180  36.790  1.00  0.00     0.060 A 
BRANCH  63  64
ATOM     64  S   UNL A   1      40.380  35.472  37.979  1.00  0.00     0.124 S 
ATOM     65  O   UNL A   1      41.697  35.817  38.508  1.00  0.00    -0.237 OA
ATOM     66  O   UNL A   1      39.752  36.483  37.135  1.00  0.00    -0.237 OA
ATOM     67  O   UNL A   1      39.486  34.797  38.915  1.00  0.00    -0.744 OA
ENDBRANCH  63  64
ENDBRANCH  42  56
BRANCH  43  68
ATOM     68  C   UNL A   1      43.304  24.941  28.276  1.00  0.00     0.058 A 
ATOM     69  C   UNL A   1      43.978  25.226  27.079  1.00  0.00     0.135 A 
ATOM     70  C   UNL A   1      42.898  23.616  28.497  1.00  0.00     0.135 A 
ATOM     71  F   UNL A   1      44.383  26.479  26.821  1.00  0.00    -0.206 F 
ATOM     72  C   UNL A   1      44.207  24.246  26.119  1.00  0.00     0.059 A 
ATOM     73  C   UNL A   1      43.139  22.612  27.565  1.00  0.00     0.059 A 
ATOM     74  F   UNL A   1      42.266  23.287  29.636  1.00  0.00    -0.206 F 
ATOM     75  C   UNL A   1      43.779  22.942  26.369  1.00  0.00     0.060 A 
BRANCH  75  76
ATOM     76  S   UNL A   1      44.087  21.673  25.122  1.00  0.00     0.124 S 
ATOM     77  O   UNL A   1      45.458  21.286  25.430  1.00  0.00    -0.237 OA
ATOM     78  O   UNL A   1      43.058  20.684  25.428  1.00  0.00    -0.237 OA
ATOM     79  O   UNL A   1      43.899  22.390  23.863  1.00  0.00    -0.744 OA
ENDBRANCH  75  76
ENDBRANCH  43  68
BRANCH  55  80
ATOM     80  C   UNL A   1      46.475  27.072  34.093  1.00  0.00     0.058 A 
ATOM     81  C   UNL A   1      47.752  27.586  33.822  1.00  0.00     0.135 A 
ATOM     82  C   UNL A   1      46.363  26.079  35.080  1.00  0.00     0.135 A 
ATOM     83  F   UNL A   1      47.915  28.534  32.886  1.00  0.00    -0.206 F 
ATOM     84  C   UNL A   1      48.882  27.102  34.473  1.00  0.00     0.059 A 
ATOM     85  C   UNL A   1      47.475  25.602  35.764  1.00  0.00     0.059 A 
ATOM     86  F   UNL A   1      45.162  25.564  35.388  1.00  0.00    -0.206 F 
ATOM     87  C   UNL A   1      48.734  26.106  35.439  1.00  0.00     0.060 A 
BRANCH  87  88
ATOM     88  S   UNL A   1      50.206  25.486  36.279  1.00  0.00     0.124 S 
ATOM     89  O   UNL A   1      51.230  26.408  35.798  1.00  0.00    -0.237 OA
ATOM     90  O   UNL A   1      49.844  25.620  37.687  1.00  0.00    -0.237 OA
ATOM     91  O   UNL A   1      50.320  24.113  35.797  1.00  0.00    -0.744 OA
ENDBRANCH  87  88
ENDBRANCH  55  80
ENDBRANCH  29  30
ENDBRANCH  21  24
ENDBRANCH  19  20
ENDBRANCH  18  19
ENDBRANCH  17  18
ENDBRANCH   1  17
TORSDOF 19
ENDMDL
MODEL 3
REMARK VINA RESULT:      -9.7      3.288      9.497
REMARK SMILES CC(=O)/C=C(/C)NCC(=O)NCCCCCCNC(=O)c1ccc(-c2c3nc(c(-c4c(F)cc(S(=O)(=O)[O-])cc4F)c4ccc([nH]4)c(-c4c(F)cc(S(=O)(=O)[O-])cc4F)c4nc(c(-c5c(F)cc(S(=O)(=O)[O-])cc5F)c5ccc2[nH]5)C=C4)C=C3)cc1
REMARK SMILES IDX 14 1 13 2 12 3 11 4 9 5 10 6 8 8 7 9 5 11 4 12 6 13 2 14
REMARK SMILES IDX 1 15 3 16 15 17 16 18 17 19 18 20 19 21 20 23 21 24 22 25
REMARK SMILES IDX 86 26 23 27 85 28 24 29 25 30 26 31 79 32 27 33 84 34 78 35
REMARK SMILES IDX 80 36 28 37 83 38 77 39 76 40 29 42 63 43 42 44 62 45 43 46
REMARK SMILES IDX 46 47 61 48 81 49 44 50 45 51 60 53 82 54 47 55 30 56 31 57
REMARK SMILES IDX 40 58 32 59 33 60 39 61 41 62 34 63 35 64 36 65 37 66 38 67
REMARK SMILES IDX 64 68 65 69 74 70 66 71 67 72 73 73 75 74 68 75 69 76 70 77
REMARK SMILES IDX 71 78 72 79 48 80 49 81 58 82 50 83 51 84 57 85 59 86 52 87
REMARK SMILES IDX 53 88 54 89 55 90 56 91
REMARK H PARENT 11 7 7 10 18 22 80 41 46 52
REMARK Flexibility Score: inf
ROOT
ATOM      1  C   UNL A   1      33.721  25.865  23.213  1.00  0.00     0.002 C 
ENDROOT
BRANCH   1   2
ATOM      2  C   UNL A   1      32.982  24.559  22.895  1.00  0.00     0.021 C 
BRANCH   2   3
ATOM      3  C   UNL A   1      33.672  23.325  23.470  1.00  0.00     0.116 C 
BRANCH   3   4
ATOM      4  N   UNL A   1      32.911  22.121  23.209  1.00  0.00    -0.355 N 
ATOM      5  C   UNL A   1      32.895  20.919  23.850  1.00  0.00     0.239 C 
ATOM      6  O   UNL A   1      32.165  20.043  23.370  1.00  0.00    -0.273 OA
ATOM      7  H   UNL A   1      32.301  22.180  22.437  1.00  0.00     0.163 HD
BRANCH   5   8
ATOM      8  C   UNL A   1      33.654  20.645  25.158  1.00  0.00     0.213 C 
BRANCH   8   9
ATOM      9  N   UNL A   1      33.010  21.114  26.370  1.00  0.00    -0.380 N 
ATOM     10  H   UNL A   1      32.519  20.408  26.852  1.00  0.00     0.160 HD
BRANCH   9  11
ATOM     11  C   UNL A   1      32.944  22.350  26.989  1.00  0.00     0.011 C 
ATOM     12  C   UNL A   1      32.142  23.426  26.830  1.00  0.00     0.067 C 
ATOM     13  C   UNL A   1      34.090  22.540  27.985  1.00  0.00     0.064 C 
BRANCH  12  14
ATOM     14  C   UNL A   1      31.002  23.879  25.977  1.00  0.00     0.154 C 
ATOM     15  C   UNL A   1      30.447  25.266  26.017  1.00  0.00     0.093 C 
ATOM     16  O   UNL A   1      30.523  23.054  25.192  1.00  0.00    -0.295 OA
ENDBRANCH  12  14
ENDBRANCH   9  11
ENDBRANCH   8   9
ENDBRANCH   5   8
ENDBRANCH   3   4
ENDBRANCH   2   3
ENDBRANCH   1   2
BRANCH   1  17
ATOM     17  C   UNL A   1      33.656  26.300  24.682  1.00  0.00     0.002 C 
BRANCH  17  18
ATOM     18  C   UNL A   1      33.655  27.815  24.912  1.00  0.00     0.021 C 
BRANCH  18  19
ATOM     19  C   UNL A   1      33.949  28.239  26.347  1.00  0.00     0.116 C 
BRANCH  19  20
ATOM     20  N   UNL A   1      33.750  29.664  26.543  1.00  0.00    -0.352 N 
ATOM     21  C   UNL A   1      34.449  30.546  27.327  1.00  0.00     0.251 C 
ATOM     22  H   UNL A   1      33.001  30.056  26.039  1.00  0.00     0.163 HD
ATOM     23  O   UNL A   1      33.998  31.672  27.515  1.00  0.00    -0.269 OA
BRANCH  21  24
ATOM     24  C   UNL A   1      35.732  30.147  27.946  1.00  0.00     0.039 A 
ATOM     25  C   UNL A   1      35.719  29.654  29.254  1.00  0.00     0.014 A 
ATOM     26  C   UNL A   1      36.946  30.309  27.273  1.00  0.00     0.014 A 
ATOM     27  C   UNL A   1      36.918  29.307  29.878  1.00  0.00     0.010 A 
ATOM     28  C   UNL A   1      38.136  29.895  27.871  1.00  0.00     0.010 A 
ATOM     29  C   UNL A   1      38.137  29.416  29.188  1.00  0.00    -0.014 A 
BRANCH  29  30
ATOM     30  C   UNL A   1      39.421  29.091  29.860  1.00  0.00     0.031 A 
ATOM     31  C   UNL A   1      39.838  29.853  31.091  1.00  0.00     0.074 A 
ATOM     32  C   UNL A   1      40.214  28.122  29.359  1.00  0.00     0.049 A 
ATOM     33  N   UNL A   1      40.924  29.729  31.812  1.00  0.00    -0.248 NA
ATOM     34  C   UNL A   1      38.929  30.912  31.559  1.00  0.00     0.031 C 
ATOM     35  C   UNL A   1      39.938  27.342  28.150  1.00  0.00     0.029 A 
ATOM     36  N   UNL A   1      41.411  27.626  29.808  1.00  0.00    -0.354 N 
ATOM     37  C   UNL A   1      40.826  30.690  32.812  1.00  0.00     0.074 A 
ATOM     38  C   UNL A   1      39.612  31.435  32.566  1.00  0.00     0.031 C 
ATOM     39  C   UNL A   1      40.921  26.445  27.972  1.00  0.00     0.029 A 
ATOM     40  C   UNL A   1      41.908  26.602  29.035  1.00  0.00     0.049 A 
ATOM     41  H   UNL A   1      41.871  27.971  30.606  1.00  0.00     0.167 HD
ATOM     42  C   UNL A   1      41.655  30.910  33.862  1.00  0.00     0.037 A 
ATOM     43  C   UNL A   1      43.031  25.871  29.176  1.00  0.00     0.037 A 
ATOM     44  C   UNL A   1      42.849  30.149  34.119  1.00  0.00     0.049 A 
ATOM     45  C   UNL A   1      43.934  26.137  30.351  1.00  0.00     0.074 A 
ATOM     46  C   UNL A   1      43.741  30.272  35.169  1.00  0.00     0.029 A 
ATOM     47  N   UNL A   1      43.312  29.112  33.322  1.00  0.00    -0.354 N 
ATOM     48  N   UNL A   1      43.802  27.022  31.312  1.00  0.00    -0.248 NA
ATOM     49  C   UNL A   1      45.133  25.297  30.467  1.00  0.00     0.031 C 
ATOM     50  C   UNL A   1      44.760  29.330  34.992  1.00  0.00     0.029 A 
ATOM     51  C   UNL A   1      44.479  28.592  33.853  1.00  0.00     0.049 A 
ATOM     52  H   UNL A   1      42.874  28.794  32.500  1.00  0.00     0.167 HD
ATOM     53  C   UNL A   1      44.886  26.822  32.162  1.00  0.00     0.074 A 
ATOM     54  C   UNL A   1      45.650  25.723  31.611  1.00  0.00     0.031 C 
ATOM     55  C   UNL A   1      45.221  27.489  33.295  1.00  0.00     0.037 A 
BRANCH  42  56
ATOM     56  C   UNL A   1      41.283  32.007  34.822  1.00  0.00     0.058 A 
ATOM     57  C   UNL A   1      41.748  33.320  34.649  1.00  0.00     0.135 A 
ATOM     58  C   UNL A   1      40.427  31.755  35.907  1.00  0.00     0.135 A 
ATOM     59  F   UNL A   1      42.584  33.614  33.640  1.00  0.00    -0.206 F 
ATOM     60  C   UNL A   1      41.403  34.339  35.530  1.00  0.00     0.059 A 
ATOM     61  C   UNL A   1      40.045  32.766  36.786  1.00  0.00     0.059 A 
ATOM     62  F   UNL A   1      39.954  30.518  36.123  1.00  0.00    -0.206 F 
ATOM     63  C   UNL A   1      40.549  34.053  36.597  1.00  0.00     0.060 A 
BRANCH  63  64
ATOM     64  S   UNL A   1      40.101  35.389  37.724  1.00  0.00     0.124 S 
ATOM     65  O   UNL A   1      39.901  36.498  36.795  1.00  0.00    -0.237 OA
ATOM     66  O   UNL A   1      38.895  34.870  38.361  1.00  0.00    -0.237 OA
ATOM     67  O   UNL A   1      41.267  35.504  38.595  1.00  0.00    -0.744 OA
ENDBRANCH  63  64
ENDBRANCH  42  56
BRANCH  43  68
ATOM     68  C   UNL A   1      43.355  24.794  28.203  1.00  0.00     0.058 A 
ATOM     69  C   UNL A   1      44.071  25.075  27.029  1.00  0.00     0.135 A 
ATOM     70  C   UNL A   1      42.933  23.472  28.409  1.00  0.00     0.135 A 
ATOM     71  F   UNL A   1      44.493  26.325  26.785  1.00  0.00    -0.206 F 
ATOM     72  C   UNL A   1      44.325  24.095  26.076  1.00  0.00     0.059 A 
ATOM     73  C   UNL A   1      43.198  22.467  27.484  1.00  0.00     0.059 A 
ATOM     74  F   UNL A   1      42.260  23.146  29.525  1.00  0.00    -0.206 F 
ATOM     75  C   UNL A   1      43.880  22.793  26.311  1.00  0.00     0.060 A 
BRANCH  75  76
ATOM     76  S   UNL A   1      44.221  21.523  25.073  1.00  0.00     0.124 S 
ATOM     77  O   UNL A   1      44.106  22.283  23.834  1.00  0.00    -0.237 OA
ATOM     78  O   UNL A   1      45.568  21.092  25.437  1.00  0.00    -0.237 OA
ATOM     79  O   UNL A   1      43.171  20.536  25.310  1.00  0.00    -0.744 OA
ENDBRANCH  75  76
ENDBRANCH  43  68
BRANCH  55  80
ATOM     80  C   UNL A   1      46.444  27.017  34.029  1.00  0.00     0.058 A 
ATOM     81  C   UNL A   1      47.715  27.550  33.764  1.00  0.00     0.135 A 
ATOM     82  C   UNL A   1      46.341  26.029  35.021  1.00  0.00     0.135 A 
ATOM     83  F   UNL A   1      47.869  28.495  32.822  1.00  0.00    -0.206 F 
ATOM     84  C   UNL A   1      48.848  27.090  34.426  1.00  0.00     0.059 A 
ATOM     85  C   UNL A   1      47.456  25.576  35.718  1.00  0.00     0.059 A 
ATOM     86  F   UNL A   1      45.147  25.497  35.325  1.00  0.00    -0.206 F 
ATOM     87  C   UNL A   1      48.709  26.098  35.398  1.00  0.00     0.060 A 
BRANCH  87  88
ATOM     88  S   UNL A   1      50.185  25.509  36.254  1.00  0.00     0.124 S 
ATOM     89  O   UNL A   1      51.204  26.420  35.743  1.00  0.00    -0.237 OA
ATOM     90  O   UNL A   1      49.825  25.683  37.658  1.00  0.00    -0.237 OA
ATOM     91  O   UNL A   1      50.303  24.122  35.812  1.00  0.00    -0.744 OA
ENDBRANCH  87  88
ENDBRANCH  55  80
ENDBRANCH  29  30
ENDBRANCH  21  24
ENDBRANCH  19  20
ENDBRANCH  18  19
ENDBRANCH  17  18
ENDBRANCH   1  17
TORSDOF 19
ENDMDL
