MODEL 1
REMARK VINA RESULT:     -13.3      0.000      0.000
REMARK SMILES CC1=C(C(=O)Nc2ccccc2)[C@@H](c2ccc(C(=O)NCCCCCCNC(=O)c3ccc(-c4c5nc(c(-c6c(F)cc(S(=O)(=O)[O-])cc6F)c6ccc([nH]6)c(-c6c(F)cc(S(=O)(=O)[O-])cc6F)c6nc(c(-c7c(F)cc(S(=O)(=O)[O-])cc7F)c7ccc4[nH]7)C=C6)C=C5)cc3)cc2)n2ncnc2N1
REMARK SMILES IDX 23 1 22 2 21 3 20 4 18 5 19 6 17 8 14 9 15 10 97 11 16 12
REMARK SMILES IDX 96 13 13 14 1 15 2 16 3 17 103 18 102 19 98 21 101 22 99 23
REMARK SMILES IDX 100 24 4 25 5 26 6 27 7 29 8 30 12 31 9 32 11 33 10 34 24 35
REMARK SMILES IDX 25 36 26 37 27 38 28 39 29 41 30 42 31 43 95 44 32 45 94 46
REMARK SMILES IDX 33 47 34 48 35 49 88 50 36 51 93 52 87 53 89 54 37 55 92 56
REMARK SMILES IDX 86 57 85 58 38 60 72 61 51 62 71 63 52 64 55 65 70 66 90 67
REMARK SMILES IDX 53 68 54 69 69 71 91 72 56 73 39 74 40 75 49 76 41 77 42 78
REMARK SMILES IDX 48 79 50 80 43 81 44 82 45 83 46 84 47 85 73 86 74 87 83 88
REMARK SMILES IDX 75 89 76 90 82 91 84 92 77 93 78 94 79 95 80 96 81 97 57 98
REMARK SMILES IDX 58 99 67 100 59 101 60 102 66 103 68 104 61 105 62 106
REMARK SMILES IDX 63 107 64 108 65 109
REMARK H PARENT 20 7 103 20 6 28 27 40 89 59 55 70
REMARK Flexibility Score: inf
ROOT
ATOM      1  C   UNL A   1      37.392  23.342  25.191  1.00  0.00     0.002 C 
ENDROOT
BRANCH   1   2
ATOM      2  C   UNL A   1      36.858  22.232  24.277  1.00  0.00     0.021 C 
BRANCH   2   3
ATOM      3  C   UNL A   1      35.329  22.151  24.257  1.00  0.00     0.116 C 
BRANCH   3   4
ATOM      4  N   UNL A   1      34.837  21.578  25.497  1.00  0.00    -0.352 N 
ATOM      5  C   UNL A   1      34.010  22.069  26.478  1.00  0.00     0.251 C 
ATOM      6  O   UNL A   1      33.735  21.328  27.422  1.00  0.00    -0.269 OA
ATOM      7  H   UNL A   1      35.158  20.663  25.668  1.00  0.00     0.163 HD
BRANCH   5   8
ATOM      8  C   UNL A   1      33.384  23.417  26.406  1.00  0.00     0.039 A 
ATOM      9  C   UNL A   1      32.003  25.868  26.154  1.00  0.00    -0.019 A 
ATOM     10  C   UNL A   1      31.392  24.782  26.787  1.00  0.00     0.007 A 
ATOM     11  C   UNL A   1      33.332  25.726  25.718  1.00  0.00     0.007 A 
ATOM     12  C   UNL A   1      32.074  23.562  26.893  1.00  0.00     0.014 A 
ATOM     13  C   UNL A   1      34.029  24.536  25.895  1.00  0.00     0.014 A 
BRANCH   9  14
ATOM     14  C   UNL A   1      31.324  27.211  25.926  1.00  0.00     0.179 C 
ATOM     15  C   UNL A   1      29.406  29.086  23.100  1.00  0.00     0.065 C 
ATOM     16  C   UNL A   1      30.471  28.627  24.062  1.00  0.00     0.026 C 
ATOM     17  C   UNL A   1      30.560  27.382  24.601  1.00  0.00     0.065 C 
ATOM     18  N   UNL A   1      31.314  29.646  24.496  1.00  0.00    -0.328 N 
ATOM     19  C   UNL A   1      32.169  29.525  25.523  1.00  0.00     0.226 A 
ATOM     20  H   UNL A   1      31.281  30.507  24.019  1.00  0.00     0.169 HD
ATOM     21  N   UNL A   1      32.224  28.342  26.206  1.00  0.00    -0.219 N 
ATOM     22  N   UNL A   1      32.968  30.398  26.082  1.00  0.00    -0.200 NA
ATOM     23  N   UNL A   1      33.009  28.456  27.304  1.00  0.00    -0.157 NA
ATOM     24  C   UNL A   1      33.447  29.711  27.167  1.00  0.00     0.248 A 
BRANCH  17  25
ATOM     25  C   UNL A   1      29.725  26.200  24.239  1.00  0.00     0.255 C 
ATOM     26  O   UNL A   1      28.543  26.193  24.593  1.00  0.00    -0.269 OA
ATOM     27  N   UNL A   1      30.174  25.121  23.533  1.00  0.00    -0.322 N 
ATOM     28  H   UNL A   1      29.592  24.328  23.581  1.00  0.00     0.170 HD
BRANCH  27  29
ATOM     29  C   UNL A   1      31.322  24.955  22.750  1.00  0.00     0.041 A 
ATOM     30  C   UNL A   1      32.002  23.744  22.927  1.00  0.00     0.026 A 
ATOM     31  C   UNL A   1      31.734  25.846  21.759  1.00  0.00     0.026 A 
ATOM     32  C   UNL A   1      32.981  23.350  22.019  1.00  0.00     0.002 A 
ATOM     33  C   UNL A   1      32.755  25.468  20.879  1.00  0.00     0.002 A 
ATOM     34  C   UNL A   1      33.347  24.206  20.983  1.00  0.00     0.000 A 
ENDBRANCH  27  29
ENDBRANCH  17  25
ENDBRANCH   9  14
ENDBRANCH   5   8
ENDBRANCH   3   4
ENDBRANCH   2   3
ENDBRANCH   1   2
BRANCH   1  35
ATOM     35  C   UNL A   1      38.493  22.904  26.169  1.00  0.00     0.002 C 
BRANCH  35  36
ATOM     36  C   UNL A   1      39.209  21.592  25.814  1.00  0.00     0.021 C 
BRANCH  36  37
ATOM     37  C   UNL A   1      40.456  21.341  26.651  1.00  0.00     0.116 C 
BRANCH  37  38
ATOM     38  N   UNL A   1      41.665  21.605  25.881  1.00  0.00    -0.352 N 
ATOM     39  C   UNL A   1      42.266  22.809  25.592  1.00  0.00     0.251 C 
ATOM     40  H   UNL A   1      42.117  20.810  25.516  1.00  0.00     0.163 HD
ATOM     41  O   UNL A   1      43.038  22.896  24.648  1.00  0.00    -0.269 OA
BRANCH  39  42
ATOM     42  C   UNL A   1      41.960  23.991  26.421  1.00  0.00     0.039 A 
ATOM     43  C   UNL A   1      42.239  23.963  27.789  1.00  0.00     0.014 A 
ATOM     44  C   UNL A   1      41.384  25.120  25.835  1.00  0.00     0.014 A 
ATOM     45  C   UNL A   1      42.011  25.107  28.546  1.00  0.00     0.010 A 
ATOM     46  C   UNL A   1      41.245  26.283  26.567  1.00  0.00     0.010 A 
ATOM     47  C   UNL A   1      41.543  26.279  27.927  1.00  0.00    -0.014 A 
BRANCH  47  48
ATOM     48  C   UNL A   1      41.577  27.542  28.670  1.00  0.00     0.031 A 
ATOM     49  C   UNL A   1      42.719  28.414  28.274  1.00  0.00     0.074 A 
ATOM     50  C   UNL A   1      40.592  27.995  29.477  1.00  0.00     0.049 A 
ATOM     51  N   UNL A   1      43.776  28.687  28.962  1.00  0.00    -0.248 NA
ATOM     52  C   UNL A   1      42.784  28.889  26.879  1.00  0.00     0.031 C 
ATOM     53  C   UNL A   1      39.280  27.380  29.704  1.00  0.00     0.029 A 
ATOM     54  N   UNL A   1      40.504  29.159  30.190  1.00  0.00    -0.354 N 
ATOM     55  C   UNL A   1      44.498  29.595  28.192  1.00  0.00     0.074 A 
ATOM     56  C   UNL A   1      43.974  29.495  26.858  1.00  0.00     0.031 C 
ATOM     57  C   UNL A   1      38.456  28.273  30.297  1.00  0.00     0.029 A 
ATOM     58  C   UNL A   1      39.219  29.458  30.645  1.00  0.00     0.049 A 
ATOM     59  H   UNL A   1      41.281  29.738  30.366  1.00  0.00     0.167 HD
ATOM     60  C   UNL A   1      45.228  30.577  28.792  1.00  0.00     0.037 A 
ATOM     61  C   UNL A   1      38.802  30.593  31.262  1.00  0.00     0.037 A 
ATOM     62  C   UNL A   1      45.394  30.292  30.196  1.00  0.00     0.049 A 
ATOM     63  C   UNL A   1      39.999  31.237  31.849  1.00  0.00     0.074 A 
ATOM     64  C   UNL A   1      46.049  29.349  30.957  1.00  0.00     0.029 A 
ATOM     65  N   UNL A   1      44.443  30.872  30.994  1.00  0.00    -0.354 N 
ATOM     66  N   UNL A   1      40.677  30.730  32.840  1.00  0.00    -0.248 NA
ATOM     67  C   UNL A   1      40.667  32.307  31.119  1.00  0.00     0.031 C 
ATOM     68  C   UNL A   1      45.290  29.222  32.159  1.00  0.00     0.029 A 
ATOM     69  C   UNL A   1      44.231  30.127  32.121  1.00  0.00     0.049 A 
ATOM     70  H   UNL A   1      43.975  31.713  30.784  1.00  0.00     0.167 HD
ATOM     71  C   UNL A   1      41.983  31.084  32.576  1.00  0.00     0.074 A 
ATOM     72  C   UNL A   1      41.893  32.193  31.635  1.00  0.00     0.031 C 
ATOM     73  C   UNL A   1      43.004  30.232  32.882  1.00  0.00     0.037 A 
BRANCH  60  74
ATOM     74  C   UNL A   1      45.345  32.005  28.280  1.00  0.00     0.058 A 
ATOM     75  C   UNL A   1      46.631  32.543  28.047  1.00  0.00     0.135 A 
ATOM     76  C   UNL A   1      44.296  32.951  28.315  1.00  0.00     0.135 A 
ATOM     77  F   UNL A   1      47.709  31.744  28.005  1.00  0.00    -0.206 F 
ATOM     78  C   UNL A   1      46.862  33.917  27.930  1.00  0.00     0.059 A 
ATOM     79  C   UNL A   1      44.499  34.317  28.150  1.00  0.00     0.059 A 
ATOM     80  F   UNL A   1      43.035  32.620  28.609  1.00  0.00    -0.206 F 
ATOM     81  C   UNL A   1      45.788  34.796  27.995  1.00  0.00     0.060 A 
BRANCH  81  82
ATOM     82  S   UNL A   1      46.081  36.572  27.914  1.00  0.00     0.124 S 
ATOM     83  O   UNL A   1      46.319  36.764  26.488  1.00  0.00    -0.237 OA
ATOM     84  O   UNL A   1      44.829  37.108  28.435  1.00  0.00    -0.237 OA
ATOM     85  O   UNL A   1      47.242  36.758  28.779  1.00  0.00    -0.744 OA
ENDBRANCH  81  82
ENDBRANCH  60  74
BRANCH  61  86
ATOM     86  C   UNL A   1      37.481  31.275  31.251  1.00  0.00     0.058 A 
ATOM     87  C   UNL A   1      36.650  31.271  32.388  1.00  0.00     0.135 A 
ATOM     88  C   UNL A   1      37.146  32.201  30.244  1.00  0.00     0.135 A 
ATOM     89  F   UNL A   1      36.892  30.422  33.400  1.00  0.00    -0.206 F 
ATOM     90  C   UNL A   1      35.606  32.186  32.558  1.00  0.00     0.059 A 
ATOM     91  C   UNL A   1      36.102  33.118  30.387  1.00  0.00     0.059 A 
ATOM     92  F   UNL A   1      37.889  32.309  29.133  1.00  0.00    -0.206 F 
ATOM     93  C   UNL A   1      35.360  33.129  31.562  1.00  0.00     0.060 A 
BRANCH  93  94
ATOM     94  S   UNL A   1      34.166  34.454  31.873  1.00  0.00     0.124 S 
ATOM     95  O   UNL A   1      35.026  35.531  32.351  1.00  0.00    -0.237 OA
ATOM     96  O   UNL A   1      33.570  34.651  30.556  1.00  0.00    -0.237 OA
ATOM     97  O   UNL A   1      33.273  33.877  32.875  1.00  0.00    -0.744 OA
ENDBRANCH  93  94
ENDBRANCH  61  86
BRANCH  73  98
ATOM     98  C   UNL A   1      42.780  29.260  34.003  1.00  0.00     0.058 A 
ATOM     99  C   UNL A   1      42.902  29.542  35.374  1.00  0.00     0.135 A 
ATOM    100  C   UNL A   1      42.363  27.966  33.647  1.00  0.00     0.135 A 
ATOM    101  F   UNL A   1      43.207  30.777  35.801  1.00  0.00    -0.206 F 
ATOM    102  C   UNL A   1      42.677  28.563  36.342  1.00  0.00     0.059 A 
ATOM    103  C   UNL A   1      42.097  26.988  34.595  1.00  0.00     0.059 A 
ATOM    104  F   UNL A   1      42.182  27.649  32.354  1.00  0.00    -0.206 F 
ATOM    105  C   UNL A   1      42.279  27.286  35.942  1.00  0.00     0.060 A 
BRANCH 105 106
ATOM    106  S   UNL A   1      41.958  26.024  37.192  1.00  0.00     0.124 S 
ATOM    107  O   UNL A   1      42.187  24.791  36.447  1.00  0.00    -0.237 OA
ATOM    108  O   UNL A   1      42.944  26.338  38.221  1.00  0.00    -0.237 OA
ATOM    109  O   UNL A   1      40.570  26.271  37.577  1.00  0.00    -0.744 OA
ENDBRANCH 105 106
ENDBRANCH  73  98
ENDBRANCH  47  48
ENDBRANCH  39  42
ENDBRANCH  37  38
ENDBRANCH  36  37
ENDBRANCH  35  36
ENDBRANCH   1  35
TORSDOF 19
ENDMDL
MODEL 2
REMARK VINA RESULT:     -13.0      1.194      1.700
REMARK SMILES CC1=C(C(=O)Nc2ccccc2)[C@@H](c2ccc(C(=O)NCCCCCCNC(=O)c3ccc(-c4c5nc(c(-c6c(F)cc(S(=O)(=O)[O-])cc6F)c6ccc([nH]6)c(-c6c(F)cc(S(=O)(=O)[O-])cc6F)c6nc(c(-c7c(F)cc(S(=O)(=O)[O-])cc7F)c7ccc4[nH]7)C=C6)C=C5)cc3)cc2)n2ncnc2N1
REMARK SMILES IDX 23 1 22 2 21 3 20 4 18 5 19 6 17 8 14 9 15 10 97 11 16 12
REMARK SMILES IDX 96 13 13 14 1 15 2 16 3 17 103 18 102 19 98 21 101 22 99 23
REMARK SMILES IDX 100 24 4 25 5 26 6 27 7 29 8 30 12 31 9 32 11 33 10 34 24 35
REMARK SMILES IDX 25 36 26 37 27 38 28 39 29 41 30 42 31 43 95 44 32 45 94 46
REMARK SMILES IDX 33 47 34 48 35 49 88 50 36 51 93 52 87 53 89 54 37 55 92 56
REMARK SMILES IDX 86 57 85 58 38 60 72 61 51 62 71 63 52 64 55 65 70 66 90 67
REMARK SMILES IDX 53 68 54 69 69 71 91 72 56 73 39 74 40 75 49 76 41 77 42 78
REMARK SMILES IDX 48 79 50 80 43 81 44 82 45 83 46 84 47 85 73 86 74 87 83 88
REMARK SMILES IDX 75 89 76 90 82 91 84 92 77 93 78 94 79 95 80 96 81 97 57 98
REMARK SMILES IDX 58 99 67 100 59 101 60 102 66 103 68 104 61 105 62 106
REMARK SMILES IDX 63 107 64 108 65 109
REMARK H PARENT 20 7 103 20 6 28 27 40 89 59 55 70
REMARK Flexibility Score: inf
ROOT
ATOM      1  C   UNL A   1      39.249  22.681  26.421  1.00  0.00     0.002 C 
ENDROOT
BRANCH   1   2
ATOM      2  C   UNL A   1      38.086  22.020  25.669  1.00  0.00     0.021 C 
BRANCH   2   3
ATOM      3  C   UNL A   1      36.759  22.768  25.834  1.00  0.00     0.116 C 
BRANCH   3   4
ATOM      4  N   UNL A   1      35.689  21.835  26.141  1.00  0.00    -0.352 N 
ATOM      5  C   UNL A   1      34.350  22.015  26.386  1.00  0.00     0.251 C 
ATOM      6  O   UNL A   1      33.664  21.013  26.592  1.00  0.00    -0.269 OA
ATOM      7  H   UNL A   1      35.979  20.896  26.182  1.00  0.00     0.163 HD
BRANCH   5   8
ATOM      8  C   UNL A   1      33.692  23.349  26.342  1.00  0.00     0.039 A 
ATOM      9  C   UNL A   1      32.247  25.769  26.154  1.00  0.00    -0.019 A 
ATOM     10  C   UNL A   1      31.698  24.676  26.833  1.00  0.00     0.007 A 
ATOM     11  C   UNL A   1      33.549  25.649  25.638  1.00  0.00     0.007 A 
ATOM     12  C   UNL A   1      32.412  23.471  26.907  1.00  0.00     0.014 A 
ATOM     13  C   UNL A   1      34.281  24.476  25.781  1.00  0.00     0.014 A 
BRANCH   9  14
ATOM     14  C   UNL A   1      31.526  27.095  25.956  1.00  0.00     0.179 C 
ATOM     15  C   UNL A   1      29.424  28.913  23.227  1.00  0.00     0.065 C 
ATOM     16  C   UNL A   1      30.548  28.483  24.134  1.00  0.00     0.026 C 
ATOM     17  C   UNL A   1      30.692  27.242  24.672  1.00  0.00     0.065 C 
ATOM     18  N   UNL A   1      31.388  29.523  24.520  1.00  0.00    -0.328 N 
ATOM     19  C   UNL A   1      32.297  29.425  25.503  1.00  0.00     0.226 A 
ATOM     20  H   UNL A   1      31.312  30.381  24.043  1.00  0.00     0.169 HD
ATOM     21  N   UNL A   1      32.414  28.247  26.187  1.00  0.00    -0.219 N 
ATOM     22  N   UNL A   1      33.104  30.318  26.018  1.00  0.00    -0.200 NA
ATOM     23  N   UNL A   1      33.251  28.384  27.242  1.00  0.00    -0.157 NA
ATOM     24  C   UNL A   1      33.653  29.648  27.078  1.00  0.00     0.248 A 
BRANCH  17  25
ATOM     25  C   UNL A   1      29.867  26.041  24.357  1.00  0.00     0.255 C 
ATOM     26  O   UNL A   1      28.702  26.013  24.763  1.00  0.00    -0.269 OA
ATOM     27  N   UNL A   1      30.306  24.964  23.642  1.00  0.00    -0.322 N 
ATOM     28  H   UNL A   1      29.744  24.160  23.722  1.00  0.00     0.170 HD
BRANCH  27  29
ATOM     29  C   UNL A   1      31.422  24.814  22.811  1.00  0.00     0.041 A 
ATOM     30  C   UNL A   1      32.132  23.616  22.965  1.00  0.00     0.026 A 
ATOM     31  C   UNL A   1      31.774  25.705  21.798  1.00  0.00     0.026 A 
ATOM     32  C   UNL A   1      33.077  23.235  22.018  1.00  0.00     0.002 A 
ATOM     33  C   UNL A   1      32.763  25.340  20.876  1.00  0.00     0.002 A 
ATOM     34  C   UNL A   1      33.382  24.090  20.962  1.00  0.00     0.000 A 
ENDBRANCH  27  29
ENDBRANCH  17  25
ENDBRANCH   9  14
ENDBRANCH   5   8
ENDBRANCH   3   4
ENDBRANCH   2   3
ENDBRANCH   1   2
BRANCH   1  35
ATOM     35  C   UNL A   1      40.151  21.714  27.201  1.00  0.00     0.002 C 
BRANCH  35  36
ATOM     36  C   UNL A   1      40.979  20.745  26.343  1.00  0.00     0.021 C 
BRANCH  36  37
ATOM     37  C   UNL A   1      42.242  20.255  27.037  1.00  0.00     0.116 C 
BRANCH  37  38
ATOM     38  N   UNL A   1      43.431  20.606  26.270  1.00  0.00    -0.352 N 
ATOM     39  C   UNL A   1      43.888  21.850  25.898  1.00  0.00     0.251 C 
ATOM     40  H   UNL A   1      43.985  19.848  25.977  1.00  0.00     0.163 HD
ATOM     41  O   UNL A   1      44.669  21.960  24.964  1.00  0.00    -0.269 OA
BRANCH  39  42
ATOM     42  C   UNL A   1      43.418  23.045  26.625  1.00  0.00     0.039 A 
ATOM     43  C   UNL A   1      43.761  23.211  27.969  1.00  0.00     0.014 A 
ATOM     44  C   UNL A   1      42.626  23.990  25.971  1.00  0.00     0.014 A 
ATOM     45  C   UNL A   1      43.372  24.375  28.625  1.00  0.00     0.010 A 
ATOM     46  C   UNL A   1      42.320  25.185  26.593  1.00  0.00     0.010 A 
ATOM     47  C   UNL A   1      42.677  25.377  27.925  1.00  0.00    -0.014 A 
BRANCH  47  48
ATOM     48  C   UNL A   1      42.523  26.700  28.538  1.00  0.00     0.031 A 
ATOM     49  C   UNL A   1      43.676  27.601  28.260  1.00  0.00     0.074 A 
ATOM     50  C   UNL A   1      41.393  27.160  29.118  1.00  0.00     0.049 A 
ATOM     51  N   UNL A   1      44.583  27.997  29.090  1.00  0.00    -0.248 NA
ATOM     52  C   UNL A   1      43.964  27.956  26.858  1.00  0.00     0.031 C 
ATOM     53  C   UNL A   1      40.090  26.488  29.176  1.00  0.00     0.029 A 
ATOM     54  N   UNL A   1      41.128  28.375  29.689  1.00  0.00    -0.354 N 
ATOM     55  C   UNL A   1      45.388  28.877  28.371  1.00  0.00     0.074 A 
ATOM     56  C   UNL A   1      45.111  28.630  26.982  1.00  0.00     0.031 C 
ATOM     57  C   UNL A   1      39.136  27.378  29.530  1.00  0.00     0.029 A 
ATOM     58  C   UNL A   1      39.771  28.632  29.888  1.00  0.00     0.049 A 
ATOM     59  H   UNL A   1      41.836  29.013  29.939  1.00  0.00     0.167 HD
ATOM     60  C   UNL A   1      45.956  29.950  28.989  1.00  0.00     0.037 A 
ATOM     61  C   UNL A   1      39.202  29.790  30.312  1.00  0.00     0.037 A 
ATOM     62  C   UNL A   1      45.885  29.799  30.421  1.00  0.00     0.049 A 
ATOM     63  C   UNL A   1      40.247  30.554  31.030  1.00  0.00     0.074 A 
ATOM     64  C   UNL A   1      46.438  28.967  31.370  1.00  0.00     0.029 A 
ATOM     65  N   UNL A   1      44.784  30.387  30.985  1.00  0.00    -0.354 N 
ATOM     66  N   UNL A   1      40.762  30.178  32.166  1.00  0.00    -0.248 NA
ATOM     67  C   UNL A   1      40.985  31.595  30.325  1.00  0.00     0.031 C 
ATOM     68  C   UNL A   1      45.486  28.900  32.432  1.00  0.00     0.029 A 
ATOM     69  C   UNL A   1      44.411  29.732  32.126  1.00  0.00     0.049 A 
ATOM     70  H   UNL A   1      44.323  31.177  30.618  1.00  0.00     0.167 HD
ATOM     71  C   UNL A   1      42.078  30.586  32.096  1.00  0.00     0.074 A 
ATOM     72  C   UNL A   1      42.105  31.602  31.051  1.00  0.00     0.031 C 
ATOM     73  C   UNL A   1      43.066  29.828  32.653  1.00  0.00     0.037 A 
BRANCH  60  74
ATOM     74  C   UNL A   1      46.097  31.332  28.368  1.00  0.00     0.058 A 
ATOM     75  C   UNL A   1      44.942  31.979  27.874  1.00  0.00     0.135 A 
ATOM     76  C   UNL A   1      47.325  31.897  27.954  1.00  0.00     0.135 A 
ATOM     77  F   UNL A   1      43.718  31.526  28.188  1.00  0.00    -0.206 F 
ATOM     78  C   UNL A   1      45.004  33.055  26.983  1.00  0.00     0.059 A 
ATOM     79  C   UNL A   1      47.408  32.999  27.109  1.00  0.00     0.059 A 
ATOM     80  F   UNL A   1      48.508  31.356  28.261  1.00  0.00    -0.206 F 
ATOM     81  C   UNL A   1      46.245  33.550  26.599  1.00  0.00     0.060 A 
BRANCH  81  82
ATOM     82  S   UNL A   1      46.340  34.891  25.400  1.00  0.00     0.124 S 
ATOM     83  O   UNL A   1      47.739  34.822  24.995  1.00  0.00    -0.237 OA
ATOM     84  O   UNL A   1      45.360  34.474  24.403  1.00  0.00    -0.237 OA
ATOM     85  O   UNL A   1      45.965  36.065  26.183  1.00  0.00    -0.744 OA
ENDBRANCH  81  82
ENDBRANCH  60  74
BRANCH  61  86
ATOM     86  C   UNL A   1      37.874  30.387  30.010  1.00  0.00     0.058 A 
ATOM     87  C   UNL A   1      37.039  30.862  31.039  1.00  0.00     0.135 A 
ATOM     88  C   UNL A   1      37.534  30.787  28.703  1.00  0.00     0.135 A 
ATOM     89  F   UNL A   1      37.285  30.533  32.317  1.00  0.00    -0.206 F 
ATOM     90  C   UNL A   1      35.985  31.750  30.800  1.00  0.00     0.059 A 
ATOM     91  C   UNL A   1      36.480  31.665  28.439  1.00  0.00     0.059 A 
ATOM     92  F   UNL A   1      38.281  30.416  27.653  1.00  0.00    -0.206 F 
ATOM     93  C   UNL A   1      35.733  32.171  29.496  1.00  0.00     0.060 A 
BRANCH  93  94
ATOM     94  S   UNL A   1      34.525  33.488  29.208  1.00  0.00     0.124 S 
ATOM     95  O   UNL A   1      33.980  33.698  30.545  1.00  0.00    -0.237 OA
ATOM     96  O   UNL A   1      35.357  34.565  28.683  1.00  0.00    -0.237 OA
ATOM     97  O   UNL A   1      33.601  32.895  28.244  1.00  0.00    -0.744 OA
ENDBRANCH  93  94
ENDBRANCH  61  86
BRANCH  73  98
ATOM     98  C   UNL A   1      42.692  28.945  33.807  1.00  0.00     0.058 A 
ATOM     99  C   UNL A   1      42.443  29.373  35.122  1.00  0.00     0.135 A 
ATOM    100  C   UNL A   1      42.531  27.577  33.534  1.00  0.00     0.135 A 
ATOM    101  F   UNL A   1      42.485  30.674  35.447  1.00  0.00    -0.206 F 
ATOM    102  C   UNL A   1      42.106  28.468  36.131  1.00  0.00     0.059 A 
ATOM    103  C   UNL A   1      42.160  26.666  34.513  1.00  0.00     0.059 A 
ATOM    104  F   UNL A   1      42.709  27.115  32.285  1.00  0.00    -0.206 F 
ATOM    105  C   UNL A   1      41.972  27.115  35.816  1.00  0.00     0.060 A 
BRANCH 105 106
ATOM    106  S   UNL A   1      41.507  25.945  37.110  1.00  0.00     0.124 S 
ATOM    107  O   UNL A   1      41.260  24.727  36.346  1.00  0.00    -0.237 OA
ATOM    108  O   UNL A   1      42.691  25.931  37.965  1.00  0.00    -0.237 OA
ATOM    109  O   UNL A   1      40.323  26.554  37.712  1.00  0.00    -0.744 OA
ENDBRANCH 105 106
ENDBRANCH  73  98
ENDBRANCH  47  48
ENDBRANCH  39  42
ENDBRANCH  37  38
ENDBRANCH  36  37
ENDBRANCH  35  36
ENDBRANCH   1  35
TORSDOF 19
ENDMDL
MODEL 3
REMARK VINA RESULT:     -12.7      2.774      3.940
REMARK SMILES CC1=C(C(=O)Nc2ccccc2)[C@@H](c2ccc(C(=O)NCCCCCCNC(=O)c3ccc(-c4c5nc(c(-c6c(F)cc(S(=O)(=O)[O-])cc6F)c6ccc([nH]6)c(-c6c(F)cc(S(=O)(=O)[O-])cc6F)c6nc(c(-c7c(F)cc(S(=O)(=O)[O-])cc7F)c7ccc4[nH]7)C=C6)C=C5)cc3)cc2)n2ncnc2N1
REMARK SMILES IDX 23 1 22 2 21 3 20 4 18 5 19 6 17 8 14 9 15 10 97 11 16 12
REMARK SMILES IDX 96 13 13 14 1 15 2 16 3 17 103 18 102 19 98 21 101 22 99 23
REMARK SMILES IDX 100 24 4 25 5 26 6 27 7 29 8 30 12 31 9 32 11 33 10 34 24 35
REMARK SMILES IDX 25 36 26 37 27 38 28 39 29 41 30 42 31 43 95 44 32 45 94 46
REMARK SMILES IDX 33 47 34 48 35 49 88 50 36 51 93 52 87 53 89 54 37 55 92 56
REMARK SMILES IDX 86 57 85 58 38 60 72 61 51 62 71 63 52 64 55 65 70 66 90 67
REMARK SMILES IDX 53 68 54 69 69 71 91 72 56 73 39 74 40 75 49 76 41 77 42 78
REMARK SMILES IDX 48 79 50 80 43 81 44 82 45 83 46 84 47 85 73 86 74 87 83 88
REMARK SMILES IDX 75 89 76 90 82 91 84 92 77 93 78 94 79 95 80 96 81 97 57 98
REMARK SMILES IDX 58 99 67 100 59 101 60 102 66 103 68 104 61 105 62 106
REMARK SMILES IDX 63 107 64 108 65 109
REMARK H PARENT 20 7 103 20 6 28 27 40 89 59 55 70
REMARK Flexibility Score: inf
ROOT
ATOM      1  C   UNL A   1      40.970  21.238  26.271  1.00  0.00     0.002 C 
ENDROOT
BRANCH   1   2
ATOM      2  C   UNL A   1      39.756  21.969  26.859  1.00  0.00     0.021 C 
BRANCH   2   3
ATOM      3  C   UNL A   1      38.729  22.380  25.800  1.00  0.00     0.116 C 
BRANCH   3   4
ATOM      4  N   UNL A   1      37.906  21.243  25.427  1.00  0.00    -0.352 N 
ATOM      5  C   UNL A   1      36.545  21.076  25.341  1.00  0.00     0.251 C 
ATOM      6  O   UNL A   1      36.123  19.984  24.958  1.00  0.00    -0.269 OA
ATOM      7  H   UNL A   1      38.421  20.439  25.191  1.00  0.00     0.163 HD
BRANCH   5   8
ATOM      8  C   UNL A   1      35.578  22.172  25.620  1.00  0.00     0.039 A 
ATOM      9  C   UNL A   1      33.581  24.077  26.224  1.00  0.00    -0.019 A 
ATOM     10  C   UNL A   1      34.004  23.172  27.202  1.00  0.00     0.007 A 
ATOM     11  C   UNL A   1      34.221  24.055  24.972  1.00  0.00     0.007 A 
ATOM     12  C   UNL A   1      34.982  22.216  26.892  1.00  0.00     0.014 A 
ATOM     13  C   UNL A   1      35.243  23.154  24.697  1.00  0.00     0.014 A 
BRANCH   9  14
ATOM     14  C   UNL A   1      32.478  25.105  26.436  1.00  0.00     0.179 C 
ATOM     15  C   UNL A   1      28.650  25.472  25.814  1.00  0.00     0.065 C 
ATOM     16  C   UNL A   1      30.148  25.585  25.698  1.00  0.00     0.026 C 
ATOM     17  C   UNL A   1      31.042  24.651  26.120  1.00  0.00     0.065 C 
ATOM     18  N   UNL A   1      30.585  26.826  25.243  1.00  0.00    -0.328 N 
ATOM     19  C   UNL A   1      31.862  27.235  25.291  1.00  0.00     0.226 A 
ATOM     20  H   UNL A   1      29.915  27.440  24.862  1.00  0.00     0.169 HD
ATOM     21  N   UNL A   1      32.807  26.403  25.826  1.00  0.00    -0.219 N 
ATOM     22  N   UNL A   1      32.410  28.378  24.967  1.00  0.00    -0.200 NA
ATOM     23  N   UNL A   1      33.995  27.040  25.947  1.00  0.00    -0.157 NA
ATOM     24  C   UNL A   1      33.702  28.221  25.394  1.00  0.00     0.248 A 
BRANCH  17  25
ATOM     25  C   UNL A   1      30.721  23.289  26.634  1.00  0.00     0.255 C 
ATOM     26  O   UNL A   1      30.059  23.200  27.672  1.00  0.00    -0.269 OA
ATOM     27  N   UNL A   1      31.101  22.124  26.032  1.00  0.00    -0.322 N 
ATOM     28  H   UNL A   1      31.030  21.325  26.602  1.00  0.00     0.170 HD
BRANCH  27  29
ATOM     29  C   UNL A   1      31.572  21.876  24.738  1.00  0.00     0.041 A 
ATOM     30  C   UNL A   1      32.213  20.644  24.555  1.00  0.00     0.026 A 
ATOM     31  C   UNL A   1      31.339  22.707  23.643  1.00  0.00     0.026 A 
ATOM     32  C   UNL A   1      32.471  20.171  23.272  1.00  0.00     0.002 A 
ATOM     33  C   UNL A   1      31.648  22.250  22.356  1.00  0.00     0.002 A 
ATOM     34  C   UNL A   1      32.173  20.968  22.169  1.00  0.00     0.000 A 
ENDBRANCH  27  29
ENDBRANCH  17  25
ENDBRANCH   9  14
ENDBRANCH   5   8
ENDBRANCH   3   4
ENDBRANCH   2   3
ENDBRANCH   1   2
BRANCH   1  35
ATOM     35  C   UNL A   1      41.171  19.802  26.779  1.00  0.00     0.002 C 
BRANCH  35  36
ATOM     36  C   UNL A   1      41.988  18.883  25.858  1.00  0.00     0.021 C 
BRANCH  36  37
ATOM     37  C   UNL A   1      43.481  18.899  26.163  1.00  0.00     0.116 C 
BRANCH  37  38
ATOM     38  N   UNL A   1      44.265  18.869  24.935  1.00  0.00    -0.352 N 
ATOM     39  C   UNL A   1      44.675  19.915  24.140  1.00  0.00     0.251 C 
ATOM     40  H   UNL A   1      44.543  17.974  24.632  1.00  0.00     0.163 HD
ATOM     41  O   UNL A   1      44.993  19.710  22.978  1.00  0.00    -0.269 OA
BRANCH  39  42
ATOM     42  C   UNL A   1      44.713  21.280  24.697  1.00  0.00     0.039 A 
ATOM     43  C   UNL A   1      43.840  22.251  24.199  1.00  0.00     0.014 A 
ATOM     44  C   UNL A   1      45.626  21.594  25.705  1.00  0.00     0.014 A 
ATOM     45  C   UNL A   1      43.837  23.514  24.781  1.00  0.00     0.010 A 
ATOM     46  C   UNL A   1      45.558  22.818  26.343  1.00  0.00     0.010 A 
ATOM     47  C   UNL A   1      44.676  23.788  25.875  1.00  0.00    -0.014 A 
BRANCH  47  48
ATOM     48  C   UNL A   1      44.462  25.014  26.650  1.00  0.00     0.031 A 
ATOM     49  C   UNL A   1      45.542  26.020  26.447  1.00  0.00     0.074 A 
ATOM     50  C   UNL A   1      43.329  25.322  27.319  1.00  0.00     0.049 A 
ATOM     51  N   UNL A   1      46.455  26.375  27.288  1.00  0.00    -0.248 NA
ATOM     52  C   UNL A   1      45.749  26.559  25.090  1.00  0.00     0.031 C 
ATOM     53  C   UNL A   1      42.076  24.560  27.337  1.00  0.00     0.029 A 
ATOM     54  N   UNL A   1      43.011  26.438  28.043  1.00  0.00    -0.354 N 
ATOM     55  C   UNL A   1      47.171  27.389  26.656  1.00  0.00     0.074 A 
ATOM     56  C   UNL A   1      46.853  27.291  25.258  1.00  0.00     0.031 C 
ATOM     57  C   UNL A   1      41.082  25.332  27.829  1.00  0.00     0.029 A 
ATOM     58  C   UNL A   1      41.649  26.576  28.317  1.00  0.00     0.049 A 
ATOM     59  H   UNL A   1      43.685  27.089  28.346  1.00  0.00     0.167 HD
ATOM     60  C   UNL A   1      47.694  28.417  27.382  1.00  0.00     0.037 A 
ATOM     61  C   UNL A   1      41.024  27.632  28.898  1.00  0.00     0.037 A 
ATOM     62  C   UNL A   1      47.692  28.090  28.786  1.00  0.00     0.049 A 
ATOM     63  C   UNL A   1      42.047  28.374  29.669  1.00  0.00     0.074 A 
ATOM     64  C   UNL A   1      48.336  27.191  29.608  1.00  0.00     0.029 A 
ATOM     65  N   UNL A   1      46.579  28.529  29.454  1.00  0.00    -0.354 N 
ATOM     66  N   UNL A   1      42.631  27.902  30.733  1.00  0.00    -0.248 NA
ATOM     67  C   UNL A   1      42.685  29.542  29.073  1.00  0.00     0.031 C 
ATOM     68  C   UNL A   1      47.435  26.931  30.684  1.00  0.00     0.029 A 
ATOM     69  C   UNL A   1      46.297  27.718  30.518  1.00  0.00     0.049 A 
ATOM     70  H   UNL A   1      46.053  29.323  29.202  1.00  0.00     0.167 HD
ATOM     71  C   UNL A   1      43.914  28.405  30.670  1.00  0.00     0.074 A 
ATOM     72  C   UNL A   1      43.832  29.539  29.757  1.00  0.00     0.031 C 
ATOM     73  C   UNL A   1      44.971  27.656  31.097  1.00  0.00     0.037 A 
BRANCH  60  74
ATOM     74  C   UNL A   1      47.719  29.870  26.931  1.00  0.00     0.058 A 
ATOM     75  C   UNL A   1      48.909  30.615  27.095  1.00  0.00     0.135 A 
ATOM     76  C   UNL A   1      46.565  30.637  26.652  1.00  0.00     0.135 A 
ATOM     77  F   UNL A   1      50.068  29.998  27.376  1.00  0.00    -0.206 F 
ATOM     78  C   UNL A   1      48.934  32.012  27.057  1.00  0.00     0.059 A 
ATOM     79  C   UNL A   1      46.579  32.024  26.559  1.00  0.00     0.059 A 
ATOM     80  F   UNL A   1      45.346  30.097  26.554  1.00  0.00    -0.206 F 
ATOM     81  C   UNL A   1      47.759  32.707  26.798  1.00  0.00     0.060 A 
BRANCH  81  82
ATOM     82  S   UNL A   1      47.765  34.509  26.813  1.00  0.00     0.124 S 
ATOM     83  O   UNL A   1      48.147  34.810  25.438  1.00  0.00    -0.237 OA
ATOM     84  O   UNL A   1      46.386  34.812  27.179  1.00  0.00    -0.237 OA
ATOM     85  O   UNL A   1      48.761  34.830  27.831  1.00  0.00    -0.744 OA
ENDBRANCH  81  82
ENDBRANCH  60  74
BRANCH  61  86
ATOM     86  C   UNL A   1      39.649  28.167  28.716  1.00  0.00     0.058 A 
ATOM     87  C   UNL A   1      38.700  28.104  29.754  1.00  0.00     0.135 A 
ATOM     88  C   UNL A   1      39.336  29.025  27.643  1.00  0.00     0.135 A 
ATOM     89  F   UNL A   1      38.913  27.314  30.818  1.00  0.00    -0.206 F 
ATOM     90  C   UNL A   1      37.554  28.906  29.773  1.00  0.00     0.059 A 
ATOM     91  C   UNL A   1      38.193  29.827  27.635  1.00  0.00     0.059 A 
ATOM     92  F   UNL A   1      40.185  29.182  26.617  1.00  0.00    -0.206 F 
ATOM     93  C   UNL A   1      37.325  29.789  28.720  1.00  0.00     0.060 A 
BRANCH  93  94
ATOM     94  S   UNL A   1      35.973  30.986  28.846  1.00  0.00     0.124 S 
ATOM     95  O   UNL A   1      34.876  30.275  28.198  1.00  0.00    -0.237 OA
ATOM     96  O   UNL A   1      35.851  31.168  30.289  1.00  0.00    -0.237 OA
ATOM     97  O   UNL A   1      36.480  32.147  28.118  1.00  0.00    -0.744 OA
ENDBRANCH  93  94
ENDBRANCH  61  86
BRANCH  73  98
ATOM     98  C   UNL A   1      44.703  26.617  32.146  1.00  0.00     0.058 A 
ATOM     99  C   UNL A   1      44.454  25.255  31.909  1.00  0.00     0.135 A 
ATOM    100  C   UNL A   1      44.754  27.038  33.485  1.00  0.00     0.135 A 
ATOM    101  F   UNL A   1      44.479  24.753  30.665  1.00  0.00    -0.206 F 
ATOM    102  C   UNL A   1      44.209  24.366  32.957  1.00  0.00     0.059 A 
ATOM    103  C   UNL A   1      44.550  26.165  34.543  1.00  0.00     0.059 A 
ATOM    104  F   UNL A   1      45.035  28.320  33.776  1.00  0.00    -0.206 F 
ATOM    105  C   UNL A   1      44.255  24.832  34.272  1.00  0.00     0.060 A 
BRANCH 105 106
ATOM    106  S   UNL A   1      43.968  23.682  35.632  1.00  0.00     0.124 S 
ATOM    107  O   UNL A   1      44.476  22.428  35.085  1.00  0.00    -0.237 OA
ATOM    108  O   UNL A   1      44.752  24.268  36.715  1.00  0.00    -0.237 OA
ATOM    109  O   UNL A   1      42.520  23.735  35.825  1.00  0.00    -0.744 OA
ENDBRANCH 105 106
ENDBRANCH  73  98
ENDBRANCH  47  48
ENDBRANCH  39  42
ENDBRANCH  37  38
ENDBRANCH  36  37
ENDBRANCH  35  36
ENDBRANCH   1  35
TORSDOF 19
ENDMDL
