MODEL 1
REMARK VINA RESULT:     -10.3      0.000      0.000
REMARK SMILES [NH3+][C@@]1(C(=O)NCCCCCCNC(=O)c2ccc(-c3c4nc(c(-c5c(F)cc(S(=O)(=O)[O-])cc5F)c5ccc([nH]5)c(-c5c(F)cc(S(=O)(=O)[O-])cc5F)c5nc(c(-c6c(F)cc(S(=O)(=O)[O-])cc6F)c6ccc3[nH]6)C=C5)C=C4)cc2)CC[C@H](Sc2cccs2)C1
REMARK SMILES IDX 9 1 8 2 7 3 6 4 5 5 3 6 4 7 2 9 81 10 90 11 82 12 83 13 1 14
REMARK SMILES IDX 84 18 85 19 86 20 89 21 87 22 88 23 10 24 11 25 12 26 13 27
REMARK SMILES IDX 14 29 15 30 16 31 80 32 17 33 79 34 18 35 19 36 20 37 73 38
REMARK SMILES IDX 21 39 78 40 72 41 74 42 22 43 77 44 71 45 70 46 23 48 57 49
REMARK SMILES IDX 36 50 56 51 37 52 40 53 55 54 75 55 38 56 39 57 54 59 76 60
REMARK SMILES IDX 41 61 24 62 25 63 34 64 26 65 27 66 33 67 35 68 28 69 29 70
REMARK SMILES IDX 30 71 31 72 32 73 58 74 59 75 68 76 60 77 61 78 67 79 69 80
REMARK SMILES IDX 62 81 63 82 64 83 65 84 66 85 42 86 43 87 52 88 44 89 45 90
REMARK SMILES IDX 51 91 53 92 46 93 47 94 48 95 49 96 50 97
REMARK H PARENT 5 8 1 15 1 16 1 17 12 28 74 47 40 58
REMARK Flexibility Score: inf
ROOT
ATOM      1  C   UNL A   1      35.481  21.908  24.129  1.00  0.00     0.002 C 
ENDROOT
BRANCH   1   2
ATOM      2  C   UNL A   1      34.666  20.968  25.023  1.00  0.00     0.002 C 
BRANCH   2   3
ATOM      3  C   UNL A   1      33.359  20.453  24.426  1.00  0.00     0.021 C 
BRANCH   3   4
ATOM      4  C   UNL A   1      32.094  21.079  24.998  1.00  0.00     0.116 C 
BRANCH   4   5
ATOM      5  N   UNL A   1      32.267  21.576  26.343  1.00  0.00    -0.351 N 
ATOM      6  C   UNL A   1      31.967  22.785  26.892  1.00  0.00     0.281 C 
ATOM      7  O   UNL A   1      32.332  22.951  28.065  1.00  0.00    -0.268 OA
ATOM      8  H   UNL A   1      32.669  20.931  26.969  1.00  0.00     0.163 HD
BRANCH   6   9
ATOM      9  C   UNL A   1      31.237  23.944  26.106  1.00  0.00     0.175 C 
ATOM     10  C   UNL A   1      31.053  23.649  24.609  1.00  0.00     0.080 C 
ATOM     11  C   UNL A   1      31.975  25.290  26.200  1.00  0.00     0.094 C 
ATOM     12  C   UNL A   1      31.980  24.590  23.849  1.00  0.00     0.022 C 
ATOM     13  C   UNL A   1      32.139  25.807  24.754  1.00  0.00     0.059 C 
BRANCH   9  14
ATOM     14  N   UNL A   1      29.869  24.065  26.678  1.00  0.00    -0.345 N 
ATOM     15  H   UNL A   1      29.700  23.293  27.322  1.00  0.00     0.345 HD
ATOM     16  H   UNL A   1      29.182  24.037  25.924  1.00  0.00     0.345 HD
ATOM     17  H   UNL A   1      29.787  24.950  27.179  1.00  0.00     0.345 HD
ENDBRANCH   9  14
BRANCH  13  18
ATOM     18  S   UNL A   1      33.630  26.849  24.660  1.00  0.00    -0.112 SA
BRANCH  18  19
ATOM     19  C   UNL A   1      33.480  28.180  25.792  1.00  0.00     0.060 A 
ATOM     20  C   UNL A   1      34.401  28.657  26.698  1.00  0.00     0.027 A 
ATOM     21  S   UNL A   1      32.081  29.182  25.754  1.00  0.00    -0.137 S 
ATOM     22  C   UNL A   1      33.954  29.835  27.372  1.00  0.00     0.013 A 
ATOM     23  C   UNL A   1      32.716  30.243  26.932  1.00  0.00     0.066 A 
ENDBRANCH  18  19
ENDBRANCH  13  18
ENDBRANCH   6   9
ENDBRANCH   4   5
ENDBRANCH   3   4
ENDBRANCH   2   3
ENDBRANCH   1   2
BRANCH   1  24
ATOM     24  C   UNL A   1      35.445  23.396  24.494  1.00  0.00     0.021 C 
BRANCH  24  25
ATOM     25  C   UNL A   1      36.584  23.891  25.381  1.00  0.00     0.116 C 
BRANCH  25  26
ATOM     26  N   UNL A   1      37.662  22.925  25.489  1.00  0.00    -0.352 N 
ATOM     27  C   UNL A   1      38.899  23.053  26.063  1.00  0.00     0.251 C 
ATOM     28  H   UNL A   1      37.477  22.045  25.089  1.00  0.00     0.163 HD
ATOM     29  O   UNL A   1      39.731  22.157  25.903  1.00  0.00    -0.269 OA
BRANCH  27  30
ATOM     30  C   UNL A   1      39.254  24.253  26.854  1.00  0.00     0.039 A 
ATOM     31  C   UNL A   1      40.039  25.241  26.250  1.00  0.00     0.014 A 
ATOM     32  C   UNL A   1      38.873  24.391  28.193  1.00  0.00     0.014 A 
ATOM     33  C   UNL A   1      40.417  26.373  26.976  1.00  0.00     0.010 A 
ATOM     34  C   UNL A   1      39.196  25.552  28.895  1.00  0.00     0.010 A 
ATOM     35  C   UNL A   1      39.988  26.545  28.301  1.00  0.00    -0.014 A 
BRANCH  35  36
ATOM     36  C   UNL A   1      40.410  27.730  29.093  1.00  0.00     0.031 A 
ATOM     37  C   UNL A   1      41.771  27.753  29.740  1.00  0.00     0.074 A 
ATOM     38  C   UNL A   1      39.569  28.772  29.248  1.00  0.00     0.049 A 
ATOM     39  N   UNL A   1      42.304  28.663  30.512  1.00  0.00    -0.248 NA
ATOM     40  C   UNL A   1      42.638  26.587  29.501  1.00  0.00     0.031 C 
ATOM     41  C   UNL A   1      38.217  28.862  28.691  1.00  0.00     0.029 A 
ATOM     42  N   UNL A   1      39.728  29.956  29.923  1.00  0.00    -0.354 N 
ATOM     43  C   UNL A   1      43.562  28.179  30.857  1.00  0.00     0.074 A 
ATOM     44  C   UNL A   1      43.689  26.869  30.257  1.00  0.00     0.031 C 
ATOM     45  C   UNL A   1      37.681  30.047  29.027  1.00  0.00     0.029 A 
ATOM     46  C   UNL A   1      38.635  30.787  29.848  1.00  0.00     0.049 A 
ATOM     47  H   UNL A   1      40.547  30.189  30.415  1.00  0.00     0.167 HD
ATOM     48  C   UNL A   1      44.536  28.782  31.582  1.00  0.00     0.037 A 
ATOM     49  C   UNL A   1      38.427  32.007  30.379  1.00  0.00     0.037 A 
ATOM     50  C   UNL A   1      44.417  30.095  32.158  1.00  0.00     0.049 A 
ATOM     51  C   UNL A   1      39.524  32.653  31.185  1.00  0.00     0.074 A 
ATOM     52  C   UNL A   1      45.345  30.797  32.908  1.00  0.00     0.029 A 
ATOM     53  N   UNL A   1      43.304  30.914  32.035  1.00  0.00    -0.354 N 
ATOM     54  N   UNL A   1      40.712  32.186  31.485  1.00  0.00    -0.248 NA
ATOM     55  C   UNL A   1      39.256  33.998  31.712  1.00  0.00     0.031 C 
ATOM     56  C   UNL A   1      44.785  32.032  33.255  1.00  0.00     0.029 A 
ATOM     57  C   UNL A   1      43.525  32.115  32.688  1.00  0.00     0.049 A 
ATOM     58  H   UNL A   1      42.479  30.677  31.553  1.00  0.00     0.167 HD
ATOM     59  C   UNL A   1      41.349  33.198  32.196  1.00  0.00     0.074 A 
ATOM     60  C   UNL A   1      40.415  34.302  32.279  1.00  0.00     0.031 C 
ATOM     61  C   UNL A   1      42.596  33.214  32.731  1.00  0.00     0.037 A 
BRANCH  48  62
ATOM     62  C   UNL A   1      45.824  28.029  31.775  1.00  0.00     0.058 A 
ATOM     63  C   UNL A   1      46.902  28.184  30.888  1.00  0.00     0.135 A 
ATOM     64  C   UNL A   1      45.999  27.171  32.873  1.00  0.00     0.135 A 
ATOM     65  F   UNL A   1      46.782  28.978  29.812  1.00  0.00    -0.206 F 
ATOM     66  C   UNL A   1      48.096  27.496  31.066  1.00  0.00     0.059 A 
ATOM     67  C   UNL A   1      47.197  26.494  33.086  1.00  0.00     0.059 A 
ATOM     68  F   UNL A   1      45.002  26.986  33.752  1.00  0.00    -0.206 F 
ATOM     69  C   UNL A   1      48.235  26.652  32.169  1.00  0.00     0.060 A 
BRANCH  69  70
ATOM     70  S   UNL A   1      49.796  25.773  32.391  1.00  0.00     0.124 S 
ATOM     71  O   UNL A   1      50.719  26.878  32.636  1.00  0.00    -0.237 OA
ATOM     72  O   UNL A   1      49.514  24.917  33.539  1.00  0.00    -0.237 OA
ATOM     73  O   UNL A   1      49.976  25.075  31.122  1.00  0.00    -0.744 OA
ENDBRANCH  69  70
ENDBRANCH  48  62
BRANCH  49  74
ATOM     74  C   UNL A   1      37.144  32.723  30.146  1.00  0.00     0.058 A 
ATOM     75  C   UNL A   1      37.012  33.640  29.092  1.00  0.00     0.135 A 
ATOM     76  C   UNL A   1      36.036  32.528  30.984  1.00  0.00     0.135 A 
ATOM     77  F   UNL A   1      38.045  33.862  28.264  1.00  0.00    -0.206 F 
ATOM     78  C   UNL A   1      35.843  34.367  28.899  1.00  0.00     0.059 A 
ATOM     79  C   UNL A   1      34.846  33.224  30.796  1.00  0.00     0.059 A 
ATOM     80  F   UNL A   1      36.102  31.645  31.993  1.00  0.00    -0.206 F 
ATOM     81  C   UNL A   1      34.766  34.156  29.762  1.00  0.00     0.060 A 
BRANCH  81  82
ATOM     82  S   UNL A   1      33.246  35.097  29.502  1.00  0.00     0.124 S 
ATOM     83  O   UNL A   1      33.772  36.385  29.064  1.00  0.00    -0.237 OA
ATOM     84  O   UNL A   1      32.562  34.305  28.485  1.00  0.00    -0.237 OA
ATOM     85  O   UNL A   1      32.619  35.085  30.820  1.00  0.00    -0.744 OA
ENDBRANCH  81  82
ENDBRANCH  49  74
BRANCH  61  86
ATOM     86  C   UNL A   1      43.048  34.490  33.383  1.00  0.00     0.058 A 
ATOM     87  C   UNL A   1      43.499  35.590  32.636  1.00  0.00     0.135 A 
ATOM     88  C   UNL A   1      43.000  34.622  34.781  1.00  0.00     0.135 A 
ATOM     89  F   UNL A   1      43.567  35.514  31.298  1.00  0.00    -0.206 F 
ATOM     90  C   UNL A   1      43.922  36.762  33.254  1.00  0.00     0.059 A 
ATOM     91  C   UNL A   1      43.393  35.794  35.418  1.00  0.00     0.059 A 
ATOM     92  F   UNL A   1      42.563  33.605  35.541  1.00  0.00    -0.206 F 
ATOM     93  C   UNL A   1      43.870  36.853  34.646  1.00  0.00     0.060 A 
BRANCH  93  94
ATOM     94  S   UNL A   1      44.411  38.382  35.438  1.00  0.00     0.124 S 
ATOM     95  O   UNL A   1      43.785  38.270  36.751  1.00  0.00    -0.237 OA
ATOM     96  O   UNL A   1      45.865  38.250  35.416  1.00  0.00    -0.237 OA
ATOM     97  O   UNL A   1      43.871  39.424  34.570  1.00  0.00    -0.744 OA
ENDBRANCH  93  94
ENDBRANCH  61  86
ENDBRANCH  35  36
ENDBRANCH  27  30
ENDBRANCH  25  26
ENDBRANCH  24  25
ENDBRANCH   1  24
TORSDOF 19
ENDMDL
MODEL 2
REMARK VINA RESULT:     -10.0      3.188      6.296
REMARK SMILES [NH3+][C@@]1(C(=O)NCCCCCCNC(=O)c2ccc(-c3c4nc(c(-c5c(F)cc(S(=O)(=O)[O-])cc5F)c5ccc([nH]5)c(-c5c(F)cc(S(=O)(=O)[O-])cc5F)c5nc(c(-c6c(F)cc(S(=O)(=O)[O-])cc6F)c6ccc3[nH]6)C=C5)C=C4)cc2)CC[C@H](Sc2cccs2)C1
REMARK SMILES IDX 9 1 8 2 7 3 6 4 5 5 3 6 4 7 2 9 81 10 90 11 82 12 83 13 1 14
REMARK SMILES IDX 84 18 85 19 86 20 89 21 87 22 88 23 10 24 11 25 12 26 13 27
REMARK SMILES IDX 14 29 15 30 16 31 80 32 17 33 79 34 18 35 19 36 20 37 73 38
REMARK SMILES IDX 21 39 78 40 72 41 74 42 22 43 77 44 71 45 70 46 23 48 57 49
REMARK SMILES IDX 36 50 56 51 37 52 40 53 55 54 75 55 38 56 39 57 54 59 76 60
REMARK SMILES IDX 41 61 24 62 25 63 34 64 26 65 27 66 33 67 35 68 28 69 29 70
REMARK SMILES IDX 30 71 31 72 32 73 58 74 59 75 68 76 60 77 61 78 67 79 69 80
REMARK SMILES IDX 62 81 63 82 64 83 65 84 66 85 42 86 43 87 52 88 44 89 45 90
REMARK SMILES IDX 51 91 53 92 46 93 47 94 48 95 49 96 50 97
REMARK H PARENT 5 8 1 15 1 16 1 17 12 28 74 47 40 58
REMARK Flexibility Score: inf
ROOT
ATOM      1  C   UNL A   1      43.284  22.557  26.675  1.00  0.00     0.002 C 
ENDROOT
BRANCH   1   2
ATOM      2  C   UNL A   1      43.637  24.046  26.748  1.00  0.00     0.002 C 
BRANCH   2   3
ATOM      3  C   UNL A   1      43.768  24.764  25.407  1.00  0.00     0.021 C 
BRANCH   3   4
ATOM      4  C   UNL A   1      43.698  26.284  25.476  1.00  0.00     0.116 C 
BRANCH   4   5
ATOM      5  N   UNL A   1      44.787  26.932  24.783  1.00  0.00    -0.351 N 
ATOM      6  C   UNL A   1      45.573  27.983  25.143  1.00  0.00     0.281 C 
ATOM      7  O   UNL A   1      46.370  28.382  24.281  1.00  0.00    -0.268 OA
ATOM      8  H   UNL A   1      44.997  26.547  23.901  1.00  0.00     0.163 HD
BRANCH   6   9
ATOM      9  C   UNL A   1      45.480  28.703  26.545  1.00  0.00     0.175 C 
ATOM     10  C   UNL A   1      44.047  29.098  26.938  1.00  0.00     0.080 C 
ATOM     11  C   UNL A   1      46.324  29.987  26.618  1.00  0.00     0.094 C 
ATOM     12  C   UNL A   1      43.967  30.618  26.874  1.00  0.00     0.022 C 
ATOM     13  C   UNL A   1      45.390  31.102  27.135  1.00  0.00     0.059 C 
BRANCH   9  14
ATOM     14  N   UNL A   1      45.939  27.726  27.569  1.00  0.00    -0.345 N 
ATOM     15  H   UNL A   1      46.649  27.116  27.163  1.00  0.00     0.345 HD
ATOM     16  H   UNL A   1      45.147  27.166  27.882  1.00  0.00     0.345 HD
ATOM     17  H   UNL A   1      46.336  28.228  28.364  1.00  0.00     0.345 HD
ENDBRANCH   9  14
BRANCH  13  18
ATOM     18  S   UNL A   1      45.961  32.706  26.488  1.00  0.00    -0.112 SA
BRANCH  18  19
ATOM     19  C   UNL A   1      44.651  33.868  26.578  1.00  0.00     0.060 A 
ATOM     20  C   UNL A   1      43.908  34.420  25.558  1.00  0.00     0.027 A 
ATOM     21  S   UNL A   1      44.037  34.347  28.113  1.00  0.00    -0.137 S 
ATOM     22  C   UNL A   1      42.845  35.248  26.034  1.00  0.00     0.013 A 
ATOM     23  C   UNL A   1      42.787  35.274  27.409  1.00  0.00     0.066 A 
ENDBRANCH  18  19
ENDBRANCH  13  18
ENDBRANCH   6   9
ENDBRANCH   4   5
ENDBRANCH   3   4
ENDBRANCH   2   3
ENDBRANCH   1   2
BRANCH   1  24
ATOM     24  C   UNL A   1      42.094  22.183  25.784  1.00  0.00     0.021 C 
BRANCH  24  25
ATOM     25  C   UNL A   1      40.853  21.675  26.513  1.00  0.00     0.116 C 
BRANCH  25  26
ATOM     26  N   UNL A   1      39.624  22.031  25.829  1.00  0.00    -0.352 N 
ATOM     27  C   UNL A   1      38.858  23.162  25.933  1.00  0.00     0.251 C 
ATOM     28  H   UNL A   1      39.290  21.359  25.192  1.00  0.00     0.163 HD
ATOM     29  O   UNL A   1      37.757  23.195  25.377  1.00  0.00    -0.269 OA
BRANCH  27  30
ATOM     30  C   UNL A   1      39.322  24.329  26.715  1.00  0.00     0.039 A 
ATOM     31  C   UNL A   1      38.927  24.436  28.053  1.00  0.00     0.014 A 
ATOM     32  C   UNL A   1      40.090  25.344  26.134  1.00  0.00     0.014 A 
ATOM     33  C   UNL A   1      39.323  25.540  28.812  1.00  0.00     0.010 A 
ATOM     34  C   UNL A   1      40.539  26.412  26.912  1.00  0.00     0.010 A 
ATOM     35  C   UNL A   1      40.144  26.531  28.252  1.00  0.00    -0.014 A 
BRANCH  35  36
ATOM     36  C   UNL A   1      40.545  27.726  29.041  1.00  0.00     0.031 A 
ATOM     37  C   UNL A   1      41.900  27.769  29.698  1.00  0.00     0.074 A 
ATOM     38  C   UNL A   1      39.690  28.758  29.184  1.00  0.00     0.049 A 
ATOM     39  N   UNL A   1      42.416  28.690  30.470  1.00  0.00    -0.248 NA
ATOM     40  C   UNL A   1      42.783  26.612  29.473  1.00  0.00     0.031 C 
ATOM     41  C   UNL A   1      38.341  28.828  28.615  1.00  0.00     0.029 A 
ATOM     42  N   UNL A   1      39.828  29.948  29.853  1.00  0.00    -0.354 N 
ATOM     43  C   UNL A   1      43.676  28.224  30.827  1.00  0.00     0.074 A 
ATOM     44  C   UNL A   1      43.824  26.912  30.235  1.00  0.00     0.031 C 
ATOM     45  C   UNL A   1      37.788  30.008  28.940  1.00  0.00     0.029 A 
ATOM     46  C   UNL A   1      38.726  30.764  29.764  1.00  0.00     0.049 A 
ATOM     47  H   UNL A   1      40.641  30.194  30.350  1.00  0.00     0.167 HD
ATOM     48  C   UNL A   1      44.637  28.843  31.556  1.00  0.00     0.037 A 
ATOM     49  C   UNL A   1      38.499  31.985  30.288  1.00  0.00     0.037 A 
ATOM     50  C   UNL A   1      44.497  30.157  32.125  1.00  0.00     0.049 A 
ATOM     51  C   UNL A   1      39.581  32.649  31.098  1.00  0.00     0.074 A 
ATOM     52  C   UNL A   1      45.411  30.875  32.878  1.00  0.00     0.029 A 
ATOM     53  N   UNL A   1      43.375  30.961  31.988  1.00  0.00    -0.354 N 
ATOM     54  N   UNL A   1      40.772  32.198  31.411  1.00  0.00    -0.248 NA
ATOM     55  C   UNL A   1      39.292  33.993  31.616  1.00  0.00     0.031 C 
ATOM     56  C   UNL A   1      44.833  32.104  33.214  1.00  0.00     0.029 A 
ATOM     57  C   UNL A   1      43.577  32.168  32.636  1.00  0.00     0.049 A 
ATOM     58  H   UNL A   1      42.557  30.711  31.501  1.00  0.00     0.167 HD
ATOM     59  C   UNL A   1      41.391  33.221  32.121  1.00  0.00     0.074 A 
ATOM     60  C   UNL A   1      40.443  34.314  32.190  1.00  0.00     0.031 C 
ATOM     61  C   UNL A   1      42.633  33.257  32.665  1.00  0.00     0.037 A 
BRANCH  48  62
ATOM     62  C   UNL A   1      45.933  28.106  31.764  1.00  0.00     0.058 A 
ATOM     63  C   UNL A   1      46.063  27.121  32.756  1.00  0.00     0.135 A 
ATOM     64  C   UNL A   1      47.045  28.361  30.945  1.00  0.00     0.135 A 
ATOM     65  F   UNL A   1      45.036  26.851  33.578  1.00  0.00    -0.206 F 
ATOM     66  C   UNL A   1      47.255  26.433  32.948  1.00  0.00     0.059 A 
ATOM     67  C   UNL A   1      48.240  27.664  31.101  1.00  0.00     0.059 A 
ATOM     68  F   UNL A   1      46.977  29.292  29.982  1.00  0.00    -0.206 F 
ATOM     69  C   UNL A   1      48.340  26.712  32.114  1.00  0.00     0.060 A 
BRANCH  69  70
ATOM     70  S   UNL A   1      49.878  25.802  32.370  1.00  0.00     0.124 S 
ATOM     71  O   UNL A   1      50.849  26.890  32.452  1.00  0.00    -0.237 OA
ATOM     72  O   UNL A   1      49.618  25.090  33.617  1.00  0.00    -0.237 OA
ATOM     73  O   UNL A   1      49.978  24.962  31.181  1.00  0.00    -0.744 OA
ENDBRANCH  69  70
ENDBRANCH  48  62
BRANCH  49  74
ATOM     74  C   UNL A   1      37.209  32.684  30.040  1.00  0.00     0.058 A 
ATOM     75  C   UNL A   1      37.107  33.682  29.058  1.00  0.00     0.135 A 
ATOM     76  C   UNL A   1      36.063  32.391  30.795  1.00  0.00     0.135 A 
ATOM     77  F   UNL A   1      38.176  33.999  28.312  1.00  0.00    -0.206 F 
ATOM     78  C   UNL A   1      35.927  34.391  28.859  1.00  0.00     0.059 A 
ATOM     79  C   UNL A   1      34.864  33.068  30.596  1.00  0.00     0.059 A 
ATOM     80  F   UNL A   1      36.101  31.429  31.731  1.00  0.00    -0.206 F 
ATOM     81  C   UNL A   1      34.812  34.080  29.639  1.00  0.00     0.060 A 
BRANCH  81  82
ATOM     82  S   UNL A   1      33.280  34.999  29.369  1.00  0.00     0.124 S 
ATOM     83  O   UNL A   1      32.756  35.096  30.726  1.00  0.00    -0.237 OA
ATOM     84  O   UNL A   1      33.766  36.244  28.780  1.00  0.00    -0.237 OA
ATOM     85  O   UNL A   1      32.531  34.136  28.461  1.00  0.00    -0.744 OA
ENDBRANCH  81  82
ENDBRANCH  49  74
BRANCH  61  86
ATOM     86  C   UNL A   1      43.064  34.542  33.315  1.00  0.00     0.058 A 
ATOM     87  C   UNL A   1      42.754  34.842  34.650  1.00  0.00     0.135 A 
ATOM     88  C   UNL A   1      43.826  35.475  32.592  1.00  0.00     0.135 A 
ATOM     89  F   UNL A   1      42.026  33.985  35.383  1.00  0.00    -0.206 F 
ATOM     90  C   UNL A   1      43.153  36.039  35.235  1.00  0.00     0.059 A 
ATOM     91  C   UNL A   1      44.257  36.666  33.165  1.00  0.00     0.059 A 
ATOM     92  F   UNL A   1      44.161  35.230  31.315  1.00  0.00    -0.206 F 
ATOM     93  C   UNL A   1      43.901  36.947  34.484  1.00  0.00     0.060 A 
BRANCH  93  94
ATOM     94  S   UNL A   1      44.422  38.493  35.255  1.00  0.00     0.124 S 
ATOM     95  O   UNL A   1      44.070  38.258  36.652  1.00  0.00    -0.237 OA
ATOM     96  O   UNL A   1      45.851  38.528  34.958  1.00  0.00    -0.237 OA
ATOM     97  O   UNL A   1      43.622  39.502  34.568  1.00  0.00    -0.744 OA
ENDBRANCH  93  94
ENDBRANCH  61  86
ENDBRANCH  35  36
ENDBRANCH  27  30
ENDBRANCH  25  26
ENDBRANCH  24  25
ENDBRANCH   1  24
TORSDOF 19
ENDMDL
MODEL 3
REMARK VINA RESULT:     -10.0      2.498      3.044
REMARK SMILES [NH3+][C@@]1(C(=O)NCCCCCCNC(=O)c2ccc(-c3c4nc(c(-c5c(F)cc(S(=O)(=O)[O-])cc5F)c5ccc([nH]5)c(-c5c(F)cc(S(=O)(=O)[O-])cc5F)c5nc(c(-c6c(F)cc(S(=O)(=O)[O-])cc6F)c6ccc3[nH]6)C=C5)C=C4)cc2)CC[C@H](Sc2cccs2)C1
REMARK SMILES IDX 9 1 8 2 7 3 6 4 5 5 3 6 4 7 2 9 81 10 90 11 82 12 83 13 1 14
REMARK SMILES IDX 84 18 85 19 86 20 89 21 87 22 88 23 10 24 11 25 12 26 13 27
REMARK SMILES IDX 14 29 15 30 16 31 80 32 17 33 79 34 18 35 19 36 20 37 73 38
REMARK SMILES IDX 21 39 78 40 72 41 74 42 22 43 77 44 71 45 70 46 23 48 57 49
REMARK SMILES IDX 36 50 56 51 37 52 40 53 55 54 75 55 38 56 39 57 54 59 76 60
REMARK SMILES IDX 41 61 24 62 25 63 34 64 26 65 27 66 33 67 35 68 28 69 29 70
REMARK SMILES IDX 30 71 31 72 32 73 58 74 59 75 68 76 60 77 61 78 67 79 69 80
REMARK SMILES IDX 62 81 63 82 64 83 65 84 66 85 42 86 43 87 52 88 44 89 45 90
REMARK SMILES IDX 51 91 53 92 46 93 47 94 48 95 49 96 50 97
REMARK H PARENT 5 8 1 15 1 16 1 17 12 28 74 47 40 58
REMARK Flexibility Score: inf
ROOT
ATOM      1  C   UNL A   1      35.520  21.998  24.279  1.00  0.00     0.002 C 
ENDROOT
BRANCH   1   2
ATOM      2  C   UNL A   1      34.850  20.821  24.997  1.00  0.00     0.002 C 
BRANCH   2   3
ATOM      3  C   UNL A   1      33.497  20.387  24.439  1.00  0.00     0.021 C 
BRANCH   3   4
ATOM      4  C   UNL A   1      32.327  21.294  24.796  1.00  0.00     0.116 C 
BRANCH   4   5
ATOM      5  N   UNL A   1      32.335  21.711  26.178  1.00  0.00    -0.351 N 
ATOM      6  C   UNL A   1      31.917  22.867  26.763  1.00  0.00     0.281 C 
ATOM      7  O   UNL A   1      32.150  22.973  27.977  1.00  0.00    -0.268 OA
ATOM      8  H   UNL A   1      32.704  21.045  26.804  1.00  0.00     0.163 HD
BRANCH   6   9
ATOM      9  C   UNL A   1      31.213  24.040  25.975  1.00  0.00     0.175 C 
ATOM     10  C   UNL A   1      31.064  23.765  24.470  1.00  0.00     0.080 C 
ATOM     11  C   UNL A   1      31.956  25.380  26.105  1.00  0.00     0.094 C 
ATOM     12  C   UNL A   1      32.015  24.711  23.746  1.00  0.00     0.022 C 
ATOM     13  C   UNL A   1      32.158  25.915  24.671  1.00  0.00     0.059 C 
BRANCH   9  14
ATOM     14  N   UNL A   1      29.832  24.161  26.515  1.00  0.00    -0.345 N 
ATOM     15  H   UNL A   1      29.643  23.381  27.145  1.00  0.00     0.345 HD
ATOM     16  H   UNL A   1      29.164  24.146  25.745  1.00  0.00     0.345 HD
ATOM     17  H   UNL A   1      29.743  25.040  27.026  1.00  0.00     0.345 HD
ENDBRANCH   9  14
BRANCH  13  18
ATOM     18  S   UNL A   1      33.656  26.950  24.627  1.00  0.00    -0.112 SA
BRANCH  18  19
ATOM     19  C   UNL A   1      33.443  28.324  25.695  1.00  0.00     0.060 A 
ATOM     20  C   UNL A   1      34.298  28.816  26.658  1.00  0.00     0.027 A 
ATOM     21  S   UNL A   1      32.075  29.351  25.507  1.00  0.00    -0.137 S 
ATOM     22  C   UNL A   1      33.823  30.027  27.250  1.00  0.00     0.013 A 
ATOM     23  C   UNL A   1      32.634  30.442  26.695  1.00  0.00     0.066 A 
ENDBRANCH  18  19
ENDBRANCH  13  18
ENDBRANCH   6   9
ENDBRANCH   4   5
ENDBRANCH   3   4
ENDBRANCH   2   3
ENDBRANCH   1   2
BRANCH   1  24
ATOM     24  C   UNL A   1      35.351  23.376  24.928  1.00  0.00     0.021 C 
BRANCH  24  25
ATOM     25  C   UNL A   1      36.426  23.771  25.937  1.00  0.00     0.116 C 
BRANCH  25  26
ATOM     26  N   UNL A   1      37.419  22.730  26.126  1.00  0.00    -0.352 N 
ATOM     27  C   UNL A   1      38.731  22.829  26.505  1.00  0.00     0.251 C 
ATOM     28  H   UNL A   1      37.102  21.814  25.956  1.00  0.00     0.163 HD
ATOM     29  O   UNL A   1      39.450  21.828  26.449  1.00  0.00    -0.269 OA
BRANCH  27  30
ATOM     30  C   UNL A   1      39.300  24.117  26.961  1.00  0.00     0.039 A 
ATOM     31  C   UNL A   1      39.833  24.987  26.004  1.00  0.00     0.014 A 
ATOM     32  C   UNL A   1      39.366  24.452  28.318  1.00  0.00     0.014 A 
ATOM     33  C   UNL A   1      40.404  26.198  26.403  1.00  0.00     0.010 A 
ATOM     34  C   UNL A   1      39.877  25.690  28.708  1.00  0.00     0.010 A 
ATOM     35  C   UNL A   1      40.419  26.566  27.757  1.00  0.00    -0.014 A 
BRANCH  35  36
ATOM     36  C   UNL A   1      41.052  27.838  28.195  1.00  0.00     0.031 A 
ATOM     37  C   UNL A   1      42.544  28.012  28.079  1.00  0.00     0.074 A 
ATOM     38  C   UNL A   1      40.295  28.824  28.715  1.00  0.00     0.049 A 
ATOM     39  N   UNL A   1      43.292  29.016  28.454  1.00  0.00    -0.248 NA
ATOM     40  C   UNL A   1      43.297  26.897  27.478  1.00  0.00     0.031 C 
ATOM     41  C   UNL A   1      38.843  28.770  28.902  1.00  0.00     0.029 A 
ATOM     42  N   UNL A   1      40.642  30.066  29.184  1.00  0.00    -0.354 N 
ATOM     43  C   UNL A   1      44.599  28.655  28.142  1.00  0.00     0.074 A 
ATOM     44  C   UNL A   1      44.547  27.314  27.601  1.00  0.00     0.031 C 
ATOM     45  C   UNL A   1      38.423  29.936  29.422  1.00  0.00     0.029 A 
ATOM     46  C   UNL A   1      39.575  30.806  29.636  1.00  0.00     0.049 A 
ATOM     47  H   UNL A   1      41.569  30.397  29.195  1.00  0.00     0.167 HD
ATOM     48  C   UNL A   1      45.735  29.383  28.267  1.00  0.00     0.037 A 
ATOM     49  C   UNL A   1      39.532  32.046  30.161  1.00  0.00     0.037 A 
ATOM     50  C   UNL A   1      45.781  30.724  28.784  1.00  0.00     0.049 A 
ATOM     51  C   UNL A   1      40.810  32.832  30.293  1.00  0.00     0.074 A 
ATOM     52  C   UNL A   1      46.881  31.550  28.949  1.00  0.00     0.029 A 
ATOM     53  N   UNL A   1      44.675  31.447  29.204  1.00  0.00    -0.354 N 
ATOM     54  N   UNL A   1      42.033  32.479  29.977  1.00  0.00    -0.248 NA
ATOM     55  C   UNL A   1      40.700  34.191  30.841  1.00  0.00     0.031 C 
ATOM     56  C   UNL A   1      46.441  32.764  29.490  1.00  0.00     0.029 A 
ATOM     57  C   UNL A   1      45.064  32.709  29.622  1.00  0.00     0.049 A 
ATOM     58  H   UNL A   1      43.748  31.113  29.205  1.00  0.00     0.167 HD
ATOM     59  C   UNL A   1      42.829  33.587  30.244  1.00  0.00     0.074 A 
ATOM     60  C   UNL A   1      41.950  34.623  30.745  1.00  0.00     0.031 C 
ATOM     61  C   UNL A   1      44.169  33.737  30.087  1.00  0.00     0.037 A 
BRANCH  48  62
ATOM     62  C   UNL A   1      47.021  28.744  27.817  1.00  0.00     0.058 A 
ATOM     63  C   UNL A   1      47.446  28.817  26.481  1.00  0.00     0.135 A 
ATOM     64  C   UNL A   1      47.855  28.082  28.733  1.00  0.00     0.135 A 
ATOM     65  F   UNL A   1      46.678  29.422  25.561  1.00  0.00    -0.206 F 
ATOM     66  C   UNL A   1      48.637  28.234  26.062  1.00  0.00     0.059 A 
ATOM     67  C   UNL A   1      49.065  27.516  28.341  1.00  0.00     0.059 A 
ATOM     68  F   UNL A   1      47.498  27.982  30.023  1.00  0.00    -0.206 F 
ATOM     69  C   UNL A   1      49.441  27.585  27.001  1.00  0.00     0.060 A 
BRANCH  69  70
ATOM     70  S   UNL A   1      50.988  26.842  26.442  1.00  0.00     0.124 S 
ATOM     71  O   UNL A   1      51.731  28.017  25.998  1.00  0.00    -0.237 OA
ATOM     72  O   UNL A   1      51.484  26.200  27.655  1.00  0.00    -0.237 OA
ATOM     73  O   UNL A   1      50.565  25.931  25.383  1.00  0.00    -0.744 OA
ENDBRANCH  69  70
ENDBRANCH  48  62
BRANCH  49  74
ATOM     74  C   UNL A   1      38.234  32.645  30.574  1.00  0.00     0.058 A 
ATOM     75  C   UNL A   1      37.785  32.545  31.900  1.00  0.00     0.135 A 
ATOM     76  C   UNL A   1      37.406  33.302  29.652  1.00  0.00     0.135 A 
ATOM     77  F   UNL A   1      38.541  31.925  32.819  1.00  0.00    -0.206 F 
ATOM     78  C   UNL A   1      36.545  33.040  32.289  1.00  0.00     0.059 A 
ATOM     79  C   UNL A   1      36.173  33.828  30.023  1.00  0.00     0.059 A 
ATOM     80  F   UNL A   1      37.799  33.444  28.376  1.00  0.00    -0.206 F 
ATOM     81  C   UNL A   1      35.743  33.675  31.340  1.00  0.00     0.060 A 
BRANCH  81  82
ATOM     82  S   UNL A   1      34.137  34.323  31.853  1.00  0.00     0.124 S 
ATOM     83  O   UNL A   1      33.631  33.231  32.676  1.00  0.00    -0.237 OA
ATOM     84  O   UNL A   1      34.508  35.543  32.565  1.00  0.00    -0.237 OA
ATOM     85  O   UNL A   1      33.444  34.534  30.586  1.00  0.00    -0.744 OA
ENDBRANCH  81  82
ENDBRANCH  49  74
BRANCH  61  86
ATOM     86  C   UNL A   1      44.749  35.091  30.387  1.00  0.00     0.058 A 
ATOM     87  C   UNL A   1      44.856  36.089  29.407  1.00  0.00     0.135 A 
ATOM     88  C   UNL A   1      45.180  35.399  31.687  1.00  0.00     0.135 A 
ATOM     89  F   UNL A   1      44.461  35.844  28.147  1.00  0.00    -0.206 F 
ATOM     90  C   UNL A   1      45.403  37.334  29.696  1.00  0.00     0.059 A 
ATOM     91  C   UNL A   1      45.706  36.647  32.006  1.00  0.00     0.059 A 
ATOM     92  F   UNL A   1      45.088  34.484  32.666  1.00  0.00    -0.206 F 
ATOM     93  C   UNL A   1      45.830  37.603  30.998  1.00  0.00     0.060 A 
BRANCH  93  94
ATOM     94  S   UNL A   1      46.529  39.225  31.367  1.00  0.00     0.124 S 
ATOM     95  O   UNL A   1      46.006  39.473  32.706  1.00  0.00    -0.237 OA
ATOM     96  O   UNL A   1      47.965  38.976  31.283  1.00  0.00    -0.237 OA
ATOM     97  O   UNL A   1      45.986  40.077  30.313  1.00  0.00    -0.744 OA
ENDBRANCH  93  94
ENDBRANCH  61  86
ENDBRANCH  35  36
ENDBRANCH  27  30
ENDBRANCH  25  26
ENDBRANCH  24  25
ENDBRANCH   1  24
TORSDOF 19
ENDMDL
