MODEL 1
REMARK VINA RESULT:     -13.8      0.000      0.000
REMARK SMILES Cc1c(CC(=O)NCCCCCCNC(=O)c2ccc(-c3c4nc(c(-c5c(F)cc(S(=O)(=O)[O-])cc5F)c5ccc([nH]5)c(-c5c(F)cc(S(=O)(=O)[O-])cc5F)c5nc(c(-c6c(F)cc(S(=O)(=O)[O-])cc6F)c6ccc3[nH]6)C=C5)C=C4)cc2)cc(-c2ccccc2)cc1-c1ccccc1
REMARK SMILES IDX 11 1 10 2 9 3 8 4 7 5 5 6 6 7 4 9 3 10 1 11 2 12 92 13 83 14
REMARK SMILES IDX 91 15 84 16 93 17 94 18 98 19 95 20 97 21 96 22 85 23 86 24
REMARK SMILES IDX 90 25 87 26 89 27 88 28 12 29 13 30 14 31 15 32 16 34 17 35
REMARK SMILES IDX 18 36 82 37 19 38 81 39 20 40 21 41 22 42 75 43 23 44 80 45
REMARK SMILES IDX 74 46 76 47 24 48 79 49 73 50 72 51 25 53 59 54 38 55 58 56
REMARK SMILES IDX 39 57 42 58 57 59 77 60 40 61 41 62 56 64 78 65 43 66 26 67
REMARK SMILES IDX 27 68 36 69 28 70 29 71 35 72 37 73 30 74 31 75 32 76 33 77
REMARK SMILES IDX 34 78 60 79 61 80 70 81 62 82 63 83 69 84 71 85 64 86 65 87
REMARK SMILES IDX 66 88 67 89 68 90 44 91 45 92 54 93 46 94 47 95 53 96 55 97
REMARK SMILES IDX 48 98 49 99 50 100 51 101 52 102
REMARK H PARENT 7 8 14 33 76 52 42 63
REMARK Flexibility Score: inf
ROOT
ATOM      1  C   UNL A   1      31.716  28.947  25.278  1.00  0.00     0.002 C 
ENDROOT
BRANCH   1   2
ATOM      2  C   UNL A   1      31.394  27.566  24.684  1.00  0.00     0.002 C 
BRANCH   2   3
ATOM      3  C   UNL A   1      32.111  27.192  23.380  1.00  0.00     0.021 C 
BRANCH   3   4
ATOM      4  C   UNL A   1      31.381  26.165  22.513  1.00  0.00     0.116 C 
BRANCH   4   5
ATOM      5  N   UNL A   1      32.288  25.268  21.823  1.00  0.00    -0.356 N 
ATOM      6  C   UNL A   1      32.892  24.135  22.288  1.00  0.00     0.224 C 
ATOM      7  O   UNL A   1      33.609  23.489  21.519  1.00  0.00    -0.275 OA
ATOM      8  H   UNL A   1      32.496  25.509  20.892  1.00  0.00     0.163 HD
BRANCH   6   9
ATOM      9  C   UNL A   1      32.640  23.653  23.713  1.00  0.00     0.135 C 
BRANCH   9  10
ATOM     10  C   UNL A   1      33.549  22.523  24.162  1.00  0.00    -0.035 A 
ATOM     11  C   UNL A   1      31.885  20.724  23.457  1.00  0.00     0.045 C 
ATOM     12  C   UNL A   1      33.191  21.151  24.094  1.00  0.00    -0.040 A 
ATOM     13  C   UNL A   1      34.097  20.172  24.584  1.00  0.00    -0.015 A 
ATOM     14  C   UNL A   1      34.818  22.882  24.661  1.00  0.00     0.013 A 
ATOM     15  C   UNL A   1      35.345  20.588  25.095  1.00  0.00     0.017 A 
ATOM     16  C   UNL A   1      35.730  21.932  25.130  1.00  0.00    -0.017 A 
BRANCH  13  17
ATOM     17  C   UNL A   1      33.784  18.730  24.624  1.00  0.00    -0.018 A 
ATOM     18  C   UNL A   1      34.397  17.848  23.718  1.00  0.00     0.009 A 
ATOM     19  C   UNL A   1      32.871  18.200  25.550  1.00  0.00     0.009 A 
ATOM     20  C   UNL A   1      34.119  16.479  23.745  1.00  0.00     0.001 A 
ATOM     21  C   UNL A   1      32.602  16.829  25.587  1.00  0.00     0.001 A 
ATOM     22  C   UNL A   1      33.226  15.970  24.685  1.00  0.00     0.000 A 
ENDBRANCH  13  17
BRANCH  16  23
ATOM     23  C   UNL A   1      37.050  22.337  25.637  1.00  0.00    -0.018 A 
ATOM     24  C   UNL A   1      37.288  23.652  26.070  1.00  0.00     0.009 A 
ATOM     25  C   UNL A   1      38.114  21.422  25.688  1.00  0.00     0.009 A 
ATOM     26  C   UNL A   1      38.547  24.039  26.536  1.00  0.00     0.001 A 
ATOM     27  C   UNL A   1      39.375  21.808  26.152  1.00  0.00     0.001 A 
ATOM     28  C   UNL A   1      39.590  23.117  26.575  1.00  0.00     0.000 A 
ENDBRANCH  16  23
ENDBRANCH   9  10
ENDBRANCH   6   9
ENDBRANCH   4   5
ENDBRANCH   3   4
ENDBRANCH   2   3
ENDBRANCH   1   2
BRANCH   1  29
ATOM     29  C   UNL A   1      31.858  29.016  26.801  1.00  0.00     0.021 C 
BRANCH  29  30
ATOM     30  C   UNL A   1      33.296  29.213  27.278  1.00  0.00     0.116 C 
BRANCH  30  31
ATOM     31  N   UNL A   1      33.611  30.594  27.549  1.00  0.00    -0.352 N 
ATOM     32  C   UNL A   1      34.716  31.110  28.245  1.00  0.00     0.251 C 
ATOM     33  H   UNL A   1      32.971  31.258  27.203  1.00  0.00     0.163 HD
ATOM     34  O   UNL A   1      34.778  32.257  28.621  1.00  0.00    -0.269 OA
BRANCH  32  35
ATOM     35  C   UNL A   1      35.885  30.217  28.351  1.00  0.00     0.039 A 
ATOM     36  C   UNL A   1      36.137  29.680  29.619  1.00  0.00     0.014 A 
ATOM     37  C   UNL A   1      36.828  30.146  27.333  1.00  0.00     0.014 A 
ATOM     38  C   UNL A   1      37.421  29.236  29.924  1.00  0.00     0.010 A 
ATOM     39  C   UNL A   1      38.122  29.778  27.655  1.00  0.00     0.010 A 
ATOM     40  C   UNL A   1      38.425  29.379  28.963  1.00  0.00    -0.014 A 
BRANCH  40  41
ATOM     41  C   UNL A   1      39.836  29.232  29.295  1.00  0.00     0.031 A 
ATOM     42  C   UNL A   1      40.552  27.985  28.955  1.00  0.00     0.074 A 
ATOM     43  C   UNL A   1      40.475  30.230  29.943  1.00  0.00     0.049 A 
ATOM     44  N   UNL A   1      41.570  27.525  29.601  1.00  0.00    -0.248 NA
ATOM     45  C   UNL A   1      40.119  27.119  27.864  1.00  0.00     0.031 C 
ATOM     46  C   UNL A   1      41.909  30.353  30.182  1.00  0.00     0.029 A 
ATOM     47  N   UNL A   1      39.901  31.238  30.722  1.00  0.00    -0.354 N 
ATOM     48  C   UNL A   1      42.069  26.453  28.893  1.00  0.00     0.074 A 
ATOM     49  C   UNL A   1      41.100  26.211  27.847  1.00  0.00     0.031 C 
ATOM     50  C   UNL A   1      42.104  31.191  31.211  1.00  0.00     0.029 A 
ATOM     51  C   UNL A   1      40.800  31.529  31.759  1.00  0.00     0.049 A 
ATOM     52  H   UNL A   1      39.028  31.666  30.571  1.00  0.00     0.167 HD
ATOM     53  C   UNL A   1      43.310  25.962  29.181  1.00  0.00     0.037 A 
ATOM     54  C   UNL A   1      40.447  31.359  33.067  1.00  0.00     0.037 A 
ATOM     55  C   UNL A   1      43.910  26.666  30.311  1.00  0.00     0.049 A 
ATOM     56  C   UNL A   1      41.276  30.327  33.795  1.00  0.00     0.074 A 
ATOM     57  C   UNL A   1      44.761  27.758  30.372  1.00  0.00     0.029 A 
ATOM     58  N   UNL A   1      43.399  26.494  31.594  1.00  0.00    -0.354 N 
ATOM     59  N   UNL A   1      42.006  29.422  33.202  1.00  0.00    -0.248 NA
ATOM     60  C   UNL A   1      41.342  30.232  35.251  1.00  0.00     0.031 C 
ATOM     61  C   UNL A   1      44.695  28.296  31.679  1.00  0.00     0.029 A 
ATOM     62  C   UNL A   1      43.831  27.513  32.425  1.00  0.00     0.049 A 
ATOM     63  H   UNL A   1      42.812  25.754  31.871  1.00  0.00     0.167 HD
ATOM     64  C   UNL A   1      42.609  28.632  34.146  1.00  0.00     0.074 A 
ATOM     65  C   UNL A   1      42.179  29.193  35.414  1.00  0.00     0.031 C 
ATOM     66  C   UNL A   1      43.416  27.580  33.817  1.00  0.00     0.037 A 
BRANCH  53  67
ATOM     67  C   UNL A   1      44.077  25.101  28.198  1.00  0.00     0.058 A 
ATOM     68  C   UNL A   1      44.771  25.678  27.114  1.00  0.00     0.135 A 
ATOM     69  C   UNL A   1      44.082  23.692  28.220  1.00  0.00     0.135 A 
ATOM     70  F   UNL A   1      44.955  27.002  27.022  1.00  0.00    -0.206 F 
ATOM     71  C   UNL A   1      45.288  24.926  26.057  1.00  0.00     0.059 A 
ATOM     72  C   UNL A   1      44.540  22.917  27.148  1.00  0.00     0.059 A 
ATOM     73  F   UNL A   1      43.655  23.019  29.299  1.00  0.00    -0.206 F 
ATOM     74  C   UNL A   1      45.123  23.547  26.056  1.00  0.00     0.060 A 
BRANCH  74  75
ATOM     75  S   UNL A   1      45.651  22.610  24.608  1.00  0.00     0.124 S 
ATOM     76  O   UNL A   1      44.382  22.306  23.954  1.00  0.00    -0.237 OA
ATOM     77  O   UNL A   1      46.505  23.572  23.921  1.00  0.00    -0.237 OA
ATOM     78  O   UNL A   1      46.340  21.457  25.183  1.00  0.00    -0.744 OA
ENDBRANCH  74  75
ENDBRANCH  53  67
BRANCH  54  79
ATOM     79  C   UNL A   1      39.030  31.698  33.364  1.00  0.00     0.058 A 
ATOM     80  C   UNL A   1      38.693  33.057  33.509  1.00  0.00     0.135 A 
ATOM     81  C   UNL A   1      37.983  30.794  33.139  1.00  0.00     0.135 A 
ATOM     82  F   UNL A   1      39.655  33.964  33.744  1.00  0.00    -0.206 F 
ATOM     83  C   UNL A   1      37.395  33.520  33.311  1.00  0.00     0.059 A 
ATOM     84  C   UNL A   1      36.672  31.236  32.935  1.00  0.00     0.059 A 
ATOM     85  F   UNL A   1      38.239  29.486  33.000  1.00  0.00    -0.206 F 
ATOM     86  C   UNL A   1      36.404  32.606  32.961  1.00  0.00     0.060 A 
BRANCH  86  87
ATOM     87  S   UNL A   1      34.791  33.250  32.455  1.00  0.00     0.124 S 
ATOM     88  O   UNL A   1      34.288  32.181  31.596  1.00  0.00    -0.237 OA
ATOM     89  O   UNL A   1      34.107  33.392  33.740  1.00  0.00    -0.237 OA
ATOM     90  O   UNL A   1      35.127  34.495  31.775  1.00  0.00    -0.744 OA
ENDBRANCH  86  87
ENDBRANCH  54  79
BRANCH  66  91
ATOM     91  C   UNL A   1      43.978  26.582  34.796  1.00  0.00     0.058 A 
ATOM     92  C   UNL A   1      43.257  25.481  35.286  1.00  0.00     0.135 A 
ATOM     93  C   UNL A   1      45.342  26.638  35.170  1.00  0.00     0.135 A 
ATOM     94  F   UNL A   1      41.984  25.268  34.919  1.00  0.00    -0.206 F 
ATOM     95  C   UNL A   1      43.826  24.533  36.139  1.00  0.00     0.059 A 
ATOM     96  C   UNL A   1      45.944  25.677  35.976  1.00  0.00     0.059 A 
ATOM     97  F   UNL A   1      46.139  27.634  34.751  1.00  0.00    -0.206 F 
ATOM     98  C   UNL A   1      45.171  24.638  36.478  1.00  0.00     0.060 A 
BRANCH  98  99
ATOM     99  S   UNL A   1      45.943  23.387  37.521  1.00  0.00     0.124 S 
ATOM    100  O   UNL A   1      45.540  22.157  36.847  1.00  0.00    -0.237 OA
ATOM    101  O   UNL A   1      47.363  23.716  37.434  1.00  0.00    -0.237 OA
ATOM    102  O   UNL A   1      45.332  23.625  38.825  1.00  0.00    -0.744 OA
ENDBRANCH  98  99
ENDBRANCH  66  91
ENDBRANCH  40  41
ENDBRANCH  32  35
ENDBRANCH  30  31
ENDBRANCH  29  30
ENDBRANCH   1  29
TORSDOF 19
ENDMDL
MODEL 2
REMARK VINA RESULT:     -13.3      4.012     10.758
REMARK SMILES Cc1c(CC(=O)NCCCCCCNC(=O)c2ccc(-c3c4nc(c(-c5c(F)cc(S(=O)(=O)[O-])cc5F)c5ccc([nH]5)c(-c5c(F)cc(S(=O)(=O)[O-])cc5F)c5nc(c(-c6c(F)cc(S(=O)(=O)[O-])cc6F)c6ccc3[nH]6)C=C5)C=C4)cc2)cc(-c2ccccc2)cc1-c1ccccc1
REMARK SMILES IDX 11 1 10 2 9 3 8 4 7 5 5 6 6 7 4 9 3 10 1 11 2 12 92 13 83 14
REMARK SMILES IDX 91 15 84 16 93 17 94 18 98 19 95 20 97 21 96 22 85 23 86 24
REMARK SMILES IDX 90 25 87 26 89 27 88 28 12 29 13 30 14 31 15 32 16 34 17 35
REMARK SMILES IDX 18 36 82 37 19 38 81 39 20 40 21 41 22 42 75 43 23 44 80 45
REMARK SMILES IDX 74 46 76 47 24 48 79 49 73 50 72 51 25 53 59 54 38 55 58 56
REMARK SMILES IDX 39 57 42 58 57 59 77 60 40 61 41 62 56 64 78 65 43 66 26 67
REMARK SMILES IDX 27 68 36 69 28 70 29 71 35 72 37 73 30 74 31 75 32 76 33 77
REMARK SMILES IDX 34 78 60 79 61 80 70 81 62 82 63 83 69 84 71 85 64 86 65 87
REMARK SMILES IDX 66 88 67 89 68 90 44 91 45 92 54 93 46 94 47 95 53 96 55 97
REMARK SMILES IDX 48 98 49 99 50 100 51 101 52 102
REMARK H PARENT 7 8 14 33 76 52 42 63
REMARK Flexibility Score: inf
ROOT
ATOM      1  C   UNL A   1      36.125  22.831  23.706  1.00  0.00     0.002 C 
ENDROOT
BRANCH   1   2
ATOM      2  C   UNL A   1      34.769  22.138  23.918  1.00  0.00     0.002 C 
BRANCH   2   3
ATOM      3  C   UNL A   1      33.599  22.635  23.058  1.00  0.00     0.021 C 
BRANCH   3   4
ATOM      4  C   UNL A   1      34.000  23.474  21.845  1.00  0.00     0.116 C 
BRANCH   4   5
ATOM      5  N   UNL A   1      32.884  24.199  21.269  1.00  0.00    -0.356 N 
ATOM      6  C   UNL A   1      32.653  25.544  21.251  1.00  0.00     0.224 C 
ATOM      7  O   UNL A   1      31.648  25.964  20.673  1.00  0.00    -0.275 OA
ATOM      8  H   UNL A   1      32.199  23.644  20.831  1.00  0.00     0.163 HD
BRANCH   6   9
ATOM      9  C   UNL A   1      33.649  26.508  21.889  1.00  0.00     0.135 C 
BRANCH   9  10
ATOM     10  C   UNL A   1      33.439  26.731  23.377  1.00  0.00    -0.035 A 
ATOM     11  C   UNL A   1      33.140  29.247  23.095  1.00  0.00     0.045 C 
ATOM     12  C   UNL A   1      33.249  28.010  23.961  1.00  0.00    -0.040 A 
ATOM     13  C   UNL A   1      33.108  28.114  25.372  1.00  0.00    -0.015 A 
ATOM     14  C   UNL A   1      33.427  25.586  24.200  1.00  0.00     0.013 A 
ATOM     15  C   UNL A   1      33.127  26.938  26.151  1.00  0.00     0.017 A 
ATOM     16  C   UNL A   1      33.271  25.667  25.586  1.00  0.00    -0.017 A 
BRANCH  13  17
ATOM     17  C   UNL A   1      32.980  29.404  26.078  1.00  0.00    -0.018 A 
ATOM     18  C   UNL A   1      31.798  30.155  25.971  1.00  0.00     0.009 A 
ATOM     19  C   UNL A   1      34.024  29.920  26.862  1.00  0.00     0.009 A 
ATOM     20  C   UNL A   1      31.655  31.374  26.637  1.00  0.00     0.001 A 
ATOM     21  C   UNL A   1      33.878  31.134  27.541  1.00  0.00     0.001 A 
ATOM     22  C   UNL A   1      32.694  31.859  27.427  1.00  0.00     0.000 A 
ENDBRANCH  13  17
BRANCH  16  23
ATOM     23  C   UNL A   1      33.254  24.453  26.417  1.00  0.00    -0.018 A 
ATOM     24  C   UNL A   1      34.448  23.814  26.791  1.00  0.00     0.009 A 
ATOM     25  C   UNL A   1      32.041  23.891  26.848  1.00  0.00     0.009 A 
ATOM     26  C   UNL A   1      34.429  22.652  27.567  1.00  0.00     0.001 A 
ATOM     27  C   UNL A   1      32.020  22.728  27.622  1.00  0.00     0.001 A 
ATOM     28  C   UNL A   1      33.215  22.109  27.980  1.00  0.00     0.000 A 
ENDBRANCH  16  23
ENDBRANCH   9  10
ENDBRANCH   6   9
ENDBRANCH   4   5
ENDBRANCH   3   4
ENDBRANCH   2   3
ENDBRANCH   1   2
BRANCH   1  29
ATOM     29  C   UNL A   1      37.285  22.338  24.576  1.00  0.00     0.021 C 
BRANCH  29  30
ATOM     30  C   UNL A   1      37.851  23.406  25.510  1.00  0.00     0.116 C 
BRANCH  30  31
ATOM     31  N   UNL A   1      39.146  23.055  26.040  1.00  0.00    -0.352 N 
ATOM     32  C   UNL A   1      40.175  23.917  26.454  1.00  0.00     0.251 C 
ATOM     33  H   UNL A   1      39.331  22.091  26.122  1.00  0.00     0.163 HD
ATOM     34  O   UNL A   1      41.303  23.537  26.666  1.00  0.00    -0.269 OA
BRANCH  32  35
ATOM     35  C   UNL A   1      39.768  25.295  26.782  1.00  0.00     0.039 A 
ATOM     36  C   UNL A   1      40.588  26.315  26.283  1.00  0.00     0.014 A 
ATOM     37  C   UNL A   1      38.807  25.547  27.753  1.00  0.00     0.014 A 
ATOM     38  C   UNL A   1      40.571  27.561  26.902  1.00  0.00     0.010 A 
ATOM     39  C   UNL A   1      38.843  26.760  28.419  1.00  0.00     0.010 A 
ATOM     40  C   UNL A   1      39.763  27.741  28.027  1.00  0.00    -0.014 A 
BRANCH  40  41
ATOM     41  C   UNL A   1      39.912  28.891  28.909  1.00  0.00     0.031 A 
ATOM     42  C   UNL A   1      38.863  29.931  28.953  1.00  0.00     0.074 A 
ATOM     43  C   UNL A   1      41.027  29.015  29.659  1.00  0.00     0.049 A 
ATOM     44  N   UNL A   1      39.072  31.170  29.251  1.00  0.00    -0.248 NA
ATOM     45  C   UNL A   1      37.477  29.647  28.599  1.00  0.00     0.031 C 
ATOM     46  C   UNL A   1      41.268  29.975  30.732  1.00  0.00     0.029 A 
ATOM     47  N   UNL A   1      42.271  28.420  29.432  1.00  0.00    -0.354 N 
ATOM     48  C   UNL A   1      37.846  31.790  29.359  1.00  0.00     0.074 A 
ATOM     49  C   UNL A   1      36.889  30.810  28.894  1.00  0.00     0.031 C 
ATOM     50  C   UNL A   1      42.593  30.094  30.913  1.00  0.00     0.029 A 
ATOM     51  C   UNL A   1      43.253  29.321  29.872  1.00  0.00     0.049 A 
ATOM     52  H   UNL A   1      42.430  27.532  29.039  1.00  0.00     0.167 HD
ATOM     53  C   UNL A   1      37.750  33.016  29.950  1.00  0.00     0.037 A 
ATOM     54  C   UNL A   1      44.182  29.827  29.010  1.00  0.00     0.037 A 
ATOM     55  C   UNL A   1      39.064  33.523  30.335  1.00  0.00     0.049 A 
ATOM     56  C   UNL A   1      44.106  31.327  28.839  1.00  0.00     0.074 A 
ATOM     57  C   UNL A   1      39.773  33.444  31.523  1.00  0.00     0.029 A 
ATOM     58  N   UNL A   1      39.975  33.918  29.360  1.00  0.00    -0.354 N 
ATOM     59  N   UNL A   1      43.069  32.049  29.166  1.00  0.00    -0.248 NA
ATOM     60  C   UNL A   1      45.191  32.127  28.279  1.00  0.00     0.031 C 
ATOM     61  C   UNL A   1      41.134  33.710  31.243  1.00  0.00     0.029 A 
ATOM     62  C   UNL A   1      41.251  33.985  29.892  1.00  0.00     0.049 A 
ATOM     63  H   UNL A   1      39.745  34.119  28.424  1.00  0.00     0.167 HD
ATOM     64  C   UNL A   1      43.315  33.363  28.861  1.00  0.00     0.074 A 
ATOM     65  C   UNL A   1      44.665  33.364  28.328  1.00  0.00     0.031 C 
ATOM     66  C   UNL A   1      42.395  34.350  29.070  1.00  0.00     0.037 A 
BRANCH  53  67
ATOM     67  C   UNL A   1      36.433  33.549  30.478  1.00  0.00     0.058 A 
ATOM     68  C   UNL A   1      35.468  34.095  29.605  1.00  0.00     0.135 A 
ATOM     69  C   UNL A   1      36.108  33.636  31.846  1.00  0.00     0.135 A 
ATOM     70  F   UNL A   1      35.580  33.980  28.275  1.00  0.00    -0.206 F 
ATOM     71  C   UNL A   1      34.355  34.807  30.055  1.00  0.00     0.059 A 
ATOM     72  C   UNL A   1      35.033  34.393  32.325  1.00  0.00     0.059 A 
ATOM     73  F   UNL A   1      36.821  32.969  32.767  1.00  0.00    -0.206 F 
ATOM     74  C   UNL A   1      34.172  34.996  31.418  1.00  0.00     0.060 A 
BRANCH  74  75
ATOM     75  S   UNL A   1      32.821  36.056  31.974  1.00  0.00     0.124 S 
ATOM     76  O   UNL A   1      32.357  36.650  30.724  1.00  0.00    -0.237 OA
ATOM     77  O   UNL A   1      31.917  35.094  32.594  1.00  0.00    -0.237 OA
ATOM     78  O   UNL A   1      33.475  36.985  32.892  1.00  0.00    -0.744 OA
ENDBRANCH  74  75
ENDBRANCH  53  67
BRANCH  54  79
ATOM     79  C   UNL A   1      44.647  28.861  27.980  1.00  0.00     0.058 A 
ATOM     80  C   UNL A   1      45.392  27.746  28.409  1.00  0.00     0.135 A 
ATOM     81  C   UNL A   1      44.080  28.803  26.700  1.00  0.00     0.135 A 
ATOM     82  F   UNL A   1      45.972  27.756  29.620  1.00  0.00    -0.206 F 
ATOM     83  C   UNL A   1      45.464  26.575  27.660  1.00  0.00     0.059 A 
ATOM     84  C   UNL A   1      44.138  27.637  25.931  1.00  0.00     0.059 A 
ATOM     85  F   UNL A   1      43.365  29.836  26.231  1.00  0.00    -0.206 F 
ATOM     86  C   UNL A   1      44.779  26.511  26.449  1.00  0.00     0.060 A 
BRANCH  86  87
ATOM     87  S   UNL A   1      44.667  24.909  25.617  1.00  0.00     0.124 S 
ATOM     88  O   UNL A   1      45.876  24.901  24.797  1.00  0.00    -0.237 OA
ATOM     89  O   UNL A   1      44.673  23.981  26.747  1.00  0.00    -0.237 OA
ATOM     90  O   UNL A   1      43.412  25.002  24.880  1.00  0.00    -0.744 OA
ENDBRANCH  86  87
ENDBRANCH  54  79
BRANCH  66  91
ATOM     91  C   UNL A   1      42.540  35.779  28.615  1.00  0.00     0.058 A 
ATOM     92  C   UNL A   1      43.017  36.813  29.437  1.00  0.00     0.135 A 
ATOM     93  C   UNL A   1      42.322  36.123  27.259  1.00  0.00     0.135 A 
ATOM     94  F   UNL A   1      43.354  36.583  30.715  1.00  0.00    -0.206 F 
ATOM     95  C   UNL A   1      43.207  38.114  28.968  1.00  0.00     0.059 A 
ATOM     96  C   UNL A   1      42.553  37.400  26.758  1.00  0.00     0.059 A 
ATOM     97  F   UNL A   1      41.881  35.217  26.373  1.00  0.00    -0.206 F 
ATOM     98  C   UNL A   1      42.974  38.399  27.626  1.00  0.00     0.060 A 
BRANCH  98  99
ATOM     99  S   UNL A   1      43.279  40.056  26.984  1.00  0.00     0.124 S 
ATOM    100  O   UNL A   1      42.041  40.320  26.259  1.00  0.00    -0.237 OA
ATOM    101  O   UNL A   1      43.481  40.845  28.196  1.00  0.00    -0.237 OA
ATOM    102  O   UNL A   1      44.470  39.873  26.159  1.00  0.00    -0.744 OA
ENDBRANCH  98  99
ENDBRANCH  66  91
ENDBRANCH  40  41
ENDBRANCH  32  35
ENDBRANCH  30  31
ENDBRANCH  29  30
ENDBRANCH   1  29
TORSDOF 19
ENDMDL
MODEL 3
REMARK VINA RESULT:     -13.3      3.864     10.367
REMARK SMILES Cc1c(CC(=O)NCCCCCCNC(=O)c2ccc(-c3c4nc(c(-c5c(F)cc(S(=O)(=O)[O-])cc5F)c5ccc([nH]5)c(-c5c(F)cc(S(=O)(=O)[O-])cc5F)c5nc(c(-c6c(F)cc(S(=O)(=O)[O-])cc6F)c6ccc3[nH]6)C=C5)C=C4)cc2)cc(-c2ccccc2)cc1-c1ccccc1
REMARK SMILES IDX 11 1 10 2 9 3 8 4 7 5 5 6 6 7 4 9 3 10 1 11 2 12 92 13 83 14
REMARK SMILES IDX 91 15 84 16 93 17 94 18 98 19 95 20 97 21 96 22 85 23 86 24
REMARK SMILES IDX 90 25 87 26 89 27 88 28 12 29 13 30 14 31 15 32 16 34 17 35
REMARK SMILES IDX 18 36 82 37 19 38 81 39 20 40 21 41 22 42 75 43 23 44 80 45
REMARK SMILES IDX 74 46 76 47 24 48 79 49 73 50 72 51 25 53 59 54 38 55 58 56
REMARK SMILES IDX 39 57 42 58 57 59 77 60 40 61 41 62 56 64 78 65 43 66 26 67
REMARK SMILES IDX 27 68 36 69 28 70 29 71 35 72 37 73 30 74 31 75 32 76 33 77
REMARK SMILES IDX 34 78 60 79 61 80 70 81 62 82 63 83 69 84 71 85 64 86 65 87
REMARK SMILES IDX 66 88 67 89 68 90 44 91 45 92 54 93 46 94 47 95 53 96 55 97
REMARK SMILES IDX 48 98 49 99 50 100 51 101 52 102
REMARK H PARENT 7 8 14 33 76 52 42 63
REMARK Flexibility Score: inf
ROOT
ATOM      1  C   UNL A   1      35.484  22.979  23.332  1.00  0.00     0.002 C 
ENDROOT
BRANCH   1   2
ATOM      2  C   UNL A   1      34.166  22.209  23.512  1.00  0.00     0.002 C 
BRANCH   2   3
ATOM      3  C   UNL A   1      32.991  22.638  22.625  1.00  0.00     0.021 C 
BRANCH   3   4
ATOM      4  C   UNL A   1      33.346  23.633  21.519  1.00  0.00     0.116 C 
BRANCH   4   5
ATOM      5  N   UNL A   1      32.291  24.596  21.269  1.00  0.00    -0.356 N 
ATOM      6  C   UNL A   1      32.299  25.947  21.470  1.00  0.00     0.224 C 
ATOM      7  O   UNL A   1      31.298  26.597  21.157  1.00  0.00    -0.275 OA
ATOM      8  H   UNL A   1      31.455  24.225  20.906  1.00  0.00     0.163 HD
BRANCH   6   9
ATOM      9  C   UNL A   1      33.541  26.640  22.020  1.00  0.00     0.135 C 
BRANCH   9  10
ATOM     10  C   UNL A   1      33.568  26.770  23.533  1.00  0.00    -0.035 A 
ATOM     11  C   UNL A   1      33.646  29.316  23.448  1.00  0.00     0.045 C 
ATOM     12  C   UNL A   1      33.666  28.011  24.214  1.00  0.00    -0.040 A 
ATOM     13  C   UNL A   1      33.730  28.019  25.634  1.00  0.00    -0.015 A 
ATOM     14  C   UNL A   1      33.478  25.577  24.279  1.00  0.00     0.013 A 
ATOM     15  C   UNL A   1      33.660  26.794  26.331  1.00  0.00     0.017 A 
ATOM     16  C   UNL A   1      33.521  25.567  25.676  1.00  0.00    -0.017 A 
BRANCH  13  17
ATOM     17  C   UNL A   1      33.907  29.252  26.427  1.00  0.00    -0.018 A 
ATOM     18  C   UNL A   1      35.134  29.518  27.058  1.00  0.00     0.009 A 
ATOM     19  C   UNL A   1      32.867  30.183  26.581  1.00  0.00     0.009 A 
ATOM     20  C   UNL A   1      35.322  30.682  27.806  1.00  0.00     0.001 A 
ATOM     21  C   UNL A   1      33.058  31.355  27.319  1.00  0.00     0.001 A 
ATOM     22  C   UNL A   1      34.285  31.603  27.930  1.00  0.00     0.000 A 
ENDBRANCH  13  17
BRANCH  16  23
ATOM     23  C   UNL A   1      33.417  24.305  26.426  1.00  0.00    -0.018 A 
ATOM     24  C   UNL A   1      34.563  23.575  26.778  1.00  0.00     0.009 A 
ATOM     25  C   UNL A   1      32.164  23.791  26.799  1.00  0.00     0.009 A 
ATOM     26  C   UNL A   1      34.461  22.369  27.477  1.00  0.00     0.001 A 
ATOM     27  C   UNL A   1      32.060  22.584  27.496  1.00  0.00     0.001 A 
ATOM     28  C   UNL A   1      33.209  21.873  27.834  1.00  0.00     0.000 A 
ENDBRANCH  16  23
ENDBRANCH   9  10
ENDBRANCH   6   9
ENDBRANCH   4   5
ENDBRANCH   3   4
ENDBRANCH   2   3
ENDBRANCH   1   2
BRANCH   1  29
ATOM     29  C   UNL A   1      36.752  22.286  23.840  1.00  0.00     0.021 C 
BRANCH  29  30
ATOM     30  C   UNL A   1      37.514  23.091  24.892  1.00  0.00     0.116 C 
BRANCH  30  31
ATOM     31  N   UNL A   1      38.482  22.297  25.609  1.00  0.00    -0.352 N 
ATOM     32  C   UNL A   1      39.605  22.741  26.326  1.00  0.00     0.251 C 
ATOM     33  H   UNL A   1      38.337  21.324  25.595  1.00  0.00     0.163 HD
ATOM     34  O   UNL A   1      40.482  21.997  26.697  1.00  0.00    -0.269 OA
BRANCH  32  35
ATOM     35  C   UNL A   1      39.582  24.152  26.753  1.00  0.00     0.039 A 
ATOM     36  C   UNL A   1      40.499  25.002  26.123  1.00  0.00     0.014 A 
ATOM     37  C   UNL A   1      38.897  24.543  27.897  1.00  0.00     0.014 A 
ATOM     38  C   UNL A   1      40.873  26.183  26.757  1.00  0.00     0.010 A 
ATOM     39  C   UNL A   1      39.323  25.677  28.566  1.00  0.00     0.010 A 
ATOM     40  C   UNL A   1      40.348  26.462  28.022  1.00  0.00    -0.014 A 
BRANCH  40  41
ATOM     41  C   UNL A   1      40.908  27.498  28.879  1.00  0.00     0.031 A 
ATOM     42  C   UNL A   1      40.126  28.714  29.179  1.00  0.00     0.074 A 
ATOM     43  C   UNL A   1      42.158  27.352  29.370  1.00  0.00     0.049 A 
ATOM     44  N   UNL A   1      40.639  29.866  29.456  1.00  0.00    -0.248 NA
ATOM     45  C   UNL A   1      38.668  28.727  29.129  1.00  0.00     0.031 C 
ATOM     46  C   UNL A   1      42.807  28.170  30.389  1.00  0.00     0.029 A 
ATOM     47  N   UNL A   1      43.179  26.546  28.861  1.00  0.00    -0.354 N 
ATOM     48  C   UNL A   1      39.614  30.701  29.847  1.00  0.00     0.074 A 
ATOM     49  C   UNL A   1      38.403  29.958  29.577  1.00  0.00     0.031 C 
ATOM     50  C   UNL A   1      44.137  28.020  30.278  1.00  0.00     0.029 A 
ATOM     51  C   UNL A   1      44.394  27.209  29.099  1.00  0.00     0.049 A 
ATOM     52  H   UNL A   1      43.069  25.674  28.419  1.00  0.00     0.167 HD
ATOM     53  C   UNL A   1      39.895  31.879  30.477  1.00  0.00     0.037 A 
ATOM     54  C   UNL A   1      45.204  27.586  28.067  1.00  0.00     0.037 A 
ATOM     55  C   UNL A   1      41.336  32.095  30.578  1.00  0.00     0.049 A 
ATOM     56  C   UNL A   1      45.400  29.080  27.957  1.00  0.00     0.074 A 
ATOM     57  C   UNL A   1      42.246  31.799  31.579  1.00  0.00     0.029 A 
ATOM     58  N   UNL A   1      42.083  32.374  29.437  1.00  0.00    -0.354 N 
ATOM     59  N   UNL A   1      44.623  29.964  28.521  1.00  0.00    -0.248 NA
ATOM     60  C   UNL A   1      46.483  29.694  27.194  1.00  0.00     0.031 C 
ATOM     61  C   UNL A   1      43.544  31.817  31.015  1.00  0.00     0.029 A 
ATOM     62  C   UNL A   1      43.429  32.158  29.679  1.00  0.00     0.049 A 
ATOM     63  H   UNL A   1      41.708  32.680  28.580  1.00  0.00     0.167 HD
ATOM     64  C   UNL A   1      45.061  31.224  28.205  1.00  0.00     0.074 A 
ATOM     65  C   UNL A   1      46.241  31.002  27.390  1.00  0.00     0.031 C 
ATOM     66  C   UNL A   1      44.425  32.353  28.637  1.00  0.00     0.037 A 
BRANCH  53  67
ATOM     67  C   UNL A   1      38.854  32.616  31.294  1.00  0.00     0.058 A 
ATOM     68  C   UNL A   1      38.459  32.145  32.564  1.00  0.00     0.135 A 
ATOM     69  C   UNL A   1      38.141  33.741  30.835  1.00  0.00     0.135 A 
ATOM     70  F   UNL A   1      39.122  31.159  33.184  1.00  0.00    -0.206 F 
ATOM     71  C   UNL A   1      37.348  32.644  33.247  1.00  0.00     0.059 A 
ATOM     72  C   UNL A   1      36.990  34.223  31.469  1.00  0.00     0.059 A 
ATOM     73  F   UNL A   1      38.553  34.423  29.755  1.00  0.00    -0.206 F 
ATOM     74  C   UNL A   1      36.588  33.650  32.668  1.00  0.00     0.060 A 
BRANCH  74  75
ATOM     75  S   UNL A   1      35.066  34.169  33.487  1.00  0.00     0.124 S 
ATOM     76  O   UNL A   1      35.192  35.623  33.488  1.00  0.00    -0.237 OA
ATOM     77  O   UNL A   1      34.044  33.620  32.602  1.00  0.00    -0.237 OA
ATOM     78  O   UNL A   1      35.159  33.542  34.804  1.00  0.00    -0.744 OA
ENDBRANCH  74  75
ENDBRANCH  53  67
BRANCH  54  79
ATOM     79  C   UNL A   1      45.237  26.622  26.935  1.00  0.00     0.058 A 
ATOM     80  C   UNL A   1      46.028  25.466  27.076  1.00  0.00     0.135 A 
ATOM     81  C   UNL A   1      44.262  26.618  25.929  1.00  0.00     0.135 A 
ATOM     82  F   UNL A   1      46.990  25.422  28.013  1.00  0.00    -0.206 F 
ATOM     83  C   UNL A   1      45.780  24.309  26.342  1.00  0.00     0.059 A 
ATOM     84  C   UNL A   1      43.994  25.467  25.181  1.00  0.00     0.059 A 
ATOM     85  F   UNL A   1      43.483  27.692  25.741  1.00  0.00    -0.206 F 
ATOM     86  C   UNL A   1      44.717  24.302  25.441  1.00  0.00     0.060 A 
BRANCH  86  87
ATOM     87  S   UNL A   1      44.246  22.725  24.691  1.00  0.00     0.124 S 
ATOM     88  O   UNL A   1      42.791  22.838  24.624  1.00  0.00    -0.237 OA
ATOM     89  O   UNL A   1      44.937  22.785  23.404  1.00  0.00    -0.237 OA
ATOM     90  O   UNL A   1      44.755  21.740  25.638  1.00  0.00    -0.744 OA
ENDBRANCH  86  87
ENDBRANCH  54  79
BRANCH  66  91
ATOM     91  C   UNL A   1      44.758  33.755  28.198  1.00  0.00     0.058 A 
ATOM     92  C   UNL A   1      44.249  34.347  27.031  1.00  0.00     0.135 A 
ATOM     93  C   UNL A   1      45.514  34.606  29.040  1.00  0.00     0.135 A 
ATOM     94  F   UNL A   1      43.438  33.668  26.207  1.00  0.00    -0.206 F 
ATOM     95  C   UNL A   1      44.520  35.672  26.685  1.00  0.00     0.059 A 
ATOM     96  C   UNL A   1      45.753  35.944  28.741  1.00  0.00     0.059 A 
ATOM     97  F   UNL A   1      46.039  34.160  30.191  1.00  0.00    -0.206 F 
ATOM     98  C   UNL A   1      45.272  36.465  27.547  1.00  0.00     0.060 A 
BRANCH  98  99
ATOM     99  S   UNL A   1      45.575  38.197  27.154  1.00  0.00     0.124 S 
ATOM    100  O   UNL A   1      44.266  38.618  26.665  1.00  0.00    -0.237 OA
ATOM    101  O   UNL A   1      45.979  38.761  28.438  1.00  0.00    -0.237 OA
ATOM    102  O   UNL A   1      46.633  38.125  26.150  1.00  0.00    -0.744 OA
ENDBRANCH  98  99
ENDBRANCH  66  91
ENDBRANCH  40  41
ENDBRANCH  32  35
ENDBRANCH  30  31
ENDBRANCH  29  30
ENDBRANCH   1  29
TORSDOF 19
ENDMDL
