MODEL 1
REMARK VINA RESULT:     -12.1      0.000      0.000
REMARK SMILES O=C(/C=C/c1ccccc1)Nc1ccc(O)cc1C(=O)NCCCCCCNC(=O)c1ccc(-c2c3nc(c(-c4c(F)cc(S(=O)(=O)[O-])cc4F)c4ccc([nH]4)c(-c4c(F)cc(S(=O)(=O)[O-])cc4F)c4nc(c(-c5c(F)cc(S(=O)(=O)[O-])cc5F)c5ccc2[nH]5)C=C4)C=C3)cc1
REMARK SMILES IDX 24 1 23 2 22 3 21 4 19 5 20 6 18 8 12 9 13 10 14 11 17 12
REMARK SMILES IDX 15 13 11 14 1 15 2 16 3 18 4 19 5 20 6 21 10 22 7 23 9 24
REMARK SMILES IDX 8 25 16 26 25 28 26 29 27 30 28 31 29 32 30 34 31 35 32 36
REMARK SMILES IDX 96 37 33 38 95 39 34 40 35 41 36 42 89 43 37 44 94 45 88 46
REMARK SMILES IDX 90 47 38 48 93 49 87 50 86 51 39 53 73 54 52 55 72 56 53 57
REMARK SMILES IDX 56 58 71 59 91 60 54 61 55 62 70 64 92 65 57 66 40 67 41 68
REMARK SMILES IDX 50 69 42 70 43 71 49 72 51 73 44 74 45 75 46 76 47 77 48 78
REMARK SMILES IDX 74 79 75 80 84 81 76 82 77 83 83 84 85 85 78 86 79 87 80 88
REMARK SMILES IDX 81 89 82 90 58 91 59 92 68 93 60 94 61 95 67 96 69 97 62 98
REMARK SMILES IDX 63 99 64 100 65 101 66 102
REMARK H PARENT 21 7 11 17 16 27 28 33 90 52 56 63
REMARK Flexibility Score: inf
ROOT
ATOM      1  C   UNL A   1      32.475  30.776  26.904  1.00  0.00     0.002 C 
ENDROOT
BRANCH   1   2
ATOM      2  C   UNL A   1      31.885  29.432  26.444  1.00  0.00     0.021 C 
BRANCH   2   3
ATOM      3  C   UNL A   1      32.358  28.146  27.130  1.00  0.00     0.116 C 
BRANCH   3   4
ATOM      4  N   UNL A   1      33.402  27.384  26.482  1.00  0.00    -0.352 N 
ATOM      5  C   UNL A   1      33.397  26.157  25.840  1.00  0.00     0.253 C 
ATOM      6  O   UNL A   1      34.403  25.919  25.158  1.00  0.00    -0.269 OA
ATOM      7  H   UNL A   1      34.284  27.821  26.502  1.00  0.00     0.163 HD
BRANCH   5   8
ATOM      8  C   UNL A   1      32.403  25.031  26.022  1.00  0.00     0.067 A 
ATOM      9  C   UNL A   1      31.001  25.007  25.897  1.00  0.00     0.054 A 
ATOM     10  C   UNL A   1      30.266  23.886  26.351  1.00  0.00     0.031 A 
ATOM     11  C   UNL A   1      30.902  22.723  26.767  1.00  0.00     0.048 A 
ATOM     12  C   UNL A   1      33.021  23.816  26.419  1.00  0.00     0.062 A 
ATOM     13  C   UNL A   1      32.280  22.680  26.751  1.00  0.00     0.116 A 
BRANCH   9  14
ATOM     14  N   UNL A   1      30.182  25.964  25.283  1.00  0.00    -0.322 N 
ATOM     15  O   UNL A   1      30.981  25.928  23.112  1.00  0.00    -0.270 OA
ATOM     16  C   UNL A   1      30.304  26.423  24.000  1.00  0.00     0.248 C 
ATOM     17  H   UNL A   1      29.451  26.340  25.825  1.00  0.00     0.170 HD
BRANCH  16  18
ATOM     18  C   UNL A   1      29.518  27.659  23.742  1.00  0.00     0.072 C 
ATOM     19  C   UNL A   1      30.113  28.788  23.323  1.00  0.00     0.014 C 
BRANCH  19  20
ATOM     20  C   UNL A   1      29.434  29.990  22.838  1.00  0.00    -0.025 A 
ATOM     21  C   UNL A   1      29.288  31.063  23.733  1.00  0.00     0.008 A 
ATOM     22  C   UNL A   1      28.958  30.116  21.528  1.00  0.00     0.008 A 
ATOM     23  C   UNL A   1      28.636  32.221  23.336  1.00  0.00     0.001 A 
ATOM     24  C   UNL A   1      28.323  31.282  21.126  1.00  0.00     0.001 A 
ATOM     25  C   UNL A   1      28.142  32.310  22.041  1.00  0.00     0.000 A 
ENDBRANCH  19  20
ENDBRANCH  16  18
ENDBRANCH   9  14
BRANCH  13  26
ATOM     26  O   UNL A   1      32.880  21.500  27.070  1.00  0.00    -0.508 OA
ATOM     27  H   UNL A   1      33.089  21.306  27.961  1.00  0.00     0.293 HD
ENDBRANCH  13  26
ENDBRANCH   5   8
ENDBRANCH   3   4
ENDBRANCH   2   3
ENDBRANCH   1   2
BRANCH   1  28
ATOM     28  C   UNL A   1      33.920  30.830  27.433  1.00  0.00     0.002 C 
BRANCH  28  29
ATOM     29  C   UNL A   1      34.429  32.128  28.074  1.00  0.00     0.021 C 
BRANCH  29  30
ATOM     30  C   UNL A   1      35.731  32.092  28.888  1.00  0.00     0.116 C 
BRANCH  30  31
ATOM     31  N   UNL A   1      35.627  31.341  30.130  1.00  0.00    -0.352 N 
ATOM     32  C   UNL A   1      36.491  30.436  30.716  1.00  0.00     0.251 C 
ATOM     33  H   UNL A   1      34.801  31.507  30.639  1.00  0.00     0.163 HD
ATOM     34  O   UNL A   1      36.117  29.841  31.727  1.00  0.00    -0.269 OA
BRANCH  32  35
ATOM     35  C   UNL A   1      37.846  30.129  30.171  1.00  0.00     0.039 A 
ATOM     36  C   UNL A   1      38.924  30.024  31.061  1.00  0.00     0.014 A 
ATOM     37  C   UNL A   1      38.107  30.041  28.804  1.00  0.00     0.014 A 
ATOM     38  C   UNL A   1      40.228  29.756  30.599  1.00  0.00     0.010 A 
ATOM     39  C   UNL A   1      39.408  29.733  28.349  1.00  0.00     0.010 A 
ATOM     40  C   UNL A   1      40.492  29.551  29.235  1.00  0.00    -0.014 A 
BRANCH  40  41
ATOM     41  C   UNL A   1      41.849  29.085  28.749  1.00  0.00     0.031 A 
ATOM     42  C   UNL A   1      43.004  30.055  28.580  1.00  0.00     0.074 A 
ATOM     43  C   UNL A   1      42.063  27.800  28.367  1.00  0.00     0.049 A 
ATOM     44  N   UNL A   1      44.218  29.831  28.130  1.00  0.00    -0.248 NA
ATOM     45  C   UNL A   1      42.757  31.459  28.933  1.00  0.00     0.031 C 
ATOM     46  C   UNL A   1      41.070  26.722  28.383  1.00  0.00     0.029 A 
ATOM     47  N   UNL A   1      43.189  27.179  27.859  1.00  0.00    -0.354 N 
ATOM     48  C   UNL A   1      44.869  31.061  28.139  1.00  0.00     0.074 A 
ATOM     49  C   UNL A   1      43.887  32.040  28.556  1.00  0.00     0.031 C 
ATOM     50  C   UNL A   1      41.620  25.593  27.908  1.00  0.00     0.029 A 
ATOM     51  C   UNL A   1      43.012  25.845  27.554  1.00  0.00     0.049 A 
ATOM     52  H   UNL A   1      44.045  27.648  27.727  1.00  0.00     0.167 HD
ATOM     53  C   UNL A   1      46.168  31.359  27.879  1.00  0.00     0.037 A 
ATOM     54  C   UNL A   1      43.857  24.913  27.061  1.00  0.00     0.037 A 
ATOM     55  C   UNL A   1      47.181  30.404  27.508  1.00  0.00     0.049 A 
ATOM     56  C   UNL A   1      45.299  25.259  26.784  1.00  0.00     0.074 A 
ATOM     57  C   UNL A   1      48.538  30.621  27.323  1.00  0.00     0.029 A 
ATOM     58  N   UNL A   1      46.961  29.059  27.261  1.00  0.00    -0.354 N 
ATOM     59  N   UNL A   1      45.912  26.408  26.922  1.00  0.00    -0.248 NA
ATOM     60  C   UNL A   1      46.170  24.171  26.307  1.00  0.00     0.031 C 
ATOM     61  C   UNL A   1      49.128  29.419  26.921  1.00  0.00     0.029 A 
ATOM     62  C   UNL A   1      48.151  28.441  26.905  1.00  0.00     0.049 A 
ATOM     63  H   UNL A   1      46.088  28.608  27.328  1.00  0.00     0.167 HD
ATOM     64  C   UNL A   1      47.245  26.169  26.594  1.00  0.00     0.074 A 
ATOM     65  C   UNL A   1      47.352  24.769  26.253  1.00  0.00     0.031 C 
ATOM     66  C   UNL A   1      48.283  27.041  26.586  1.00  0.00     0.037 A 
BRANCH  53  67
ATOM     67  C   UNL A   1      46.589  32.798  28.028  1.00  0.00     0.058 A 
ATOM     68  C   UNL A   1      46.423  33.720  26.981  1.00  0.00     0.135 A 
ATOM     69  C   UNL A   1      47.126  33.272  29.236  1.00  0.00     0.135 A 
ATOM     70  F   UNL A   1      45.917  33.322  25.803  1.00  0.00    -0.206 F 
ATOM     71  C   UNL A   1      46.823  35.045  27.107  1.00  0.00     0.059 A 
ATOM     72  C   UNL A   1      47.501  34.603  29.397  1.00  0.00     0.059 A 
ATOM     73  F   UNL A   1      47.292  32.439  30.276  1.00  0.00    -0.206 F 
ATOM     74  C   UNL A   1      47.366  35.476  28.318  1.00  0.00     0.060 A 
BRANCH  74  75
ATOM     75  S   UNL A   1      47.899  37.195  28.456  1.00  0.00     0.124 S 
ATOM     76  O   UNL A   1      47.696  37.445  29.880  1.00  0.00    -0.237 OA
ATOM     77  O   UNL A   1      49.288  37.127  28.017  1.00  0.00    -0.237 OA
ATOM     78  O   UNL A   1      46.993  37.904  27.558  1.00  0.00    -0.744 OA
ENDBRANCH  74  75
ENDBRANCH  53  67
BRANCH  54  79
ATOM     79  C   UNL A   1      43.388  23.513  26.843  1.00  0.00     0.058 A 
ATOM     80  C   UNL A   1      43.209  22.638  27.927  1.00  0.00     0.135 A 
ATOM     81  C   UNL A   1      43.146  23.012  25.556  1.00  0.00     0.135 A 
ATOM     82  F   UNL A   1      43.442  23.066  29.178  1.00  0.00    -0.206 F 
ATOM     83  C   UNL A   1      42.835  21.311  27.743  1.00  0.00     0.059 A 
ATOM     84  C   UNL A   1      42.746  21.694  25.347  1.00  0.00     0.059 A 
ATOM     85  F   UNL A   1      43.291  23.809  24.485  1.00  0.00    -0.206 F 
ATOM     86  C   UNL A   1      42.606  20.847  26.447  1.00  0.00     0.060 A 
BRANCH  86  87
ATOM     87  S   UNL A   1      42.093  19.130  26.222  1.00  0.00     0.124 S 
ATOM     88  O   UNL A   1      40.699  19.289  25.823  1.00  0.00    -0.237 OA
ATOM     89  O   UNL A   1      43.008  18.671  25.182  1.00  0.00    -0.237 OA
ATOM     90  O   UNL A   1      42.309  18.541  27.541  1.00  0.00    -0.744 OA
ENDBRANCH  86  87
ENDBRANCH  54  79
BRANCH  66  91
ATOM     91  C   UNL A   1      49.655  26.516  26.251  1.00  0.00     0.058 A 
ATOM     92  C   UNL A   1      50.211  26.649  24.969  1.00  0.00     0.135 A 
ATOM     93  C   UNL A   1      50.453  25.930  27.248  1.00  0.00     0.135 A 
ATOM     94  F   UNL A   1      49.494  27.195  23.975  1.00  0.00    -0.206 F 
ATOM     95  C   UNL A   1      51.501  26.206  24.684  1.00  0.00     0.059 A 
ATOM     96  C   UNL A   1      51.755  25.506  26.993  1.00  0.00     0.059 A 
ATOM     97  F   UNL A   1      49.978  25.782  28.495  1.00  0.00    -0.206 F 
ATOM     98  C   UNL A   1      52.269  25.641  25.705  1.00  0.00     0.060 A 
BRANCH  98  99
ATOM     99  S   UNL A   1      53.958  25.120  25.334  1.00  0.00     0.124 S 
ATOM    100  O   UNL A   1      53.783  23.689  25.110  1.00  0.00    -0.237 OA
ATOM    101  O   UNL A   1      54.276  25.912  24.150  1.00  0.00    -0.237 OA
ATOM    102  O   UNL A   1      54.698  25.480  26.540  1.00  0.00    -0.744 OA
ENDBRANCH  98  99
ENDBRANCH  66  91
ENDBRANCH  40  41
ENDBRANCH  32  35
ENDBRANCH  30  31
ENDBRANCH  29  30
ENDBRANCH  28  29
ENDBRANCH   1  28
TORSDOF 20
ENDMDL
MODEL 2
REMARK VINA RESULT:     -11.9      2.722      8.613
REMARK SMILES O=C(/C=C/c1ccccc1)Nc1ccc(O)cc1C(=O)NCCCCCCNC(=O)c1ccc(-c2c3nc(c(-c4c(F)cc(S(=O)(=O)[O-])cc4F)c4ccc([nH]4)c(-c4c(F)cc(S(=O)(=O)[O-])cc4F)c4nc(c(-c5c(F)cc(S(=O)(=O)[O-])cc5F)c5ccc2[nH]5)C=C4)C=C3)cc1
REMARK SMILES IDX 24 1 23 2 22 3 21 4 19 5 20 6 18 8 12 9 13 10 14 11 17 12
REMARK SMILES IDX 15 13 11 14 1 15 2 16 3 18 4 19 5 20 6 21 10 22 7 23 9 24
REMARK SMILES IDX 8 25 16 26 25 28 26 29 27 30 28 31 29 32 30 34 31 35 32 36
REMARK SMILES IDX 96 37 33 38 95 39 34 40 35 41 36 42 89 43 37 44 94 45 88 46
REMARK SMILES IDX 90 47 38 48 93 49 87 50 86 51 39 53 73 54 52 55 72 56 53 57
REMARK SMILES IDX 56 58 71 59 91 60 54 61 55 62 70 64 92 65 57 66 40 67 41 68
REMARK SMILES IDX 50 69 42 70 43 71 49 72 51 73 44 74 45 75 46 76 47 77 48 78
REMARK SMILES IDX 74 79 75 80 84 81 76 82 77 83 83 84 85 85 78 86 79 87 80 88
REMARK SMILES IDX 81 89 82 90 58 91 59 92 68 93 60 94 61 95 67 96 69 97 62 98
REMARK SMILES IDX 63 99 64 100 65 101 66 102
REMARK H PARENT 21 7 11 17 16 27 28 33 90 52 56 63
REMARK Flexibility Score: inf
ROOT
ATOM      1  C   UNL A   1      33.615  27.632  23.025  1.00  0.00     0.002 C 
ENDROOT
BRANCH   1   2
ATOM      2  C   UNL A   1      33.647  26.322  22.219  1.00  0.00     0.021 C 
BRANCH   2   3
ATOM      3  C   UNL A   1      32.368  25.484  22.124  1.00  0.00     0.116 C 
BRANCH   3   4
ATOM      4  N   UNL A   1      32.510  24.072  21.844  1.00  0.00    -0.352 N 
ATOM      5  C   UNL A   1      32.684  22.973  22.668  1.00  0.00     0.253 C 
ATOM      6  O   UNL A   1      32.497  21.876  22.124  1.00  0.00    -0.269 OA
ATOM      7  H   UNL A   1      32.477  23.851  20.885  1.00  0.00     0.163 HD
BRANCH   5   8
ATOM      8  C   UNL A   1      33.239  22.961  24.076  1.00  0.00     0.067 A 
ATOM      9  C   UNL A   1      33.083  23.870  25.139  1.00  0.00     0.054 A 
ATOM     10  C   UNL A   1      33.897  23.763  26.291  1.00  0.00     0.031 A 
ATOM     11  C   UNL A   1      34.740  22.676  26.484  1.00  0.00     0.048 A 
ATOM     12  C   UNL A   1      34.083  21.845  24.319  1.00  0.00     0.062 A 
ATOM     13  C   UNL A   1      34.790  21.698  25.514  1.00  0.00     0.116 A 
BRANCH   9  14
ATOM     14  N   UNL A   1      32.126  24.887  25.259  1.00  0.00    -0.322 N 
ATOM     15  O   UNL A   1      30.284  23.701  26.005  1.00  0.00    -0.270 OA
ATOM     16  C   UNL A   1      30.803  24.715  25.565  1.00  0.00     0.248 C 
ATOM     17  H   UNL A   1      32.434  25.810  25.109  1.00  0.00     0.170 HD
BRANCH  16  18
ATOM     18  C   UNL A   1      29.977  25.922  25.294  1.00  0.00     0.072 C 
ATOM     19  C   UNL A   1      30.208  26.696  24.220  1.00  0.00     0.014 C 
BRANCH  19  20
ATOM     20  C   UNL A   1      29.345  27.773  23.734  1.00  0.00    -0.025 A 
ATOM     21  C   UNL A   1      27.962  27.526  23.679  1.00  0.00     0.008 A 
ATOM     22  C   UNL A   1      29.835  29.027  23.354  1.00  0.00     0.008 A 
ATOM     23  C   UNL A   1      27.096  28.501  23.210  1.00  0.00     0.001 A 
ATOM     24  C   UNL A   1      28.966  30.009  22.902  1.00  0.00     0.001 A 
ATOM     25  C   UNL A   1      27.610  29.727  22.806  1.00  0.00     0.000 A 
ENDBRANCH  19  20
ENDBRANCH  16  18
ENDBRANCH   9  14
BRANCH  13  26
ATOM     26  O   UNL A   1      35.549  20.595  25.768  1.00  0.00    -0.508 OA
ATOM     27  H   UNL A   1      36.043  20.198  25.078  1.00  0.00     0.293 HD
ENDBRANCH  13  26
ENDBRANCH   5   8
ENDBRANCH   3   4
ENDBRANCH   2   3
ENDBRANCH   1   2
BRANCH   1  28
ATOM     28  C   UNL A   1      34.037  27.623  24.506  1.00  0.00     0.002 C 
BRANCH  28  29
ATOM     29  C   UNL A   1      33.115  28.276  25.545  1.00  0.00     0.021 C 
BRANCH  29  30
ATOM     30  C   UNL A   1      33.613  28.419  26.991  1.00  0.00     0.116 C 
BRANCH  30  31
ATOM     31  N   UNL A   1      33.517  29.775  27.515  1.00  0.00    -0.352 N 
ATOM     32  C   UNL A   1      34.441  30.556  28.181  1.00  0.00     0.251 C 
ATOM     33  H   UNL A   1      32.646  30.208  27.368  1.00  0.00     0.163 HD
ATOM     34  O   UNL A   1      34.074  31.642  28.628  1.00  0.00    -0.269 OA
BRANCH  32  35
ATOM     35  C   UNL A   1      35.856  30.136  28.404  1.00  0.00     0.039 A 
ATOM     36  C   UNL A   1      36.737  30.126  27.313  1.00  0.00     0.014 A 
ATOM     37  C   UNL A   1      36.317  29.657  29.630  1.00  0.00     0.014 A 
ATOM     38  C   UNL A   1      38.078  29.720  27.463  1.00  0.00     0.010 A 
ATOM     39  C   UNL A   1      37.672  29.289  29.784  1.00  0.00     0.010 A 
ATOM     40  C   UNL A   1      38.592  29.342  28.714  1.00  0.00    -0.014 A 
BRANCH  40  41
ATOM     41  C   UNL A   1      40.070  29.080  28.920  1.00  0.00     0.031 A 
ATOM     42  C   UNL A   1      40.686  27.732  28.595  1.00  0.00     0.074 A 
ATOM     43  C   UNL A   1      40.883  30.010  29.482  1.00  0.00     0.049 A 
ATOM     44  N   UNL A   1      41.925  27.323  28.755  1.00  0.00    -0.248 NA
ATOM     45  C   UNL A   1      39.794  26.702  28.046  1.00  0.00     0.031 C 
ATOM     46  C   UNL A   1      40.480  31.345  29.932  1.00  0.00     0.029 A 
ATOM     47  N   UNL A   1      42.229  29.967  29.798  1.00  0.00    -0.354 N 
ATOM     48  C   UNL A   1      41.954  25.996  28.337  1.00  0.00     0.074 A 
ATOM     49  C   UNL A   1      40.591  25.644  27.999  1.00  0.00     0.031 C 
ATOM     50  C   UNL A   1      41.536  31.981  30.465  1.00  0.00     0.029 A 
ATOM     51  C   UNL A   1      42.708  31.115  30.396  1.00  0.00     0.049 A 
ATOM     52  H   UNL A   1      42.797  29.184  29.612  1.00  0.00     0.167 HD
ATOM     53  C   UNL A   1      43.009  25.154  28.194  1.00  0.00     0.037 A 
ATOM     54  C   UNL A   1      43.940  31.458  30.831  1.00  0.00     0.037 A 
ATOM     55  C   UNL A   1      44.383  25.487  28.475  1.00  0.00     0.049 A 
ATOM     56  C   UNL A   1      45.102  30.512  30.658  1.00  0.00     0.074 A 
ATOM     57  C   UNL A   1      45.513  24.714  28.262  1.00  0.00     0.029 A 
ATOM     58  N   UNL A   1      44.819  26.677  29.031  1.00  0.00    -0.354 N 
ATOM     59  N   UNL A   1      45.115  29.308  30.144  1.00  0.00    -0.248 NA
ATOM     60  C   UNL A   1      46.424  30.987  31.102  1.00  0.00     0.031 C 
ATOM     61  C   UNL A   1      46.627  25.418  28.730  1.00  0.00     0.029 A 
ATOM     62  C   UNL A   1      46.197  26.651  29.187  1.00  0.00     0.049 A 
ATOM     63  H   UNL A   1      44.237  27.432  29.280  1.00  0.00     0.167 HD
ATOM     64  C   UNL A   1      46.448  28.902  30.162  1.00  0.00     0.074 A 
ATOM     65  C   UNL A   1      47.213  29.986  30.734  1.00  0.00     0.031 C 
ATOM     66  C   UNL A   1      46.981  27.731  29.732  1.00  0.00     0.037 A 
BRANCH  53  67
ATOM     67  C   UNL A   1      42.722  23.774  27.661  1.00  0.00     0.058 A 
ATOM     68  C   UNL A   1      42.544  22.680  28.525  1.00  0.00     0.135 A 
ATOM     69  C   UNL A   1      42.586  23.546  26.282  1.00  0.00     0.135 A 
ATOM     70  F   UNL A   1      42.664  22.840  29.852  1.00  0.00    -0.206 F 
ATOM     71  C   UNL A   1      42.293  21.402  28.039  1.00  0.00     0.059 A 
ATOM     72  C   UNL A   1      42.301  22.282  25.774  1.00  0.00     0.059 A 
ATOM     73  F   UNL A   1      42.731  24.558  25.411  1.00  0.00    -0.206 F 
ATOM     74  C   UNL A   1      42.179  21.212  26.661  1.00  0.00     0.060 A 
BRANCH  74  75
ATOM     75  S   UNL A   1      41.875  19.542  26.048  1.00  0.00     0.124 S 
ATOM     76  O   UNL A   1      40.457  19.615  25.708  1.00  0.00    -0.237 OA
ATOM     77  O   UNL A   1      42.794  19.452  24.919  1.00  0.00    -0.237 OA
ATOM     78  O   UNL A   1      42.203  18.696  27.190  1.00  0.00    -0.744 OA
ENDBRANCH  74  75
ENDBRANCH  53  67
BRANCH  54  79
ATOM     79  C   UNL A   1      44.176  32.802  31.434  1.00  0.00     0.058 A 
ATOM     80  C   UNL A   1      44.056  32.999  32.820  1.00  0.00     0.135 A 
ATOM     81  C   UNL A   1      44.488  33.917  30.643  1.00  0.00     0.135 A 
ATOM     82  F   UNL A   1      43.744  31.966  33.618  1.00  0.00    -0.206 F 
ATOM     83  C   UNL A   1      44.208  34.256  33.396  1.00  0.00     0.059 A 
ATOM     84  C   UNL A   1      44.670  35.181  31.200  1.00  0.00     0.059 A 
ATOM     85  F   UNL A   1      44.626  33.783  29.315  1.00  0.00    -0.206 F 
ATOM     86  C   UNL A   1      44.515  35.343  32.577  1.00  0.00     0.060 A 
BRANCH  86  87
ATOM     87  S   UNL A   1      44.739  36.964  33.340  1.00  0.00     0.124 S 
ATOM     88  O   UNL A   1      43.887  36.856  34.519  1.00  0.00    -0.237 OA
ATOM     89  O   UNL A   1      46.177  36.987  33.592  1.00  0.00    -0.237 OA
ATOM     90  O   UNL A   1      44.276  37.888  32.309  1.00  0.00    -0.744 OA
ENDBRANCH  86  87
ENDBRANCH  54  79
BRANCH  66  91
ATOM     91  C   UNL A   1      48.476  27.558  29.804  1.00  0.00     0.058 A 
ATOM     92  C   UNL A   1      49.100  26.902  30.876  1.00  0.00     0.135 A 
ATOM     93  C   UNL A   1      49.292  27.998  28.748  1.00  0.00     0.135 A 
ATOM     94  F   UNL A   1      48.373  26.466  31.917  1.00  0.00    -0.206 F 
ATOM     95  C   UNL A   1      50.479  26.701  30.907  1.00  0.00     0.059 A 
ATOM     96  C   UNL A   1      50.669  27.783  28.743  1.00  0.00     0.059 A 
ATOM     97  F   UNL A   1      48.752  28.626  27.691  1.00  0.00    -0.206 F 
ATOM     98  C   UNL A   1      51.255  27.141  29.831  1.00  0.00     0.060 A 
BRANCH  98  99
ATOM     99  S   UNL A   1      53.034  26.827  29.860  1.00  0.00     0.124 S 
ATOM    100  O   UNL A   1      53.257  26.271  28.530  1.00  0.00    -0.237 OA
ATOM    101  O   UNL A   1      53.582  28.161  30.089  1.00  0.00    -0.237 OA
ATOM    102  O   UNL A   1      53.196  25.890  30.968  1.00  0.00    -0.744 OA
ENDBRANCH  98  99
ENDBRANCH  66  91
ENDBRANCH  40  41
ENDBRANCH  32  35
ENDBRANCH  30  31
ENDBRANCH  29  30
ENDBRANCH  28  29
ENDBRANCH   1  28
TORSDOF 20
ENDMDL
MODEL 3
REMARK VINA RESULT:     -11.9      6.486     12.369
REMARK SMILES O=C(/C=C/c1ccccc1)Nc1ccc(O)cc1C(=O)NCCCCCCNC(=O)c1ccc(-c2c3nc(c(-c4c(F)cc(S(=O)(=O)[O-])cc4F)c4ccc([nH]4)c(-c4c(F)cc(S(=O)(=O)[O-])cc4F)c4nc(c(-c5c(F)cc(S(=O)(=O)[O-])cc5F)c5ccc2[nH]5)C=C4)C=C3)cc1
REMARK SMILES IDX 24 1 23 2 22 3 21 4 19 5 20 6 18 8 12 9 13 10 14 11 17 12
REMARK SMILES IDX 15 13 11 14 1 15 2 16 3 18 4 19 5 20 6 21 10 22 7 23 9 24
REMARK SMILES IDX 8 25 16 26 25 28 26 29 27 30 28 31 29 32 30 34 31 35 32 36
REMARK SMILES IDX 96 37 33 38 95 39 34 40 35 41 36 42 89 43 37 44 94 45 88 46
REMARK SMILES IDX 90 47 38 48 93 49 87 50 86 51 39 53 73 54 52 55 72 56 53 57
REMARK SMILES IDX 56 58 71 59 91 60 54 61 55 62 70 64 92 65 57 66 40 67 41 68
REMARK SMILES IDX 50 69 42 70 43 71 49 72 51 73 44 74 45 75 46 76 47 77 48 78
REMARK SMILES IDX 74 79 75 80 84 81 76 82 77 83 83 84 85 85 78 86 79 87 80 88
REMARK SMILES IDX 81 89 82 90 58 91 59 92 68 93 60 94 61 95 67 96 69 97 62 98
REMARK SMILES IDX 63 99 64 100 65 101 66 102
REMARK H PARENT 21 7 11 17 16 27 28 33 90 52 56 63
REMARK Flexibility Score: inf
ROOT
ATOM      1  C   UNL A   1      38.889  22.775  26.447  1.00  0.00     0.002 C 
ENDROOT
BRANCH   1   2
ATOM      2  C   UNL A   1      37.862  22.727  25.304  1.00  0.00     0.021 C 
BRANCH   2   3
ATOM      3  C   UNL A   1      36.637  23.644  25.375  1.00  0.00     0.116 C 
BRANCH   3   4
ATOM      4  N   UNL A   1      35.799  23.738  24.201  1.00  0.00    -0.352 N 
ATOM      5  C   UNL A   1      34.649  24.462  23.934  1.00  0.00     0.253 C 
ATOM      6  O   UNL A   1      34.335  24.523  22.737  1.00  0.00    -0.269 OA
ATOM      7  H   UNL A   1      36.103  23.180  23.449  1.00  0.00     0.163 HD
BRANCH   5   8
ATOM      8  C   UNL A   1      33.662  25.020  24.936  1.00  0.00     0.067 A 
ATOM      9  C   UNL A   1      32.687  24.382  25.725  1.00  0.00     0.054 A 
ATOM     10  C   UNL A   1      31.719  25.149  26.416  1.00  0.00     0.031 A 
ATOM     11  C   UNL A   1      31.801  26.534  26.478  1.00  0.00     0.048 A 
ATOM     12  C   UNL A   1      33.739  26.434  25.049  1.00  0.00     0.062 A 
ATOM     13  C   UNL A   1      32.843  27.164  25.832  1.00  0.00     0.116 A 
BRANCH   9  14
ATOM     14  N   UNL A   1      32.573  23.013  26.002  1.00  0.00    -0.322 N 
ATOM     15  O   UNL A   1      34.327  22.695  27.478  1.00  0.00    -0.270 OA
ATOM     16  C   UNL A   1      33.447  22.267  26.747  1.00  0.00     0.248 C 
ATOM     17  H   UNL A   1      31.794  22.544  25.625  1.00  0.00     0.170 HD
BRANCH  16  18
ATOM     18  C   UNL A   1      33.250  20.802  26.587  1.00  0.00     0.072 C 
ATOM     19  C   UNL A   1      33.376  20.210  25.388  1.00  0.00     0.014 C 
BRANCH  19  20
ATOM     20  C   UNL A   1      33.417  18.768  25.140  1.00  0.00    -0.025 A 
ATOM     21  C   UNL A   1      34.413  18.284  24.275  1.00  0.00     0.008 A 
ATOM     22  C   UNL A   1      32.533  17.869  25.745  1.00  0.00     0.008 A 
ATOM     23  C   UNL A   1      34.490  16.929  23.987  1.00  0.00     0.001 A 
ATOM     24  C   UNL A   1      32.622  16.511  25.471  1.00  0.00     0.001 A 
ATOM     25  C   UNL A   1      33.579  16.059  24.573  1.00  0.00     0.000 A 
ENDBRANCH  19  20
ENDBRANCH  16  18
ENDBRANCH   9  14
BRANCH  13  26
ATOM     26  O   UNL A   1      32.959  28.513  25.986  1.00  0.00    -0.508 OA
ATOM     27  H   UNL A   1      32.798  28.905  26.821  1.00  0.00     0.293 HD
ENDBRANCH  13  26
ENDBRANCH   5   8
ENDBRANCH   3   4
ENDBRANCH   2   3
ENDBRANCH   1   2
BRANCH   1  28
ATOM     28  C   UNL A   1      40.006  21.717  26.510  1.00  0.00     0.002 C 
BRANCH  28  29
ATOM     29  C   UNL A   1      40.871  21.623  27.775  1.00  0.00     0.021 C 
BRANCH  29  30
ATOM     30  C   UNL A   1      42.230  22.338  27.799  1.00  0.00     0.116 C 
BRANCH  30  31
ATOM     31  N   UNL A   1      42.535  23.061  26.572  1.00  0.00    -0.352 N 
ATOM     32  C   UNL A   1      42.496  24.411  26.283  1.00  0.00     0.251 C 
ATOM     33  H   UNL A   1      42.818  22.490  25.822  1.00  0.00     0.163 HD
ATOM     34  O   UNL A   1      42.692  24.766  25.121  1.00  0.00    -0.269 OA
BRANCH  32  35
ATOM     35  C   UNL A   1      42.207  25.457  27.307  1.00  0.00     0.039 A 
ATOM     36  C   UNL A   1      41.019  25.367  28.047  1.00  0.00     0.014 A 
ATOM     37  C   UNL A   1      43.016  26.578  27.491  1.00  0.00     0.014 A 
ATOM     38  C   UNL A   1      40.687  26.339  29.012  1.00  0.00     0.010 A 
ATOM     39  C   UNL A   1      42.699  27.526  28.488  1.00  0.00     0.010 A 
ATOM     40  C   UNL A   1      41.545  27.414  29.294  1.00  0.00    -0.014 A 
BRANCH  40  41
ATOM     41  C   UNL A   1      41.285  28.357  30.450  1.00  0.00     0.031 A 
ATOM     42  C   UNL A   1      42.068  28.254  31.746  1.00  0.00     0.074 A 
ATOM     43  C   UNL A   1      40.287  29.276  30.406  1.00  0.00     0.049 A 
ATOM     44  N   UNL A   1      41.941  28.951  32.852  1.00  0.00    -0.248 NA
ATOM     45  C   UNL A   1      43.107  27.217  31.820  1.00  0.00     0.031 C 
ATOM     46  C   UNL A   1      39.371  29.496  29.283  1.00  0.00     0.029 A 
ATOM     47  N   UNL A   1      39.853  30.192  31.346  1.00  0.00    -0.354 N 
ATOM     48  C   UNL A   1      42.872  28.432  33.748  1.00  0.00     0.074 A 
ATOM     49  C   UNL A   1      43.494  27.306  33.085  1.00  0.00     0.031 C 
ATOM     50  C   UNL A   1      38.493  30.462  29.598  1.00  0.00     0.029 A 
ATOM     51  C   UNL A   1      38.773  30.950  30.943  1.00  0.00     0.049 A 
ATOM     52  H   UNL A   1      40.279  30.295  32.229  1.00  0.00     0.167 HD
ATOM     53  C   UNL A   1      43.224  28.868  34.985  1.00  0.00     0.037 A 
ATOM     54  C   UNL A   1      38.083  31.936  31.559  1.00  0.00     0.037 A 
ATOM     55  C   UNL A   1      42.659  30.013  35.654  1.00  0.00     0.049 A 
ATOM     56  C   UNL A   1      38.492  32.412  32.930  1.00  0.00     0.074 A 
ATOM     57  C   UNL A   1      43.035  30.568  36.867  1.00  0.00     0.029 A 
ATOM     58  N   UNL A   1      41.603  30.775  35.182  1.00  0.00    -0.354 N 
ATOM     59  N   UNL A   1      39.459  31.979  33.700  1.00  0.00    -0.248 NA
ATOM     60  C   UNL A   1      37.728  33.533  33.506  1.00  0.00     0.031 C 
ATOM     61  C   UNL A   1      42.178  31.638  37.149  1.00  0.00     0.029 A 
ATOM     62  C   UNL A   1      41.302  31.781  36.089  1.00  0.00     0.049 A 
ATOM     63  H   UNL A   1      41.135  30.625  34.329  1.00  0.00     0.167 HD
ATOM     64  C   UNL A   1      39.447  32.801  34.825  1.00  0.00     0.074 A 
ATOM     65  C   UNL A   1      38.381  33.759  34.637  1.00  0.00     0.031 C 
ATOM     66  C   UNL A   1      40.260  32.761  35.910  1.00  0.00     0.037 A 
BRANCH  53  67
ATOM     67  C   UNL A   1      44.319  28.117  35.696  1.00  0.00     0.058 A 
ATOM     68  C   UNL A   1      45.672  28.444  35.503  1.00  0.00     0.135 A 
ATOM     69  C   UNL A   1      44.018  27.091  36.605  1.00  0.00     0.135 A 
ATOM     70  F   UNL A   1      46.018  29.415  34.643  1.00  0.00    -0.206 F 
ATOM     71  C   UNL A   1      46.688  27.745  36.144  1.00  0.00     0.059 A 
ATOM     72  C   UNL A   1      45.018  26.401  37.286  1.00  0.00     0.059 A 
ATOM     73  F   UNL A   1      42.742  26.747  36.841  1.00  0.00    -0.206 F 
ATOM     74  C   UNL A   1      46.351  26.722  37.031  1.00  0.00     0.060 A 
BRANCH  74  75
ATOM     75  S   UNL A   1      47.685  25.813  37.838  1.00  0.00     0.124 S 
ATOM     76  O   UNL A   1      48.128  24.934  36.760  1.00  0.00    -0.237 OA
ATOM     77  O   UNL A   1      48.610  26.879  38.207  1.00  0.00    -0.237 OA
ATOM     78  O   UNL A   1      47.018  25.150  38.954  1.00  0.00    -0.744 OA
ENDBRANCH  74  75
ENDBRANCH  53  67
BRANCH  54  79
ATOM     79  C   UNL A   1      36.946  32.605  30.863  1.00  0.00     0.058 A 
ATOM     80  C   UNL A   1      37.180  33.549  29.849  1.00  0.00     0.135 A 
ATOM     81  C   UNL A   1      35.614  32.348  31.217  1.00  0.00     0.135 A 
ATOM     82  F   UNL A   1      38.438  33.841  29.484  1.00  0.00    -0.206 F 
ATOM     83  C   UNL A   1      36.138  34.233  29.231  1.00  0.00     0.059 A 
ATOM     84  C   UNL A   1      34.553  33.002  30.595  1.00  0.00     0.059 A 
ATOM     85  F   UNL A   1      35.334  31.447  32.172  1.00  0.00    -0.206 F 
ATOM     86  C   UNL A   1      34.826  33.953  29.612  1.00  0.00     0.060 A 
BRANCH  86  87
ATOM     87  S   UNL A   1      33.480  34.826  28.782  1.00  0.00     0.124 S 
ATOM     88  O   UNL A   1      34.149  36.045  28.339  1.00  0.00    -0.237 OA
ATOM     89  O   UNL A   1      33.107  33.884  27.732  1.00  0.00    -0.237 OA
ATOM     90  O   UNL A   1      32.490  34.999  29.841  1.00  0.00    -0.744 OA
ENDBRANCH  86  87
ENDBRANCH  54  79
BRANCH  66  91
ATOM     91  C   UNL A   1      40.082  33.811  36.975  1.00  0.00     0.058 A 
ATOM     92  C   UNL A   1      40.738  35.051  36.917  1.00  0.00     0.135 A 
ATOM     93  C   UNL A   1      39.187  33.600  38.037  1.00  0.00     0.135 A 
ATOM     94  F   UNL A   1      41.610  35.308  35.929  1.00  0.00    -0.206 F 
ATOM     95  C   UNL A   1      40.527  36.035  37.880  1.00  0.00     0.059 A 
ATOM     96  C   UNL A   1      38.938  34.580  38.995  1.00  0.00     0.059 A 
ATOM     97  F   UNL A   1      38.524  32.437  38.142  1.00  0.00    -0.206 F 
ATOM     98  C   UNL A   1      39.619  35.792  38.913  1.00  0.00     0.060 A 
BRANCH  98  99
ATOM     99  S   UNL A   1      39.314  37.097  40.125  1.00  0.00     0.124 S 
ATOM    100  O   UNL A   1      38.584  38.076  39.328  1.00  0.00    -0.237 OA
ATOM    101  O   UNL A   1      38.534  36.401  41.144  1.00  0.00    -0.237 OA
ATOM    102  O   UNL A   1      40.656  37.499  40.537  1.00  0.00    -0.744 OA
ENDBRANCH  98  99
ENDBRANCH  66  91
ENDBRANCH  40  41
ENDBRANCH  32  35
ENDBRANCH  30  31
ENDBRANCH  29  30
ENDBRANCH  28  29
ENDBRANCH   1  28
TORSDOF 20
ENDMDL
