MODEL 1
REMARK VINA RESULT:      -8.8      0.000      0.000
REMARK SMILES C[C@@H](C(=O)NCCCCCCNC(=O)c1ccc(-c2c3nc(c(-c4c(F)cc(S(=O)(=O)[O-])cc4F)c4ccc([nH]4)c(-c4c(F)cc(S(=O)(=O)[O-])cc4F)c4nc(c(-c5c(F)cc(S(=O)(=O)[O-])cc5F)c5ccc2[nH]5)C=C4)C=C3)cc1)c1ccc(-c2cccc(OC(=O)NCCC3CCCCC3)c2)c(F)c1
REMARK SMILES IDX 6 1 5 2 3 3 4 4 2 6 1 7 81 8 82 9 105 10 83 11 103 12 84 13
REMARK SMILES IDX 104 14 85 15 86 16 102 17 87 18 89 19 88 20 90 21 91 22
REMARK SMILES IDX 92 23 93 24 94 26 95 27 96 28 97 29 101 30 98 31 100 32
REMARK SMILES IDX 99 33 7 34 8 35 9 36 10 37 11 38 12 39 13 40 14 42 15 43
REMARK SMILES IDX 16 44 80 45 17 46 79 47 18 48 19 49 20 50 73 51 21 52 78 53
REMARK SMILES IDX 72 54 74 55 22 56 77 57 71 58 70 59 23 61 57 62 36 63 56 64
REMARK SMILES IDX 37 65 40 66 55 67 75 68 38 69 39 70 54 72 76 73 41 74 24 75
REMARK SMILES IDX 25 76 34 77 26 78 27 79 33 80 35 81 28 82 29 83 30 84 31 85
REMARK SMILES IDX 32 86 58 87 59 88 68 89 60 90 61 91 67 92 69 93 62 94 63 95
REMARK SMILES IDX 64 96 65 97 66 98 42 99 43 100 52 101 44 102 45 103 51 104
REMARK SMILES IDX 53 105 46 106 47 107 48 108 49 109 50 110
REMARK H PARENT 5 5 93 25 12 41 74 60 40 71
REMARK Flexibility Score: inf
ROOT
ATOM      1  C   UNL A   1      39.457  26.920  28.192  1.00  0.00     0.116 C 
ENDROOT
BRANCH   1   2
ATOM      2  N   UNL A   1      39.380  27.160  29.618  1.00  0.00    -0.356 N 
ATOM      3  C   UNL A   1      39.686  28.293  30.315  1.00  0.00     0.227 C 
ATOM      4  O   UNL A   1      39.909  28.160  31.520  1.00  0.00    -0.274 OA
ATOM      5  H   UNL A   1      39.064  26.400  30.160  1.00  0.00     0.163 HD
BRANCH   3   6
ATOM      6  C   UNL A   1      39.693  29.652  29.586  1.00  0.00     0.105 C 
ATOM      7  C   UNL A   1      41.144  30.131  29.428  1.00  0.00     0.023 C 
BRANCH   6   8
ATOM      8  C   UNL A   1      38.795  30.703  30.251  1.00  0.00    -0.033 A 
ATOM      9  C   UNL A   1      39.250  32.006  30.514  1.00  0.00     0.005 A 
ATOM     10  C   UNL A   1      37.471  30.399  30.611  1.00  0.00     0.044 A 
ATOM     11  C   UNL A   1      38.462  32.925  31.212  1.00  0.00     0.012 A 
ATOM     12  C   UNL A   1      36.694  31.316  31.320  1.00  0.00     0.131 A 
ATOM     13  C   UNL A   1      37.182  32.581  31.661  1.00  0.00     0.018 A 
ATOM     14  F   UNL A   1      35.463  30.941  31.703  1.00  0.00    -0.206 F 
BRANCH  13  15
ATOM     15  C   UNL A   1      36.451  33.487  32.554  1.00  0.00    -0.012 A 
ATOM     16  C   UNL A   1      36.293  33.213  33.921  1.00  0.00     0.009 A 
ATOM     17  C   UNL A   1      35.808  34.616  32.015  1.00  0.00     0.056 A 
ATOM     18  C   UNL A   1      35.507  34.040  34.726  1.00  0.00     0.004 A 
ATOM     19  C   UNL A   1      34.999  35.421  32.811  1.00  0.00     0.133 A 
ATOM     20  C   UNL A   1      34.855  35.141  34.171  1.00  0.00     0.047 A 
BRANCH  19  21
ATOM     21  O   UNL A   1      34.271  36.538  32.332  1.00  0.00    -0.410 OA
BRANCH  21  22
ATOM     22  C   UNL A   1      32.892  36.562  32.141  1.00  0.00     0.412 C 
ATOM     23  O   UNL A   1      32.032  36.730  32.998  1.00  0.00    -0.224 OA
ATOM     24  N   UNL A   1      32.513  36.400  30.840  1.00  0.00    -0.321 N 
ATOM     25  H   UNL A   1      31.544  36.421  30.667  1.00  0.00     0.167 HD
BRANCH  24  26
ATOM     26  C   UNL A   1      33.360  36.204  29.686  1.00  0.00     0.119 C 
BRANCH  26  27
ATOM     27  C   UNL A   1      32.992  34.924  28.934  1.00  0.00     0.025 C 
BRANCH  27  28
ATOM     28  C   UNL A   1      34.061  33.812  29.000  1.00  0.00    -0.009 C 
ATOM     29  C   UNL A   1      33.567  32.498  28.369  1.00  0.00     0.003 C 
ATOM     30  C   UNL A   1      35.353  34.289  28.317  1.00  0.00     0.003 C 
ATOM     31  C   UNL A   1      34.654  31.424  28.350  1.00  0.00     0.000 C 
ATOM     32  C   UNL A   1      36.430  33.207  28.322  1.00  0.00     0.000 C 
ATOM     33  C   UNL A   1      35.929  31.920  27.677  1.00  0.00     0.000 C 
ENDBRANCH  27  28
ENDBRANCH  26  27
ENDBRANCH  24  26
ENDBRANCH  21  22
ENDBRANCH  19  21
ENDBRANCH  13  15
ENDBRANCH   6   8
ENDBRANCH   3   6
ENDBRANCH   1   2
BRANCH   1  34
ATOM     34  C   UNL A   1      40.735  26.137  27.869  1.00  0.00     0.021 C 
BRANCH  34  35
ATOM     35  C   UNL A   1      40.571  24.615  27.980  1.00  0.00     0.002 C 
BRANCH  35  36
ATOM     36  C   UNL A   1      39.401  24.042  27.177  1.00  0.00     0.002 C 
BRANCH  36  37
ATOM     37  C   UNL A   1      39.649  22.644  26.611  1.00  0.00     0.021 C 
BRANCH  37  38
ATOM     38  C   UNL A   1      41.064  22.130  26.838  1.00  0.00     0.116 C 
BRANCH  38  39
ATOM     39  N   UNL A   1      41.810  22.034  25.592  1.00  0.00    -0.352 N 
ATOM     40  C   UNL A   1      42.900  22.769  25.196  1.00  0.00     0.251 C 
ATOM     41  H   UNL A   1      41.491  21.358  24.952  1.00  0.00     0.163 HD
ATOM     42  O   UNL A   1      43.291  22.735  24.035  1.00  0.00    -0.269 OA
BRANCH  40  43
ATOM     43  C   UNL A   1      43.581  23.616  26.195  1.00  0.00     0.039 A 
ATOM     44  C   UNL A   1      44.174  23.024  27.313  1.00  0.00     0.014 A 
ATOM     45  C   UNL A   1      43.669  24.995  25.989  1.00  0.00     0.014 A 
ATOM     46  C   UNL A   1      44.910  23.814  28.198  1.00  0.00     0.010 A 
ATOM     47  C   UNL A   1      44.468  25.762  26.824  1.00  0.00     0.010 A 
ATOM     48  C   UNL A   1      45.088  25.183  27.943  1.00  0.00    -0.014 A 
BRANCH  48  49
ATOM     49  C   UNL A   1      45.887  26.057  28.838  1.00  0.00     0.031 A 
ATOM     50  C   UNL A   1      45.183  26.862  29.895  1.00  0.00     0.074 A 
ATOM     51  C   UNL A   1      47.208  26.215  28.630  1.00  0.00     0.049 A 
ATOM     52  N   UNL A   1      45.649  27.816  30.657  1.00  0.00    -0.248 NA
ATOM     53  C   UNL A   1      43.751  26.582  30.087  1.00  0.00     0.031 C 
ATOM     54  C   UNL A   1      47.996  25.513  27.615  1.00  0.00     0.029 A 
ATOM     55  N   UNL A   1      48.116  27.042  29.243  1.00  0.00    -0.354 N 
ATOM     56  C   UNL A   1      44.562  28.270  31.395  1.00  0.00     0.074 A 
ATOM     57  C   UNL A   1      43.406  27.525  30.948  1.00  0.00     0.031 C 
ATOM     58  C   UNL A   1      49.268  25.939  27.676  1.00  0.00     0.029 A 
ATOM     59  C   UNL A   1      49.376  26.979  28.696  1.00  0.00     0.049 A 
ATOM     60  H   UNL A   1      47.887  27.625  30.003  1.00  0.00     0.167 HD
ATOM     61  C   UNL A   1      44.535  29.212  32.369  1.00  0.00     0.037 A 
ATOM     62  C   UNL A   1      50.485  27.695  28.966  1.00  0.00     0.037 A 
ATOM     63  C   UNL A   1      45.698  29.932  32.815  1.00  0.00     0.049 A 
ATOM     64  C   UNL A   1      50.439  28.743  30.045  1.00  0.00     0.074 A 
ATOM     65  C   UNL A   1      45.794  30.864  33.831  1.00  0.00     0.029 A 
ATOM     66  N   UNL A   1      46.967  29.806  32.265  1.00  0.00    -0.354 N 
ATOM     67  N   UNL A   1      49.418  29.128  30.773  1.00  0.00    -0.248 NA
ATOM     68  C   UNL A   1      51.692  29.449  30.347  1.00  0.00     0.031 C 
ATOM     69  C   UNL A   1      47.107  31.345  33.858  1.00  0.00     0.029 A 
ATOM     70  C   UNL A   1      47.847  30.661  32.905  1.00  0.00     0.049 A 
ATOM     71  H   UNL A   1      47.205  29.198  31.527  1.00  0.00     0.167 HD
ATOM     72  C   UNL A   1      49.911  30.093  31.644  1.00  0.00     0.074 A 
ATOM     73  C   UNL A   1      51.321  30.240  31.347  1.00  0.00     0.031 C 
ATOM     74  C   UNL A   1      49.256  30.783  32.610  1.00  0.00     0.037 A 
BRANCH  61  75
ATOM     75  C   UNL A   1      43.201  29.525  32.991  1.00  0.00     0.058 A 
ATOM     76  C   UNL A   1      42.448  30.650  32.612  1.00  0.00     0.135 A 
ATOM     77  C   UNL A   1      42.673  28.696  33.994  1.00  0.00     0.135 A 
ATOM     78  F   UNL A   1      42.909  31.485  31.666  1.00  0.00    -0.206 F 
ATOM     79  C   UNL A   1      41.254  30.974  33.246  1.00  0.00     0.059 A 
ATOM     80  C   UNL A   1      41.459  28.980  34.615  1.00  0.00     0.059 A 
ATOM     81  F   UNL A   1      43.343  27.604  34.393  1.00  0.00    -0.206 F 
ATOM     82  C   UNL A   1      40.772  30.137  34.253  1.00  0.00     0.060 A 
BRANCH  82  83
ATOM     83  S   UNL A   1      39.244  30.594  35.098  1.00  0.00     0.124 S 
ATOM     84  O   UNL A   1      38.239  30.034  34.199  1.00  0.00    -0.237 OA
ATOM     85  O   UNL A   1      39.385  29.922  36.386  1.00  0.00    -0.237 OA
ATOM     86  O   UNL A   1      39.302  32.051  35.144  1.00  0.00    -0.744 OA
ENDBRANCH  82  83
ENDBRANCH  61  75
BRANCH  62  87
ATOM     87  C   UNL A   1      51.732  27.421  28.202  1.00  0.00     0.058 A 
ATOM     88  C   UNL A   1      52.682  26.503  28.674  1.00  0.00     0.135 A 
ATOM     89  C   UNL A   1      51.964  28.017  26.953  1.00  0.00     0.135 A 
ATOM     90  F   UNL A   1      52.510  25.914  29.867  1.00  0.00    -0.206 F 
ATOM     91  C   UNL A   1      53.814  26.180  27.933  1.00  0.00     0.059 A 
ATOM     92  C   UNL A   1      53.076  27.692  26.181  1.00  0.00     0.059 A 
ATOM     93  F   UNL A   1      51.077  28.891  26.449  1.00  0.00    -0.206 F 
ATOM     94  C   UNL A   1      53.995  26.770  26.680  1.00  0.00     0.060 A 
BRANCH  94  95
ATOM     95  S   UNL A   1      55.416  26.268  25.686  1.00  0.00     0.124 S 
ATOM     96  O   UNL A   1      55.587  27.422  24.810  1.00  0.00    -0.237 OA
ATOM     97  O   UNL A   1      56.446  26.079  26.703  1.00  0.00    -0.237 OA
ATOM     98  O   UNL A   1      54.957  25.044  25.035  1.00  0.00    -0.744 OA
ENDBRANCH  94  95
ENDBRANCH  62  87
BRANCH  74  99
ATOM     99  C   UNL A   1      50.052  31.723  33.473  1.00  0.00     0.058 A 
ATOM    100  C   UNL A   1      50.201  33.081  33.155  1.00  0.00     0.135 A 
ATOM    101  C   UNL A   1      50.572  31.275  34.699  1.00  0.00     0.135 A 
ATOM    102  F   UNL A   1      49.732  33.560  31.992  1.00  0.00    -0.206 F 
ATOM    103  C   UNL A   1      50.836  33.964  34.025  1.00  0.00     0.059 A 
ATOM    104  C   UNL A   1      51.185  32.144  35.595  1.00  0.00     0.059 A 
ATOM    105  F   UNL A   1      50.449  29.986  35.054  1.00  0.00    -0.206 F 
ATOM    106  C   UNL A   1      51.313  33.488  35.249  1.00  0.00     0.060 A 
BRANCH 106 107
ATOM    107  S   UNL A   1      52.056  34.660  36.404  1.00  0.00     0.124 S 
ATOM    108  O   UNL A   1      53.096  35.267  35.580  1.00  0.00    -0.237 OA
ATOM    109  O   UNL A   1      50.928  35.523  36.739  1.00  0.00    -0.237 OA
ATOM    110  O   UNL A   1      52.533  33.811  37.492  1.00  0.00    -0.744 OA
ENDBRANCH 106 107
ENDBRANCH  74  99
ENDBRANCH  48  49
ENDBRANCH  40  43
ENDBRANCH  38  39
ENDBRANCH  37  38
ENDBRANCH  36  37
ENDBRANCH  35  36
ENDBRANCH  34  35
ENDBRANCH   1  34
TORSDOF 23
ENDMDL
MODEL 2
REMARK VINA RESULT:      -8.3      4.386      6.581
REMARK SMILES C[C@@H](C(=O)NCCCCCCNC(=O)c1ccc(-c2c3nc(c(-c4c(F)cc(S(=O)(=O)[O-])cc4F)c4ccc([nH]4)c(-c4c(F)cc(S(=O)(=O)[O-])cc4F)c4nc(c(-c5c(F)cc(S(=O)(=O)[O-])cc5F)c5ccc2[nH]5)C=C4)C=C3)cc1)c1ccc(-c2cccc(OC(=O)NCCC3CCCCC3)c2)c(F)c1
REMARK SMILES IDX 6 1 5 2 3 3 4 4 2 6 1 7 81 8 82 9 105 10 83 11 103 12 84 13
REMARK SMILES IDX 104 14 85 15 86 16 102 17 87 18 89 19 88 20 90 21 91 22
REMARK SMILES IDX 92 23 93 24 94 26 95 27 96 28 97 29 101 30 98 31 100 32
REMARK SMILES IDX 99 33 7 34 8 35 9 36 10 37 11 38 12 39 13 40 14 42 15 43
REMARK SMILES IDX 16 44 80 45 17 46 79 47 18 48 19 49 20 50 73 51 21 52 78 53
REMARK SMILES IDX 72 54 74 55 22 56 77 57 71 58 70 59 23 61 57 62 36 63 56 64
REMARK SMILES IDX 37 65 40 66 55 67 75 68 38 69 39 70 54 72 76 73 41 74 24 75
REMARK SMILES IDX 25 76 34 77 26 78 27 79 33 80 35 81 28 82 29 83 30 84 31 85
REMARK SMILES IDX 32 86 58 87 59 88 68 89 60 90 61 91 67 92 69 93 62 94 63 95
REMARK SMILES IDX 64 96 65 97 66 98 42 99 43 100 52 101 44 102 45 103 51 104
REMARK SMILES IDX 53 105 46 106 47 107 48 108 49 109 50 110
REMARK H PARENT 5 5 93 25 12 41 74 60 40 71
REMARK Flexibility Score: inf
ROOT
ATOM      1  C   UNL A   1      43.278  30.620  28.457  1.00  0.00     0.116 C 
ENDROOT
BRANCH   1   2
ATOM      2  N   UNL A   1      43.323  30.799  29.893  1.00  0.00    -0.356 N 
ATOM      3  C   UNL A   1      43.193  31.948  30.619  1.00  0.00     0.227 C 
ATOM      4  O   UNL A   1      43.634  31.930  31.769  1.00  0.00    -0.274 OA
ATOM      5  H   UNL A   1      43.467  29.978  30.419  1.00  0.00     0.163 HD
BRANCH   3   6
ATOM      6  C   UNL A   1      42.480  33.164  29.992  1.00  0.00     0.105 C 
ATOM      7  C   UNL A   1      43.479  34.323  29.865  1.00  0.00     0.023 C 
BRANCH   6   8
ATOM      8  C   UNL A   1      41.200  33.568  30.737  1.00  0.00    -0.033 A 
ATOM      9  C   UNL A   1      41.239  34.333  31.913  1.00  0.00     0.005 A 
ATOM     10  C   UNL A   1      39.935  33.192  30.254  1.00  0.00     0.044 A 
ATOM     11  C   UNL A   1      40.078  34.610  32.640  1.00  0.00     0.012 A 
ATOM     12  C   UNL A   1      38.781  33.459  30.992  1.00  0.00     0.131 A 
ATOM     13  C   UNL A   1      38.831  34.143  32.210  1.00  0.00     0.018 A 
ATOM     14  F   UNL A   1      37.608  33.009  30.517  1.00  0.00    -0.206 F 
BRANCH  13  15
ATOM     15  C   UNL A   1      37.659  34.277  33.082  1.00  0.00    -0.012 A 
ATOM     16  C   UNL A   1      37.622  33.712  34.365  1.00  0.00     0.009 A 
ATOM     17  C   UNL A   1      36.502  34.906  32.589  1.00  0.00     0.056 A 
ATOM     18  C   UNL A   1      36.457  33.767  35.134  1.00  0.00     0.004 A 
ATOM     19  C   UNL A   1      35.332  34.932  33.342  1.00  0.00     0.133 A 
ATOM     20  C   UNL A   1      35.309  34.372  34.621  1.00  0.00     0.047 A 
BRANCH  19  21
ATOM     21  O   UNL A   1      34.110  35.492  32.894  1.00  0.00    -0.410 OA
BRANCH  21  22
ATOM     22  C   UNL A   1      33.934  36.826  32.538  1.00  0.00     0.412 C 
ATOM     23  O   UNL A   1      34.254  37.813  33.193  1.00  0.00    -0.224 OA
ATOM     24  N   UNL A   1      33.364  36.999  31.311  1.00  0.00    -0.321 N 
ATOM     25  H   UNL A   1      33.233  37.931  31.023  1.00  0.00     0.167 HD
BRANCH  24  26
ATOM     26  C   UNL A   1      32.929  35.981  30.383  1.00  0.00     0.119 C 
BRANCH  26  27
ATOM     27  C   UNL A   1      33.916  35.820  29.226  1.00  0.00     0.025 C 
BRANCH  27  28
ATOM     28  C   UNL A   1      34.750  34.520  29.270  1.00  0.00    -0.009 C 
ATOM     29  C   UNL A   1      34.114  33.457  30.182  1.00  0.00     0.003 C 
ATOM     30  C   UNL A   1      34.935  33.972  27.846  1.00  0.00     0.003 C 
ATOM     31  C   UNL A   1      34.888  32.139  30.155  1.00  0.00     0.000 C 
ATOM     32  C   UNL A   1      35.723  32.664  27.839  1.00  0.00     0.000 C 
ATOM     33  C   UNL A   1      35.069  31.617  28.734  1.00  0.00     0.000 C 
ENDBRANCH  27  28
ENDBRANCH  26  27
ENDBRANCH  24  26
ENDBRANCH  21  22
ENDBRANCH  19  21
ENDBRANCH  13  15
ENDBRANCH   6   8
ENDBRANCH   3   6
ENDBRANCH   1   2
BRANCH   1  34
ATOM     34  C   UNL A   1      42.190  29.601  28.098  1.00  0.00     0.021 C 
BRANCH  34  35
ATOM     35  C   UNL A   1      41.002  29.599  29.069  1.00  0.00     0.002 C 
BRANCH  35  36
ATOM     36  C   UNL A   1      39.705  29.033  28.485  1.00  0.00     0.002 C 
BRANCH  36  37
ATOM     37  C   UNL A   1      38.439  29.752  28.949  1.00  0.00     0.021 C 
BRANCH  37  38
ATOM     38  C   UNL A   1      37.699  29.033  30.070  1.00  0.00     0.116 C 
BRANCH  38  39
ATOM     39  N   UNL A   1      37.248  29.958  31.099  1.00  0.00    -0.352 N 
ATOM     40  C   UNL A   1      37.762  30.143  32.359  1.00  0.00     0.251 C 
ATOM     41  H   UNL A   1      36.478  30.523  30.861  1.00  0.00     0.163 HD
ATOM     42  O   UNL A   1      37.150  30.797  33.196  1.00  0.00    -0.269 OA
BRANCH  40  43
ATOM     43  C   UNL A   1      39.059  29.521  32.690  1.00  0.00     0.039 A 
ATOM     44  C   UNL A   1      39.140  28.136  32.848  1.00  0.00     0.014 A 
ATOM     45  C   UNL A   1      40.202  30.319  32.794  1.00  0.00     0.014 A 
ATOM     46  C   UNL A   1      40.386  27.540  33.054  1.00  0.00     0.010 A 
ATOM     47  C   UNL A   1      41.447  29.717  32.916  1.00  0.00     0.010 A 
ATOM     48  C   UNL A   1      41.552  28.323  33.058  1.00  0.00    -0.014 A 
BRANCH  48  49
ATOM     49  C   UNL A   1      42.901  27.733  33.243  1.00  0.00     0.031 A 
ATOM     50  C   UNL A   1      43.490  27.669  34.624  1.00  0.00     0.074 A 
ATOM     51  C   UNL A   1      43.634  27.367  32.173  1.00  0.00     0.049 A 
ATOM     52  N   UNL A   1      44.707  27.368  34.993  1.00  0.00    -0.248 NA
ATOM     53  C   UNL A   1      42.597  28.037  35.735  1.00  0.00     0.031 C 
ATOM     54  C   UNL A   1      43.182  27.413  30.782  1.00  0.00     0.029 A 
ATOM     55  N   UNL A   1      44.926  26.913  32.090  1.00  0.00    -0.354 N 
ATOM     56  C   UNL A   1      44.734  27.539  36.372  1.00  0.00     0.074 A 
ATOM     57  C   UNL A   1      43.429  28.023  36.764  1.00  0.00     0.031 C 
ATOM     58  C   UNL A   1      44.181  27.004  29.983  1.00  0.00     0.029 A 
ATOM     59  C   UNL A   1      45.358  26.716  30.799  1.00  0.00     0.049 A 
ATOM     60  H   UNL A   1      45.490  26.744  32.878  1.00  0.00     0.167 HD
ATOM     61  C   UNL A   1      45.750  27.297  37.235  1.00  0.00     0.037 A 
ATOM     62  C   UNL A   1      46.571  26.369  30.325  1.00  0.00     0.037 A 
ATOM     63  C   UNL A   1      47.038  26.798  36.831  1.00  0.00     0.049 A 
ATOM     64  C   UNL A   1      47.693  26.111  31.294  1.00  0.00     0.074 A 
ATOM     65  C   UNL A   1      48.118  26.465  37.626  1.00  0.00     0.029 A 
ATOM     66  N   UNL A   1      47.422  26.568  35.517  1.00  0.00    -0.354 N 
ATOM     67  N   UNL A   1      47.692  26.226  32.601  1.00  0.00    -0.248 NA
ATOM     68  C   UNL A   1      48.976  25.671  30.730  1.00  0.00     0.031 C 
ATOM     69  C   UNL A   1      49.174  26.089  36.791  1.00  0.00     0.029 A 
ATOM     70  C   UNL A   1      48.731  26.120  35.477  1.00  0.00     0.049 A 
ATOM     71  H   UNL A   1      46.847  26.705  34.728  1.00  0.00     0.167 HD
ATOM     72  C   UNL A   1      48.960  25.837  33.020  1.00  0.00     0.074 A 
ATOM     73  C   UNL A   1      49.704  25.491  31.826  1.00  0.00     0.031 C 
ATOM     74  C   UNL A   1      49.454  25.761  34.280  1.00  0.00     0.037 A 
BRANCH  61  75
ATOM     75  C   UNL A   1      45.509  27.597  38.690  1.00  0.00     0.058 A 
ATOM     76  C   UNL A   1      45.753  28.867  39.240  1.00  0.00     0.135 A 
ATOM     77  C   UNL A   1      45.039  26.593  39.553  1.00  0.00     0.135 A 
ATOM     78  F   UNL A   1      46.214  29.862  38.465  1.00  0.00    -0.206 F 
ATOM     79  C   UNL A   1      45.601  29.113  40.600  1.00  0.00     0.059 A 
ATOM     80  C   UNL A   1      44.842  26.829  40.911  1.00  0.00     0.059 A 
ATOM     81  F   UNL A   1      44.782  25.363  39.083  1.00  0.00    -0.206 F 
ATOM     82  C   UNL A   1      45.153  28.084  41.429  1.00  0.00     0.060 A 
BRANCH  82  83
ATOM     83  S   UNL A   1      45.002  28.406  43.199  1.00  0.00     0.124 S 
ATOM     84  O   UNL A   1      46.185  27.725  43.717  1.00  0.00    -0.237 OA
ATOM     85  O   UNL A   1      45.037  29.864  43.255  1.00  0.00    -0.237 OA
ATOM     86  O   UNL A   1      43.723  27.797  43.548  1.00  0.00    -0.744 OA
ENDBRANCH  82  83
ENDBRANCH  61  75
BRANCH  62  87
ATOM     87  C   UNL A   1      46.766  26.234  28.856  1.00  0.00     0.058 A 
ATOM     88  C   UNL A   1      47.301  27.285  28.098  1.00  0.00     0.135 A 
ATOM     89  C   UNL A   1      46.490  25.026  28.196  1.00  0.00     0.135 A 
ATOM     90  F   UNL A   1      47.573  28.462  28.682  1.00  0.00    -0.206 F 
ATOM     91  C   UNL A   1      47.561  27.145  26.739  1.00  0.00     0.059 A 
ATOM     92  C   UNL A   1      46.764  24.853  26.842  1.00  0.00     0.059 A 
ATOM     93  F   UNL A   1      45.992  23.983  28.879  1.00  0.00    -0.206 F 
ATOM     94  C   UNL A   1      47.301  25.920  26.122  1.00  0.00     0.060 A 
BRANCH  94  95
ATOM     95  S   UNL A   1      47.735  25.719  24.381  1.00  0.00     0.124 S 
ATOM     96  O   UNL A   1      47.019  26.833  23.768  1.00  0.00    -0.237 OA
ATOM     97  O   UNL A   1      49.190  25.834  24.415  1.00  0.00    -0.237 OA
ATOM     98  O   UNL A   1      47.226  24.388  24.058  1.00  0.00    -0.744 OA
ENDBRANCH  94  95
ENDBRANCH  62  87
BRANCH  74  99
ATOM     99  C   UNL A   1      50.849  25.228  34.463  1.00  0.00     0.058 A 
ATOM    100  C   UNL A   1      51.117  23.855  34.554  1.00  0.00     0.135 A 
ATOM    101  C   UNL A   1      51.943  26.109  34.428  1.00  0.00     0.135 A 
ATOM    102  F   UNL A   1      50.108  22.970  34.601  1.00  0.00    -0.206 F 
ATOM    103  C   UNL A   1      52.422  23.372  34.600  1.00  0.00     0.059 A 
ATOM    104  C   UNL A   1      53.255  25.648  34.445  1.00  0.00     0.059 A 
ATOM    105  F   UNL A   1      51.741  27.434  34.335  1.00  0.00    -0.206 F 
ATOM    106  C   UNL A   1      53.485  24.277  34.531  1.00  0.00     0.060 A 
BRANCH 106 107
ATOM    107  S   UNL A   1      55.171  23.632  34.504  1.00  0.00     0.124 S 
ATOM    108  O   UNL A   1      55.467  23.520  35.928  1.00  0.00    -0.237 OA
ATOM    109  O   UNL A   1      55.009  22.371  33.789  1.00  0.00    -0.237 OA
ATOM    110  O   UNL A   1      55.918  24.661  33.787  1.00  0.00    -0.744 OA
ENDBRANCH 106 107
ENDBRANCH  74  99
ENDBRANCH  48  49
ENDBRANCH  40  43
ENDBRANCH  38  39
ENDBRANCH  37  38
ENDBRANCH  36  37
ENDBRANCH  35  36
ENDBRANCH  34  35
ENDBRANCH   1  34
TORSDOF 23
ENDMDL
MODEL 3
REMARK VINA RESULT:      -8.2      5.329      9.091
REMARK SMILES C[C@@H](C(=O)NCCCCCCNC(=O)c1ccc(-c2c3nc(c(-c4c(F)cc(S(=O)(=O)[O-])cc4F)c4ccc([nH]4)c(-c4c(F)cc(S(=O)(=O)[O-])cc4F)c4nc(c(-c5c(F)cc(S(=O)(=O)[O-])cc5F)c5ccc2[nH]5)C=C4)C=C3)cc1)c1ccc(-c2cccc(OC(=O)NCCC3CCCCC3)c2)c(F)c1
REMARK SMILES IDX 6 1 5 2 3 3 4 4 2 6 1 7 81 8 82 9 105 10 83 11 103 12 84 13
REMARK SMILES IDX 104 14 85 15 86 16 102 17 87 18 89 19 88 20 90 21 91 22
REMARK SMILES IDX 92 23 93 24 94 26 95 27 96 28 97 29 101 30 98 31 100 32
REMARK SMILES IDX 99 33 7 34 8 35 9 36 10 37 11 38 12 39 13 40 14 42 15 43
REMARK SMILES IDX 16 44 80 45 17 46 79 47 18 48 19 49 20 50 73 51 21 52 78 53
REMARK SMILES IDX 72 54 74 55 22 56 77 57 71 58 70 59 23 61 57 62 36 63 56 64
REMARK SMILES IDX 37 65 40 66 55 67 75 68 38 69 39 70 54 72 76 73 41 74 24 75
REMARK SMILES IDX 25 76 34 77 26 78 27 79 33 80 35 81 28 82 29 83 30 84 31 85
REMARK SMILES IDX 32 86 58 87 59 88 68 89 60 90 61 91 67 92 69 93 62 94 63 95
REMARK SMILES IDX 64 96 65 97 66 98 42 99 43 100 52 101 44 102 45 103 51 104
REMARK SMILES IDX 53 105 46 106 47 107 48 108 49 109 50 110
REMARK H PARENT 5 5 93 25 12 41 74 60 40 71
REMARK Flexibility Score: inf
ROOT
ATOM      1  C   UNL A   1      41.535  26.639  28.069  1.00  0.00     0.116 C 
ENDROOT
BRANCH   1   2
ATOM      2  N   UNL A   1      42.202  26.251  26.843  1.00  0.00    -0.356 N 
ATOM      3  C   UNL A   1      42.725  25.039  26.497  1.00  0.00     0.227 C 
ATOM      4  O   UNL A   1      43.562  25.033  25.593  1.00  0.00    -0.274 OA
ATOM      5  H   UNL A   1      42.291  26.962  26.166  1.00  0.00     0.163 HD
BRANCH   3   6
ATOM      6  C   UNL A   1      42.221  23.766  27.207  1.00  0.00     0.105 C 
ATOM      7  C   UNL A   1      43.238  22.635  26.997  1.00  0.00     0.023 C 
BRANCH   6   8
ATOM      8  C   UNL A   1      40.799  23.363  26.795  1.00  0.00    -0.033 A 
ATOM      9  C   UNL A   1      40.517  22.102  26.245  1.00  0.00     0.005 A 
ATOM     10  C   UNL A   1      39.719  24.246  26.968  1.00  0.00     0.044 A 
ATOM     11  C   UNL A   1      39.240  21.781  25.778  1.00  0.00     0.012 A 
ATOM     12  C   UNL A   1      38.449  23.925  26.487  1.00  0.00     0.131 A 
ATOM     13  C   UNL A   1      38.191  22.704  25.857  1.00  0.00     0.018 A 
ATOM     14  F   UNL A   1      37.474  24.840  26.614  1.00  0.00    -0.206 F 
BRANCH  13  15
ATOM     15  C   UNL A   1      36.915  22.421  25.190  1.00  0.00    -0.012 A 
ATOM     16  C   UNL A   1      36.608  22.946  23.926  1.00  0.00     0.009 A 
ATOM     17  C   UNL A   1      35.931  21.682  25.870  1.00  0.00     0.056 A 
ATOM     18  C   UNL A   1      35.347  22.746  23.359  1.00  0.00     0.004 A 
ATOM     19  C   UNL A   1      34.664  21.510  25.319  1.00  0.00     0.133 A 
ATOM     20  C   UNL A   1      34.372  22.032  24.058  1.00  0.00     0.047 A 
BRANCH  19  21
ATOM     21  O   UNL A   1      33.601  20.832  25.965  1.00  0.00    -0.410 OA
BRANCH  21  22
ATOM     22  C   UNL A   1      32.364  20.567  25.385  1.00  0.00     0.412 C 
ATOM     23  O   UNL A   1      32.087  19.643  24.627  1.00  0.00    -0.224 OA
ATOM     24  N   UNL A   1      31.384  21.442  25.752  1.00  0.00    -0.321 N 
ATOM     25  H   UNL A   1      30.492  21.278  25.368  1.00  0.00     0.167 HD
BRANCH  24  26
ATOM     26  C   UNL A   1      31.494  22.579  26.636  1.00  0.00     0.119 C 
BRANCH  26  27
ATOM     27  C   UNL A   1      30.779  23.804  26.064  1.00  0.00     0.025 C 
BRANCH  27  28
ATOM     28  C   UNL A   1      31.715  24.969  25.673  1.00  0.00    -0.009 C 
ATOM     29  C   UNL A   1      33.165  24.722  26.125  1.00  0.00     0.003 C 
ATOM     30  C   UNL A   1      31.653  25.200  24.154  1.00  0.00     0.003 C 
ATOM     31  C   UNL A   1      34.110  25.829  25.658  1.00  0.00     0.000 C 
ATOM     32  C   UNL A   1      32.592  26.319  23.711  1.00  0.00     0.000 C 
ATOM     33  C   UNL A   1      34.026  26.049  24.152  1.00  0.00     0.000 C 
ENDBRANCH  27  28
ENDBRANCH  26  27
ENDBRANCH  24  26
ENDBRANCH  21  22
ENDBRANCH  19  21
ENDBRANCH  13  15
ENDBRANCH   6   8
ENDBRANCH   3   6
ENDBRANCH   1   2
BRANCH   1  34
ATOM     34  C   UNL A   1      40.887  28.016  27.889  1.00  0.00     0.021 C 
BRANCH  34  35
ATOM     35  C   UNL A   1      39.845  28.354  28.965  1.00  0.00     0.002 C 
BRANCH  35  36
ATOM     36  C   UNL A   1      39.502  29.842  29.072  1.00  0.00     0.002 C 
BRANCH  36  37
ATOM     37  C   UNL A   1      38.019  30.132  29.299  1.00  0.00     0.021 C 
BRANCH  37  38
ATOM     38  C   UNL A   1      37.425  29.402  30.497  1.00  0.00     0.116 C 
BRANCH  38  39
ATOM     39  N   UNL A   1      37.237  30.293  31.632  1.00  0.00    -0.352 N 
ATOM     40  C   UNL A   1      38.032  30.433  32.744  1.00  0.00     0.251 C 
ATOM     41  H   UNL A   1      36.439  30.869  31.598  1.00  0.00     0.163 HD
ATOM     42  O   UNL A   1      37.639  31.060  33.721  1.00  0.00    -0.269 OA
BRANCH  40  43
ATOM     43  C   UNL A   1      39.363  29.794  32.744  1.00  0.00     0.039 A 
ATOM     44  C   UNL A   1      40.509  30.590  32.697  1.00  0.00     0.014 A 
ATOM     45  C   UNL A   1      39.463  28.404  32.843  1.00  0.00     0.014 A 
ATOM     46  C   UNL A   1      41.766  29.990  32.807  1.00  0.00     0.010 A 
ATOM     47  C   UNL A   1      40.707  27.820  33.035  1.00  0.00     0.010 A 
ATOM     48  C   UNL A   1      41.872  28.605  33.009  1.00  0.00    -0.014 A 
BRANCH  48  49
ATOM     49  C   UNL A   1      43.183  27.925  33.163  1.00  0.00     0.031 A 
ATOM     50  C   UNL A   1      43.773  27.776  34.537  1.00  0.00     0.074 A 
ATOM     51  C   UNL A   1      43.886  27.552  32.076  1.00  0.00     0.049 A 
ATOM     52  N   UNL A   1      44.971  27.387  34.886  1.00  0.00    -0.248 NA
ATOM     53  C   UNL A   1      42.911  28.159  35.666  1.00  0.00     0.031 C 
ATOM     54  C   UNL A   1      43.431  27.676  30.690  1.00  0.00     0.029 A 
ATOM     55  N   UNL A   1      45.147  27.021  31.968  1.00  0.00    -0.354 N 
ATOM     56  C   UNL A   1      45.016  27.507  36.271  1.00  0.00     0.074 A 
ATOM     57  C   UNL A   1      43.745  28.058  36.689  1.00  0.00     0.031 C 
ATOM     58  C   UNL A   1      44.399  27.233  29.871  1.00  0.00     0.029 A 
ATOM     59  C   UNL A   1      45.559  26.843  30.668  1.00  0.00     0.049 A 
ATOM     60  H   UNL A   1      45.703  26.790  32.746  1.00  0.00     0.167 HD
ATOM     61  C   UNL A   1      46.019  27.173  37.117  1.00  0.00     0.037 A 
ATOM     62  C   UNL A   1      46.746  26.439  30.174  1.00  0.00     0.037 A 
ATOM     63  C   UNL A   1      47.271  26.608  36.687  1.00  0.00     0.049 A 
ATOM     64  C   UNL A   1      47.854  26.077  31.125  1.00  0.00     0.074 A 
ATOM     65  C   UNL A   1      48.332  26.180  37.463  1.00  0.00     0.029 A 
ATOM     66  N   UNL A   1      47.633  26.402  35.363  1.00  0.00    -0.354 N 
ATOM     67  N   UNL A   1      47.867  26.146  32.435  1.00  0.00    -0.248 NA
ATOM     68  C   UNL A   1      49.105  25.578  30.537  1.00  0.00     0.031 C 
ATOM     69  C   UNL A   1      49.358  25.770  36.607  1.00  0.00     0.029 A 
ATOM     70  C   UNL A   1      48.911  25.874  35.298  1.00  0.00     0.049 A 
ATOM     71  H   UNL A   1      47.064  26.602  34.584  1.00  0.00     0.167 HD
ATOM     72  C   UNL A   1      49.110  25.664  32.831  1.00  0.00     0.074 A 
ATOM     73  C   UNL A   1      49.825  25.314  31.621  1.00  0.00     0.031 C 
ATOM     74  C   UNL A   1      49.605  25.513  34.084  1.00  0.00     0.037 A 
BRANCH  61  75
ATOM     75  C   UNL A   1      45.803  27.436  38.584  1.00  0.00     0.058 A 
ATOM     76  C   UNL A   1      45.220  26.481  39.434  1.00  0.00     0.135 A 
ATOM     77  C   UNL A   1      46.173  28.669  39.145  1.00  0.00     0.135 A 
ATOM     78  F   UNL A   1      44.836  25.289  38.950  1.00  0.00    -0.206 F 
ATOM     79  C   UNL A   1      44.954  26.762  40.770  1.00  0.00     0.059 A 
ATOM     80  C   UNL A   1      45.952  28.956  40.489  1.00  0.00     0.059 A 
ATOM     81  F   UNL A   1      46.740  29.617  38.383  1.00  0.00    -0.206 F 
ATOM     82  C   UNL A   1      45.316  28.006  41.286  1.00  0.00     0.060 A 
BRANCH  82  83
ATOM     83  S   UNL A   1      44.925  28.373  43.009  1.00  0.00     0.124 S 
ATOM     84  O   UNL A   1      46.168  27.995  43.674  1.00  0.00    -0.237 OA
ATOM     85  O   UNL A   1      44.641  29.804  42.968  1.00  0.00    -0.237 OA
ATOM     86  O   UNL A   1      43.778  27.516  43.288  1.00  0.00    -0.744 OA
ENDBRANCH  82  83
ENDBRANCH  61  75
BRANCH  62  87
ATOM     87  C   UNL A   1      46.925  26.343  28.700  1.00  0.00     0.058 A 
ATOM     88  C   UNL A   1      47.514  27.388  27.974  1.00  0.00     0.135 A 
ATOM     89  C   UNL A   1      46.577  25.177  28.000  1.00  0.00     0.135 A 
ATOM     90  F   UNL A   1      47.856  28.527  28.596  1.00  0.00    -0.206 F 
ATOM     91  C   UNL A   1      47.759  27.280  26.608  1.00  0.00     0.059 A 
ATOM     92  C   UNL A   1      46.833  25.034  26.639  1.00  0.00     0.059 A 
ATOM     93  F   UNL A   1      46.025  24.141  28.652  1.00  0.00    -0.206 F 
ATOM     94  C   UNL A   1      47.426  26.093  25.953  1.00  0.00     0.060 A 
BRANCH  94  95
ATOM     95  S   UNL A   1      47.838  25.929  24.202  1.00  0.00     0.124 S 
ATOM     96  O   UNL A   1      49.295  26.001  24.232  1.00  0.00    -0.237 OA
ATOM     97  O   UNL A   1      47.268  24.625  23.877  1.00  0.00    -0.237 OA
ATOM     98  O   UNL A   1      47.163  27.070  23.589  1.00  0.00    -0.744 OA
ENDBRANCH  94  95
ENDBRANCH  62  87
BRANCH  74  99
ATOM     99  C   UNL A   1      50.964  24.888  34.239  1.00  0.00     0.058 A 
ATOM    100  C   UNL A   1      52.113  25.654  34.486  1.00  0.00     0.135 A 
ATOM    101  C   UNL A   1      51.092  23.490  34.255  1.00  0.00     0.135 A 
ATOM    102  F   UNL A   1      52.048  26.995  34.473  1.00  0.00    -0.206 F 
ATOM    103  C   UNL A   1      53.342  25.054  34.749  1.00  0.00     0.059 A 
ATOM    104  C   UNL A   1      52.304  22.868  34.542  1.00  0.00     0.059 A 
ATOM    105  F   UNL A   1      50.022  22.710  34.030  1.00  0.00    -0.206 F 
ATOM    106  C   UNL A   1      53.424  23.660  34.787  1.00  0.00     0.060 A 
BRANCH 106 107
ATOM    107  S   UNL A   1      55.003  22.897  35.214  1.00  0.00     0.124 S 
ATOM    108  O   UNL A   1      55.538  22.569  33.897  1.00  0.00    -0.237 OA
ATOM    109  O   UNL A   1      55.685  23.972  35.925  1.00  0.00    -0.237 OA
ATOM    110  O   UNL A   1      54.618  21.754  36.037  1.00  0.00    -0.744 OA
ENDBRANCH 106 107
ENDBRANCH  74  99
ENDBRANCH  48  49
ENDBRANCH  40  43
ENDBRANCH  38  39
ENDBRANCH  37  38
ENDBRANCH  36  37
ENDBRANCH  35  36
ENDBRANCH  34  35
ENDBRANCH   1  34
TORSDOF 23
ENDMDL
