MODEL 1
REMARK VINA RESULT:     -12.0      0.000      0.000
REMARK SMILES COc1ccc2c(c1)C=C(C(=O)NCCCCCCNC(=O)c1ccc(-c3c4nc(c(-c5c(F)cc(S(=O)(=O)[O-])cc5F)c5ccc([nH]5)c(-c5c(F)cc(S(=O)(=O)[O-])cc5F)c5nc(c(-c6c(F)cc(S(=O)(=O)[O-])cc6F)c6ccc3[nH]6)C=C5)C=C4)cc1)[C@H](C(F)(F)F)O2
REMARK SMILES IDX 17 1 16 2 15 3 14 4 13 5 11 6 12 7 10 9 3 10 4 11 8 12 5 13
REMARK SMILES IDX 7 14 6 15 9 16 94 17 89 18 2 19 1 20 90 21 91 22 92 23 93 24
REMARK SMILES IDX 18 25 19 26 20 27 21 28 22 30 23 31 24 32 88 33 25 34 87 35
REMARK SMILES IDX 26 36 27 37 28 38 81 39 29 40 86 41 80 42 82 43 30 44 85 45
REMARK SMILES IDX 79 46 78 47 31 49 65 50 44 51 64 52 45 53 48 54 63 55 83 56
REMARK SMILES IDX 46 57 47 58 62 60 84 61 49 62 32 63 33 64 42 65 34 66 35 67
REMARK SMILES IDX 41 68 43 69 36 70 37 71 38 72 39 73 40 74 66 75 67 76 76 77
REMARK SMILES IDX 68 78 69 79 75 80 77 81 70 82 71 83 72 84 73 85 74 86 50 87
REMARK SMILES IDX 51 88 60 89 52 90 53 91 59 92 61 93 54 94 55 95 56 96 57 97
REMARK SMILES IDX 58 98
REMARK H PARENT 13 8 20 29 82 48 48 59
REMARK Flexibility Score: inf
ROOT
ATOM      1  C   UNL A   1      38.319  22.024  25.816  1.00  0.00     0.002 C 
ENDROOT
BRANCH   1   2
ATOM      2  C   UNL A   1      37.644  23.400  25.804  1.00  0.00     0.002 C 
BRANCH   2   3
ATOM      3  C   UNL A   1      36.646  23.617  24.657  1.00  0.00     0.021 C 
BRANCH   3   4
ATOM      4  C   UNL A   1      35.376  24.357  25.094  1.00  0.00     0.116 C 
BRANCH   4   5
ATOM      5  N   UNL A   1      34.894  23.791  26.345  1.00  0.00    -0.352 N 
ATOM      6  C   UNL A   1      34.064  22.755  26.628  1.00  0.00     0.251 C 
ATOM      7  O   UNL A   1      33.658  22.637  27.783  1.00  0.00    -0.270 OA
ATOM      8  H   UNL A   1      35.239  24.251  27.145  1.00  0.00     0.163 HD
BRANCH   6   9
ATOM      9  C   UNL A   1      33.704  21.715  25.630  1.00  0.00     0.067 C 
ATOM     10  C   UNL A   1      33.881  17.287  23.722  1.00  0.00     0.119 A 
ATOM     11  C   UNL A   1      32.785  17.580  22.914  1.00  0.00     0.050 A 
ATOM     12  C   UNL A   1      34.398  18.253  24.585  1.00  0.00     0.058 A 
ATOM     13  C   UNL A   1      32.217  18.854  22.957  1.00  0.00     0.051 A 
ATOM     14  C   UNL A   1      33.834  19.532  24.624  1.00  0.00     0.021 A 
ATOM     15  C   UNL A   1      32.741  19.825  23.812  1.00  0.00     0.128 A 
ATOM     16  C   UNL A   1      34.312  20.522  25.576  1.00  0.00     0.025 C 
ATOM     17  O   UNL A   1      32.079  21.015  23.854  1.00  0.00    -0.475 OA
ATOM     18  C   UNL A   1      32.704  22.131  24.553  1.00  0.00     0.314 C 
BRANCH  10  19
ATOM     19  O   UNL A   1      34.423  16.035  23.797  1.00  0.00    -0.497 OA
ATOM     20  C   UNL A   1      34.872  15.721  25.112  1.00  0.00     0.278 C 
ENDBRANCH  10  19
BRANCH  18  21
ATOM     21  C   UNL A   1      31.568  23.083  24.991  1.00  0.00     0.429 C 
ATOM     22  F   UNL A   1      31.998  24.345  25.219  1.00  0.00    -0.167 F 
ATOM     23  F   UNL A   1      30.628  23.200  24.012  1.00  0.00    -0.167 F 
ATOM     24  F   UNL A   1      30.922  22.649  26.097  1.00  0.00    -0.167 F 
ENDBRANCH  18  21
ENDBRANCH   6   9
ENDBRANCH   4   5
ENDBRANCH   3   4
ENDBRANCH   2   3
ENDBRANCH   1   2
BRANCH   1  25
ATOM     25  C   UNL A   1      39.665  21.968  26.544  1.00  0.00     0.021 C 
BRANCH  25  26
ATOM     26  C   UNL A   1      40.153  23.314  27.075  1.00  0.00     0.116 C 
BRANCH  26  27
ATOM     27  N   UNL A   1      41.016  23.985  26.118  1.00  0.00    -0.352 N 
ATOM     28  C   UNL A   1      41.398  25.302  26.064  1.00  0.00     0.251 C 
ATOM     29  H   UNL A   1      41.379  23.413  25.404  1.00  0.00     0.163 HD
ATOM     30  O   UNL A   1      41.932  25.738  25.049  1.00  0.00    -0.269 OA
BRANCH  28  31
ATOM     31  C   UNL A   1      41.165  26.194  27.222  1.00  0.00     0.039 A 
ATOM     32  C   UNL A   1      42.024  27.276  27.422  1.00  0.00     0.014 A 
ATOM     33  C   UNL A   1      40.134  25.939  28.134  1.00  0.00     0.014 A 
ATOM     34  C   UNL A   1      41.833  28.119  28.520  1.00  0.00     0.010 A 
ATOM     35  C   UNL A   1      39.902  26.820  29.187  1.00  0.00     0.010 A 
ATOM     36  C   UNL A   1      40.763  27.906  29.404  1.00  0.00    -0.014 A 
BRANCH  36  37
ATOM     37  C   UNL A   1      40.558  28.795  30.576  1.00  0.00     0.031 A 
ATOM     38  C   UNL A   1      41.429  28.653  31.795  1.00  0.00     0.074 A 
ATOM     39  C   UNL A   1      39.573  29.713  30.552  1.00  0.00     0.049 A 
ATOM     40  N   UNL A   1      41.416  29.344  32.906  1.00  0.00    -0.248 NA
ATOM     41  C   UNL A   1      42.429  27.575  31.772  1.00  0.00     0.031 C 
ATOM     42  C   UNL A   1      38.634  29.915  29.448  1.00  0.00     0.029 A 
ATOM     43  N   UNL A   1      39.204  30.654  31.479  1.00  0.00    -0.354 N 
ATOM     44  C   UNL A   1      42.398  28.782  33.714  1.00  0.00     0.074 A 
ATOM     45  C   UNL A   1      42.941  27.653  32.991  1.00  0.00     0.031 C 
ATOM     46  C   UNL A   1      37.823  30.944  29.744  1.00  0.00     0.029 A 
ATOM     47  C   UNL A   1      38.169  31.456  31.067  1.00  0.00     0.049 A 
ATOM     48  H   UNL A   1      39.640  30.743  32.358  1.00  0.00     0.167 HD
ATOM     49  C   UNL A   1      42.829  29.186  34.934  1.00  0.00     0.037 A 
ATOM     50  C   UNL A   1      37.576  32.500  31.679  1.00  0.00     0.037 A 
ATOM     51  C   UNL A   1      42.293  30.319  35.643  1.00  0.00     0.049 A 
ATOM     52  C   UNL A   1      38.077  32.940  33.026  1.00  0.00     0.074 A 
ATOM     53  C   UNL A   1      42.680  30.835  36.868  1.00  0.00     0.029 A 
ATOM     54  N   UNL A   1      41.251  31.114  35.188  1.00  0.00    -0.354 N 
ATOM     55  N   UNL A   1      39.042  32.431  33.755  1.00  0.00    -0.248 NA
ATOM     56  C   UNL A   1      37.418  34.107  33.627  1.00  0.00     0.031 C 
ATOM     57  C   UNL A   1      41.849  31.922  37.168  1.00  0.00     0.029 A 
ATOM     58  C   UNL A   1      40.974  32.111  36.111  1.00  0.00     0.049 A 
ATOM     59  H   UNL A   1      40.777  30.989  34.334  1.00  0.00     0.167 HD
ATOM     60  C   UNL A   1      39.127  33.233  34.887  1.00  0.00     0.074 A 
ATOM     61  C   UNL A   1      38.119  34.266  34.741  1.00  0.00     0.031 C 
ATOM     62  C   UNL A   1      39.966  33.130  35.949  1.00  0.00     0.037 A 
BRANCH  49  63
ATOM     63  C   UNL A   1      43.934  28.384  35.569  1.00  0.00     0.058 A 
ATOM     64  C   UNL A   1      45.286  28.641  35.285  1.00  0.00     0.135 A 
ATOM     65  C   UNL A   1      43.642  27.330  36.449  1.00  0.00     0.135 A 
ATOM     66  F   UNL A   1      45.623  29.629  34.440  1.00  0.00    -0.206 F 
ATOM     67  C   UNL A   1      46.304  27.849  35.805  1.00  0.00     0.059 A 
ATOM     68  C   UNL A   1      44.647  26.542  37.005  1.00  0.00     0.059 A 
ATOM     69  F   UNL A   1      42.369  27.041  36.760  1.00  0.00    -0.206 F 
ATOM     70  C   UNL A   1      45.973  26.793  36.655  1.00  0.00     0.060 A 
BRANCH  70  71
ATOM     71  S   UNL A   1      47.297  25.740  37.285  1.00  0.00     0.124 S 
ATOM     72  O   UNL A   1      48.475  26.556  37.002  1.00  0.00    -0.237 OA
ATOM     73  O   UNL A   1      46.947  25.602  38.696  1.00  0.00    -0.237 OA
ATOM     74  O   UNL A   1      47.171  24.524  36.490  1.00  0.00    -0.744 OA
ENDBRANCH  70  71
ENDBRANCH  49  63
BRANCH  50  75
ATOM     75  C   UNL A   1      36.494  33.242  30.982  1.00  0.00     0.058 A 
ATOM     76  C   UNL A   1      36.785  34.069  29.887  1.00  0.00     0.135 A 
ATOM     77  C   UNL A   1      35.150  33.108  31.365  1.00  0.00     0.135 A 
ATOM     78  F   UNL A   1      38.055  34.231  29.489  1.00  0.00    -0.206 F 
ATOM     79  C   UNL A   1      35.783  34.743  29.198  1.00  0.00     0.059 A 
ATOM     80  C   UNL A   1      34.129  33.755  30.676  1.00  0.00     0.059 A 
ATOM     81  F   UNL A   1      34.821  32.315  32.395  1.00  0.00    -0.206 F 
ATOM     82  C   UNL A   1      34.456  34.575  29.596  1.00  0.00     0.060 A 
BRANCH  82  83
ATOM     83  S   UNL A   1      33.157  35.394  28.646  1.00  0.00     0.124 S 
ATOM     84  O   UNL A   1      32.524  34.263  27.978  1.00  0.00    -0.237 OA
ATOM     85  O   UNL A   1      32.372  36.040  29.693  1.00  0.00    -0.237 OA
ATOM     86  O   UNL A   1      33.900  36.305  27.780  1.00  0.00    -0.744 OA
ENDBRANCH  82  83
ENDBRANCH  50  75
BRANCH  62  87
ATOM     87  C   UNL A   1      39.852  34.185  37.015  1.00  0.00     0.058 A 
ATOM     88  C   UNL A   1      40.481  35.433  36.891  1.00  0.00     0.135 A 
ATOM     89  C   UNL A   1      39.090  33.945  38.169  1.00  0.00     0.135 A 
ATOM     90  F   UNL A   1      41.225  35.711  35.808  1.00  0.00    -0.206 F 
ATOM     91  C   UNL A   1      40.392  36.393  37.894  1.00  0.00     0.059 A 
ATOM     92  C   UNL A   1      38.965  34.901  39.172  1.00  0.00     0.059 A 
ATOM     93  F   UNL A   1      38.457  32.772  38.331  1.00  0.00    -0.206 F 
ATOM     94  C   UNL A   1      39.636  36.115  39.034  1.00  0.00     0.060 A 
BRANCH  94  95
ATOM     95  S   UNL A   1      39.527  37.366  40.331  1.00  0.00     0.124 S 
ATOM     96  O   UNL A   1      40.935  37.593  40.640  1.00  0.00    -0.237 OA
ATOM     97  O   UNL A   1      38.842  38.463  39.653  1.00  0.00    -0.237 OA
ATOM     98  O   UNL A   1      38.752  36.703  41.376  1.00  0.00    -0.744 OA
ENDBRANCH  94  95
ENDBRANCH  62  87
ENDBRANCH  36  37
ENDBRANCH  28  31
ENDBRANCH  26  27
ENDBRANCH  25  26
ENDBRANCH   1  25
TORSDOF 18
ENDMDL
MODEL 2
REMARK VINA RESULT:     -12.0      6.548     11.893
REMARK SMILES COc1ccc2c(c1)C=C(C(=O)NCCCCCCNC(=O)c1ccc(-c3c4nc(c(-c5c(F)cc(S(=O)(=O)[O-])cc5F)c5ccc([nH]5)c(-c5c(F)cc(S(=O)(=O)[O-])cc5F)c5nc(c(-c6c(F)cc(S(=O)(=O)[O-])cc6F)c6ccc3[nH]6)C=C5)C=C4)cc1)[C@H](C(F)(F)F)O2
REMARK SMILES IDX 17 1 16 2 15 3 14 4 13 5 11 6 12 7 10 9 3 10 4 11 8 12 5 13
REMARK SMILES IDX 7 14 6 15 9 16 94 17 89 18 2 19 1 20 90 21 91 22 92 23 93 24
REMARK SMILES IDX 18 25 19 26 20 27 21 28 22 30 23 31 24 32 88 33 25 34 87 35
REMARK SMILES IDX 26 36 27 37 28 38 81 39 29 40 86 41 80 42 82 43 30 44 85 45
REMARK SMILES IDX 79 46 78 47 31 49 65 50 44 51 64 52 45 53 48 54 63 55 83 56
REMARK SMILES IDX 46 57 47 58 62 60 84 61 49 62 32 63 33 64 42 65 34 66 35 67
REMARK SMILES IDX 41 68 43 69 36 70 37 71 38 72 39 73 40 74 66 75 67 76 76 77
REMARK SMILES IDX 68 78 69 79 75 80 77 81 70 82 71 83 72 84 73 85 74 86 50 87
REMARK SMILES IDX 51 88 60 89 52 90 53 91 59 92 61 93 54 94 55 95 56 96 57 97
REMARK SMILES IDX 58 98
REMARK H PARENT 13 8 20 29 82 48 48 59
REMARK Flexibility Score: inf
ROOT
ATOM      1  C   UNL A   1      34.679  29.440  27.260  1.00  0.00     0.002 C 
ENDROOT
BRANCH   1   2
ATOM      2  C   UNL A   1      33.376  28.670  27.020  1.00  0.00     0.002 C 
BRANCH   2   3
ATOM      3  C   UNL A   1      32.585  29.116  25.781  1.00  0.00     0.021 C 
BRANCH   3   4
ATOM      4  C   UNL A   1      31.931  27.950  25.030  1.00  0.00     0.116 C 
BRANCH   4   5
ATOM      5  N   UNL A   1      31.462  26.961  25.988  1.00  0.00    -0.352 N 
ATOM      6  C   UNL A   1      31.693  25.630  26.126  1.00  0.00     0.251 C 
ATOM      7  O   UNL A   1      30.985  24.998  26.908  1.00  0.00    -0.270 OA
ATOM      8  H   UNL A   1      30.857  27.330  26.672  1.00  0.00     0.163 HD
BRANCH   6   9
ATOM      9  C   UNL A   1      32.816  24.933  25.447  1.00  0.00     0.067 C 
ATOM     10  C   UNL A   1      37.317  23.220  25.156  1.00  0.00     0.119 A 
ATOM     11  C   UNL A   1      36.973  22.479  24.027  1.00  0.00     0.050 A 
ATOM     12  C   UNL A   1      36.372  24.035  25.778  1.00  0.00     0.058 A 
ATOM     13  C   UNL A   1      35.680  22.571  23.510  1.00  0.00     0.051 A 
ATOM     14  C   UNL A   1      35.078  24.134  25.255  1.00  0.00     0.021 A 
ATOM     15  C   UNL A   1      34.737  23.396  24.125  1.00  0.00     0.128 A 
ATOM     16  C   UNL A   1      34.062  24.916  25.941  1.00  0.00     0.025 C 
ATOM     17  O   UNL A   1      33.477  23.365  23.606  1.00  0.00    -0.475 OA
ATOM     18  C   UNL A   1      32.517  24.362  24.063  1.00  0.00     0.314 C 
BRANCH  10  19
ATOM     19  O   UNL A   1      38.533  23.104  25.767  1.00  0.00    -0.497 OA
ATOM     20  C   UNL A   1      38.848  21.751  26.086  1.00  0.00     0.278 C 
ENDBRANCH  10  19
BRANCH  18  21
ATOM     21  C   UNL A   1      31.108  23.763  23.848  1.00  0.00     0.429 C 
ATOM     22  F   UNL A   1      31.043  22.943  22.774  1.00  0.00    -0.167 F 
ATOM     23  F   UNL A   1      30.743  22.989  24.908  1.00  0.00    -0.167 F 
ATOM     24  F   UNL A   1      30.153  24.711  23.715  1.00  0.00    -0.167 F 
ENDBRANCH  18  21
ENDBRANCH   6   9
ENDBRANCH   4   5
ENDBRANCH   3   4
ENDBRANCH   2   3
ENDBRANCH   1   2
BRANCH   1  25
ATOM     25  C   UNL A   1      34.500  30.896  27.699  1.00  0.00     0.021 C 
BRANCH  25  26
ATOM     26  C   UNL A   1      35.672  31.466  28.494  1.00  0.00     0.116 C 
BRANCH  26  27
ATOM     27  N   UNL A   1      35.594  31.102  29.898  1.00  0.00    -0.352 N 
ATOM     28  C   UNL A   1      36.429  30.305  30.639  1.00  0.00     0.251 C 
ATOM     29  H   UNL A   1      34.829  31.481  30.389  1.00  0.00     0.163 HD
ATOM     30  O   UNL A   1      36.072  29.914  31.746  1.00  0.00    -0.269 OA
BRANCH  28  31
ATOM     31  C   UNL A   1      37.754  29.916  30.107  1.00  0.00     0.039 A 
ATOM     32  C   UNL A   1      38.758  29.543  31.004  1.00  0.00     0.014 A 
ATOM     33  C   UNL A   1      38.023  29.962  28.734  1.00  0.00     0.014 A 
ATOM     34  C   UNL A   1      40.021  29.190  30.523  1.00  0.00     0.010 A 
ATOM     35  C   UNL A   1      39.260  29.543  28.252  1.00  0.00     0.010 A 
ATOM     36  C   UNL A   1      40.279  29.175  29.143  1.00  0.00    -0.014 A 
BRANCH  36  37
ATOM     37  C   UNL A   1      41.621  28.806  28.626  1.00  0.00     0.031 A 
ATOM     38  C   UNL A   1      42.714  29.838  28.553  1.00  0.00     0.074 A 
ATOM     39  C   UNL A   1      41.850  27.549  28.199  1.00  0.00     0.049 A 
ATOM     40  N   UNL A   1      43.952  29.706  28.149  1.00  0.00    -0.248 NA
ATOM     41  C   UNL A   1      42.362  31.206  28.964  1.00  0.00     0.031 C 
ATOM     42  C   UNL A   1      40.859  26.473  28.176  1.00  0.00     0.029 A 
ATOM     43  N   UNL A   1      42.990  26.963  27.713  1.00  0.00    -0.354 N 
ATOM     44  C   UNL A   1      44.522  30.970  28.252  1.00  0.00     0.074 A 
ATOM     45  C   UNL A   1      43.477  31.868  28.693  1.00  0.00     0.031 C 
ATOM     46  C   UNL A   1      41.445  25.346  27.738  1.00  0.00     0.029 A 
ATOM     47  C   UNL A   1      42.843  25.627  27.428  1.00  0.00     0.049 A 
ATOM     48  H   UNL A   1      43.833  27.454  27.578  1.00  0.00     0.167 HD
ATOM     49  C   UNL A   1      45.805  31.345  28.028  1.00  0.00     0.037 A 
ATOM     50  C   UNL A   1      43.741  24.726  26.983  1.00  0.00     0.037 A 
ATOM     51  C   UNL A   1      46.844  30.444  27.601  1.00  0.00     0.049 A 
ATOM     52  C   UNL A   1      45.161  25.159  26.752  1.00  0.00     0.074 A 
ATOM     53  C   UNL A   1      48.184  30.713  27.378  1.00  0.00     0.029 A 
ATOM     54  N   UNL A   1      46.659  29.096  27.333  1.00  0.00    -0.354 N 
ATOM     55  N   UNL A   1      45.698  26.346  26.904  1.00  0.00    -0.248 NA
ATOM     56  C   UNL A   1      46.103  24.125  26.304  1.00  0.00     0.031 C 
ATOM     57  C   UNL A   1      48.801  29.533  26.943  1.00  0.00     0.029 A 
ATOM     58  C   UNL A   1      47.856  28.520  26.937  1.00  0.00     0.049 A 
ATOM     59  H   UNL A   1      45.803  28.617  27.412  1.00  0.00     0.167 HD
ATOM     60  C   UNL A   1      47.046  26.197  26.599  1.00  0.00     0.074 A 
ATOM     61  C   UNL A   1      47.243  24.800  26.263  1.00  0.00     0.031 C 
ATOM     62  C   UNL A   1      48.033  27.127  26.605  1.00  0.00     0.037 A 
BRANCH  49  63
ATOM     63  C   UNL A   1      46.140  32.798  28.241  1.00  0.00     0.058 A 
ATOM     64  C   UNL A   1      46.030  33.738  27.203  1.00  0.00     0.135 A 
ATOM     65  C   UNL A   1      46.598  33.253  29.488  1.00  0.00     0.135 A 
ATOM     66  F   UNL A   1      45.610  33.356  25.986  1.00  0.00    -0.206 F 
ATOM     67  C   UNL A   1      46.417  35.063  27.376  1.00  0.00     0.059 A 
ATOM     68  C   UNL A   1      46.962  34.582  29.692  1.00  0.00     0.059 A 
ATOM     69  F   UNL A   1      46.718  32.401  30.518  1.00  0.00    -0.206 F 
ATOM     70  C   UNL A   1      46.893  35.473  28.622  1.00  0.00     0.060 A 
BRANCH  70  71
ATOM     71  S   UNL A   1      47.438  37.182  28.822  1.00  0.00     0.124 S 
ATOM     72  O   UNL A   1      47.858  37.190  30.221  1.00  0.00    -0.237 OA
ATOM     73  O   UNL A   1      48.513  37.288  27.838  1.00  0.00    -0.237 OA
ATOM     74  O   UNL A   1      46.240  37.957  28.522  1.00  0.00    -0.744 OA
ENDBRANCH  70  71
ENDBRANCH  49  63
BRANCH  50  75
ATOM     75  C   UNL A   1      43.330  23.309  26.802  1.00  0.00     0.058 A 
ATOM     76  C   UNL A   1      43.179  22.768  25.518  1.00  0.00     0.135 A 
ATOM     77  C   UNL A   1      43.123  22.460  27.900  1.00  0.00     0.135 A 
ATOM     78  F   UNL A   1      43.361  23.543  24.438  1.00  0.00    -0.206 F 
ATOM     79  C   UNL A   1      42.831  21.436  25.325  1.00  0.00     0.059 A 
ATOM     80  C   UNL A   1      42.797  21.118  27.733  1.00  0.00     0.059 A 
ATOM     81  F   UNL A   1      43.273  22.928  29.149  1.00  0.00    -0.206 F 
ATOM     82  C   UNL A   1      42.648  20.616  26.440  1.00  0.00     0.060 A 
BRANCH  82  83
ATOM     83  S   UNL A   1      42.272  18.869  26.177  1.00  0.00     0.124 S 
ATOM     84  O   UNL A   1      42.495  18.317  27.508  1.00  0.00    -0.237 OA
ATOM     85  O   UNL A   1      40.884  18.918  25.728  1.00  0.00    -0.237 OA
ATOM     86  O   UNL A   1      43.237  18.469  25.157  1.00  0.00    -0.744 OA
ENDBRANCH  82  83
ENDBRANCH  50  75
BRANCH  62  87
ATOM     87  C   UNL A   1      49.421  26.653  26.271  1.00  0.00     0.058 A 
ATOM     88  C   UNL A   1      49.979  26.836  24.996  1.00  0.00     0.135 A 
ATOM     89  C   UNL A   1      50.207  26.020  27.247  1.00  0.00     0.135 A 
ATOM     90  F   UNL A   1      49.267  27.431  24.026  1.00  0.00    -0.206 F 
ATOM     91  C   UNL A   1      51.253  26.370  24.688  1.00  0.00     0.059 A 
ATOM     92  C   UNL A   1      51.493  25.570  26.969  1.00  0.00     0.059 A 
ATOM     93  F   UNL A   1      49.726  25.832  28.486  1.00  0.00    -0.206 F 
ATOM     94  C   UNL A   1      52.001  25.733  25.680  1.00  0.00     0.060 A 
BRANCH  94  95
ATOM     95  S   UNL A   1      53.653  25.132  25.272  1.00  0.00     0.124 S 
ATOM     96  O   UNL A   1      53.790  25.567  23.886  1.00  0.00    -0.237 OA
ATOM     97  O   UNL A   1      54.491  25.831  26.241  1.00  0.00    -0.237 OA
ATOM     98  O   UNL A   1      53.547  23.690  25.471  1.00  0.00    -0.744 OA
ENDBRANCH  94  95
ENDBRANCH  62  87
ENDBRANCH  36  37
ENDBRANCH  28  31
ENDBRANCH  26  27
ENDBRANCH  25  26
ENDBRANCH   1  25
TORSDOF 18
ENDMDL
MODEL 3
REMARK VINA RESULT:     -11.9      5.972     10.686
REMARK SMILES COc1ccc2c(c1)C=C(C(=O)NCCCCCCNC(=O)c1ccc(-c3c4nc(c(-c5c(F)cc(S(=O)(=O)[O-])cc5F)c5ccc([nH]5)c(-c5c(F)cc(S(=O)(=O)[O-])cc5F)c5nc(c(-c6c(F)cc(S(=O)(=O)[O-])cc6F)c6ccc3[nH]6)C=C5)C=C4)cc1)[C@H](C(F)(F)F)O2
REMARK SMILES IDX 17 1 16 2 15 3 14 4 13 5 11 6 12 7 10 9 3 10 4 11 8 12 5 13
REMARK SMILES IDX 7 14 6 15 9 16 94 17 89 18 2 19 1 20 90 21 91 22 92 23 93 24
REMARK SMILES IDX 18 25 19 26 20 27 21 28 22 30 23 31 24 32 88 33 25 34 87 35
REMARK SMILES IDX 26 36 27 37 28 38 81 39 29 40 86 41 80 42 82 43 30 44 85 45
REMARK SMILES IDX 79 46 78 47 31 49 65 50 44 51 64 52 45 53 48 54 63 55 83 56
REMARK SMILES IDX 46 57 47 58 62 60 84 61 49 62 32 63 33 64 42 65 34 66 35 67
REMARK SMILES IDX 41 68 43 69 36 70 37 71 38 72 39 73 40 74 66 75 67 76 76 77
REMARK SMILES IDX 68 78 69 79 75 80 77 81 70 82 71 83 72 84 73 85 74 86 50 87
REMARK SMILES IDX 51 88 60 89 52 90 53 91 59 92 61 93 54 94 55 95 56 96 57 97
REMARK SMILES IDX 58 98
REMARK H PARENT 13 8 20 29 82 48 48 59
REMARK Flexibility Score: inf
ROOT
ATOM      1  C   UNL A   1      37.014  20.539  24.952  1.00  0.00     0.002 C 
ENDROOT
BRANCH   1   2
ATOM      2  C   UNL A   1      37.038  22.028  24.588  1.00  0.00     0.002 C 
BRANCH   2   3
ATOM      3  C   UNL A   1      36.758  22.981  25.760  1.00  0.00     0.021 C 
BRANCH   3   4
ATOM      4  C   UNL A   1      35.546  23.889  25.523  1.00  0.00     0.116 C 
BRANCH   4   5
ATOM      5  N   UNL A   1      34.511  23.578  26.497  1.00  0.00    -0.352 N 
ATOM      6  C   UNL A   1      33.423  22.766  26.458  1.00  0.00     0.251 C 
ATOM      7  O   UNL A   1      32.595  22.865  27.362  1.00  0.00    -0.270 OA
ATOM      8  H   UNL A   1      34.622  24.049  27.354  1.00  0.00     0.163 HD
BRANCH   6   9
ATOM      9  C   UNL A   1      33.243  21.710  25.429  1.00  0.00     0.067 C 
ATOM     10  C   UNL A   1      33.591  17.211  23.723  1.00  0.00     0.119 A 
ATOM     11  C   UNL A   1      32.731  17.530  22.674  1.00  0.00     0.050 A 
ATOM     12  C   UNL A   1      33.951  18.179  24.659  1.00  0.00     0.058 A 
ATOM     13  C   UNL A   1      32.247  18.833  22.553  1.00  0.00     0.051 A 
ATOM     14  C   UNL A   1      33.472  19.487  24.534  1.00  0.00     0.021 A 
ATOM     15  C   UNL A   1      32.616  19.807  23.482  1.00  0.00     0.128 A 
ATOM     16  C   UNL A   1      33.775  20.485  25.547  1.00  0.00     0.025 C 
ATOM     17  O   UNL A   1      32.035  21.031  23.340  1.00  0.00    -0.475 OA
ATOM     18  C   UNL A   1      32.547  22.137  24.139  1.00  0.00     0.314 C 
BRANCH  10  19
ATOM     19  O   UNL A   1      34.024  15.935  23.952  1.00  0.00    -0.497 OA
ATOM     20  C   UNL A   1      34.712  15.816  25.194  1.00  0.00     0.278 C 
ENDBRANCH  10  19
BRANCH  18  21
ATOM     21  C   UNL A   1      31.399  23.164  24.277  1.00  0.00     0.429 C 
ATOM     22  F   UNL A   1      30.539  22.860  25.275  1.00  0.00    -0.167 F 
ATOM     23  F   UNL A   1      31.886  24.397  24.591  1.00  0.00    -0.167 F 
ATOM     24  F   UNL A   1      30.689  23.308  23.134  1.00  0.00    -0.167 F 
ENDBRANCH  18  21
ENDBRANCH   6   9
ENDBRANCH   4   5
ENDBRANCH   3   4
ENDBRANCH   2   3
ENDBRANCH   1   2
BRANCH   1  25
ATOM     25  C   UNL A   1      38.370  19.832  24.878  1.00  0.00     0.021 C 
BRANCH  25  26
ATOM     26  C   UNL A   1      39.323  20.170  26.021  1.00  0.00     0.116 C 
BRANCH  26  27
ATOM     27  N   UNL A   1      40.411  19.212  26.114  1.00  0.00    -0.352 N 
ATOM     28  C   UNL A   1      41.764  19.431  26.146  1.00  0.00     0.251 C 
ATOM     29  H   UNL A   1      40.137  18.267  26.158  1.00  0.00     0.163 HD
ATOM     30  O   UNL A   1      42.536  18.491  25.980  1.00  0.00    -0.269 OA
BRANCH  28  31
ATOM     31  C   UNL A   1      42.294  20.794  26.377  1.00  0.00     0.039 A 
ATOM     32  C   UNL A   1      42.634  21.580  25.274  1.00  0.00     0.014 A 
ATOM     33  C   UNL A   1      42.500  21.278  27.674  1.00  0.00     0.014 A 
ATOM     34  C   UNL A   1      43.153  22.862  25.471  1.00  0.00     0.010 A 
ATOM     35  C   UNL A   1      42.951  22.581  27.867  1.00  0.00     0.010 A 
ATOM     36  C   UNL A   1      43.304  23.379  26.768  1.00  0.00    -0.014 A 
BRANCH  36  37
ATOM     37  C   UNL A   1      43.861  24.738  26.984  1.00  0.00     0.031 A 
ATOM     38  C   UNL A   1      42.974  25.848  27.482  1.00  0.00     0.074 A 
ATOM     39  C   UNL A   1      45.157  24.980  26.711  1.00  0.00     0.049 A 
ATOM     40  N   UNL A   1      43.277  27.093  27.747  1.00  0.00    -0.248 NA
ATOM     41  C   UNL A   1      41.554  25.523  27.681  1.00  0.00     0.031 C 
ATOM     42  C   UNL A   1      46.105  23.998  26.181  1.00  0.00     0.029 A 
ATOM     43  N   UNL A   1      45.903  26.122  26.849  1.00  0.00    -0.354 N 
ATOM     44  C   UNL A   1      42.089  27.699  28.139  1.00  0.00     0.074 A 
ATOM     45  C   UNL A   1      41.048  26.701  28.012  1.00  0.00     0.031 C 
ATOM     46  C   UNL A   1      47.315  24.570  26.077  1.00  0.00     0.029 A 
ATOM     47  C   UNL A   1      47.224  25.960  26.510  1.00  0.00     0.049 A 
ATOM     48  H   UNL A   1      45.526  26.977  27.161  1.00  0.00     0.167 HD
ATOM     49  C   UNL A   1      41.885  28.961  28.590  1.00  0.00     0.037 A 
ATOM     50  C   UNL A   1      48.251  26.832  26.560  1.00  0.00     0.037 A 
ATOM     51  C   UNL A   1      42.927  29.945  28.725  1.00  0.00     0.049 A 
ATOM     52  C   UNL A   1      48.006  28.222  27.074  1.00  0.00     0.074 A 
ATOM     53  C   UNL A   1      42.836  31.240  29.204  1.00  0.00     0.029 A 
ATOM     54  N   UNL A   1      44.255  29.741  28.381  1.00  0.00    -0.354 N 
ATOM     55  N   UNL A   1      46.887  28.765  27.490  1.00  0.00    -0.248 NA
ATOM     56  C   UNL A   1      49.170  29.116  27.141  1.00  0.00     0.031 C 
ATOM     57  C   UNL A   1      44.104  31.830  29.118  1.00  0.00     0.029 A 
ATOM     58  C   UNL A   1      44.993  30.888  28.627  1.00  0.00     0.049 A 
ATOM     59  H   UNL A   1      44.622  28.903  28.015  1.00  0.00     0.167 HD
ATOM     60  C   UNL A   1      47.215  30.053  27.897  1.00  0.00     0.074 A 
ATOM     61  C   UNL A   1      48.642  30.204  27.683  1.00  0.00     0.031 C 
ATOM     62  C   UNL A   1      46.413  31.021  28.407  1.00  0.00     0.037 A 
BRANCH  49  63
ATOM     63  C   UNL A   1      40.474  29.334  28.962  1.00  0.00     0.058 A 
ATOM     64  C   UNL A   1      39.491  29.563  27.985  1.00  0.00     0.135 A 
ATOM     65  C   UNL A   1      40.105  29.489  30.308  1.00  0.00     0.135 A 
ATOM     66  F   UNL A   1      39.793  29.442  26.682  1.00  0.00    -0.206 F 
ATOM     67  C   UNL A   1      38.211  29.987  28.324  1.00  0.00     0.059 A 
ATOM     68  C   UNL A   1      38.820  29.884  30.672  1.00  0.00     0.059 A 
ATOM     69  F   UNL A   1      41.001  29.279  31.285  1.00  0.00    -0.206 F 
ATOM     70  C   UNL A   1      37.888  30.157  29.671  1.00  0.00     0.060 A 
BRANCH  70  71
ATOM     71  S   UNL A   1      36.240  30.755  30.098  1.00  0.00     0.124 S 
ATOM     72  O   UNL A   1      35.475  30.363  28.917  1.00  0.00    -0.237 OA
ATOM     73  O   UNL A   1      35.941  30.013  31.320  1.00  0.00    -0.237 OA
ATOM     74  O   UNL A   1      36.434  32.190  30.272  1.00  0.00    -0.744 OA
ENDBRANCH  70  71
ENDBRANCH  49  63
BRANCH  50  75
ATOM     75  C   UNL A   1      49.614  26.382  26.178  1.00  0.00     0.058 A 
ATOM     76  C   UNL A   1      50.132  26.671  24.907  1.00  0.00     0.135 A 
ATOM     77  C   UNL A   1      50.440  25.697  27.082  1.00  0.00     0.135 A 
ATOM     78  F   UNL A   1      49.377  27.320  24.007  1.00  0.00    -0.206 F 
ATOM     79  C   UNL A   1      51.418  26.291  24.541  1.00  0.00     0.059 A 
ATOM     80  C   UNL A   1      51.739  25.327  26.747  1.00  0.00     0.059 A 
ATOM     81  F   UNL A   1      49.995  25.413  28.316  1.00  0.00    -0.206 F 
ATOM     82  C   UNL A   1      52.217  25.624  25.471  1.00  0.00     0.060 A 
BRANCH  82  83
ATOM     83  S   UNL A   1      53.913  25.205  25.012  1.00  0.00     0.124 S 
ATOM     84  O   UNL A   1      54.661  25.711  26.157  1.00  0.00    -0.237 OA
ATOM     85  O   UNL A   1      53.845  23.753  24.883  1.00  0.00    -0.237 OA
ATOM     86  O   UNL A   1      54.108  25.928  23.759  1.00  0.00    -0.744 OA
ENDBRANCH  82  83
ENDBRANCH  50  75
BRANCH  62  87
ATOM     87  C   UNL A   1      47.070  32.315  28.803  1.00  0.00     0.058 A 
ATOM     88  C   UNL A   1      47.572  32.523  30.098  1.00  0.00     0.135 A 
ATOM     89  C   UNL A   1      47.211  33.353  27.868  1.00  0.00     0.135 A 
ATOM     90  F   UNL A   1      47.458  31.564  31.029  1.00  0.00    -0.206 F 
ATOM     91  C   UNL A   1      48.155  33.733  30.463  1.00  0.00     0.059 A 
ATOM     92  C   UNL A   1      47.814  34.560  28.205  1.00  0.00     0.059 A 
ATOM     93  F   UNL A   1      46.760  33.199  26.614  1.00  0.00    -0.206 F 
ATOM     94  C   UNL A   1      48.265  34.748  29.511  1.00  0.00     0.060 A 
BRANCH  94  95
ATOM     95  S   UNL A   1      49.022  36.314  29.994  1.00  0.00     0.124 S 
ATOM     96  O   UNL A   1      49.637  36.741  28.741  1.00  0.00    -0.237 OA
ATOM     97  O   UNL A   1      47.872  37.097  30.434  1.00  0.00    -0.237 OA
ATOM     98  O   UNL A   1      49.952  35.929  31.052  1.00  0.00    -0.744 OA
ENDBRANCH  94  95
ENDBRANCH  62  87
ENDBRANCH  36  37
ENDBRANCH  28  31
ENDBRANCH  26  27
ENDBRANCH  25  26
ENDBRANCH   1  25
TORSDOF 18
ENDMDL
