MODEL 1
REMARK VINA RESULT:     -11.5      0.000      0.000
REMARK SMILES Cc1cc(Br)cc2c1O[C@H](C(F)(F)F)C(C(=O)NCCCCCCNC(=O)c1ccc(-c3c4nc(c(-c5c(F)cc(S(=O)(=O)[O-])cc5F)c5ccc([nH]5)c(-c5c(F)cc(S(=O)(=O)[O-])cc5F)c5nc(c(-c6c(F)cc(S(=O)(=O)[O-])cc6F)c6ccc3[nH]6)C=C5)C=C4)cc1)=C2
REMARK SMILES IDX 22 1 21 2 20 3 19 4 18 5 16 6 17 7 15 9 1 10 2 11 3 12 8 13
REMARK SMILES IDX 4 14 7 15 9 16 5 17 6 18 94 19 10 20 11 21 12 22 13 23 14 24
REMARK SMILES IDX 23 25 24 26 25 27 26 28 27 30 28 31 29 32 93 33 30 34 92 35
REMARK SMILES IDX 31 36 32 37 33 38 86 39 34 40 91 41 85 42 87 43 35 44 90 45
REMARK SMILES IDX 84 46 83 47 36 49 70 50 49 51 69 52 50 53 53 54 68 55 88 56
REMARK SMILES IDX 51 57 52 58 67 60 89 61 54 62 37 63 38 64 47 65 39 66 40 67
REMARK SMILES IDX 46 68 48 69 41 70 42 71 43 72 44 73 45 74 71 75 72 76 81 77
REMARK SMILES IDX 73 78 74 79 80 80 82 81 75 82 76 83 77 84 78 85 79 86 55 87
REMARK SMILES IDX 56 88 65 89 57 90 58 91 64 92 66 93 59 94 60 95 61 96 62 97
REMARK SMILES IDX 63 98
REMARK H PARENT 18 8 25 29 87 48 53 59
REMARK Flexibility Score: inf
ROOT
ATOM      1  C   UNL A   1      33.579  29.078  24.485  1.00  0.00     0.002 C 
ENDROOT
BRANCH   1   2
ATOM      2  C   UNL A   1      33.113  28.873  23.036  1.00  0.00     0.002 C 
BRANCH   2   3
ATOM      3  C   UNL A   1      31.596  28.905  22.835  1.00  0.00     0.021 C 
BRANCH   3   4
ATOM      4  C   UNL A   1      30.990  27.535  22.553  1.00  0.00     0.116 C 
BRANCH   4   5
ATOM      5  N   UNL A   1      31.802  26.768  21.624  1.00  0.00    -0.352 N 
ATOM      6  C   UNL A   1      32.638  25.705  21.683  1.00  0.00     0.251 C 
ATOM      7  O   UNL A   1      33.115  25.347  20.599  1.00  0.00    -0.270 OA
ATOM      8  H   UNL A   1      31.722  27.113  20.705  1.00  0.00     0.163 HD
BRANCH   6   9
ATOM      9  C   UNL A   1      33.008  24.970  22.929  1.00  0.00     0.067 C 
ATOM     10  C   UNL A   1      33.338  22.937  27.649  1.00  0.00     0.048 C 
ATOM     11  C   UNL A   1      34.271  23.094  26.481  1.00  0.00    -0.007 A 
ATOM     12  C   UNL A   1      35.554  22.536  26.537  1.00  0.00     0.023 A 
ATOM     13  C   UNL A   1      33.867  23.735  25.302  1.00  0.00     0.130 A 
ATOM     14  C   UNL A   1      36.416  22.651  25.446  1.00  0.00     0.019 A 
ATOM     15  C   UNL A   1      34.732  23.860  24.210  1.00  0.00     0.019 A 
ATOM     16  O   UNL A   1      32.614  24.270  25.297  1.00  0.00    -0.475 OA
ATOM     17  Br  UNL A   1      38.152  21.906  25.546  1.00  0.00    -0.051 Br
ATOM     18  C   UNL A   1      36.015  23.314  24.286  1.00  0.00     0.027 A 
ATOM     19  C   UNL A   1      34.296  24.593  23.027  1.00  0.00     0.025 C 
ATOM     20  C   UNL A   1      32.034  24.615  24.015  1.00  0.00     0.314 C 
BRANCH  20  21
ATOM     21  C   UNL A   1      31.050  23.509  23.596  1.00  0.00     0.429 C 
ATOM     22  F   UNL A   1      31.662  22.609  22.788  1.00  0.00    -0.167 F 
ATOM     23  F   UNL A   1      30.569  22.811  24.650  1.00  0.00    -0.167 F 
ATOM     24  F   UNL A   1      29.980  23.998  22.928  1.00  0.00    -0.167 F 
ENDBRANCH  20  21
ENDBRANCH   6   9
ENDBRANCH   4   5
ENDBRANCH   3   4
ENDBRANCH   2   3
ENDBRANCH   1   2
BRANCH   1  25
ATOM     25  C   UNL A   1      33.586  27.817  25.354  1.00  0.00     0.021 C 
BRANCH  25  26
ATOM     26  C   UNL A   1      33.652  28.086  26.853  1.00  0.00     0.116 C 
BRANCH  26  27
ATOM     27  N   UNL A   1      33.454  29.494  27.155  1.00  0.00    -0.352 N 
ATOM     28  C   UNL A   1      34.279  30.358  27.826  1.00  0.00     0.251 C 
ATOM     29  H   UNL A   1      32.610  29.882  26.830  1.00  0.00     0.163 HD
ATOM     30  O   UNL A   1      33.858  31.452  28.193  1.00  0.00    -0.269 OA
BRANCH  28  31
ATOM     31  C   UNL A   1      35.671  29.958  28.114  1.00  0.00     0.039 A 
ATOM     32  C   UNL A   1      36.630  30.068  27.107  1.00  0.00     0.014 A 
ATOM     33  C   UNL A   1      36.022  29.471  29.377  1.00  0.00     0.014 A 
ATOM     34  C   UNL A   1      37.957  29.733  27.383  1.00  0.00     0.010 A 
ATOM     35  C   UNL A   1      37.355  29.206  29.671  1.00  0.00     0.010 A 
ATOM     36  C   UNL A   1      38.333  29.323  28.673  1.00  0.00    -0.014 A 
BRANCH  36  37
ATOM     37  C   UNL A   1      39.744  28.989  28.986  1.00  0.00     0.031 A 
ATOM     38  C   UNL A   1      40.623  30.008  29.657  1.00  0.00     0.074 A 
ATOM     39  C   UNL A   1      40.237  27.784  28.641  1.00  0.00     0.049 A 
ATOM     40  N   UNL A   1      41.885  29.916  29.989  1.00  0.00    -0.248 NA
ATOM     41  C   UNL A   1      40.011  31.308  29.980  1.00  0.00     0.031 C 
ATOM     42  C   UNL A   1      39.485  26.728  27.956  1.00  0.00     0.029 A 
ATOM     43  N   UNL A   1      41.483  27.239  28.820  1.00  0.00    -0.354 N 
ATOM     44  C   UNL A   1      42.215  31.140  30.559  1.00  0.00     0.074 A 
ATOM     45  C   UNL A   1      41.043  31.981  30.469  1.00  0.00     0.031 C 
ATOM     46  C   UNL A   1      40.275  25.653  27.806  1.00  0.00     0.029 A 
ATOM     47  C   UNL A   1      41.597  25.952  28.349  1.00  0.00     0.049 A 
ATOM     48  H   UNL A   1      42.227  27.725  29.245  1.00  0.00     0.167 HD
ATOM     49  C   UNL A   1      43.380  31.516  31.138  1.00  0.00     0.037 A 
ATOM     50  C   UNL A   1      42.649  25.109  28.355  1.00  0.00     0.037 A 
ATOM     51  C   UNL A   1      44.535  30.664  31.242  1.00  0.00     0.049 A 
ATOM     52  C   UNL A   1      43.944  25.563  28.971  1.00  0.00     0.074 A 
ATOM     53  C   UNL A   1      45.752  30.938  31.840  1.00  0.00     0.029 A 
ATOM     54  N   UNL A   1      44.617  29.375  30.736  1.00  0.00    -0.354 N 
ATOM     55  N   UNL A   1      44.225  26.707  29.549  1.00  0.00    -0.248 NA
ATOM     56  C   UNL A   1      45.066  24.615  28.937  1.00  0.00     0.031 C 
ATOM     57  C   UNL A   1      46.586  29.831  31.657  1.00  0.00     0.029 A 
ATOM     58  C   UNL A   1      45.873  28.848  30.988  1.00  0.00     0.049 A 
ATOM     59  H   UNL A   1      43.890  28.904  30.267  1.00  0.00     0.167 HD
ATOM     60  C   UNL A   1      45.547  26.609  29.967  1.00  0.00     0.074 A 
ATOM     61  C   UNL A   1      46.007  25.288  29.588  1.00  0.00     0.031 C 
ATOM     62  C   UNL A   1      46.311  27.528  30.607  1.00  0.00     0.037 A 
BRANCH  49  63
ATOM     63  C   UNL A   1      43.457  32.900  31.721  1.00  0.00     0.058 A 
ATOM     64  C   UNL A   1      43.132  33.147  33.065  1.00  0.00     0.135 A 
ATOM     65  C   UNL A   1      43.909  33.980  30.947  1.00  0.00     0.135 A 
ATOM     66  F   UNL A   1      42.678  32.153  33.844  1.00  0.00    -0.206 F 
ATOM     67  C   UNL A   1      43.232  34.419  33.615  1.00  0.00     0.059 A 
ATOM     68  C   UNL A   1      44.044  35.258  31.485  1.00  0.00     0.059 A 
ATOM     69  F   UNL A   1      44.230  33.801  29.655  1.00  0.00    -0.206 F 
ATOM     70  C   UNL A   1      43.693  35.469  32.818  1.00  0.00     0.060 A 
BRANCH  70  71
ATOM     71  S   UNL A   1      43.833  37.109  33.557  1.00  0.00     0.124 S 
ATOM     72  O   UNL A   1      45.021  36.954  34.390  1.00  0.00    -0.237 OA
ATOM     73  O   UNL A   1      43.987  37.964  32.385  1.00  0.00    -0.237 OA
ATOM     74  O   UNL A   1      42.576  37.264  34.283  1.00  0.00    -0.744 OA
ENDBRANCH  70  71
ENDBRANCH  49  63
BRANCH  50  75
ATOM     75  C   UNL A   1      42.506  23.741  27.789  1.00  0.00     0.058 A 
ATOM     76  C   UNL A   1      42.528  23.530  26.402  1.00  0.00     0.135 A 
ATOM     77  C   UNL A   1      42.372  22.615  28.618  1.00  0.00     0.135 A 
ATOM     78  F   UNL A   1      42.647  24.574  25.568  1.00  0.00    -0.206 F 
ATOM     79  C   UNL A   1      42.415  22.256  25.856  1.00  0.00     0.059 A 
ATOM     80  C   UNL A   1      42.283  21.328  28.096  1.00  0.00     0.059 A 
ATOM     81  F   UNL A   1      42.360  22.760  29.953  1.00  0.00    -0.206 F 
ATOM     82  C   UNL A   1      42.299  21.160  26.713  1.00  0.00     0.060 A 
BRANCH  82  83
ATOM     83  S   UNL A   1      42.209  19.508  25.990  1.00  0.00     0.124 S 
ATOM     84  O   UNL A   1      42.700  18.679  27.085  1.00  0.00    -0.237 OA
ATOM     85  O   UNL A   1      40.787  19.386  25.684  1.00  0.00    -0.237 OA
ATOM     86  O   UNL A   1      43.087  19.602  24.826  1.00  0.00    -0.744 OA
ENDBRANCH  82  83
ENDBRANCH  50  75
BRANCH  62  87
ATOM     87  C   UNL A   1      47.723  27.144  30.953  1.00  0.00     0.058 A 
ATOM     88  C   UNL A   1      48.029  26.481  32.150  1.00  0.00     0.135 A 
ATOM     89  C   UNL A   1      48.766  27.362  30.037  1.00  0.00     0.135 A 
ATOM     90  F   UNL A   1      47.069  26.254  33.062  1.00  0.00    -0.206 F 
ATOM     91  C   UNL A   1      49.322  26.051  32.432  1.00  0.00     0.059 A 
ATOM     92  C   UNL A   1      50.060  26.916  30.286  1.00  0.00     0.059 A 
ATOM     93  F   UNL A   1      48.524  27.984  28.872  1.00  0.00    -0.206 F 
ATOM     94  C   UNL A   1      50.329  26.266  31.489  1.00  0.00     0.060 A 
BRANCH  94  95
ATOM     95  S   UNL A   1      51.987  25.648  31.846  1.00  0.00     0.124 S 
ATOM     96  O   UNL A   1      52.344  26.428  33.027  1.00  0.00    -0.237 OA
ATOM     97  O   UNL A   1      51.746  24.227  32.073  1.00  0.00    -0.237 OA
ATOM     98  O   UNL A   1      52.737  25.965  30.634  1.00  0.00    -0.744 OA
ENDBRANCH  94  95
ENDBRANCH  62  87
ENDBRANCH  36  37
ENDBRANCH  28  31
ENDBRANCH  26  27
ENDBRANCH  25  26
ENDBRANCH   1  25
TORSDOF 17
ENDMDL
MODEL 2
REMARK VINA RESULT:     -11.5      1.549      2.290
REMARK SMILES Cc1cc(Br)cc2c1O[C@H](C(F)(F)F)C(C(=O)NCCCCCCNC(=O)c1ccc(-c3c4nc(c(-c5c(F)cc(S(=O)(=O)[O-])cc5F)c5ccc([nH]5)c(-c5c(F)cc(S(=O)(=O)[O-])cc5F)c5nc(c(-c6c(F)cc(S(=O)(=O)[O-])cc6F)c6ccc3[nH]6)C=C5)C=C4)cc1)=C2
REMARK SMILES IDX 22 1 21 2 20 3 19 4 18 5 16 6 17 7 15 9 1 10 2 11 3 12 8 13
REMARK SMILES IDX 4 14 7 15 9 16 5 17 6 18 94 19 10 20 11 21 12 22 13 23 14 24
REMARK SMILES IDX 23 25 24 26 25 27 26 28 27 30 28 31 29 32 93 33 30 34 92 35
REMARK SMILES IDX 31 36 32 37 33 38 86 39 34 40 91 41 85 42 87 43 35 44 90 45
REMARK SMILES IDX 84 46 83 47 36 49 70 50 49 51 69 52 50 53 53 54 68 55 88 56
REMARK SMILES IDX 51 57 52 58 67 60 89 61 54 62 37 63 38 64 47 65 39 66 40 67
REMARK SMILES IDX 46 68 48 69 41 70 42 71 43 72 44 73 45 74 71 75 72 76 81 77
REMARK SMILES IDX 73 78 74 79 80 80 82 81 75 82 76 83 77 84 78 85 79 86 55 87
REMARK SMILES IDX 56 88 65 89 57 90 58 91 64 92 66 93 59 94 60 95 61 96 62 97
REMARK SMILES IDX 63 98
REMARK H PARENT 18 8 25 29 87 48 53 59
REMARK Flexibility Score: inf
ROOT
ATOM      1  C   UNL A   1      31.359  27.835  26.226  1.00  0.00     0.002 C 
ENDROOT
BRANCH   1   2
ATOM      2  C   UNL A   1      30.644  26.646  25.569  1.00  0.00     0.002 C 
BRANCH   2   3
ATOM      3  C   UNL A   1      30.332  26.822  24.081  1.00  0.00     0.021 C 
BRANCH   3   4
ATOM      4  C   UNL A   1      30.453  25.533  23.277  1.00  0.00     0.116 C 
BRANCH   4   5
ATOM      5  N   UNL A   1      31.448  25.648  22.223  1.00  0.00    -0.352 N 
ATOM      6  C   UNL A   1      32.630  25.069  21.909  1.00  0.00     0.251 C 
ATOM      7  O   UNL A   1      33.149  25.464  20.858  1.00  0.00    -0.270 OA
ATOM      8  H   UNL A   1      31.192  26.329  21.558  1.00  0.00     0.163 HD
BRANCH   6   9
ATOM      9  C   UNL A   1      33.320  24.025  22.725  1.00  0.00     0.067 C 
ATOM     10  C   UNL A   1      36.620  21.109  25.395  1.00  0.00     0.048 C 
ATOM     11  C   UNL A   1      35.261  20.907  24.784  1.00  0.00    -0.007 A 
ATOM     12  C   UNL A   1      34.588  19.693  24.972  1.00  0.00     0.023 A 
ATOM     13  C   UNL A   1      34.615  21.932  24.079  1.00  0.00     0.130 A 
ATOM     14  C   UNL A   1      33.314  19.508  24.434  1.00  0.00     0.019 A 
ATOM     15  C   UNL A   1      33.342  21.746  23.531  1.00  0.00     0.019 A 
ATOM     16  O   UNL A   1      35.311  23.091  23.914  1.00  0.00    -0.475 OA
ATOM     17  Br  UNL A   1      32.427  17.856  24.683  1.00  0.00    -0.051 Br
ATOM     18  C   UNL A   1      32.689  20.525  23.710  1.00  0.00     0.027 A 
ATOM     19  C   UNL A   1      32.733  22.814  22.747  1.00  0.00     0.025 C 
ATOM     20  C   UNL A   1      34.571  24.271  23.518  1.00  0.00     0.314 C 
BRANCH  20  21
ATOM     21  C   UNL A   1      34.327  25.149  24.758  1.00  0.00     0.429 C 
ATOM     22  F   UNL A   1      33.204  24.754  25.407  1.00  0.00    -0.167 F 
ATOM     23  F   UNL A   1      35.335  25.075  25.657  1.00  0.00    -0.167 F 
ATOM     24  F   UNL A   1      34.178  26.456  24.443  1.00  0.00    -0.167 F 
ENDBRANCH  20  21
ENDBRANCH   6   9
ENDBRANCH   4   5
ENDBRANCH   3   4
ENDBRANCH   2   3
ENDBRANCH   1   2
BRANCH   1  25
ATOM     25  C   UNL A   1      32.469  27.466  27.214  1.00  0.00     0.021 C 
BRANCH  25  26
ATOM     26  C   UNL A   1      33.761  28.257  27.035  1.00  0.00     0.116 C 
BRANCH  26  27
ATOM     27  N   UNL A   1      33.587  29.655  27.390  1.00  0.00    -0.352 N 
ATOM     28  C   UNL A   1      34.443  30.488  28.062  1.00  0.00     0.251 C 
ATOM     29  H   UNL A   1      32.736  30.061  27.108  1.00  0.00     0.163 HD
ATOM     30  O   UNL A   1      34.046  31.572  28.481  1.00  0.00    -0.269 OA
BRANCH  28  31
ATOM     31  C   UNL A   1      35.840  30.066  28.290  1.00  0.00     0.039 A 
ATOM     32  C   UNL A   1      36.747  30.127  27.231  1.00  0.00     0.014 A 
ATOM     33  C   UNL A   1      36.246  29.606  29.546  1.00  0.00     0.014 A 
ATOM     34  C   UNL A   1      38.079  29.771  27.447  1.00  0.00     0.010 A 
ATOM     35  C   UNL A   1      37.587  29.321  29.778  1.00  0.00     0.010 A 
ATOM     36  C   UNL A   1      38.514  29.389  28.728  1.00  0.00    -0.014 A 
BRANCH  36  37
ATOM     37  C   UNL A   1      39.932  29.033  28.977  1.00  0.00     0.031 A 
ATOM     38  C   UNL A   1      40.860  30.043  29.593  1.00  0.00     0.074 A 
ATOM     39  C   UNL A   1      40.387  27.815  28.623  1.00  0.00     0.049 A 
ATOM     40  N   UNL A   1      42.135  29.933  29.865  1.00  0.00    -0.248 NA
ATOM     41  C   UNL A   1      40.288  31.358  29.928  1.00  0.00     0.031 C 
ATOM     42  C   UNL A   1      39.584  26.766  27.989  1.00  0.00     0.029 A 
ATOM     43  N   UNL A   1      41.631  27.250  28.749  1.00  0.00    -0.354 N 
ATOM     44  C   UNL A   1      42.514  31.157  30.403  1.00  0.00     0.074 A 
ATOM     45  C   UNL A   1      41.353  32.018  30.358  1.00  0.00     0.031 C 
ATOM     46  C   UNL A   1      40.347  25.674  27.815  1.00  0.00     0.029 A 
ATOM     47  C   UNL A   1      41.699  25.956  28.289  1.00  0.00     0.049 A 
ATOM     48  H   UNL A   1      42.402  27.727  29.132  1.00  0.00     0.167 HD
ATOM     49  C   UNL A   1      43.711  31.518  30.921  1.00  0.00     0.037 A 
ATOM     50  C   UNL A   1      42.735  25.095  28.255  1.00  0.00     0.037 A 
ATOM     51  C   UNL A   1      44.855  30.647  30.979  1.00  0.00     0.049 A 
ATOM     52  C   UNL A   1      44.066  25.532  28.803  1.00  0.00     0.074 A 
ATOM     53  C   UNL A   1      46.104  30.906  31.515  1.00  0.00     0.029 A 
ATOM     54  N   UNL A   1      44.890  29.351  30.486  1.00  0.00    -0.354 N 
ATOM     55  N   UNL A   1      44.395  26.677  29.352  1.00  0.00    -0.248 NA
ATOM     56  C   UNL A   1      45.169  24.563  28.727  1.00  0.00     0.031 C 
ATOM     57  C   UNL A   1      46.909  29.782  31.305  1.00  0.00     0.029 A 
ATOM     58  C   UNL A   1      46.147  28.804  30.684  1.00  0.00     0.049 A 
ATOM     59  H   UNL A   1      44.134  28.887  30.059  1.00  0.00     0.167 HD
ATOM     60  C   UNL A   1      45.733  26.559  29.708  1.00  0.00     0.074 A 
ATOM     61  C   UNL A   1      46.151  25.226  29.324  1.00  0.00     0.031 C 
ATOM     62  C   UNL A   1      46.543  27.472  30.298  1.00  0.00     0.037 A 
BRANCH  49  63
ATOM     63  C   UNL A   1      43.841  32.907  31.482  1.00  0.00     0.058 A 
ATOM     64  C   UNL A   1      44.155  34.002  30.660  1.00  0.00     0.135 A 
ATOM     65  C   UNL A   1      43.599  33.157  32.842  1.00  0.00     0.135 A 
ATOM     66  F   UNL A   1      44.413  33.816  29.356  1.00  0.00    -0.206 F 
ATOM     67  C   UNL A   1      44.245  35.292  31.170  1.00  0.00     0.059 A 
ATOM     68  C   UNL A   1      43.655  34.446  33.368  1.00  0.00     0.059 A 
ATOM     69  F   UNL A   1      43.298  32.147  33.673  1.00  0.00    -0.206 F 
ATOM     70  C   UNL A   1      43.989  35.505  32.525  1.00  0.00     0.060 A 
BRANCH  70  71
ATOM     71  S   UNL A   1      44.094  37.190  33.163  1.00  0.00     0.124 S 
ATOM     72  O   UNL A   1      43.015  37.198  34.146  1.00  0.00    -0.237 OA
ATOM     73  O   UNL A   1      45.447  37.231  33.706  1.00  0.00    -0.237 OA
ATOM     74  O   UNL A   1      43.870  38.016  31.981  1.00  0.00    -0.744 OA
ENDBRANCH  70  71
ENDBRANCH  49  63
BRANCH  50  75
ATOM     75  C   UNL A   1      42.540  23.722  27.714  1.00  0.00     0.058 A 
ATOM     76  C   UNL A   1      42.591  23.480  26.333  1.00  0.00     0.135 A 
ATOM     77  C   UNL A   1      42.329  22.623  28.562  1.00  0.00     0.135 A 
ATOM     78  F   UNL A   1      42.784  24.498  25.481  1.00  0.00    -0.206 F 
ATOM     79  C   UNL A   1      42.431  22.201  25.810  1.00  0.00     0.059 A 
ATOM     80  C   UNL A   1      42.191  21.331  28.064  1.00  0.00     0.059 A 
ATOM     81  F   UNL A   1      42.287  22.798  29.892  1.00  0.00    -0.206 F 
ATOM     82  C   UNL A   1      42.237  21.131  26.685  1.00  0.00     0.060 A 
BRANCH  82  83
ATOM     83  S   UNL A   1      42.086  19.470  25.995  1.00  0.00     0.124 S 
ATOM     84  O   UNL A   1      42.946  19.559  24.819  1.00  0.00    -0.237 OA
ATOM     85  O   UNL A   1      42.582  18.640  27.087  1.00  0.00    -0.237 OA
ATOM     86  O   UNL A   1      40.657  19.347  25.723  1.00  0.00    -0.744 OA
ENDBRANCH  82  83
ENDBRANCH  50  75
BRANCH  62  87
ATOM     87  C   UNL A   1      47.964  27.067  30.582  1.00  0.00     0.058 A 
ATOM     88  C   UNL A   1      48.988  27.289  29.651  1.00  0.00     0.135 A 
ATOM     89  C   UNL A   1      48.317  26.536  31.833  1.00  0.00     0.135 A 
ATOM     90  F   UNL A   1      48.703  27.790  28.437  1.00  0.00    -0.206 F 
ATOM     91  C   UNL A   1      50.315  26.992  29.946  1.00  0.00     0.059 A 
ATOM     92  C   UNL A   1      49.640  26.257  32.161  1.00  0.00     0.059 A 
ATOM     93  F   UNL A   1      47.374  26.313  32.764  1.00  0.00    -0.206 F 
ATOM     94  C   UNL A   1      50.631  26.485  31.208  1.00  0.00     0.060 A 
BRANCH  94  95
ATOM     95  S   UNL A   1      52.365  26.162  31.594  1.00  0.00     0.124 S 
ATOM     96  O   UNL A   1      52.330  24.745  31.945  1.00  0.00    -0.237 OA
ATOM     97  O   UNL A   1      53.028  26.488  30.337  1.00  0.00    -0.237 OA
ATOM     98  O   UNL A   1      52.644  27.075  32.699  1.00  0.00    -0.744 OA
ENDBRANCH  94  95
ENDBRANCH  62  87
ENDBRANCH  36  37
ENDBRANCH  28  31
ENDBRANCH  26  27
ENDBRANCH  25  26
ENDBRANCH   1  25
TORSDOF 17
ENDMDL
MODEL 3
REMARK VINA RESULT:     -11.2      2.991      9.086
REMARK SMILES Cc1cc(Br)cc2c1O[C@H](C(F)(F)F)C(C(=O)NCCCCCCNC(=O)c1ccc(-c3c4nc(c(-c5c(F)cc(S(=O)(=O)[O-])cc5F)c5ccc([nH]5)c(-c5c(F)cc(S(=O)(=O)[O-])cc5F)c5nc(c(-c6c(F)cc(S(=O)(=O)[O-])cc6F)c6ccc3[nH]6)C=C5)C=C4)cc1)=C2
REMARK SMILES IDX 22 1 21 2 20 3 19 4 18 5 16 6 17 7 15 9 1 10 2 11 3 12 8 13
REMARK SMILES IDX 4 14 7 15 9 16 5 17 6 18 94 19 10 20 11 21 12 22 13 23 14 24
REMARK SMILES IDX 23 25 24 26 25 27 26 28 27 30 28 31 29 32 93 33 30 34 92 35
REMARK SMILES IDX 31 36 32 37 33 38 86 39 34 40 91 41 85 42 87 43 35 44 90 45
REMARK SMILES IDX 84 46 83 47 36 49 70 50 49 51 69 52 50 53 53 54 68 55 88 56
REMARK SMILES IDX 51 57 52 58 67 60 89 61 54 62 37 63 38 64 47 65 39 66 40 67
REMARK SMILES IDX 46 68 48 69 41 70 42 71 43 72 44 73 45 74 71 75 72 76 81 77
REMARK SMILES IDX 73 78 74 79 80 80 82 81 75 82 76 83 77 84 78 85 79 86 55 87
REMARK SMILES IDX 56 88 65 89 57 90 58 91 64 92 66 93 59 94 60 95 61 96 62 97
REMARK SMILES IDX 63 98
REMARK H PARENT 18 8 25 29 87 48 53 59
REMARK Flexibility Score: inf
ROOT
ATOM      1  C   UNL A   1      35.176  22.455  24.202  1.00  0.00     0.002 C 
ENDROOT
BRANCH   1   2
ATOM      2  C   UNL A   1      34.647  21.089  24.659  1.00  0.00     0.002 C 
BRANCH   2   3
ATOM      3  C   UNL A   1      33.543  21.144  25.718  1.00  0.00     0.021 C 
BRANCH   3   4
ATOM      4  C   UNL A   1      32.149  21.340  25.135  1.00  0.00     0.116 C 
BRANCH   4   5
ATOM      5  N   UNL A   1      31.277  22.057  26.051  1.00  0.00    -0.352 N 
ATOM      6  C   UNL A   1      30.987  23.347  26.337  1.00  0.00     0.251 C 
ATOM      7  O   UNL A   1      30.125  23.515  27.208  1.00  0.00    -0.270 OA
ATOM      8  H   UNL A   1      30.758  21.437  26.614  1.00  0.00     0.163 HD
BRANCH   6   9
ATOM      9  C   UNL A   1      31.624  24.536  25.694  1.00  0.00     0.067 C 
ATOM     10  C   UNL A   1      34.043  27.889  22.624  1.00  0.00     0.048 C 
ATOM     11  C   UNL A   1      33.644  27.856  24.073  1.00  0.00    -0.007 A 
ATOM     12  C   UNL A   1      33.870  28.977  24.881  1.00  0.00     0.023 A 
ATOM     13  C   UNL A   1      32.990  26.746  24.627  1.00  0.00     0.130 A 
ATOM     14  C   UNL A   1      33.475  28.965  26.220  1.00  0.00     0.019 A 
ATOM     15  C   UNL A   1      32.602  26.729  25.971  1.00  0.00     0.019 A 
ATOM     16  O   UNL A   1      32.800  25.676  23.805  1.00  0.00    -0.475 OA
ATOM     17  Br  UNL A   1      33.803  30.482  27.301  1.00  0.00    -0.051 Br
ATOM     18  C   UNL A   1      32.848  27.847  26.770  1.00  0.00     0.027 A 
ATOM     19  C   UNL A   1      31.984  25.530  26.526  1.00  0.00     0.025 C 
ATOM     20  C   UNL A   1      31.836  24.676  24.214  1.00  0.00     0.314 C 
BRANCH  20  21
ATOM     21  C   UNL A   1      30.524  24.899  23.442  1.00  0.00     0.429 C 
ATOM     22  F   UNL A   1      29.609  25.516  24.229  1.00  0.00    -0.167 F 
ATOM     23  F   UNL A   1      30.686  25.687  22.354  1.00  0.00    -0.167 F 
ATOM     24  F   UNL A   1      29.977  23.740  23.010  1.00  0.00    -0.167 F 
ENDBRANCH  20  21
ENDBRANCH   6   9
ENDBRANCH   4   5
ENDBRANCH   3   4
ENDBRANCH   2   3
ENDBRANCH   1   2
BRANCH   1  25
ATOM     25  C   UNL A   1      35.169  23.550  25.272  1.00  0.00     0.021 C 
BRANCH  25  26
ATOM     26  C   UNL A   1      36.549  24.094  25.626  1.00  0.00     0.116 C 
BRANCH  26  27
ATOM     27  N   UNL A   1      37.552  23.043  25.640  1.00  0.00    -0.352 N 
ATOM     28  C   UNL A   1      38.850  23.093  26.075  1.00  0.00     0.251 C 
ATOM     29  H   UNL A   1      37.258  22.172  25.288  1.00  0.00     0.163 HD
ATOM     30  O   UNL A   1      39.627  22.182  25.803  1.00  0.00    -0.269 OA
BRANCH  28  31
ATOM     31  C   UNL A   1      39.309  24.256  26.862  1.00  0.00     0.039 A 
ATOM     32  C   UNL A   1      40.096  25.227  26.241  1.00  0.00     0.014 A 
ATOM     33  C   UNL A   1      38.963  24.380  28.211  1.00  0.00     0.014 A 
ATOM     34  C   UNL A   1      40.497  26.351  26.964  1.00  0.00     0.010 A 
ATOM     35  C   UNL A   1      39.303  25.534  28.909  1.00  0.00     0.010 A 
ATOM     36  C   UNL A   1      40.083  26.524  28.296  1.00  0.00    -0.014 A 
BRANCH  36  37
ATOM     37  C   UNL A   1      40.482  27.727  29.067  1.00  0.00     0.031 A 
ATOM     38  C   UNL A   1      41.828  27.775  29.735  1.00  0.00     0.074 A 
ATOM     39  C   UNL A   1      39.623  28.758  29.187  1.00  0.00     0.049 A 
ATOM     40  N   UNL A   1      42.349  28.722  30.473  1.00  0.00    -0.248 NA
ATOM     41  C   UNL A   1      42.696  26.596  29.573  1.00  0.00     0.031 C 
ATOM     42  C   UNL A   1      38.278  28.808  28.608  1.00  0.00     0.029 A 
ATOM     43  N   UNL A   1      39.752  29.963  29.830  1.00  0.00    -0.354 N 
ATOM     44  C   UNL A   1      43.600  28.256  30.858  1.00  0.00     0.074 A 
ATOM     45  C   UNL A   1      43.736  26.917  30.330  1.00  0.00     0.031 C 
ATOM     46  C   UNL A   1      37.722  29.997  28.892  1.00  0.00     0.029 A 
ATOM     47  C   UNL A   1      38.651  30.778  29.703  1.00  0.00     0.049 A 
ATOM     48  H   UNL A   1      40.557  30.220  30.336  1.00  0.00     0.167 HD
ATOM     49  C   UNL A   1      44.563  28.901  31.557  1.00  0.00     0.037 A 
ATOM     50  C   UNL A   1      38.420  32.015  30.185  1.00  0.00     0.037 A 
ATOM     51  C   UNL A   1      44.427  30.242  32.061  1.00  0.00     0.049 A 
ATOM     52  C   UNL A   1      39.492  32.696  30.991  1.00  0.00     0.074 A 
ATOM     53  C   UNL A   1      45.357  30.997  32.752  1.00  0.00     0.029 A 
ATOM     54  N   UNL A   1      43.291  31.026  31.928  1.00  0.00    -0.354 N 
ATOM     55  N   UNL A   1      40.689  32.260  31.305  1.00  0.00    -0.248 NA
ATOM     56  C   UNL A   1      39.185  34.037  31.510  1.00  0.00     0.031 C 
ATOM     57  C   UNL A   1      44.768  32.223  33.077  1.00  0.00     0.029 A 
ATOM     58  C   UNL A   1      43.488  32.251  32.545  1.00  0.00     0.049 A 
ATOM     59  H   UNL A   1      42.466  30.754  31.463  1.00  0.00     0.167 HD
ATOM     60  C   UNL A   1      41.286  33.280  32.038  1.00  0.00     0.074 A 
ATOM     61  C   UNL A   1      40.324  34.360  32.109  1.00  0.00     0.031 C 
ATOM     62  C   UNL A   1      42.519  33.317  32.601  1.00  0.00     0.037 A 
BRANCH  49  63
ATOM     63  C   UNL A   1      45.856  28.172  31.803  1.00  0.00     0.058 A 
ATOM     64  C   UNL A   1      46.932  28.268  30.905  1.00  0.00     0.135 A 
ATOM     65  C   UNL A   1      46.042  27.414  32.970  1.00  0.00     0.135 A 
ATOM     66  F   UNL A   1      46.801  28.965  29.766  1.00  0.00    -0.206 F 
ATOM     67  C   UNL A   1      48.138  27.621  31.145  1.00  0.00     0.059 A 
ATOM     68  C   UNL A   1      47.252  26.781  33.244  1.00  0.00     0.059 A 
ATOM     69  F   UNL A   1      45.045  27.286  33.860  1.00  0.00    -0.206 F 
ATOM     70  C   UNL A   1      48.291  26.883  32.320  1.00  0.00     0.060 A 
BRANCH  70  71
ATOM     71  S   UNL A   1      49.872  26.066  32.620  1.00  0.00     0.124 S 
ATOM     72  O   UNL A   1      50.583  27.080  33.392  1.00  0.00    -0.237 OA
ATOM     73  O   UNL A   1      49.469  24.874  33.358  1.00  0.00    -0.237 OA
ATOM     74  O   UNL A   1      50.391  25.824  31.278  1.00  0.00    -0.744 OA
ENDBRANCH  70  71
ENDBRANCH  49  63
BRANCH  50  75
ATOM     75  C   UNL A   1      37.133  32.698  29.886  1.00  0.00     0.058 A 
ATOM     76  C   UNL A   1      35.968  32.381  30.600  1.00  0.00     0.135 A 
ATOM     77  C   UNL A   1      37.045  33.699  28.904  1.00  0.00     0.135 A 
ATOM     78  F   UNL A   1      35.999  31.428  31.542  1.00  0.00    -0.206 F 
ATOM     79  C   UNL A   1      34.760  33.024  30.347  1.00  0.00     0.059 A 
ATOM     80  C   UNL A   1      35.854  34.373  28.650  1.00  0.00     0.059 A 
ATOM     81  F   UNL A   1      38.135  34.051  28.203  1.00  0.00    -0.206 F 
ATOM     82  C   UNL A   1      34.715  34.023  29.373  1.00  0.00     0.060 A 
BRANCH  82  83
ATOM     83  S   UNL A   1      33.153  34.886  29.096  1.00  0.00     0.124 S 
ATOM     84  O   UNL A   1      33.614  36.178  28.601  1.00  0.00    -0.237 OA
ATOM     85  O   UNL A   1      32.499  34.023  28.118  1.00  0.00    -0.237 OA
ATOM     86  O   UNL A   1      32.537  34.900  30.420  1.00  0.00    -0.744 OA
ENDBRANCH  82  83
ENDBRANCH  50  75
BRANCH  62  87
ATOM     87  C   UNL A   1      42.914  34.568  33.337  1.00  0.00     0.058 A 
ATOM     88  C   UNL A   1      42.760  34.680  34.726  1.00  0.00     0.135 A 
ATOM     89  C   UNL A   1      43.536  35.628  32.657  1.00  0.00     0.135 A 
ATOM     90  F   UNL A   1      42.166  33.697  35.423  1.00  0.00    -0.206 F 
ATOM     91  C   UNL A   1      43.203  35.803  35.418  1.00  0.00     0.059 A 
ATOM     92  C   UNL A   1      44.012  36.748  33.331  1.00  0.00     0.059 A 
ATOM     93  F   UNL A   1      43.716  35.566  31.328  1.00  0.00    -0.206 F 
ATOM     94  C   UNL A   1      43.836  36.828  34.711  1.00  0.00     0.060 A 
BRANCH  94  95
ATOM     95  S   UNL A   1      44.458  38.250  35.633  1.00  0.00     0.124 S 
ATOM     96  O   UNL A   1      45.898  38.009  35.612  1.00  0.00    -0.237 OA
ATOM     97  O   UNL A   1      43.991  39.371  34.824  1.00  0.00    -0.237 OA
ATOM     98  O   UNL A   1      43.819  38.117  36.939  1.00  0.00    -0.744 OA
ENDBRANCH  94  95
ENDBRANCH  62  87
ENDBRANCH  36  37
ENDBRANCH  28  31
ENDBRANCH  26  27
ENDBRANCH  25  26
ENDBRANCH   1  25
TORSDOF 17
ENDMDL
