MODEL 1
REMARK VINA RESULT:     -12.8      0.000      0.000
REMARK SMILES Cc1c(CC(=O)N[C@@H](C)C(=O)NCCCCCCNC(=O)c2ccc(-c3c4nc(c(-c5c(F)cc(S(=O)(=O)[O-])cc5F)c5ccc([nH]5)c(-c5c(F)cc(S(=O)(=O)[O-])cc5F)c5nc(c(-c6c(F)cc(S(=O)(=O)[O-])cc6F)c6ccc3[nH]6)C=C5)C=C4)cc2)c(=O)oc2cc3oc4c(c3cc12)CCCC4
REMARK SMILES IDX 15 1 14 2 13 3 12 4 10 5 11 6 8 8 9 9 7 10 5 11 6 12 4 14
REMARK SMILES IDX 3 15 1 16 2 17 99 18 88 19 91 20 98 21 89 22 90 23 92 24
REMARK SMILES IDX 97 25 93 26 96 27 94 28 95 29 100 30 103 31 101 32 102 33
REMARK SMILES IDX 16 34 17 35 18 36 19 37 20 38 21 40 22 41 23 42 87 43 24 44
REMARK SMILES IDX 86 45 25 46 26 47 27 48 80 49 28 50 85 51 79 52 81 53 29 54
REMARK SMILES IDX 84 55 78 56 77 57 30 59 64 60 43 61 63 62 44 63 47 64 62 65
REMARK SMILES IDX 82 66 45 67 46 68 61 70 83 71 48 72 31 73 32 74 41 75 33 76
REMARK SMILES IDX 34 77 40 78 42 79 35 80 36 81 37 82 38 83 39 84 65 85 66 86
REMARK SMILES IDX 75 87 67 88 68 89 74 90 76 91 69 92 70 93 71 94 72 95 73 96
REMARK SMILES IDX 49 97 50 98 59 99 51 100 52 101 58 102 60 103 53 104 54 105
REMARK SMILES IDX 55 106 56 107 57 108
REMARK H PARENT 12 7 7 13 19 39 81 58 47 69
REMARK Flexibility Score: inf
ROOT
ATOM      1  C   UNL A   1      49.069  23.716  38.083  1.00  0.00     0.002 C 
ENDROOT
BRANCH   1   2
ATOM      2  C   UNL A   1      48.762  23.313  39.531  1.00  0.00     0.021 C 
BRANCH   2   3
ATOM      3  C   UNL A   1      49.643  22.181  40.052  1.00  0.00     0.116 C 
BRANCH   3   4
ATOM      4  N   UNL A   1      49.483  20.999  39.228  1.00  0.00    -0.354 N 
ATOM      5  C   UNL A   1      49.094  19.735  39.537  1.00  0.00     0.242 C 
ATOM      6  O   UNL A   1      49.156  18.881  38.647  1.00  0.00    -0.273 OA
ATOM      7  H   UNL A   1      49.693  21.137  38.275  1.00  0.00     0.163 HD
BRANCH   5   8
ATOM      8  C   UNL A   1      48.555  19.382  40.929  1.00  0.00     0.168 C 
ATOM      9  C   UNL A   1      48.804  17.913  41.268  1.00  0.00     0.041 C 
BRANCH   8  10
ATOM     10  N   UNL A   1      47.155  19.783  41.072  1.00  0.00    -0.344 N 
ATOM     11  C   UNL A   1      46.027  19.073  40.787  1.00  0.00     0.225 C 
ATOM     12  O   UNL A   1      44.940  19.536  41.141  1.00  0.00    -0.275 OA
ATOM     13  H   UNL A   1      47.007  20.691  41.424  1.00  0.00     0.164 HD
BRANCH  11  14
ATOM     14  C   UNL A   1      46.111  17.754  40.024  1.00  0.00     0.143 C 
BRANCH  14  15
ATOM     15  C   UNL A   1      44.958  16.848  40.382  1.00  0.00     0.051 A 
ATOM     16  C   UNL A   1      45.924  16.168  42.611  1.00  0.00     0.046 C 
ATOM     17  C   UNL A   1      44.820  16.246  41.581  1.00  0.00    -0.029 A 
ATOM     18  C   UNL A   1      43.553  15.569  41.891  1.00  0.00     0.022 A 
ATOM     19  C   UNL A   1      43.928  16.703  39.317  1.00  0.00     0.340 A 
ATOM     20  C   UNL A   1      42.618  15.371  40.873  1.00  0.00     0.142 A 
ATOM     21  C   UNL A   1      43.312  15.019  43.154  1.00  0.00     0.024 A 
ATOM     22  O   UNL A   1      44.078  17.198  38.205  1.00  0.00    -0.246 OA
ATOM     23  O   UNL A   1      42.793  15.971  39.615  1.00  0.00    -0.422 OA
ATOM     24  C   UNL A   1      41.527  14.502  40.983  1.00  0.00     0.095 A 
ATOM     25  C   UNL A   1      42.357  14.000  43.236  1.00  0.00     0.025 A 
ATOM     26  C   UNL A   1      41.544  13.736  42.138  1.00  0.00     0.138 A 
ATOM     27  C   UNL A   1      42.207  12.907  44.120  1.00  0.00     0.001 A 
ATOM     28  O   UNL A   1      40.947  12.515  42.274  1.00  0.00    -0.461 OA
ATOM     29  C   UNL A   1      41.514  11.971  43.380  1.00  0.00     0.108 A 
ATOM     30  C   UNL A   1      43.099  12.460  45.221  1.00  0.00     0.040 C 
ATOM     31  C   UNL A   1      41.905  10.536  43.374  1.00  0.00     0.076 C 
ATOM     32  C   UNL A   1      44.026  11.346  44.686  1.00  0.00     0.005 C 
ATOM     33  C   UNL A   1      43.459  10.533  43.482  1.00  0.00     0.008 C 
ENDBRANCH  14  15
ENDBRANCH  11  14
ENDBRANCH   8  10
ENDBRANCH   5   8
ENDBRANCH   3   4
ENDBRANCH   2   3
ENDBRANCH   1   2
BRANCH   1  34
ATOM     34  C   UNL A   1      47.953  23.416  37.073  1.00  0.00     0.002 C 
BRANCH  34  35
ATOM     35  C   UNL A   1      46.639  24.153  37.330  1.00  0.00     0.021 C 
BRANCH  35  36
ATOM     36  C   UNL A   1      45.556  23.838  36.304  1.00  0.00     0.116 C 
BRANCH  36  37
ATOM     37  N   UNL A   1      44.216  24.017  36.835  1.00  0.00    -0.352 N 
ATOM     38  C   UNL A   1      43.165  24.702  36.263  1.00  0.00     0.251 C 
ATOM     39  H   UNL A   1      44.037  23.599  37.707  1.00  0.00     0.163 HD
ATOM     40  O   UNL A   1      42.118  24.870  36.860  1.00  0.00    -0.269 OA
BRANCH  38  41
ATOM     41  C   UNL A   1      43.372  25.257  34.911  1.00  0.00     0.039 A 
ATOM     42  C   UNL A   1      43.779  24.411  33.873  1.00  0.00     0.014 A 
ATOM     43  C   UNL A   1      43.276  26.634  34.728  1.00  0.00     0.014 A 
ATOM     44  C   UNL A   1      44.225  24.961  32.678  1.00  0.00     0.010 A 
ATOM     45  C   UNL A   1      43.681  27.179  33.513  1.00  0.00     0.010 A 
ATOM     46  C   UNL A   1      44.192  26.346  32.502  1.00  0.00    -0.014 A 
BRANCH  46  47
ATOM     47  C   UNL A   1      44.620  26.868  31.196  1.00  0.00     0.031 A 
ATOM     48  C   UNL A   1      44.545  25.860  30.109  1.00  0.00     0.074 A 
ATOM     49  C   UNL A   1      44.382  28.136  30.795  1.00  0.00     0.049 A 
ATOM     50  N   UNL A   1      43.400  25.591  29.560  1.00  0.00    -0.248 NA
ATOM     51  C   UNL A   1      45.612  24.932  29.756  1.00  0.00     0.031 C 
ATOM     52  C   UNL A   1      43.332  29.003  31.347  1.00  0.00     0.029 A 
ATOM     53  N   UNL A   1      44.829  28.805  29.680  1.00  0.00    -0.354 N 
ATOM     54  C   UNL A   1      43.556  24.436  28.830  1.00  0.00     0.074 A 
ATOM     55  C   UNL A   1      44.952  24.069  28.965  1.00  0.00     0.031 C 
ATOM     56  C   UNL A   1      43.083  29.990  30.462  1.00  0.00     0.029 A 
ATOM     57  C   UNL A   1      44.066  29.925  29.391  1.00  0.00     0.049 A 
ATOM     58  H   UNL A   1      45.605  28.520  29.147  1.00  0.00     0.167 HD
ATOM     59  C   UNL A   1      42.519  23.861  28.168  1.00  0.00     0.037 A 
ATOM     60  C   UNL A   1      43.988  30.557  28.193  1.00  0.00     0.037 A 
ATOM     61  C   UNL A   1      41.229  24.527  28.164  1.00  0.00     0.049 A 
ATOM     62  C   UNL A   1      42.994  29.693  27.463  1.00  0.00     0.074 A 
ATOM     63  C   UNL A   1      39.911  24.191  27.905  1.00  0.00     0.029 A 
ATOM     64  N   UNL A   1      41.191  25.876  28.412  1.00  0.00    -0.354 N 
ATOM     65  N   UNL A   1      41.693  29.738  27.616  1.00  0.00    -0.248 NA
ATOM     66  C   UNL A   1      43.479  28.505  26.739  1.00  0.00     0.031 C 
ATOM     67  C   UNL A   1      39.179  25.414  27.736  1.00  0.00     0.029 A 
ATOM     68  C   UNL A   1      40.081  26.454  27.853  1.00  0.00     0.049 A 
ATOM     69  H   UNL A   1      41.873  26.366  28.926  1.00  0.00     0.167 HD
ATOM     70  C   UNL A   1      41.252  28.473  27.252  1.00  0.00     0.074 A 
ATOM     71  C   UNL A   1      42.360  27.805  26.606  1.00  0.00     0.031 C 
ATOM     72  C   UNL A   1      40.112  27.887  27.713  1.00  0.00     0.037 A 
BRANCH  59  73
ATOM     73  C   UNL A   1      42.727  22.708  27.266  1.00  0.00     0.058 A 
ATOM     74  C   UNL A   1      42.208  21.464  27.659  1.00  0.00     0.135 A 
ATOM     75  C   UNL A   1      43.535  22.757  26.125  1.00  0.00     0.135 A 
ATOM     76  F   UNL A   1      41.413  21.378  28.739  1.00  0.00    -0.206 F 
ATOM     77  C   UNL A   1      42.516  20.298  26.976  1.00  0.00     0.059 A 
ATOM     78  C   UNL A   1      43.853  21.599  25.417  1.00  0.00     0.059 A 
ATOM     79  F   UNL A   1      44.048  23.927  25.709  1.00  0.00    -0.206 F 
ATOM     80  C   UNL A   1      43.356  20.372  25.866  1.00  0.00     0.060 A 
BRANCH  80  81
ATOM     81  S   UNL A   1      43.803  18.829  25.043  1.00  0.00     0.124 S 
ATOM     82  O   UNL A   1      42.657  17.980  25.352  1.00  0.00    -0.237 OA
ATOM     83  O   UNL A   1      43.925  19.253  23.652  1.00  0.00    -0.237 OA
ATOM     84  O   UNL A   1      45.055  18.449  25.691  1.00  0.00    -0.744 OA
ENDBRANCH  80  81
ENDBRANCH  59  73
BRANCH  60  85
ATOM     85  C   UNL A   1      45.306  31.020  27.657  1.00  0.00     0.058 A 
ATOM     86  C   UNL A   1      45.473  32.413  27.462  1.00  0.00     0.135 A 
ATOM     87  C   UNL A   1      46.410  30.221  27.338  1.00  0.00     0.135 A 
ATOM     88  F   UNL A   1      44.430  33.249  27.606  1.00  0.00    -0.206 F 
ATOM     89  C   UNL A   1      46.701  32.984  27.150  1.00  0.00     0.059 A 
ATOM     90  C   UNL A   1      47.661  30.770  27.043  1.00  0.00     0.059 A 
ATOM     91  F   UNL A   1      46.317  28.885  27.324  1.00  0.00    -0.206 F 
ATOM     92  C   UNL A   1      47.804  32.154  26.991  1.00  0.00     0.060 A 
BRANCH  92  93
ATOM     93  S   UNL A   1      49.423  32.921  26.791  1.00  0.00     0.124 S 
ATOM     94  O   UNL A   1      49.456  33.857  27.909  1.00  0.00    -0.237 OA
ATOM     95  O   UNL A   1      50.313  31.769  26.902  1.00  0.00    -0.237 OA
ATOM     96  O   UNL A   1      49.350  33.524  25.464  1.00  0.00    -0.744 OA
ENDBRANCH  92  93
ENDBRANCH  60  85
BRANCH  72  97
ATOM     97  C   UNL A   1      39.024  28.759  28.209  1.00  0.00     0.058 A 
ATOM     98  C   UNL A   1      38.697  28.760  29.574  1.00  0.00     0.135 A 
ATOM     99  C   UNL A   1      38.342  29.649  27.369  1.00  0.00     0.135 A 
ATOM    100  F   UNL A   1      39.351  27.961  30.433  1.00  0.00    -0.206 F 
ATOM    101  C   UNL A   1      37.729  29.613  30.089  1.00  0.00     0.059 A 
ATOM    102  C   UNL A   1      37.376  30.520  27.866  1.00  0.00     0.059 A 
ATOM    103  F   UNL A   1      38.608  29.687  26.053  1.00  0.00    -0.206 F 
ATOM    104  C   UNL A   1      37.077  30.495  29.228  1.00  0.00     0.060 A 
BRANCH 104 105
ATOM    105  S   UNL A   1      35.883  31.650  29.930  1.00  0.00     0.124 S 
ATOM    106  O   UNL A   1      35.564  31.019  31.206  1.00  0.00    -0.237 OA
ATOM    107  O   UNL A   1      36.657  32.886  30.010  1.00  0.00    -0.237 OA
ATOM    108  O   UNL A   1      34.801  31.661  28.950  1.00  0.00    -0.744 OA
ENDBRANCH 104 105
ENDBRANCH  72  97
ENDBRANCH  46  47
ENDBRANCH  38  41
ENDBRANCH  36  37
ENDBRANCH  35  36
ENDBRANCH  34  35
ENDBRANCH   1  34
TORSDOF 19
ENDMDL
MODEL 2
REMARK VINA RESULT:     -12.7      8.291     21.079
REMARK SMILES Cc1c(CC(=O)N[C@@H](C)C(=O)NCCCCCCNC(=O)c2ccc(-c3c4nc(c(-c5c(F)cc(S(=O)(=O)[O-])cc5F)c5ccc([nH]5)c(-c5c(F)cc(S(=O)(=O)[O-])cc5F)c5nc(c(-c6c(F)cc(S(=O)(=O)[O-])cc6F)c6ccc3[nH]6)C=C5)C=C4)cc2)c(=O)oc2cc3oc4c(c3cc12)CCCC4
REMARK SMILES IDX 15 1 14 2 13 3 12 4 10 5 11 6 8 8 9 9 7 10 5 11 6 12 4 14
REMARK SMILES IDX 3 15 1 16 2 17 99 18 88 19 91 20 98 21 89 22 90 23 92 24
REMARK SMILES IDX 97 25 93 26 96 27 94 28 95 29 100 30 103 31 101 32 102 33
REMARK SMILES IDX 16 34 17 35 18 36 19 37 20 38 21 40 22 41 23 42 87 43 24 44
REMARK SMILES IDX 86 45 25 46 26 47 27 48 80 49 28 50 85 51 79 52 81 53 29 54
REMARK SMILES IDX 84 55 78 56 77 57 30 59 64 60 43 61 63 62 44 63 47 64 62 65
REMARK SMILES IDX 82 66 45 67 46 68 61 70 83 71 48 72 31 73 32 74 41 75 33 76
REMARK SMILES IDX 34 77 40 78 42 79 35 80 36 81 37 82 38 83 39 84 65 85 66 86
REMARK SMILES IDX 75 87 67 88 68 89 74 90 76 91 69 92 70 93 71 94 72 95 73 96
REMARK SMILES IDX 49 97 50 98 59 99 51 100 52 101 58 102 60 103 53 104 54 105
REMARK SMILES IDX 55 106 56 107 57 108
REMARK H PARENT 12 7 7 13 19 39 81 58 47 69
REMARK Flexibility Score: inf
ROOT
ATOM      1  C   UNL A   1      45.288  37.516  29.114  1.00  0.00     0.002 C 
ENDROOT
BRANCH   1   2
ATOM      2  C   UNL A   1      44.108  38.188  28.401  1.00  0.00     0.021 C 
BRANCH   2   3
ATOM      3  C   UNL A   1      44.178  39.712  28.405  1.00  0.00     0.116 C 
BRANCH   3   4
ATOM      4  N   UNL A   1      43.301  40.259  27.388  1.00  0.00    -0.354 N 
ATOM      5  C   UNL A   1      43.484  41.259  26.487  1.00  0.00     0.242 C 
ATOM      6  O   UNL A   1      42.515  41.602  25.804  1.00  0.00    -0.273 OA
ATOM      7  H   UNL A   1      42.416  39.829  27.342  1.00  0.00     0.163 HD
BRANCH   5   8
ATOM      8  C   UNL A   1      44.855  41.917  26.290  1.00  0.00     0.168 C 
ATOM      9  C   UNL A   1      44.800  43.419  26.565  1.00  0.00     0.041 C 
BRANCH   8  10
ATOM     10  N   UNL A   1      45.419  41.585  24.981  1.00  0.00    -0.344 N 
ATOM     11  C   UNL A   1      45.343  42.286  23.813  1.00  0.00     0.225 C 
ATOM     12  O   UNL A   1      46.033  41.912  22.861  1.00  0.00    -0.275 OA
ATOM     13  H   UNL A   1      45.922  40.740  24.936  1.00  0.00     0.164 HD
BRANCH  11  14
ATOM     14  C   UNL A   1      44.405  43.482  23.685  1.00  0.00     0.143 C 
BRANCH  14  15
ATOM     15  C   UNL A   1      43.889  43.617  22.273  1.00  0.00     0.051 A 
ATOM     16  C   UNL A   1      45.307  45.633  21.734  1.00  0.00     0.046 C 
ATOM     17  C   UNL A   1      44.383  44.492  21.373  1.00  0.00    -0.029 A 
ATOM     18  C   UNL A   1      43.956  44.381  19.971  1.00  0.00     0.022 A 
ATOM     19  C   UNL A   1      42.811  42.656  21.911  1.00  0.00     0.340 A 
ATOM     20  C   UNL A   1      42.896  43.533  19.645  1.00  0.00     0.142 A 
ATOM     21  C   UNL A   1      44.511  45.190  18.975  1.00  0.00     0.024 A 
ATOM     22  O   UNL A   1      42.317  41.901  22.742  1.00  0.00    -0.246 OA
ATOM     23  O   UNL A   1      42.364  42.653  20.603  1.00  0.00    -0.422 OA
ATOM     24  C   UNL A   1      42.229  43.565  18.415  1.00  0.00     0.095 A 
ATOM     25  C   UNL A   1      43.753  45.392  17.817  1.00  0.00     0.025 A 
ATOM     26  C   UNL A   1      42.612  44.622  17.605  1.00  0.00     0.138 A 
ATOM     27  C   UNL A   1      43.696  46.459  16.892  1.00  0.00     0.001 A 
ATOM     28  O   UNL A   1      41.831  45.190  16.639  1.00  0.00    -0.461 OA
ATOM     29  C   UNL A   1      42.419  46.382  16.372  1.00  0.00     0.108 A 
ATOM     30  C   UNL A   1      44.401  47.766  16.920  1.00  0.00     0.040 C 
ATOM     31  C   UNL A   1      41.575  47.594  16.195  1.00  0.00     0.076 C 
ATOM     32  C   UNL A   1      43.459  48.823  17.542  1.00  0.00     0.005 C 
ATOM     33  C   UNL A   1      41.936  48.524  17.391  1.00  0.00     0.008 C 
ENDBRANCH  14  15
ENDBRANCH  11  14
ENDBRANCH   8  10
ENDBRANCH   5   8
ENDBRANCH   3   4
ENDBRANCH   2   3
ENDBRANCH   1   2
BRANCH   1  34
ATOM     34  C   UNL A   1      46.565  37.377  28.273  1.00  0.00     0.002 C 
BRANCH  34  35
ATOM     35  C   UNL A   1      46.332  37.280  26.765  1.00  0.00     0.021 C 
BRANCH  35  36
ATOM     36  C   UNL A   1      46.638  35.900  26.192  1.00  0.00     0.116 C 
BRANCH  36  37
ATOM     37  N   UNL A   1      45.677  35.489  25.184  1.00  0.00    -0.352 N 
ATOM     38  C   UNL A   1      44.556  34.704  25.356  1.00  0.00     0.251 C 
ATOM     39  H   UNL A   1      45.845  35.809  24.270  1.00  0.00     0.163 HD
ATOM     40  O   UNL A   1      43.885  34.341  24.409  1.00  0.00    -0.269 OA
BRANCH  38  41
ATOM     41  C   UNL A   1      44.222  34.291  26.733  1.00  0.00     0.039 A 
ATOM     42  C   UNL A   1      44.797  33.131  27.264  1.00  0.00     0.014 A 
ATOM     43  C   UNL A   1      43.246  35.000  27.429  1.00  0.00     0.014 A 
ATOM     44  C   UNL A   1      44.296  32.597  28.444  1.00  0.00     0.010 A 
ATOM     45  C   UNL A   1      42.777  34.486  28.635  1.00  0.00     0.010 A 
ATOM     46  C   UNL A   1      43.274  33.265  29.123  1.00  0.00    -0.014 A 
BRANCH  46  47
ATOM     47  C   UNL A   1      42.823  32.686  30.397  1.00  0.00     0.031 A 
ATOM     48  C   UNL A   1      41.388  32.938  30.679  1.00  0.00     0.074 A 
ATOM     49  C   UNL A   1      43.285  31.510  30.876  1.00  0.00     0.049 A 
ATOM     50  N   UNL A   1      40.481  32.215  30.097  1.00  0.00    -0.248 NA
ATOM     51  C   UNL A   1      40.867  34.112  31.369  1.00  0.00     0.031 C 
ATOM     52  C   UNL A   1      43.911  30.463  30.058  1.00  0.00     0.029 A 
ATOM     53  N   UNL A   1      43.068  30.911  32.095  1.00  0.00    -0.354 N 
ATOM     54  C   UNL A   1      39.272  32.845  30.282  1.00  0.00     0.074 A 
ATOM     55  C   UNL A   1      39.555  34.011  31.095  1.00  0.00     0.031 C 
ATOM     56  C   UNL A   1      43.849  29.297  30.734  1.00  0.00     0.029 A 
ATOM     57  C   UNL A   1      43.354  29.555  32.078  1.00  0.00     0.049 A 
ATOM     58  H   UNL A   1      42.746  31.392  32.890  1.00  0.00     0.167 HD
ATOM     59  C   UNL A   1      38.122  32.359  29.748  1.00  0.00     0.037 A 
ATOM     60  C   UNL A   1      42.895  28.626  32.954  1.00  0.00     0.037 A 
ATOM     61  C   UNL A   1      38.156  31.097  29.029  1.00  0.00     0.049 A 
ATOM     62  C   UNL A   1      41.525  28.343  32.400  1.00  0.00     0.074 A 
ATOM     63  C   UNL A   1      37.357  30.421  28.123  1.00  0.00     0.029 A 
ATOM     64  N   UNL A   1      39.186  30.229  29.285  1.00  0.00    -0.354 N 
ATOM     65  N   UNL A   1      41.266  27.564  31.378  1.00  0.00    -0.248 NA
ATOM     66  C   UNL A   1      40.399  29.201  32.810  1.00  0.00     0.031 C 
ATOM     67  C   UNL A   1      37.802  29.057  28.090  1.00  0.00     0.029 A 
ATOM     68  C   UNL A   1      38.828  28.935  29.007  1.00  0.00     0.049 A 
ATOM     69  H   UNL A   1      40.070  30.500  29.625  1.00  0.00     0.167 HD
ATOM     70  C   UNL A   1      40.061  28.036  30.872  1.00  0.00     0.074 A 
ATOM     71  C   UNL A   1      39.514  28.946  31.854  1.00  0.00     0.031 C 
ATOM     72  C   UNL A   1      39.661  27.908  29.576  1.00  0.00     0.037 A 
BRANCH  59  73
ATOM     73  C   UNL A   1      36.809  32.955  30.077  1.00  0.00     0.058 A 
ATOM     74  C   UNL A   1      36.163  33.711  29.085  1.00  0.00     0.135 A 
ATOM     75  C   UNL A   1      36.252  32.933  31.360  1.00  0.00     0.135 A 
ATOM     76  F   UNL A   1      36.658  33.742  27.836  1.00  0.00    -0.206 F 
ATOM     77  C   UNL A   1      35.031  34.460  29.362  1.00  0.00     0.059 A 
ATOM     78  C   UNL A   1      35.109  33.673  31.661  1.00  0.00     0.059 A 
ATOM     79  F   UNL A   1      36.832  32.219  32.338  1.00  0.00    -0.206 F 
ATOM     80  C   UNL A   1      34.520  34.450  30.659  1.00  0.00     0.060 A 
BRANCH  80  81
ATOM     81  S   UNL A   1      33.092  35.496  31.010  1.00  0.00     0.124 S 
ATOM     82  O   UNL A   1      32.595  34.919  32.255  1.00  0.00    -0.237 OA
ATOM     83  O   UNL A   1      33.704  36.816  31.120  1.00  0.00    -0.237 OA
ATOM     84  O   UNL A   1      32.234  35.302  29.845  1.00  0.00    -0.744 OA
ENDBRANCH  80  81
ENDBRANCH  59  73
BRANCH  60  85
ATOM     85  C   UNL A   1      43.217  28.921  34.385  1.00  0.00     0.058 A 
ATOM     86  C   UNL A   1      44.094  28.030  35.050  1.00  0.00     0.135 A 
ATOM     87  C   UNL A   1      42.755  30.004  35.143  1.00  0.00     0.135 A 
ATOM     88  F   UNL A   1      44.481  26.888  34.454  1.00  0.00    -0.206 F 
ATOM     89  C   UNL A   1      44.616  28.291  36.311  1.00  0.00     0.059 A 
ATOM     90  C   UNL A   1      43.280  30.302  36.404  1.00  0.00     0.059 A 
ATOM     91  F   UNL A   1      41.798  30.817  34.679  1.00  0.00    -0.206 F 
ATOM     92  C   UNL A   1      44.239  29.461  36.961  1.00  0.00     0.060 A 
BRANCH  92  93
ATOM     93  S   UNL A   1      45.079  29.886  38.499  1.00  0.00     0.124 S 
ATOM     94  O   UNL A   1      46.344  30.426  38.014  1.00  0.00    -0.237 OA
ATOM     95  O   UNL A   1      44.156  30.856  39.081  1.00  0.00    -0.237 OA
ATOM     96  O   UNL A   1      45.165  28.610  39.201  1.00  0.00    -0.744 OA
ENDBRANCH  92  93
ENDBRANCH  60  85
BRANCH  72  97
ATOM     97  C   UNL A   1      40.240  26.813  28.767  1.00  0.00     0.058 A 
ATOM     98  C   UNL A   1      41.405  27.039  28.016  1.00  0.00     0.135 A 
ATOM     99  C   UNL A   1      39.703  25.519  28.772  1.00  0.00     0.135 A 
ATOM    100  F   UNL A   1      41.989  28.250  28.012  1.00  0.00    -0.206 F 
ATOM    101  C   UNL A   1      42.016  26.021  27.297  1.00  0.00     0.059 A 
ATOM    102  C   UNL A   1      40.306  24.480  28.068  1.00  0.00     0.059 A 
ATOM    103  F   UNL A   1      38.586  25.245  29.466  1.00  0.00    -0.206 F 
ATOM    104  C   UNL A   1      41.464  24.741  27.333  1.00  0.00     0.060 A 
BRANCH 104 105
ATOM    105  S   UNL A   1      42.319  23.414  26.460  1.00  0.00     0.124 S 
ATOM    106  O   UNL A   1      43.105  22.806  27.528  1.00  0.00    -0.237 OA
ATOM    107  O   UNL A   1      41.209  22.611  25.953  1.00  0.00    -0.237 OA
ATOM    108  O   UNL A   1      43.089  24.119  25.439  1.00  0.00    -0.744 OA
ENDBRANCH 104 105
ENDBRANCH  72  97
ENDBRANCH  46  47
ENDBRANCH  38  41
ENDBRANCH  36  37
ENDBRANCH  35  36
ENDBRANCH  34  35
ENDBRANCH   1  34
TORSDOF 19
ENDMDL
MODEL 3
REMARK VINA RESULT:     -12.6      7.344     15.414
REMARK SMILES Cc1c(CC(=O)N[C@@H](C)C(=O)NCCCCCCNC(=O)c2ccc(-c3c4nc(c(-c5c(F)cc(S(=O)(=O)[O-])cc5F)c5ccc([nH]5)c(-c5c(F)cc(S(=O)(=O)[O-])cc5F)c5nc(c(-c6c(F)cc(S(=O)(=O)[O-])cc6F)c6ccc3[nH]6)C=C5)C=C4)cc2)c(=O)oc2cc3oc4c(c3cc12)CCCC4
REMARK SMILES IDX 15 1 14 2 13 3 12 4 10 5 11 6 8 8 9 9 7 10 5 11 6 12 4 14
REMARK SMILES IDX 3 15 1 16 2 17 99 18 88 19 91 20 98 21 89 22 90 23 92 24
REMARK SMILES IDX 97 25 93 26 96 27 94 28 95 29 100 30 103 31 101 32 102 33
REMARK SMILES IDX 16 34 17 35 18 36 19 37 20 38 21 40 22 41 23 42 87 43 24 44
REMARK SMILES IDX 86 45 25 46 26 47 27 48 80 49 28 50 85 51 79 52 81 53 29 54
REMARK SMILES IDX 84 55 78 56 77 57 30 59 64 60 43 61 63 62 44 63 47 64 62 65
REMARK SMILES IDX 82 66 45 67 46 68 61 70 83 71 48 72 31 73 32 74 41 75 33 76
REMARK SMILES IDX 34 77 40 78 42 79 35 80 36 81 37 82 38 83 39 84 65 85 66 86
REMARK SMILES IDX 75 87 67 88 68 89 74 90 76 91 69 92 70 93 71 94 72 95 73 96
REMARK SMILES IDX 49 97 50 98 59 99 51 100 52 101 58 102 60 103 53 104 54 105
REMARK SMILES IDX 55 106 56 107 57 108
REMARK H PARENT 12 7 7 13 19 39 81 58 47 69
REMARK Flexibility Score: inf
ROOT
ATOM      1  C   UNL A   1      38.257  21.950  25.785  1.00  0.00     0.002 C 
ENDROOT
BRANCH   1   2
ATOM      2  C   UNL A   1      37.554  21.150  24.681  1.00  0.00     0.021 C 
BRANCH   2   3
ATOM      3  C   UNL A   1      36.163  20.660  25.069  1.00  0.00     0.116 C 
BRANCH   3   4
ATOM      4  N   UNL A   1      35.692  21.364  26.246  1.00  0.00    -0.354 N 
ATOM      5  C   UNL A   1      34.559  22.078  26.472  1.00  0.00     0.242 C 
ATOM      6  O   UNL A   1      34.462  22.678  27.546  1.00  0.00    -0.273 OA
ATOM      7  H   UNL A   1      36.302  21.317  27.018  1.00  0.00     0.163 HD
BRANCH   5   8
ATOM      8  C   UNL A   1      33.415  22.106  25.451  1.00  0.00     0.168 C 
ATOM      9  C   UNL A   1      32.810  20.718  25.250  1.00  0.00     0.041 C 
BRANCH   8  10
ATOM     10  N   UNL A   1      33.835  22.744  24.202  1.00  0.00    -0.344 N 
ATOM     11  C   UNL A   1      34.054  24.066  23.947  1.00  0.00     0.225 C 
ATOM     12  O   UNL A   1      34.569  24.375  22.870  1.00  0.00    -0.275 OA
ATOM     13  H   UNL A   1      33.981  22.135  23.442  1.00  0.00     0.164 HD
BRANCH  11  14
ATOM     14  C   UNL A   1      33.644  25.131  24.959  1.00  0.00     0.143 C 
BRANCH  14  15
ATOM     15  C   UNL A   1      32.262  25.659  24.659  1.00  0.00     0.051 A 
ATOM     16  C   UNL A   1      33.085  27.570  23.233  1.00  0.00     0.046 C 
ATOM     17  C   UNL A   1      32.013  26.663  23.793  1.00  0.00    -0.029 A 
ATOM     18  C   UNL A   1      30.621  26.942  23.415  1.00  0.00     0.022 A 
ATOM     19  C   UNL A   1      31.158  24.942  25.356  1.00  0.00     0.340 A 
ATOM     20  C   UNL A   1      29.585  26.323  24.118  1.00  0.00     0.142 A 
ATOM     21  C   UNL A   1      30.308  27.898  22.444  1.00  0.00     0.024 A 
ATOM     22  O   UNL A   1      31.382  24.071  26.189  1.00  0.00    -0.246 OA
ATOM     23  O   UNL A   1      29.860  25.305  25.047  1.00  0.00    -0.422 OA
ATOM     24  C   UNL A   1      28.248  26.726  24.040  1.00  0.00     0.095 A 
ATOM     25  C   UNL A   1      29.027  28.458  22.486  1.00  0.00     0.025 A 
ATOM     26  C   UNL A   1      28.063  27.897  23.320  1.00  0.00     0.138 A 
ATOM     27  C   UNL A   1      28.524  29.715  22.081  1.00  0.00     0.001 A 
ATOM     28  O   UNL A   1      27.024  28.765  23.493  1.00  0.00    -0.461 OA
ATOM     29  C   UNL A   1      27.424  29.912  22.890  1.00  0.00     0.108 A 
ATOM     30  C   UNL A   1      29.256  30.889  21.537  1.00  0.00     0.040 C 
ATOM     31  C   UNL A   1      27.165  31.219  23.552  1.00  0.00     0.076 C 
ATOM     32  C   UNL A   1      29.558  31.864  22.698  1.00  0.00     0.005 C 
ATOM     33  C   UNL A   1      28.572  31.786  23.903  1.00  0.00     0.008 C 
ENDBRANCH  14  15
ENDBRANCH  11  14
ENDBRANCH   8  10
ENDBRANCH   5   8
ENDBRANCH   3   4
ENDBRANCH   2   3
ENDBRANCH   1   2
BRANCH   1  34
ATOM     34  C   UNL A   1      39.697  21.514  26.091  1.00  0.00     0.002 C 
BRANCH  34  35
ATOM     35  C   UNL A   1      40.230  21.972  27.449  1.00  0.00     0.021 C 
BRANCH  35  36
ATOM     36  C   UNL A   1      41.732  21.763  27.611  1.00  0.00     0.116 C 
BRANCH  36  37
ATOM     37  N   UNL A   1      42.393  21.470  26.351  1.00  0.00    -0.352 N 
ATOM     38  C   UNL A   1      43.142  22.326  25.571  1.00  0.00     0.251 C 
ATOM     39  H   UNL A   1      42.296  20.551  26.015  1.00  0.00     0.163 HD
ATOM     40  O   UNL A   1      43.557  21.988  24.478  1.00  0.00    -0.269 OA
BRANCH  38  41
ATOM     41  C   UNL A   1      43.388  23.682  26.096  1.00  0.00     0.039 A 
ATOM     42  C   UNL A   1      42.383  24.652  26.003  1.00  0.00     0.014 A 
ATOM     43  C   UNL A   1      44.661  24.001  26.564  1.00  0.00     0.014 A 
ATOM     44  C   UNL A   1      42.692  25.983  26.252  1.00  0.00     0.010 A 
ATOM     45  C   UNL A   1      44.955  25.329  26.856  1.00  0.00     0.010 A 
ATOM     46  C   UNL A   1      43.982  26.326  26.663  1.00  0.00    -0.014 A 
BRANCH  46  47
ATOM     47  C   UNL A   1      44.236  27.742  26.969  1.00  0.00     0.031 A 
ATOM     48  C   UNL A   1      42.997  28.513  27.240  1.00  0.00     0.074 A 
ATOM     49  C   UNL A   1      45.316  28.164  27.662  1.00  0.00     0.049 A 
ATOM     50  N   UNL A   1      42.426  28.426  28.401  1.00  0.00    -0.248 NA
ATOM     51  C   UNL A   1      42.193  29.184  26.225  1.00  0.00     0.031 C 
ATOM     52  C   UNL A   1      46.112  27.318  28.563  1.00  0.00     0.029 A 
ATOM     53  N   UNL A   1      45.760  29.441  27.908  1.00  0.00    -0.354 N 
ATOM     54  C   UNL A   1      41.169  28.971  28.283  1.00  0.00     0.074 A 
ATOM     55  C   UNL A   1      41.072  29.447  26.918  1.00  0.00     0.031 C 
ATOM     56  C   UNL A   1      46.805  28.119  29.399  1.00  0.00     0.029 A 
ATOM     57  C   UNL A   1      46.641  29.502  28.976  1.00  0.00     0.049 A 
ATOM     58  H   UNL A   1      45.481  30.227  27.384  1.00  0.00     0.167 HD
ATOM     59  C   UNL A   1      40.295  28.988  29.323  1.00  0.00     0.037 A 
ATOM     60  C   UNL A   1      46.946  30.604  29.706  1.00  0.00     0.037 A 
ATOM     61  C   UNL A   1      40.727  28.490  30.616  1.00  0.00     0.049 A 
ATOM     62  C   UNL A   1      45.785  30.659  30.663  1.00  0.00     0.074 A 
ATOM     63  C   UNL A   1      40.134  28.058  31.790  1.00  0.00     0.029 A 
ATOM     64  N   UNL A   1      42.072  28.448  30.883  1.00  0.00    -0.354 N 
ATOM     65  N   UNL A   1      45.659  29.930  31.744  1.00  0.00    -0.248 NA
ATOM     66  C   UNL A   1      44.551  31.347  30.247  1.00  0.00     0.031 C 
ATOM     67  C   UNL A   1      41.148  28.043  32.806  1.00  0.00     0.029 A 
ATOM     68  C   UNL A   1      42.315  28.506  32.230  1.00  0.00     0.049 A 
ATOM     69  H   UNL A   1      42.774  28.385  30.194  1.00  0.00     0.167 HD
ATOM     70  C   UNL A   1      44.290  29.863  31.966  1.00  0.00     0.074 A 
ATOM     71  C   UNL A   1      43.670  30.846  31.104  1.00  0.00     0.031 C 
ATOM     72  C   UNL A   1      43.658  28.849  32.621  1.00  0.00     0.037 A 
BRANCH  59  73
ATOM     73  C   UNL A   1      39.006  29.709  29.233  1.00  0.00     0.058 A 
ATOM     74  C   UNL A   1      37.956  29.092  28.534  1.00  0.00     0.135 A 
ATOM     75  C   UNL A   1      38.827  31.025  29.672  1.00  0.00     0.135 A 
ATOM     76  F   UNL A   1      38.084  27.823  28.112  1.00  0.00    -0.206 F 
ATOM     77  C   UNL A   1      36.784  29.769  28.236  1.00  0.00     0.059 A 
ATOM     78  C   UNL A   1      37.653  31.724  29.391  1.00  0.00     0.059 A 
ATOM     79  F   UNL A   1      39.802  31.652  30.349  1.00  0.00    -0.206 F 
ATOM     80  C   UNL A   1      36.648  31.092  28.652  1.00  0.00     0.060 A 
BRANCH  80  81
ATOM     81  S   UNL A   1      35.144  31.973  28.183  1.00  0.00     0.124 S 
ATOM     82  O   UNL A   1      34.542  32.253  29.483  1.00  0.00    -0.237 OA
ATOM     83  O   UNL A   1      35.681  33.127  27.468  1.00  0.00    -0.237 OA
ATOM     84  O   UNL A   1      34.428  31.007  27.357  1.00  0.00    -0.744 OA
ENDBRANCH  80  81
ENDBRANCH  59  73
BRANCH  60  85
ATOM     85  C   UNL A   1      47.469  31.749  28.897  1.00  0.00     0.058 A 
ATOM     86  C   UNL A   1      48.469  31.461  27.936  1.00  0.00     0.135 A 
ATOM     87  C   UNL A   1      47.063  33.087  28.975  1.00  0.00     0.135 A 
ATOM     88  F   UNL A   1      49.023  30.238  27.880  1.00  0.00    -0.206 F 
ATOM     89  C   UNL A   1      48.900  32.393  27.000  1.00  0.00     0.059 A 
ATOM     90  C   UNL A   1      47.464  34.038  28.033  1.00  0.00     0.059 A 
ATOM     91  F   UNL A   1      46.249  33.508  29.952  1.00  0.00    -0.206 F 
ATOM     92  C   UNL A   1      48.352  33.670  27.026  1.00  0.00     0.060 A 
BRANCH  92  93
ATOM     93  S   UNL A   1      48.768  34.800  25.684  1.00  0.00     0.124 S 
ATOM     94  O   UNL A   1      47.551  34.776  24.880  1.00  0.00    -0.237 OA
ATOM     95  O   UNL A   1      49.024  36.040  26.410  1.00  0.00    -0.237 OA
ATOM     96  O   UNL A   1      49.941  34.183  25.074  1.00  0.00    -0.744 OA
ENDBRANCH  92  93
ENDBRANCH  60  85
BRANCH  72  97
ATOM     97  C   UNL A   1      44.441  28.036  33.578  1.00  0.00     0.058 A 
ATOM     98  C   UNL A   1      44.507  28.416  34.928  1.00  0.00     0.135 A 
ATOM     99  C   UNL A   1      45.073  26.845  33.200  1.00  0.00     0.135 A 
ATOM    100  F   UNL A   1      43.880  29.525  35.355  1.00  0.00    -0.206 F 
ATOM    101  C   UNL A   1      45.175  27.645  35.870  1.00  0.00     0.059 A 
ATOM    102  C   UNL A   1      45.739  26.049  34.129  1.00  0.00     0.059 A 
ATOM    103  F   UNL A   1      45.050  26.434  31.921  1.00  0.00    -0.206 F 
ATOM    104  C   UNL A   1      45.784  26.458  35.462  1.00  0.00     0.060 A 
BRANCH 104 105
ATOM    105  S   UNL A   1      46.575  25.429  36.715  1.00  0.00     0.124 S 
ATOM    106  O   UNL A   1      45.830  24.180  36.597  1.00  0.00    -0.237 OA
ATOM    107  O   UNL A   1      47.960  25.387  36.252  1.00  0.00    -0.237 OA
ATOM    108  O   UNL A   1      46.360  26.172  37.953  1.00  0.00    -0.744 OA
ENDBRANCH 104 105
ENDBRANCH  72  97
ENDBRANCH  46  47
ENDBRANCH  38  41
ENDBRANCH  36  37
ENDBRANCH  35  36
ENDBRANCH  34  35
ENDBRANCH   1  34
TORSDOF 19
ENDMDL
