MODEL 1
REMARK VINA RESULT:     -13.9      0.000      0.000
REMARK SMILES Cc1cccc(S(=O)(=O)Nc2cc(C(=O)NCCCCCCNC(=O)c3ccc(-c4c5nc(c(-c6c(F)cc(S(=O)(=O)[O-])cc6F)c6ccc([nH]6)c(-c6c(F)cc(S(=O)(=O)[O-])cc6F)c6nc(c(-c7c(F)cc(S(=O)(=O)[O-])cc7F)c7ccc4[nH]7)C=C6)C=C5)cc3)ccc2N2CCC[C@H](C[NH+]3CCCC3)C2)c1
REMARK SMILES IDX 19 1 18 2 17 3 16 4 14 5 15 6 13 8 11 9 12 10 94 11 93 12
REMARK SMILES IDX 92 13 10 14 7 16 8 17 9 18 6 19 1 20 2 21 3 22 107 23 4 24
REMARK SMILES IDX 5 25 95 26 96 27 106 28 97 29 99 30 98 31 100 32 101 33
REMARK SMILES IDX 102 34 105 35 103 37 104 38 20 39 21 40 22 41 23 42 24 43
REMARK SMILES IDX 25 45 26 46 27 47 91 48 28 49 90 50 29 51 30 52 31 53 84 54
REMARK SMILES IDX 32 55 89 56 83 57 85 58 33 59 88 60 82 61 81 62 34 64 68 65
REMARK SMILES IDX 47 66 67 67 48 68 51 69 66 70 86 71 49 72 50 73 65 75 87 76
REMARK SMILES IDX 52 77 35 78 36 79 45 80 37 81 38 82 44 83 46 84 39 85 40 86
REMARK SMILES IDX 41 87 42 88 43 89 69 90 70 91 79 92 71 93 72 94 78 95 80 96
REMARK SMILES IDX 73 97 74 98 75 99 76 100 77 101 53 102 54 103 63 104 55 105
REMARK SMILES IDX 56 106 62 107 64 108 57 109 58 110 59 111 60 112 61 113
REMARK H PARENT 16 7 10 15 101 36 23 44 85 63 51 74
REMARK Flexibility Score: inf
ROOT
ATOM      1  C   UNL A   1      31.027  29.418  25.110  1.00  0.00     0.002 C 
ENDROOT
BRANCH   1   2
ATOM      2  C   UNL A   1      30.625  29.736  23.665  1.00  0.00     0.021 C 
BRANCH   2   3
ATOM      3  C   UNL A   1      30.284  28.501  22.833  1.00  0.00     0.116 C 
BRANCH   3   4
ATOM      4  N   UNL A   1      28.979  27.968  23.185  1.00  0.00    -0.352 N 
ATOM      5  C   UNL A   1      28.583  26.809  23.799  1.00  0.00     0.251 C 
ATOM      6  O   UNL A   1      27.387  26.682  24.068  1.00  0.00    -0.269 OA
ATOM      7  H   UNL A   1      28.232  28.557  22.933  1.00  0.00     0.163 HD
BRANCH   5   8
ATOM      8  C   UNL A   1      29.523  25.730  24.216  1.00  0.00     0.042 A 
ATOM      9  C   UNL A   1      31.204  24.024  23.826  1.00  0.00     0.073 A 
ATOM     10  C   UNL A   1      30.243  24.921  23.339  1.00  0.00     0.042 A 
ATOM     11  C   UNL A   1      31.350  23.787  25.210  1.00  0.00     0.061 A 
ATOM     12  C   UNL A   1      30.553  24.544  26.079  1.00  0.00     0.029 A 
ATOM     13  C   UNL A   1      29.677  25.519  25.594  1.00  0.00     0.016 A 
BRANCH   9  14
ATOM     14  N   UNL A   1      32.041  23.363  22.867  1.00  0.00    -0.277 N 
ATOM     15  H   UNL A   1      31.896  22.409  22.671  1.00  0.00     0.180 HD
BRANCH  14  16
ATOM     16  S   UNL A   1      33.288  24.209  22.060  1.00  0.00     0.261 S 
ATOM     17  O   UNL A   1      32.784  24.431  20.719  1.00  0.00    -0.201 OA
ATOM     18  O   UNL A   1      34.508  23.449  22.237  1.00  0.00    -0.201 OA
BRANCH  16  19
ATOM     19  C   UNL A   1      33.603  25.813  22.772  1.00  0.00     0.088 A 
ATOM     20  C   UNL A   1      34.135  27.515  26.135  1.00  0.00     0.044 C 
ATOM     21  C   UNL A   1      34.048  27.285  24.653  1.00  0.00    -0.050 A 
ATOM     22  C   UNL A   1      34.061  28.382  23.783  1.00  0.00     0.003 A 
ATOM     23  C   UNL A   1      33.897  25.992  24.128  1.00  0.00     0.025 A 
ATOM     24  C   UNL A   1      33.871  28.198  22.415  1.00  0.00     0.002 A 
ATOM     25  C   UNL A   1      33.616  26.920  21.913  1.00  0.00     0.022 A 
ENDBRANCH  16  19
ENDBRANCH  14  16
ENDBRANCH   9  14
BRANCH  11  26
ATOM     26  N   UNL A   1      32.183  22.825  25.752  1.00  0.00    -0.369 N 
ATOM     27  C   UNL A   1      32.027  22.481  27.162  1.00  0.00     0.116 C 
ATOM     28  C   UNL A   1      33.059  21.997  24.931  1.00  0.00     0.126 C 
ATOM     29  C   UNL A   1      33.403  22.381  27.820  1.00  0.00     0.022 C 
ATOM     30  C   UNL A   1      34.467  21.900  25.553  1.00  0.00     0.064 C 
ATOM     31  C   UNL A   1      34.335  21.466  27.023  1.00  0.00     0.013 C 
BRANCH  30  32
ATOM     32  C   UNL A   1      35.232  23.228  25.304  1.00  0.00     0.267 C 
BRANCH  32  33
ATOM     33  N   UNL A   1      36.619  23.203  24.827  1.00  0.00    -0.335 N 
ATOM     34  C   UNL A   1      37.071  21.934  24.263  1.00  0.00     0.262 C 
ATOM     35  C   UNL A   1      37.632  23.673  25.767  1.00  0.00     0.262 C 
ATOM     36  H   UNL A   1      36.544  23.887  24.075  1.00  0.00     0.348 HD
ATOM     37  C   UNL A   1      37.946  21.314  25.332  1.00  0.00     0.067 C 
ATOM     38  C   UNL A   1      38.585  22.509  26.013  1.00  0.00     0.067 C 
ENDBRANCH  32  33
ENDBRANCH  30  32
ENDBRANCH  11  26
ENDBRANCH   5   8
ENDBRANCH   3   4
ENDBRANCH   2   3
ENDBRANCH   1   2
BRANCH   1  39
ATOM     39  C   UNL A   1      31.639  30.580  25.914  1.00  0.00     0.002 C 
BRANCH  39  40
ATOM     40  C   UNL A   1      32.457  30.187  27.147  1.00  0.00     0.021 C 
BRANCH  40  41
ATOM     41  C   UNL A   1      33.916  30.621  27.064  1.00  0.00     0.116 C 
BRANCH  41  42
ATOM     42  N   UNL A   1      34.274  31.632  28.046  1.00  0.00    -0.352 N 
ATOM     43  C   UNL A   1      35.196  31.515  29.070  1.00  0.00     0.251 C 
ATOM     44  H   UNL A   1      33.807  32.496  27.973  1.00  0.00     0.163 HD
ATOM     45  O   UNL A   1      35.252  32.313  29.991  1.00  0.00    -0.269 OA
BRANCH  43  46
ATOM     46  C   UNL A   1      36.208  30.447  28.931  1.00  0.00     0.039 A 
ATOM     47  C   UNL A   1      36.415  29.622  30.042  1.00  0.00     0.014 A 
ATOM     48  C   UNL A   1      37.097  30.450  27.859  1.00  0.00     0.014 A 
ATOM     49  C   UNL A   1      37.606  28.906  30.154  1.00  0.00     0.010 A 
ATOM     50  C   UNL A   1      38.306  29.793  28.004  1.00  0.00     0.010 A 
ATOM     51  C   UNL A   1      38.582  29.057  29.170  1.00  0.00    -0.014 A 
BRANCH  51  52
ATOM     52  C   UNL A   1      39.951  28.561  29.303  1.00  0.00     0.031 A 
ATOM     53  C   UNL A   1      40.293  27.174  28.909  1.00  0.00     0.074 A 
ATOM     54  C   UNL A   1      40.940  29.401  29.684  1.00  0.00     0.049 A 
ATOM     55  N   UNL A   1      41.405  26.578  29.193  1.00  0.00    -0.248 NA
ATOM     56  C   UNL A   1      39.360  26.321  28.185  1.00  0.00     0.031 C 
ATOM     57  C   UNL A   1      42.376  29.208  29.504  1.00  0.00     0.029 A 
ATOM     58  N   UNL A   1      40.841  30.515  30.521  1.00  0.00    -0.354 N 
ATOM     59  C   UNL A   1      41.448  25.393  28.493  1.00  0.00     0.074 A 
ATOM     60  C   UNL A   1      40.130  25.264  27.911  1.00  0.00     0.031 C 
ATOM     61  C   UNL A   1      43.032  29.981  30.381  1.00  0.00     0.029 A 
ATOM     62  C   UNL A   1      42.042  30.576  31.260  1.00  0.00     0.049 A 
ATOM     63  H   UNL A   1      40.081  31.136  30.584  1.00  0.00     0.167 HD
ATOM     64  C   UNL A   1      42.626  24.708  28.397  1.00  0.00     0.037 A 
ATOM     65  C   UNL A   1      42.033  30.452  32.621  1.00  0.00     0.037 A 
ATOM     66  C   UNL A   1      43.664  25.297  29.242  1.00  0.00     0.049 A 
ATOM     67  C   UNL A   1      42.768  29.241  33.158  1.00  0.00     0.074 A 
ATOM     68  C   UNL A   1      44.731  26.153  29.025  1.00  0.00     0.029 A 
ATOM     69  N   UNL A   1      43.518  25.214  30.615  1.00  0.00    -0.354 N 
ATOM     70  N   UNL A   1      43.377  28.354  32.419  1.00  0.00    -0.248 NA
ATOM     71  C   UNL A   1      42.802  28.890  34.581  1.00  0.00     0.031 C 
ATOM     72  C   UNL A   1      45.197  26.614  30.290  1.00  0.00     0.029 A 
ATOM     73  C   UNL A   1      44.412  26.038  31.271  1.00  0.00     0.049 A 
ATOM     74  H   UNL A   1      42.859  24.640  31.068  1.00  0.00     0.167 HD
ATOM     75  C   UNL A   1      43.781  27.311  33.208  1.00  0.00     0.074 A 
ATOM     76  C   UNL A   1      43.435  27.706  34.559  1.00  0.00     0.031 C 
ATOM     77  C   UNL A   1      44.316  26.161  32.713  1.00  0.00     0.037 A 
BRANCH  64  78
ATOM     78  C   UNL A   1      42.896  23.638  27.358  1.00  0.00     0.058 A 
ATOM     79  C   UNL A   1      42.349  22.343  27.499  1.00  0.00     0.135 A 
ATOM     80  C   UNL A   1      43.737  23.796  26.239  1.00  0.00     0.135 A 
ATOM     81  F   UNL A   1      41.446  22.063  28.448  1.00  0.00    -0.206 F 
ATOM     82  C   UNL A   1      42.711  21.269  26.683  1.00  0.00     0.059 A 
ATOM     83  C   UNL A   1      44.165  22.725  25.447  1.00  0.00     0.059 A 
ATOM     84  F   UNL A   1      44.134  25.009  25.833  1.00  0.00    -0.206 F 
ATOM     85  C   UNL A   1      43.657  21.458  25.687  1.00  0.00     0.060 A 
BRANCH  85  86
ATOM     86  S   UNL A   1      44.209  20.035  24.728  1.00  0.00     0.124 S 
ATOM     87  O   UNL A   1      45.369  19.580  25.489  1.00  0.00    -0.237 OA
ATOM     88  O   UNL A   1      43.038  19.166  24.773  1.00  0.00    -0.237 OA
ATOM     89  O   UNL A   1      44.516  20.606  23.419  1.00  0.00    -0.744 OA
ENDBRANCH  85  86
ENDBRANCH  64  78
BRANCH  65  90
ATOM     90  C   UNL A   1      40.829  31.072  33.239  1.00  0.00     0.058 A 
ATOM     91  C   UNL A   1      39.736  30.230  33.527  1.00  0.00     0.135 A 
ATOM     92  C   UNL A   1      40.906  32.295  33.917  1.00  0.00     0.135 A 
ATOM     93  F   UNL A   1      39.609  29.053  32.890  1.00  0.00    -0.206 F 
ATOM     94  C   UNL A   1      38.858  30.507  34.566  1.00  0.00     0.059 A 
ATOM     95  C   UNL A   1      40.024  32.602  34.954  1.00  0.00     0.059 A 
ATOM     96  F   UNL A   1      41.921  33.139  33.679  1.00  0.00    -0.206 F 
ATOM     97  C   UNL A   1      39.055  31.663  35.316  1.00  0.00     0.060 A 
BRANCH  97  98
ATOM     98  S   UNL A   1      38.152  31.819  36.874  1.00  0.00     0.124 S 
ATOM     99  O   UNL A   1      37.095  32.760  36.520  1.00  0.00    -0.237 OA
ATOM    100  O   UNL A   1      37.719  30.441  37.102  1.00  0.00    -0.237 OA
ATOM    101  O   UNL A   1      39.162  32.320  37.797  1.00  0.00    -0.744 OA
ENDBRANCH  97  98
ENDBRANCH  65  90
BRANCH  77 102
ATOM    102  C   UNL A   1      44.777  25.045  33.593  1.00  0.00     0.058 A 
ATOM    103  C   UNL A   1      46.131  24.683  33.671  1.00  0.00     0.135 A 
ATOM    104  C   UNL A   1      43.860  24.227  34.282  1.00  0.00     0.135 A 
ATOM    105  F   UNL A   1      47.065  25.402  33.026  1.00  0.00    -0.206 F 
ATOM    106  C   UNL A   1      46.556  23.573  34.398  1.00  0.00     0.059 A 
ATOM    107  C   UNL A   1      44.257  23.094  34.983  1.00  0.00     0.059 A 
ATOM    108  F   UNL A   1      42.551  24.524  34.300  1.00  0.00    -0.206 F 
ATOM    109  C   UNL A   1      45.611  22.781  35.046  1.00  0.00     0.060 A 
BRANCH 109 110
ATOM    110  S   UNL A   1      46.144  21.310  35.945  1.00  0.00     0.124 S 
ATOM    111  O   UNL A   1      45.808  21.634  37.329  1.00  0.00    -0.237 OA
ATOM    112  O   UNL A   1      45.322  20.276  35.324  1.00  0.00    -0.237 OA
ATOM    113  O   UNL A   1      47.573  21.242  35.655  1.00  0.00    -0.744 OA
ENDBRANCH 109 110
ENDBRANCH  77 102
ENDBRANCH  51  52
ENDBRANCH  43  46
ENDBRANCH  41  42
ENDBRANCH  40  41
ENDBRANCH  39  40
ENDBRANCH   1  39
TORSDOF 22
ENDMDL
MODEL 2
REMARK VINA RESULT:     -13.3      1.294      2.003
REMARK SMILES Cc1cccc(S(=O)(=O)Nc2cc(C(=O)NCCCCCCNC(=O)c3ccc(-c4c5nc(c(-c6c(F)cc(S(=O)(=O)[O-])cc6F)c6ccc([nH]6)c(-c6c(F)cc(S(=O)(=O)[O-])cc6F)c6nc(c(-c7c(F)cc(S(=O)(=O)[O-])cc7F)c7ccc4[nH]7)C=C6)C=C5)cc3)ccc2N2CCC[C@H](C[NH+]3CCCC3)C2)c1
REMARK SMILES IDX 19 1 18 2 17 3 16 4 14 5 15 6 13 8 11 9 12 10 94 11 93 12
REMARK SMILES IDX 92 13 10 14 7 16 8 17 9 18 6 19 1 20 2 21 3 22 107 23 4 24
REMARK SMILES IDX 5 25 95 26 96 27 106 28 97 29 99 30 98 31 100 32 101 33
REMARK SMILES IDX 102 34 105 35 103 37 104 38 20 39 21 40 22 41 23 42 24 43
REMARK SMILES IDX 25 45 26 46 27 47 91 48 28 49 90 50 29 51 30 52 31 53 84 54
REMARK SMILES IDX 32 55 89 56 83 57 85 58 33 59 88 60 82 61 81 62 34 64 68 65
REMARK SMILES IDX 47 66 67 67 48 68 51 69 66 70 86 71 49 72 50 73 65 75 87 76
REMARK SMILES IDX 52 77 35 78 36 79 45 80 37 81 38 82 44 83 46 84 39 85 40 86
REMARK SMILES IDX 41 87 42 88 43 89 69 90 70 91 79 92 71 93 72 94 78 95 80 96
REMARK SMILES IDX 73 97 74 98 75 99 76 100 77 101 53 102 54 103 63 104 55 105
REMARK SMILES IDX 56 106 62 107 64 108 57 109 58 110 59 111 60 112 61 113
REMARK H PARENT 16 7 10 15 101 36 23 44 85 63 51 74
REMARK Flexibility Score: inf
ROOT
ATOM      1  C   UNL A   1      31.252  29.607  25.386  1.00  0.00     0.002 C 
ENDROOT
BRANCH   1   2
ATOM      2  C   UNL A   1      30.424  29.906  24.129  1.00  0.00     0.021 C 
BRANCH   2   3
ATOM      3  C   UNL A   1      30.269  28.708  23.193  1.00  0.00     0.116 C 
BRANCH   3   4
ATOM      4  N   UNL A   1      28.993  28.043  23.390  1.00  0.00    -0.352 N 
ATOM      5  C   UNL A   1      28.654  26.805  23.869  1.00  0.00     0.251 C 
ATOM      6  O   UNL A   1      27.456  26.559  24.027  1.00  0.00    -0.269 OA
ATOM      7  H   UNL A   1      28.218  28.591  23.127  1.00  0.00     0.163 HD
BRANCH   5   8
ATOM      8  C   UNL A   1      29.650  25.772  24.272  1.00  0.00     0.042 A 
ATOM      9  C   UNL A   1      31.360  24.103  23.849  1.00  0.00     0.073 A 
ATOM     10  C   UNL A   1      30.345  24.952  23.384  1.00  0.00     0.042 A 
ATOM     11  C   UNL A   1      31.590  23.923  25.230  1.00  0.00     0.061 A 
ATOM     12  C   UNL A   1      30.820  24.689  26.115  1.00  0.00     0.029 A 
ATOM     13  C   UNL A   1      29.887  25.618  25.645  1.00  0.00     0.016 A 
BRANCH   9  14
ATOM     14  N   UNL A   1      32.163  23.431  22.868  1.00  0.00    -0.277 N 
ATOM     15  H   UNL A   1      31.968  22.493  22.640  1.00  0.00     0.180 HD
BRANCH  14  16
ATOM     16  S   UNL A   1      33.454  24.237  22.089  1.00  0.00     0.261 S 
ATOM     17  O   UNL A   1      33.043  24.354  20.704  1.00  0.00    -0.201 OA
ATOM     18  O   UNL A   1      34.667  23.512  22.406  1.00  0.00    -0.201 OA
BRANCH  16  19
ATOM     19  C   UNL A   1      33.700  25.893  22.704  1.00  0.00     0.088 A 
ATOM     20  C   UNL A   1      34.172  27.814  25.955  1.00  0.00     0.044 C 
ATOM     21  C   UNL A   1      34.088  27.493  24.491  1.00  0.00    -0.050 A 
ATOM     22  C   UNL A   1      34.049  28.535  23.558  1.00  0.00     0.003 A 
ATOM     23  C   UNL A   1      33.992  26.165  24.044  1.00  0.00     0.025 A 
ATOM     24  C   UNL A   1      33.861  28.262  22.204  1.00  0.00     0.002 A 
ATOM     25  C   UNL A   1      33.661  26.947  21.780  1.00  0.00     0.022 A 
ENDBRANCH  16  19
ENDBRANCH  14  16
ENDBRANCH   9  14
BRANCH  11  26
ATOM     26  N   UNL A   1      32.483  23.008  25.758  1.00  0.00    -0.369 N 
ATOM     27  C   UNL A   1      33.879  23.405  25.912  1.00  0.00     0.116 C 
ATOM     28  C   UNL A   1      32.051  21.750  26.357  1.00  0.00     0.126 C 
ATOM     29  C   UNL A   1      34.789  22.272  25.439  1.00  0.00     0.022 C 
ATOM     30  C   UNL A   1      32.931  20.579  25.876  1.00  0.00     0.064 C 
ATOM     31  C   UNL A   1      34.410  20.943  26.097  1.00  0.00     0.013 C 
BRANCH  30  32
ATOM     32  C   UNL A   1      32.536  20.202  24.423  1.00  0.00     0.267 C 
BRANCH  32  33
ATOM     33  N   UNL A   1      32.165  18.822  24.093  1.00  0.00    -0.335 N 
ATOM     34  C   UNL A   1      32.547  17.812  25.077  1.00  0.00     0.262 C 
ATOM     35  C   UNL A   1      32.562  18.346  22.772  1.00  0.00     0.262 C 
ATOM     36  H   UNL A   1      31.151  18.919  24.102  1.00  0.00     0.348 HD
ATOM     37  C   UNL A   1      33.750  17.111  24.480  1.00  0.00     0.067 C 
ATOM     38  C   UNL A   1      33.487  17.153  22.987  1.00  0.00     0.067 C 
ENDBRANCH  32  33
ENDBRANCH  30  32
ENDBRANCH  11  26
ENDBRANCH   5   8
ENDBRANCH   3   4
ENDBRANCH   2   3
ENDBRANCH   1   2
BRANCH   1  39
ATOM     39  C   UNL A   1      31.784  30.833  26.152  1.00  0.00     0.002 C 
BRANCH  39  40
ATOM     40  C   UNL A   1      32.742  30.537  27.309  1.00  0.00     0.021 C 
BRANCH  40  41
ATOM     41  C   UNL A   1      33.991  31.413  27.295  1.00  0.00     0.116 C 
BRANCH  41  42
ATOM     42  N   UNL A   1      34.160  32.194  28.509  1.00  0.00    -0.352 N 
ATOM     43  C   UNL A   1      34.939  31.877  29.608  1.00  0.00     0.251 C 
ATOM     44  H   UNL A   1      33.665  33.044  28.554  1.00  0.00     0.163 HD
ATOM     45  O   UNL A   1      34.829  32.458  30.675  1.00  0.00    -0.269 OA
BRANCH  43  46
ATOM     46  C   UNL A   1      36.012  30.884  29.393  1.00  0.00     0.039 A 
ATOM     47  C   UNL A   1      36.236  29.961  30.420  1.00  0.00     0.014 A 
ATOM     48  C   UNL A   1      36.927  31.045  28.356  1.00  0.00     0.014 A 
ATOM     49  C   UNL A   1      37.462  29.302  30.497  1.00  0.00     0.010 A 
ATOM     50  C   UNL A   1      38.167  30.442  28.472  1.00  0.00     0.010 A 
ATOM     51  C   UNL A   1      38.454  29.606  29.566  1.00  0.00    -0.014 A 
BRANCH  51  52
ATOM     52  C   UNL A   1      39.845  29.172  29.692  1.00  0.00     0.031 A 
ATOM     53  C   UNL A   1      40.264  27.833  29.214  1.00  0.00     0.074 A 
ATOM     54  C   UNL A   1      40.782  30.034  30.145  1.00  0.00     0.049 A 
ATOM     55  N   UNL A   1      41.401  27.277  29.478  1.00  0.00    -0.248 NA
ATOM     56  C   UNL A   1      39.388  26.985  28.418  1.00  0.00     0.031 C 
ATOM     57  C   UNL A   1      42.229  29.927  29.980  1.00  0.00     0.029 A 
ATOM     58  N   UNL A   1      40.613  31.083  31.052  1.00  0.00    -0.354 N 
ATOM     59  C   UNL A   1      41.516  26.145  28.703  1.00  0.00     0.074 A 
ATOM     60  C   UNL A   1      40.216  25.989  28.089  1.00  0.00     0.031 C 
ATOM     61  C   UNL A   1      42.830  30.672  30.918  1.00  0.00     0.029 A 
ATOM     62  C   UNL A   1      41.797  31.156  31.816  1.00  0.00     0.049 A 
ATOM     63  H   UNL A   1      39.820  31.659  31.141  1.00  0.00     0.167 HD
ATOM     64  C   UNL A   1      42.729  25.529  28.584  1.00  0.00     0.037 A 
ATOM     65  C   UNL A   1      41.774  30.941  33.165  1.00  0.00     0.037 A 
ATOM     66  C   UNL A   1      43.723  26.112  29.485  1.00  0.00     0.049 A 
ATOM     67  C   UNL A   1      42.562  29.735  33.635  1.00  0.00     0.074 A 
ATOM     68  C   UNL A   1      44.747  27.033  29.346  1.00  0.00     0.029 A 
ATOM     69  N   UNL A   1      43.560  25.931  30.847  1.00  0.00    -0.354 N 
ATOM     70  N   UNL A   1      43.228  28.932  32.851  1.00  0.00    -0.248 NA
ATOM     71  C   UNL A   1      42.592  29.293  35.032  1.00  0.00     0.031 C 
ATOM     72  C   UNL A   1      45.168  27.433  30.647  1.00  0.00     0.029 A 
ATOM     73  C   UNL A   1      44.399  26.753  31.573  1.00  0.00     0.049 A 
ATOM     74  H   UNL A   1      42.925  25.295  31.249  1.00  0.00     0.167 HD
ATOM     75  C   UNL A   1      43.674  27.860  33.577  1.00  0.00     0.074 A 
ATOM     76  C   UNL A   1      43.287  28.146  34.945  1.00  0.00     0.031 C 
ATOM     77  C   UNL A   1      44.275  26.774  33.017  1.00  0.00     0.037 A 
BRANCH  64  78
ATOM     78  C   UNL A   1      43.071  24.545  27.482  1.00  0.00     0.058 A 
ATOM     79  C   UNL A   1      43.077  23.155  27.735  1.00  0.00     0.135 A 
ATOM     80  C   UNL A   1      43.467  24.903  26.178  1.00  0.00     0.135 A 
ATOM     81  F   UNL A   1      42.624  22.650  28.890  1.00  0.00    -0.206 F 
ATOM     82  C   UNL A   1      43.562  22.216  26.822  1.00  0.00     0.059 A 
ATOM     83  C   UNL A   1      44.016  23.992  25.270  1.00  0.00     0.059 A 
ATOM     84  F   UNL A   1      43.283  26.144  25.712  1.00  0.00    -0.206 F 
ATOM     85  C   UNL A   1      44.075  22.648  25.607  1.00  0.00     0.060 A 
BRANCH  85  86
ATOM     86  S   UNL A   1      44.815  21.439  24.494  1.00  0.00     0.124 S 
ATOM     87  O   UNL A   1      46.216  21.456  24.906  1.00  0.00    -0.237 OA
ATOM     88  O   UNL A   1      44.071  20.228  24.824  1.00  0.00    -0.237 OA
ATOM     89  O   UNL A   1      44.555  21.994  23.169  1.00  0.00    -0.744 OA
ENDBRANCH  85  86
ENDBRANCH  64  78
BRANCH  65  90
ATOM     90  C   UNL A   1      40.530  31.456  33.800  1.00  0.00     0.058 A 
ATOM     91  C   UNL A   1      39.519  30.523  34.107  1.00  0.00     0.135 A 
ATOM     92  C   UNL A   1      40.510  32.684  34.474  1.00  0.00     0.135 A 
ATOM     93  F   UNL A   1      39.485  29.337  33.475  1.00  0.00    -0.206 F 
ATOM     94  C   UNL A   1      38.636  30.727  35.158  1.00  0.00     0.059 A 
ATOM     95  C   UNL A   1      39.620  32.917  35.523  1.00  0.00     0.059 A 
ATOM     96  F   UNL A   1      41.444  33.612  34.218  1.00  0.00    -0.206 F 
ATOM     97  C   UNL A   1      38.742  31.899  35.903  1.00  0.00     0.060 A 
BRANCH  97  98
ATOM     98  S   UNL A   1      37.852  31.981  37.474  1.00  0.00     0.124 S 
ATOM     99  O   UNL A   1      36.807  32.956  37.180  1.00  0.00    -0.237 OA
ATOM    100  O   UNL A   1      37.400  30.599  37.629  1.00  0.00    -0.237 OA
ATOM    101  O   UNL A   1      38.877  32.416  38.415  1.00  0.00    -0.744 OA
ENDBRANCH  97  98
ENDBRANCH  65  90
BRANCH  77 102
ATOM    102  C   UNL A   1      44.779  25.628  33.831  1.00  0.00     0.058 A 
ATOM    103  C   UNL A   1      43.900  24.723  34.448  1.00  0.00     0.135 A 
ATOM    104  C   UNL A   1      46.149  25.481  34.123  1.00  0.00     0.135 A 
ATOM    105  F   UNL A   1      42.576  24.810  34.235  1.00  0.00    -0.206 F 
ATOM    106  C   UNL A   1      44.354  23.720  35.302  1.00  0.00     0.059 A 
ATOM    107  C   UNL A   1      46.622  24.511  35.001  1.00  0.00     0.059 A 
ATOM    108  F   UNL A   1      47.066  26.273  33.544  1.00  0.00    -0.206 F 
ATOM    109  C   UNL A   1      45.717  23.626  35.577  1.00  0.00     0.060 A 
BRANCH 109 110
ATOM    110  S   UNL A   1      46.310  22.366  36.725  1.00  0.00     0.124 S 
ATOM    111  O   UNL A   1      47.755  22.392  36.517  1.00  0.00    -0.237 OA
ATOM    112  O   UNL A   1      45.849  22.897  38.003  1.00  0.00    -0.237 OA
ATOM    113  O   UNL A   1      45.642  21.154  36.264  1.00  0.00    -0.744 OA
ENDBRANCH 109 110
ENDBRANCH  77 102
ENDBRANCH  51  52
ENDBRANCH  43  46
ENDBRANCH  41  42
ENDBRANCH  40  41
ENDBRANCH  39  40
ENDBRANCH   1  39
TORSDOF 22
ENDMDL
MODEL 3
REMARK VINA RESULT:     -12.0      1.481      2.611
REMARK SMILES Cc1cccc(S(=O)(=O)Nc2cc(C(=O)NCCCCCCNC(=O)c3ccc(-c4c5nc(c(-c6c(F)cc(S(=O)(=O)[O-])cc6F)c6ccc([nH]6)c(-c6c(F)cc(S(=O)(=O)[O-])cc6F)c6nc(c(-c7c(F)cc(S(=O)(=O)[O-])cc7F)c7ccc4[nH]7)C=C6)C=C5)cc3)ccc2N2CCC[C@H](C[NH+]3CCCC3)C2)c1
REMARK SMILES IDX 19 1 18 2 17 3 16 4 14 5 15 6 13 8 11 9 12 10 94 11 93 12
REMARK SMILES IDX 92 13 10 14 7 16 8 17 9 18 6 19 1 20 2 21 3 22 107 23 4 24
REMARK SMILES IDX 5 25 95 26 96 27 106 28 97 29 99 30 98 31 100 32 101 33
REMARK SMILES IDX 102 34 105 35 103 37 104 38 20 39 21 40 22 41 23 42 24 43
REMARK SMILES IDX 25 45 26 46 27 47 91 48 28 49 90 50 29 51 30 52 31 53 84 54
REMARK SMILES IDX 32 55 89 56 83 57 85 58 33 59 88 60 82 61 81 62 34 64 68 65
REMARK SMILES IDX 47 66 67 67 48 68 51 69 66 70 86 71 49 72 50 73 65 75 87 76
REMARK SMILES IDX 52 77 35 78 36 79 45 80 37 81 38 82 44 83 46 84 39 85 40 86
REMARK SMILES IDX 41 87 42 88 43 89 69 90 70 91 79 92 71 93 72 94 78 95 80 96
REMARK SMILES IDX 73 97 74 98 75 99 76 100 77 101 53 102 54 103 63 104 55 105
REMARK SMILES IDX 56 106 62 107 64 108 57 109 58 110 59 111 60 112 61 113
REMARK H PARENT 16 7 10 15 101 36 23 44 85 63 51 74
REMARK Flexibility Score: inf
ROOT
ATOM      1  C   UNL A   1      32.253  29.594  25.921  1.00  0.00     0.002 C 
ENDROOT
BRANCH   1   2
ATOM      2  C   UNL A   1      31.093  29.931  24.976  1.00  0.00     0.021 C 
BRANCH   2   3
ATOM      3  C   UNL A   1      31.079  29.098  23.694  1.00  0.00     0.116 C 
BRANCH   3   4
ATOM      4  N   UNL A   1      29.758  28.555  23.430  1.00  0.00    -0.352 N 
ATOM      5  C   UNL A   1      29.192  27.329  23.665  1.00  0.00     0.251 C 
ATOM      6  O   UNL A   1      27.990  27.197  23.427  1.00  0.00    -0.269 OA
ATOM      7  H   UNL A   1      29.148  29.195  22.996  1.00  0.00     0.163 HD
BRANCH   5   8
ATOM      8  C   UNL A   1      29.931  26.175  24.253  1.00  0.00     0.042 A 
ATOM      9  C   UNL A   1      31.710  24.527  24.325  1.00  0.00     0.073 A 
ATOM     10  C   UNL A   1      30.991  25.514  23.636  1.00  0.00     0.042 A 
ATOM     11  C   UNL A   1      31.282  24.053  25.584  1.00  0.00     0.061 A 
ATOM     12  C   UNL A   1      30.159  24.667  26.154  1.00  0.00     0.029 A 
ATOM     13  C   UNL A   1      29.512  25.728  25.515  1.00  0.00     0.016 A 
BRANCH   9  14
ATOM     14  N   UNL A   1      32.903  24.023  23.708  1.00  0.00    -0.277 N 
ATOM     15  H   UNL A   1      32.858  23.208  23.157  1.00  0.00     0.180 HD
BRANCH  14  16
ATOM     16  S   UNL A   1      34.402  24.818  23.914  1.00  0.00     0.261 S 
ATOM     17  O   UNL A   1      34.198  25.722  25.029  1.00  0.00    -0.201 OA
ATOM     18  O   UNL A   1      34.782  25.360  22.626  1.00  0.00    -0.201 OA
BRANCH  16  19
ATOM     19  C   UNL A   1      35.712  23.701  24.381  1.00  0.00     0.088 A 
ATOM     20  C   UNL A   1      38.840  23.534  26.543  1.00  0.00     0.044 C 
ATOM     21  C   UNL A   1      37.707  23.129  25.644  1.00  0.00    -0.050 A 
ATOM     22  C   UNL A   1      37.739  21.879  25.016  1.00  0.00     0.003 A 
ATOM     23  C   UNL A   1      36.643  24.005  25.379  1.00  0.00     0.025 A 
ATOM     24  C   UNL A   1      36.753  21.529  24.094  1.00  0.00     0.002 A 
ATOM     25  C   UNL A   1      35.758  22.447  23.757  1.00  0.00     0.022 A 
ENDBRANCH  16  19
ENDBRANCH  14  16
ENDBRANCH   9  14
BRANCH  11  26
ATOM     26  N   UNL A   1      31.867  22.996  26.258  1.00  0.00    -0.369 N 
ATOM     27  C   UNL A   1      32.898  23.285  27.249  1.00  0.00     0.116 C 
ATOM     28  C   UNL A   1      31.350  21.634  26.173  1.00  0.00     0.126 C 
ATOM     29  C   UNL A   1      34.060  22.307  27.081  1.00  0.00     0.022 C 
ATOM     30  C   UNL A   1      32.497  20.623  25.971  1.00  0.00     0.064 C 
ATOM     31  C   UNL A   1      33.567  20.859  27.053  1.00  0.00     0.013 C 
BRANCH  30  32
ATOM     32  C   UNL A   1      32.992  20.692  24.502  1.00  0.00     0.267 C 
BRANCH  32  33
ATOM     33  N   UNL A   1      33.440  19.476  23.816  1.00  0.00    -0.335 N 
ATOM     34  C   UNL A   1      32.381  18.573  23.373  1.00  0.00     0.262 C 
ATOM     35  C   UNL A   1      34.458  18.686  24.502  1.00  0.00     0.262 C 
ATOM     36  H   UNL A   1      33.871  19.901  22.995  1.00  0.00     0.348 HD
ATOM     37  C   UNL A   1      32.395  17.428  24.364  1.00  0.00     0.067 C 
ATOM     38  C   UNL A   1      33.857  17.308  24.755  1.00  0.00     0.067 C 
ENDBRANCH  32  33
ENDBRANCH  30  32
ENDBRANCH  11  26
ENDBRANCH   5   8
ENDBRANCH   3   4
ENDBRANCH   2   3
ENDBRANCH   1   2
BRANCH   1  39
ATOM     39  C   UNL A   1      32.767  30.750  26.799  1.00  0.00     0.002 C 
BRANCH  39  40
ATOM     40  C   UNL A   1      34.033  30.465  27.612  1.00  0.00     0.021 C 
BRANCH  40  41
ATOM     41  C   UNL A   1      34.971  31.663  27.704  1.00  0.00     0.116 C 
BRANCH  41  42
ATOM     42  N   UNL A   1      35.096  32.195  29.052  1.00  0.00    -0.352 N 
ATOM     43  C   UNL A   1      35.777  31.630  30.115  1.00  0.00     0.251 C 
ATOM     44  H   UNL A   1      34.645  33.054  29.226  1.00  0.00     0.163 HD
ATOM     45  O   UNL A   1      35.622  32.011  31.264  1.00  0.00    -0.269 OA
BRANCH  43  46
ATOM     46  C   UNL A   1      36.808  30.625  29.782  1.00  0.00     0.039 A 
ATOM     47  C   UNL A   1      36.910  29.518  30.632  1.00  0.00     0.014 A 
ATOM     48  C   UNL A   1      37.799  30.912  28.848  1.00  0.00     0.014 A 
ATOM     49  C   UNL A   1      38.091  28.778  30.656  1.00  0.00     0.010 A 
ATOM     50  C   UNL A   1      38.994  30.218  28.921  1.00  0.00     0.010 A 
ATOM     51  C   UNL A   1      39.159  29.180  29.855  1.00  0.00    -0.014 A 
BRANCH  51  52
ATOM     52  C   UNL A   1      40.513  28.641  29.978  1.00  0.00     0.031 A 
ATOM     53  C   UNL A   1      40.866  27.338  29.365  1.00  0.00     0.074 A 
ATOM     54  C   UNL A   1      41.484  29.381  30.559  1.00  0.00     0.049 A 
ATOM     55  N   UNL A   1      41.952  26.680  29.603  1.00  0.00    -0.248 NA
ATOM     56  C   UNL A   1      39.970  26.646  28.448  1.00  0.00     0.031 C 
ATOM     57  C   UNL A   1      42.926  29.194  30.432  1.00  0.00     0.029 A 
ATOM     58  N   UNL A   1      41.345  30.331  31.573  1.00  0.00    -0.354 N 
ATOM     59  C   UNL A   1      42.027  25.636  28.708  1.00  0.00     0.074 A 
ATOM     60  C   UNL A   1      40.747  25.639  28.036  1.00  0.00     0.031 C 
ATOM     61  C   UNL A   1      43.535  29.787  31.469  1.00  0.00     0.029 A 
ATOM     62  C   UNL A   1      42.499  30.237  32.380  1.00  0.00     0.049 A 
ATOM     63  H   UNL A   1      40.588  30.947  31.701  1.00  0.00     0.167 HD
ATOM     64  C   UNL A   1      43.202  24.956  28.561  1.00  0.00     0.037 A 
ATOM     65  C   UNL A   1      42.405  29.876  33.694  1.00  0.00     0.037 A 
ATOM     66  C   UNL A   1      44.193  25.365  29.556  1.00  0.00     0.049 A 
ATOM     67  C   UNL A   1      43.095  28.573  34.050  1.00  0.00     0.074 A 
ATOM     68  C   UNL A   1      45.279  26.225  29.558  1.00  0.00     0.029 A 
ATOM     69  N   UNL A   1      43.962  25.045  30.882  1.00  0.00    -0.354 N 
ATOM     70  N   UNL A   1      43.740  27.819  33.203  1.00  0.00    -0.248 NA
ATOM     71  C   UNL A   1      43.038  27.977  35.388  1.00  0.00     0.031 C 
ATOM     72  C   UNL A   1      45.670  26.447  30.910  1.00  0.00     0.029 A 
ATOM     73  C   UNL A   1      44.821  25.722  31.725  1.00  0.00     0.049 A 
ATOM     74  H   UNL A   1      43.271  24.413  31.186  1.00  0.00     0.167 HD
ATOM     75  C   UNL A   1      44.085  26.645  33.817  1.00  0.00     0.074 A 
ATOM     76  C   UNL A   1      43.661  26.802  35.194  1.00  0.00     0.031 C 
ATOM     77  C   UNL A   1      44.639  25.590  33.158  1.00  0.00     0.037 A 
BRANCH  64  78
ATOM     78  C   UNL A   1      43.526  24.080  27.366  1.00  0.00     0.058 A 
ATOM     79  C   UNL A   1      42.879  22.837  27.189  1.00  0.00     0.135 A 
ATOM     80  C   UNL A   1      44.506  24.370  26.398  1.00  0.00     0.135 A 
ATOM     81  F   UNL A   1      41.850  22.465  27.962  1.00  0.00    -0.206 F 
ATOM     82  C   UNL A   1      43.266  21.907  26.221  1.00  0.00     0.059 A 
ATOM     83  C   UNL A   1      44.955  23.434  25.461  1.00  0.00     0.059 A 
ATOM     84  F   UNL A   1      45.031  25.598  26.285  1.00  0.00    -0.206 F 
ATOM     85  C   UNL A   1      44.338  22.195  25.390  1.00  0.00     0.060 A 
BRANCH  85  86
ATOM     86  S   UNL A   1      44.907  20.934  24.233  1.00  0.00     0.124 S 
ATOM     87  O   UNL A   1      44.144  19.763  24.653  1.00  0.00    -0.237 OA
ATOM     88  O   UNL A   1      44.529  21.511  22.947  1.00  0.00    -0.237 OA
ATOM     89  O   UNL A   1      46.342  20.860  24.491  1.00  0.00    -0.744 OA
ENDBRANCH  85  86
ENDBRANCH  64  78
BRANCH  65  90
ATOM     90  C   UNL A   1      41.172  30.400  34.342  1.00  0.00     0.058 A 
ATOM     91  C   UNL A   1      41.218  31.706  34.872  1.00  0.00     0.135 A 
ATOM     92  C   UNL A   1      39.913  29.854  34.063  1.00  0.00     0.135 A 
ATOM     93  F   UNL A   1      42.401  32.268  35.171  1.00  0.00    -0.206 F 
ATOM     94  C   UNL A   1      40.081  32.498  34.954  1.00  0.00     0.059 A 
ATOM     95  C   UNL A   1      38.755  30.626  34.155  1.00  0.00     0.059 A 
ATOM     96  F   UNL A   1      39.809  28.614  33.563  1.00  0.00    -0.206 F 
ATOM     97  C   UNL A   1      38.865  31.968  34.527  1.00  0.00     0.060 A 
BRANCH  97  98
ATOM     98  S   UNL A   1      37.486  33.112  34.290  1.00  0.00     0.124 S 
ATOM     99  O   UNL A   1      37.432  33.793  35.578  1.00  0.00    -0.237 OA
ATOM    100  O   UNL A   1      37.964  33.920  33.168  1.00  0.00    -0.237 OA
ATOM    101  O   UNL A   1      36.366  32.228  33.993  1.00  0.00    -0.744 OA
ENDBRANCH  97  98
ENDBRANCH  65  90
BRANCH  77 102
ATOM    102  C   UNL A   1      45.034  24.328  33.852  1.00  0.00     0.058 A 
ATOM    103  C   UNL A   1      46.373  24.057  34.176  1.00  0.00     0.135 A 
ATOM    104  C   UNL A   1      44.102  23.300  34.094  1.00  0.00     0.135 A 
ATOM    105  F   UNL A   1      47.325  24.980  33.957  1.00  0.00    -0.206 F 
ATOM    106  C   UNL A   1      46.768  22.836  34.718  1.00  0.00     0.059 A 
ATOM    107  C   UNL A   1      44.478  22.061  34.600  1.00  0.00     0.059 A 
ATOM    108  F   UNL A   1      42.794  23.487  33.856  1.00  0.00    -0.206 F 
ATOM    109  C   UNL A   1      45.813  21.841  34.921  1.00  0.00     0.060 A 
BRANCH 109 110
ATOM    110  S   UNL A   1      46.321  20.236  35.571  1.00  0.00     0.124 S 
ATOM    111  O   UNL A   1      45.160  19.393  35.297  1.00  0.00    -0.237 OA
ATOM    112  O   UNL A   1      47.505  19.957  34.765  1.00  0.00    -0.237 OA
ATOM    113  O   UNL A   1      46.566  20.511  36.983  1.00  0.00    -0.744 OA
ENDBRANCH 109 110
ENDBRANCH  77 102
ENDBRANCH  51  52
ENDBRANCH  43  46
ENDBRANCH  41  42
ENDBRANCH  40  41
ENDBRANCH  39  40
ENDBRANCH   1  39
TORSDOF 22
ENDMDL
