MODEL 1
REMARK VINA RESULT:     -11.9      0.000      0.000
REMARK SMILES CC1(C)C[C@](CC(=O)NCCCCCCNC(=O)c2ccc(-c3c4nc(c(-c5c(F)cc(S(=O)(=O)[O-])cc5F)c5ccc([nH]5)c(-c5c(F)cc(S(=O)(=O)[O-])cc5F)c5nc(c(-c6c(F)cc(S(=O)(=O)[O-])cc6F)c6ccc3[nH]6)C=C5)C=C4)cc2)([NH+]2CCCC2)C(C)(C)O1
REMARK SMILES IDX 13 1 12 2 11 3 10 4 9 5 7 6 8 7 6 9 5 10 1 11 2 12 3 13 4 14
REMARK SMILES IDX 93 15 90 16 91 17 92 18 85 19 86 20 89 21 87 23 88 24 14 25
REMARK SMILES IDX 15 26 16 27 17 28 18 30 19 31 20 32 84 33 21 34 83 35 22 36
REMARK SMILES IDX 23 37 24 38 77 39 25 40 82 41 76 42 78 43 26 44 81 45 75 46
REMARK SMILES IDX 74 47 27 49 61 50 40 51 60 52 41 53 44 54 59 55 79 56 42 57
REMARK SMILES IDX 43 58 58 60 80 61 45 62 28 63 29 64 38 65 30 66 31 67 37 68
REMARK SMILES IDX 39 69 32 70 33 71 34 72 35 73 36 74 62 75 63 76 72 77 64 78
REMARK SMILES IDX 65 79 71 80 73 81 66 82 67 83 68 84 69 85 70 86 46 87 47 88
REMARK SMILES IDX 56 89 48 90 49 91 55 92 57 93 50 94 51 95 52 96 53 97 54 98
REMARK H PARENT 9 8 85 22 16 29 78 48 44 59
REMARK Flexibility Score: inf
ROOT
ATOM      1  C   UNL A   1      36.407  22.293  26.073  1.00  0.00     0.002 C 
ENDROOT
BRANCH   1   2
ATOM      2  C   UNL A   1      35.309  21.719  25.173  1.00  0.00     0.002 C 
BRANCH   2   3
ATOM      3  C   UNL A   1      34.120  21.084  25.888  1.00  0.00     0.021 C 
BRANCH   3   4
ATOM      4  C   UNL A   1      33.892  21.527  27.331  1.00  0.00     0.116 C 
BRANCH   4   5
ATOM      5  N   UNL A   1      32.644  22.231  27.506  1.00  0.00    -0.356 N 
ATOM      6  C   UNL A   1      32.187  23.424  27.053  1.00  0.00     0.226 C 
ATOM      7  O   UNL A   1      30.968  23.601  27.191  1.00  0.00    -0.275 OA
ATOM      8  H   UNL A   1      31.995  21.748  28.068  1.00  0.00     0.163 HD
BRANCH   6   9
ATOM      9  C   UNL A   1      33.026  24.502  26.358  1.00  0.00     0.171 C 
BRANCH   9  10
ATOM     10  C   UNL A   1      32.606  25.307  25.056  1.00  0.00     0.138 C 
ATOM     11  C   UNL A   1      33.859  28.780  25.078  1.00  0.00     0.042 C 
ATOM     12  C   UNL A   1      33.276  27.612  24.259  1.00  0.00     0.070 C 
ATOM     13  C   UNL A   1      33.566  27.959  22.794  1.00  0.00     0.042 C 
ATOM     14  C   UNL A   1      33.824  26.259  24.735  1.00  0.00     0.107 C 
ATOM     15  O   UNL A   1      31.854  27.556  24.431  1.00  0.00    -0.363 OA
ATOM     16  C   UNL A   1      31.494  26.432  25.288  1.00  0.00     0.118 C 
ATOM     17  C   UNL A   1      31.422  27.071  26.700  1.00  0.00     0.049 C 
ATOM     18  C   UNL A   1      30.086  26.018  24.843  1.00  0.00     0.049 C 
BRANCH  10  19
ATOM     19  N   UNL A   1      32.470  24.416  23.860  1.00  0.00    -0.327 N 
ATOM     20  C   UNL A   1      33.600  24.130  22.984  1.00  0.00     0.263 C 
ATOM     21  C   UNL A   1      31.599  23.244  23.886  1.00  0.00     0.263 C 
ATOM     22  H   UNL A   1      31.951  25.192  23.446  1.00  0.00     0.348 HD
ATOM     23  C   UNL A   1      33.144  22.992  22.088  1.00  0.00     0.067 C 
ATOM     24  C   UNL A   1      32.241  22.193  22.990  1.00  0.00     0.067 C 
ENDBRANCH  10  19
ENDBRANCH   9  10
ENDBRANCH   6   9
ENDBRANCH   4   5
ENDBRANCH   3   4
ENDBRANCH   2   3
ENDBRANCH   1   2
BRANCH   1  25
ATOM     25  C   UNL A   1      37.262  23.427  25.496  1.00  0.00     0.021 C 
BRANCH  25  26
ATOM     26  C   UNL A   1      38.197  24.146  26.468  1.00  0.00     0.116 C 
BRANCH  26  27
ATOM     27  N   UNL A   1      39.566  24.217  25.990  1.00  0.00    -0.352 N 
ATOM     28  C   UNL A   1      40.606  25.032  26.354  1.00  0.00     0.251 C 
ATOM     29  H   UNL A   1      39.784  23.568  25.283  1.00  0.00     0.163 HD
ATOM     30  O   UNL A   1      41.637  25.012  25.684  1.00  0.00    -0.269 OA
BRANCH  28  31
ATOM     31  C   UNL A   1      40.505  25.943  27.516  1.00  0.00     0.039 A 
ATOM     32  C   UNL A   1      41.416  27.001  27.605  1.00  0.00     0.014 A 
ATOM     33  C   UNL A   1      39.578  25.738  28.542  1.00  0.00     0.014 A 
ATOM     34  C   UNL A   1      41.364  27.879  28.690  1.00  0.00     0.010 A 
ATOM     35  C   UNL A   1      39.487  26.651  29.595  1.00  0.00     0.010 A 
ATOM     36  C   UNL A   1      40.381  27.730  29.682  1.00  0.00    -0.014 A 
BRANCH  36  37
ATOM     37  C   UNL A   1      40.280  28.705  30.799  1.00  0.00     0.031 A 
ATOM     38  C   UNL A   1      41.159  28.576  32.014  1.00  0.00     0.074 A 
ATOM     39  C   UNL A   1      39.368  29.695  30.731  1.00  0.00     0.049 A 
ATOM     40  N   UNL A   1      41.200  29.327  33.086  1.00  0.00    -0.248 NA
ATOM     41  C   UNL A   1      42.103  27.447  32.037  1.00  0.00     0.031 C 
ATOM     42  C   UNL A   1      38.425  29.900  29.628  1.00  0.00     0.029 A 
ATOM     43  N   UNL A   1      39.080  30.714  31.605  1.00  0.00    -0.354 N 
ATOM     44  C   UNL A   1      42.164  28.760  33.913  1.00  0.00     0.074 A 
ATOM     45  C   UNL A   1      42.651  27.575  33.237  1.00  0.00     0.031 C 
ATOM     46  C   UNL A   1      37.680  30.988  29.881  1.00  0.00     0.029 A 
ATOM     47  C   UNL A   1      38.070  31.542  31.174  1.00  0.00     0.049 A 
ATOM     48  H   UNL A   1      39.553  30.841  32.459  1.00  0.00     0.167 HD
ATOM     49  C   UNL A   1      42.617  29.197  35.113  1.00  0.00     0.037 A 
ATOM     50  C   UNL A   1      37.518  32.625  31.755  1.00  0.00     0.037 A 
ATOM     51  C   UNL A   1      42.144  30.388  35.771  1.00  0.00     0.049 A 
ATOM     52  C   UNL A   1      38.045  33.096  33.083  1.00  0.00     0.074 A 
ATOM     53  C   UNL A   1      42.578  30.943  36.963  1.00  0.00     0.029 A 
ATOM     54  N   UNL A   1      41.132  31.210  35.297  1.00  0.00    -0.354 N 
ATOM     55  N   UNL A   1      39.000  32.581  33.820  1.00  0.00    -0.248 NA
ATOM     56  C   UNL A   1      37.425  34.299  33.654  1.00  0.00     0.031 C 
ATOM     57  C   UNL A   1      41.805  32.079  37.227  1.00  0.00     0.029 A 
ATOM     58  C   UNL A   1      40.917  32.256  36.178  1.00  0.00     0.049 A 
ATOM     59  H   UNL A   1      40.640  31.069  34.456  1.00  0.00     0.167 HD
ATOM     60  C   UNL A   1      39.111  33.410  34.930  1.00  0.00     0.074 A 
ATOM     61  C   UNL A   1      38.137  34.468  34.761  1.00  0.00     0.031 C 
ATOM     62  C   UNL A   1      39.944  33.303  35.995  1.00  0.00     0.037 A 
BRANCH  49  63
ATOM     63  C   UNL A   1      43.687  28.388  35.792  1.00  0.00     0.058 A 
ATOM     64  C   UNL A   1      45.051  28.639  35.570  1.00  0.00     0.135 A 
ATOM     65  C   UNL A   1      43.351  27.380  36.711  1.00  0.00     0.135 A 
ATOM     66  F   UNL A   1      45.430  29.582  34.692  1.00  0.00    -0.206 F 
ATOM     67  C   UNL A   1      46.042  27.905  36.213  1.00  0.00     0.059 A 
ATOM     68  C   UNL A   1      44.325  26.649  37.385  1.00  0.00     0.059 A 
ATOM     69  F   UNL A   1      42.062  27.098  36.963  1.00  0.00    -0.206 F 
ATOM     70  C   UNL A   1      45.669  26.911  37.119  1.00  0.00     0.060 A 
BRANCH  70  71
ATOM     71  S   UNL A   1      46.966  25.973  37.953  1.00  0.00     0.124 S 
ATOM     72  O   UNL A   1      46.737  24.630  37.429  1.00  0.00    -0.237 OA
ATOM     73  O   UNL A   1      48.181  26.635  37.487  1.00  0.00    -0.237 OA
ATOM     74  O   UNL A   1      46.661  26.154  39.368  1.00  0.00    -0.744 OA
ENDBRANCH  70  71
ENDBRANCH  49  63
BRANCH  50  75
ATOM     75  C   UNL A   1      36.416  33.354  31.072  1.00  0.00     0.058 A 
ATOM     76  C   UNL A   1      35.108  33.324  31.580  1.00  0.00     0.135 A 
ATOM     77  C   UNL A   1      36.649  34.099  29.906  1.00  0.00     0.135 A 
ATOM     78  F   UNL A   1      34.836  32.621  32.689  1.00  0.00    -0.206 F 
ATOM     79  C   UNL A   1      34.066  33.991  30.946  1.00  0.00     0.059 A 
ATOM     80  C   UNL A   1      35.628  34.794  29.268  1.00  0.00     0.059 A 
ATOM     81  F   UNL A   1      37.887  34.173  29.392  1.00  0.00    -0.206 F 
ATOM     82  C   UNL A   1      34.336  34.724  29.788  1.00  0.00     0.060 A 
BRANCH  82  83
ATOM     83  S   UNL A   1      32.986  35.624  28.994  1.00  0.00     0.124 S 
ATOM     84  O   UNL A   1      32.370  34.576  28.189  1.00  0.00    -0.237 OA
ATOM     85  O   UNL A   1      32.210  36.090  30.140  1.00  0.00    -0.237 OA
ATOM     86  O   UNL A   1      33.677  36.671  28.249  1.00  0.00    -0.744 OA
ENDBRANCH  82  83
ENDBRANCH  50  75
BRANCH  62  87
ATOM     87  C   UNL A   1      39.852  34.373  37.047  1.00  0.00     0.058 A 
ATOM     88  C   UNL A   1      40.531  35.594  36.916  1.00  0.00     0.135 A 
ATOM     89  C   UNL A   1      39.051  34.186  38.185  1.00  0.00     0.135 A 
ATOM     90  F   UNL A   1      41.315  35.820  35.850  1.00  0.00    -0.206 F 
ATOM     91  C   UNL A   1      40.445  36.582  37.892  1.00  0.00     0.059 A 
ATOM     92  C   UNL A   1      38.930  35.171  39.161  1.00  0.00     0.059 A 
ATOM     93  F   UNL A   1      38.372  33.041  38.353  1.00  0.00    -0.206 F 
ATOM     94  C   UNL A   1      39.643  36.359  39.013  1.00  0.00     0.060 A 
BRANCH  94  95
ATOM     95  S   UNL A   1      39.525  37.653  40.267  1.00  0.00     0.124 S 
ATOM     96  O   UNL A   1      40.916  38.079  40.381  1.00  0.00    -0.237 OA
ATOM     97  O   UNL A   1      38.619  38.613  39.644  1.00  0.00    -0.237 OA
ATOM     98  O   UNL A   1      38.983  36.952  41.427  1.00  0.00    -0.744 OA
ENDBRANCH  94  95
ENDBRANCH  62  87
ENDBRANCH  36  37
ENDBRANCH  28  31
ENDBRANCH  26  27
ENDBRANCH  25  26
ENDBRANCH   1  25
TORSDOF 18
ENDMDL
MODEL 2
REMARK VINA RESULT:     -11.4      4.772     10.317
REMARK SMILES CC1(C)C[C@](CC(=O)NCCCCCCNC(=O)c2ccc(-c3c4nc(c(-c5c(F)cc(S(=O)(=O)[O-])cc5F)c5ccc([nH]5)c(-c5c(F)cc(S(=O)(=O)[O-])cc5F)c5nc(c(-c6c(F)cc(S(=O)(=O)[O-])cc6F)c6ccc3[nH]6)C=C5)C=C4)cc2)([NH+]2CCCC2)C(C)(C)O1
REMARK SMILES IDX 13 1 12 2 11 3 10 4 9 5 7 6 8 7 6 9 5 10 1 11 2 12 3 13 4 14
REMARK SMILES IDX 93 15 90 16 91 17 92 18 85 19 86 20 89 21 87 23 88 24 14 25
REMARK SMILES IDX 15 26 16 27 17 28 18 30 19 31 20 32 84 33 21 34 83 35 22 36
REMARK SMILES IDX 23 37 24 38 77 39 25 40 82 41 76 42 78 43 26 44 81 45 75 46
REMARK SMILES IDX 74 47 27 49 61 50 40 51 60 52 41 53 44 54 59 55 79 56 42 57
REMARK SMILES IDX 43 58 58 60 80 61 45 62 28 63 29 64 38 65 30 66 31 67 37 68
REMARK SMILES IDX 39 69 32 70 33 71 34 72 35 73 36 74 62 75 63 76 72 77 64 78
REMARK SMILES IDX 65 79 71 80 73 81 66 82 67 83 68 84 69 85 70 86 46 87 47 88
REMARK SMILES IDX 56 89 48 90 49 91 55 92 57 93 50 94 51 95 52 96 53 97 54 98
REMARK H PARENT 9 8 85 22 16 29 78 48 44 59
REMARK Flexibility Score: inf
ROOT
ATOM      1  C   UNL A   1      32.443  28.867  24.785  1.00  0.00     0.002 C 
ENDROOT
BRANCH   1   2
ATOM      2  C   UNL A   1      31.175  28.052  24.516  1.00  0.00     0.002 C 
BRANCH   2   3
ATOM      3  C   UNL A   1      30.815  27.006  25.567  1.00  0.00     0.021 C 
BRANCH   3   4
ATOM      4  C   UNL A   1      30.208  25.708  25.040  1.00  0.00     0.116 C 
BRANCH   4   5
ATOM      5  N   UNL A   1      30.220  24.649  26.021  1.00  0.00    -0.356 N 
ATOM      6  C   UNL A   1      31.215  23.913  26.571  1.00  0.00     0.226 C 
ATOM      7  O   UNL A   1      30.889  23.260  27.573  1.00  0.00    -0.275 OA
ATOM      8  H   UNL A   1      29.324  24.415  26.359  1.00  0.00     0.163 HD
BRANCH   6   9
ATOM      9  C   UNL A   1      32.673  23.876  26.096  1.00  0.00     0.171 C 
BRANCH   9  10
ATOM     10  C   UNL A   1      33.240  22.984  24.913  1.00  0.00     0.138 C 
ATOM     11  C   UNL A   1      32.279  19.433  25.235  1.00  0.00     0.042 C 
ATOM     12  C   UNL A   1      32.814  20.560  24.330  1.00  0.00     0.070 C 
ATOM     13  C   UNL A   1      32.648  20.042  22.897  1.00  0.00     0.042 C 
ATOM     14  C   UNL A   1      32.128  21.900  24.628  1.00  0.00     0.107 C 
ATOM     15  O   UNL A   1      34.213  20.759  24.572  1.00  0.00    -0.363 OA
ATOM     16  C   UNL A   1      34.424  21.991  25.324  1.00  0.00     0.118 C 
ATOM     17  C   UNL A   1      34.458  21.507  26.797  1.00  0.00     0.049 C 
ATOM     18  C   UNL A   1      35.819  22.481  24.915  1.00  0.00     0.049 C 
BRANCH  10  19
ATOM     19  N   UNL A   1      33.378  23.758  23.638  1.00  0.00    -0.327 N 
ATOM     20  C   UNL A   1      32.298  23.826  22.661  1.00  0.00     0.263 C 
ATOM     21  C   UNL A   1      34.119  25.016  23.594  1.00  0.00     0.263 C 
ATOM     22  H   UNL A   1      34.006  23.007  23.349  1.00  0.00     0.348 HD
ATOM     23  C   UNL A   1      32.704  24.910  21.678  1.00  0.00     0.067 C 
ATOM     24  C   UNL A   1      33.445  25.892  22.547  1.00  0.00     0.067 C 
ENDBRANCH  10  19
ENDBRANCH   9  10
ENDBRANCH   6   9
ENDBRANCH   4   5
ENDBRANCH   3   4
ENDBRANCH   2   3
ENDBRANCH   1   2
BRANCH   1  25
ATOM     25  C   UNL A   1      33.611  28.139  25.463  1.00  0.00     0.021 C 
BRANCH  25  26
ATOM     26  C   UNL A   1      33.745  28.315  26.976  1.00  0.00     0.116 C 
BRANCH  26  27
ATOM     27  N   UNL A   1      33.591  29.694  27.401  1.00  0.00    -0.352 N 
ATOM     28  C   UNL A   1      34.439  30.525  28.085  1.00  0.00     0.251 C 
ATOM     29  H   UNL A   1      32.729  30.101  27.156  1.00  0.00     0.163 HD
ATOM     30  O   UNL A   1      34.017  31.612  28.476  1.00  0.00    -0.269 OA
BRANCH  28  31
ATOM     31  C   UNL A   1      35.836  30.134  28.379  1.00  0.00     0.039 A 
ATOM     32  C   UNL A   1      36.770  30.196  27.338  1.00  0.00     0.014 A 
ATOM     33  C   UNL A   1      36.225  29.650  29.631  1.00  0.00     0.014 A 
ATOM     34  C   UNL A   1      38.097  29.825  27.567  1.00  0.00     0.010 A 
ATOM     35  C   UNL A   1      37.564  29.338  29.875  1.00  0.00     0.010 A 
ATOM     36  C   UNL A   1      38.514  29.419  28.846  1.00  0.00    -0.014 A 
BRANCH  36  37
ATOM     37  C   UNL A   1      39.940  29.093  29.107  1.00  0.00     0.031 A 
ATOM     38  C   UNL A   1      40.864  30.114  29.714  1.00  0.00     0.074 A 
ATOM     39  C   UNL A   1      40.413  27.878  28.765  1.00  0.00     0.049 A 
ATOM     40  N   UNL A   1      42.137  30.009  30.000  1.00  0.00    -0.248 NA
ATOM     41  C   UNL A   1      40.288  31.432  30.025  1.00  0.00     0.031 C 
ATOM     42  C   UNL A   1      39.631  26.817  28.126  1.00  0.00     0.029 A 
ATOM     43  N   UNL A   1      41.664  27.328  28.902  1.00  0.00    -0.354 N 
ATOM     44  C   UNL A   1      42.516  31.243  30.515  1.00  0.00     0.074 A 
ATOM     45  C   UNL A   1      41.348  32.097  30.460  1.00  0.00     0.031 C 
ATOM     46  C   UNL A   1      40.412  25.739  27.947  1.00  0.00     0.029 A 
ATOM     47  C   UNL A   1      41.756  26.040  28.430  1.00  0.00     0.049 A 
ATOM     48  H   UNL A   1      42.423  27.812  29.301  1.00  0.00     0.167 HD
ATOM     49  C   UNL A   1      43.720  31.624  31.009  1.00  0.00     0.037 A 
ATOM     50  C   UNL A   1      42.804  25.195  28.390  1.00  0.00     0.037 A 
ATOM     51  C   UNL A   1      44.873  30.764  31.082  1.00  0.00     0.049 A 
ATOM     52  C   UNL A   1      44.128  25.638  28.954  1.00  0.00     0.074 A 
ATOM     53  C   UNL A   1      46.121  31.041  31.614  1.00  0.00     0.029 A 
ATOM     54  N   UNL A   1      44.923  29.461  30.610  1.00  0.00    -0.354 N 
ATOM     55  N   UNL A   1      44.450  26.789  29.493  1.00  0.00    -0.248 NA
ATOM     56  C   UNL A   1      45.227  24.664  28.910  1.00  0.00     0.031 C 
ATOM     57  C   UNL A   1      46.936  29.918  31.432  1.00  0.00     0.029 A 
ATOM     58  C   UNL A   1      46.183  28.926  30.824  1.00  0.00     0.049 A 
ATOM     59  H   UNL A   1      44.172  28.985  30.186  1.00  0.00     0.167 HD
ATOM     60  C   UNL A   1      45.781  26.671  29.874  1.00  0.00     0.074 A 
ATOM     61  C   UNL A   1      46.200  25.331  29.517  1.00  0.00     0.031 C 
ATOM     62  C   UNL A   1      46.585  27.589  30.464  1.00  0.00     0.037 A 
BRANCH  49  63
ATOM     63  C   UNL A   1      43.851  33.033  31.520  1.00  0.00     0.058 A 
ATOM     64  C   UNL A   1      44.169  34.098  30.662  1.00  0.00     0.135 A 
ATOM     65  C   UNL A   1      43.611  33.332  32.871  1.00  0.00     0.135 A 
ATOM     66  F   UNL A   1      44.421  33.868  29.363  1.00  0.00    -0.206 F 
ATOM     67  C   UNL A   1      44.271  35.404  31.128  1.00  0.00     0.059 A 
ATOM     68  C   UNL A   1      43.682  34.635  33.356  1.00  0.00     0.059 A 
ATOM     69  F   UNL A   1      43.302  32.352  33.735  1.00  0.00    -0.206 F 
ATOM     70  C   UNL A   1      44.026  35.663  32.478  1.00  0.00     0.060 A 
BRANCH  70  71
ATOM     71  S   UNL A   1      44.153  37.365  33.067  1.00  0.00     0.124 S 
ATOM     72  O   UNL A   1      44.130  38.109  31.812  1.00  0.00    -0.237 OA
ATOM     73  O   UNL A   1      42.963  37.497  33.903  1.00  0.00    -0.237 OA
ATOM     74  O   UNL A   1      45.424  37.383  33.784  1.00  0.00    -0.744 OA
ENDBRANCH  70  71
ENDBRANCH  49  63
BRANCH  50  75
ATOM     75  C   UNL A   1      42.640  23.833  27.815  1.00  0.00     0.058 A 
ATOM     76  C   UNL A   1      42.688  23.626  26.429  1.00  0.00     0.135 A 
ATOM     77  C   UNL A   1      42.440  22.715  28.639  1.00  0.00     0.135 A 
ATOM     78  F   UNL A   1      42.871  24.665  25.601  1.00  0.00    -0.206 F 
ATOM     79  C   UNL A   1      42.524  22.360  25.876  1.00  0.00     0.059 A 
ATOM     80  C   UNL A   1      42.298  21.436  28.111  1.00  0.00     0.059 A 
ATOM     81  F   UNL A   1      42.406  22.859  29.973  1.00  0.00    -0.206 F 
ATOM     82  C   UNL A   1      42.329  21.271  26.727  1.00  0.00     0.060 A 
BRANCH  82  83
ATOM     83  S   UNL A   1      42.161  19.623  26.004  1.00  0.00     0.124 S 
ATOM     84  O   UNL A   1      43.091  19.699  24.884  1.00  0.00    -0.237 OA
ATOM     85  O   UNL A   1      42.562  18.759  27.111  1.00  0.00    -0.237 OA
ATOM     86  O   UNL A   1      40.747  19.557  25.651  1.00  0.00    -0.744 OA
ENDBRANCH  82  83
ENDBRANCH  50  75
BRANCH  62  87
ATOM     87  C   UNL A   1      47.992  27.166  30.782  1.00  0.00     0.058 A 
ATOM     88  C   UNL A   1      48.300  26.456  31.953  1.00  0.00     0.135 A 
ATOM     89  C   UNL A   1      49.039  27.447  29.890  1.00  0.00     0.135 A 
ATOM     90  F   UNL A   1      47.336  26.168  32.841  1.00  0.00    -0.206 F 
ATOM     91  C   UNL A   1      49.603  26.066  32.245  1.00  0.00     0.059 A 
ATOM     92  C   UNL A   1      50.346  27.044  30.149  1.00  0.00     0.059 A 
ATOM     93  F   UNL A   1      48.796  28.114  28.751  1.00  0.00    -0.206 F 
ATOM     94  C   UNL A   1      50.621  26.368  31.337  1.00  0.00     0.060 A 
BRANCH  94  95
ATOM     95  S   UNL A   1      52.306  25.844  31.717  1.00  0.00     0.124 S 
ATOM     96  O   UNL A   1      52.685  26.802  32.751  1.00  0.00    -0.237 OA
ATOM     97  O   UNL A   1      52.114  24.469  32.167  1.00  0.00    -0.237 OA
ATOM     98  O   UNL A   1      53.001  25.987  30.441  1.00  0.00    -0.744 OA
ENDBRANCH  94  95
ENDBRANCH  62  87
ENDBRANCH  36  37
ENDBRANCH  28  31
ENDBRANCH  26  27
ENDBRANCH  25  26
ENDBRANCH   1  25
TORSDOF 18
ENDMDL
MODEL 3
REMARK VINA RESULT:     -11.4      3.038      4.217
REMARK SMILES CC1(C)C[C@](CC(=O)NCCCCCCNC(=O)c2ccc(-c3c4nc(c(-c5c(F)cc(S(=O)(=O)[O-])cc5F)c5ccc([nH]5)c(-c5c(F)cc(S(=O)(=O)[O-])cc5F)c5nc(c(-c6c(F)cc(S(=O)(=O)[O-])cc6F)c6ccc3[nH]6)C=C5)C=C4)cc2)([NH+]2CCCC2)C(C)(C)O1
REMARK SMILES IDX 13 1 12 2 11 3 10 4 9 5 7 6 8 7 6 9 5 10 1 11 2 12 3 13 4 14
REMARK SMILES IDX 93 15 90 16 91 17 92 18 85 19 86 20 89 21 87 23 88 24 14 25
REMARK SMILES IDX 15 26 16 27 17 28 18 30 19 31 20 32 84 33 21 34 83 35 22 36
REMARK SMILES IDX 23 37 24 38 77 39 25 40 82 41 76 42 78 43 26 44 81 45 75 46
REMARK SMILES IDX 74 47 27 49 61 50 40 51 60 52 41 53 44 54 59 55 79 56 42 57
REMARK SMILES IDX 43 58 58 60 80 61 45 62 28 63 29 64 38 65 30 66 31 67 37 68
REMARK SMILES IDX 39 69 32 70 33 71 34 72 35 73 36 74 62 75 63 76 72 77 64 78
REMARK SMILES IDX 65 79 71 80 73 81 66 82 67 83 68 84 69 85 70 86 46 87 47 88
REMARK SMILES IDX 56 89 48 90 49 91 55 92 57 93 50 94 51 95 52 96 53 97 54 98
REMARK H PARENT 9 8 85 22 16 29 78 48 44 59
REMARK Flexibility Score: inf
ROOT
ATOM      1  C   UNL A   1      34.924  22.449  26.330  1.00  0.00     0.002 C 
ENDROOT
BRANCH   1   2
ATOM      2  C   UNL A   1      33.717  22.373  27.270  1.00  0.00     0.002 C 
BRANCH   2   3
ATOM      3  C   UNL A   1      32.352  22.241  26.600  1.00  0.00     0.021 C 
BRANCH   3   4
ATOM      4  C   UNL A   1      31.877  23.454  25.805  1.00  0.00     0.116 C 
BRANCH   4   5
ATOM      5  N   UNL A   1      31.614  24.601  26.644  1.00  0.00    -0.356 N 
ATOM      6  C   UNL A   1      31.863  25.925  26.499  1.00  0.00     0.226 C 
ATOM      7  O   UNL A   1      31.272  26.657  27.306  1.00  0.00    -0.275 OA
ATOM      8  H   UNL A   1      31.164  24.375  27.490  1.00  0.00     0.163 HD
BRANCH   6   9
ATOM      9  C   UNL A   1      32.742  26.560  25.416  1.00  0.00     0.171 C 
BRANCH   9  10
ATOM     10  C   UNL A   1      32.517  27.987  24.759  1.00  0.00     0.138 C 
ATOM     11  C   UNL A   1      29.363  28.182  22.847  1.00  0.00     0.042 C 
ATOM     12  C   UNL A   1      30.521  28.938  23.530  1.00  0.00     0.070 C 
ATOM     13  C   UNL A   1      30.025  30.380  23.691  1.00  0.00     0.042 C 
ATOM     14  C   UNL A   1      30.961  28.246  24.827  1.00  0.00     0.107 C 
ATOM     15  O   UNL A   1      31.668  28.955  22.671  1.00  0.00    -0.363 OA
ATOM     16  C   UNL A   1      32.684  28.034  23.170  1.00  0.00     0.118 C 
ATOM     17  C   UNL A   1      32.390  26.725  22.392  1.00  0.00     0.049 C 
ATOM     18  C   UNL A   1      34.023  28.616  22.701  1.00  0.00     0.049 C 
BRANCH  10  19
ATOM     19  N   UNL A   1      33.139  29.085  25.567  1.00  0.00    -0.327 N 
ATOM     20  C   UNL A   1      32.331  30.023  26.337  1.00  0.00     0.263 C 
ATOM     21  C   UNL A   1      34.405  28.884  26.267  1.00  0.00     0.263 C 
ATOM     22  H   UNL A   1      33.337  29.522  24.665  1.00  0.00     0.348 HD
ATOM     23  C   UNL A   1      33.310  30.774  27.223  1.00  0.00     0.067 C 
ATOM     24  C   UNL A   1      34.354  29.733  27.529  1.00  0.00     0.067 C 
ENDBRANCH  10  19
ENDBRANCH   9  10
ENDBRANCH   6   9
ENDBRANCH   4   5
ENDBRANCH   3   4
ENDBRANCH   2   3
ENDBRANCH   1   2
BRANCH   1  25
ATOM     25  C   UNL A   1      35.521  23.837  26.069  1.00  0.00     0.021 C 
BRANCH  25  26
ATOM     26  C   UNL A   1      36.671  23.914  25.065  1.00  0.00     0.116 C 
BRANCH  26  27
ATOM     27  N   UNL A   1      37.687  22.902  25.290  1.00  0.00    -0.352 N 
ATOM     28  C   UNL A   1      38.900  22.970  25.926  1.00  0.00     0.251 C 
ATOM     29  H   UNL A   1      37.467  22.016  24.923  1.00  0.00     0.163 HD
ATOM     30  O   UNL A   1      39.665  22.011  25.846  1.00  0.00    -0.269 OA
BRANCH  28  31
ATOM     31  C   UNL A   1      39.310  24.174  26.682  1.00  0.00     0.039 A 
ATOM     32  C   UNL A   1      38.868  24.305  28.003  1.00  0.00     0.014 A 
ATOM     33  C   UNL A   1      40.063  25.197  26.099  1.00  0.00     0.014 A 
ATOM     34  C   UNL A   1      39.222  25.431  28.751  1.00  0.00     0.010 A 
ATOM     35  C   UNL A   1      40.467  26.292  26.865  1.00  0.00     0.010 A 
ATOM     36  C   UNL A   1      40.049  26.423  28.198  1.00  0.00    -0.014 A 
BRANCH  36  37
ATOM     37  C   UNL A   1      40.484  27.585  29.016  1.00  0.00     0.031 A 
ATOM     38  C   UNL A   1      41.815  27.576  29.717  1.00  0.00     0.074 A 
ATOM     39  C   UNL A   1      39.659  28.642  29.152  1.00  0.00     0.049 A 
ATOM     40  N   UNL A   1      42.352  28.494  30.481  1.00  0.00    -0.248 NA
ATOM     41  C   UNL A   1      42.645  26.371  29.556  1.00  0.00     0.031 C 
ATOM     42  C   UNL A   1      38.323  28.753  28.561  1.00  0.00     0.029 A 
ATOM     43  N   UNL A   1      39.818  29.825  29.832  1.00  0.00    -0.354 N 
ATOM     44  C   UNL A   1      43.575  27.979  30.896  1.00  0.00     0.074 A 
ATOM     45  C   UNL A   1      43.680  26.647  30.337  1.00  0.00     0.031 C 
ATOM     46  C   UNL A   1      37.795  29.944  28.885  1.00  0.00     0.029 A 
ATOM     47  C   UNL A   1      38.738  30.670  29.729  1.00  0.00     0.049 A 
ATOM     48  H   UNL A   1      40.629  30.046  30.344  1.00  0.00     0.167 HD
ATOM     49  C   UNL A   1      44.531  28.567  31.655  1.00  0.00     0.037 A 
ATOM     50  C   UNL A   1      38.530  31.893  30.255  1.00  0.00     0.037 A 
ATOM     51  C   UNL A   1      44.431  29.901  32.192  1.00  0.00     0.049 A 
ATOM     52  C   UNL A   1      39.611  32.529  31.086  1.00  0.00     0.074 A 
ATOM     53  C   UNL A   1      45.368  30.605  32.928  1.00  0.00     0.029 A 
ATOM     54  N   UNL A   1      43.329  30.733  32.053  1.00  0.00    -0.354 N 
ATOM     55  N   UNL A   1      40.786  32.050  31.417  1.00  0.00    -0.248 NA
ATOM     56  C   UNL A   1      39.340  33.875  31.609  1.00  0.00     0.031 C 
ATOM     57  C   UNL A   1      44.820  31.848  33.263  1.00  0.00     0.029 A 
ATOM     58  C   UNL A   1      43.557  31.935  32.701  1.00  0.00     0.049 A 
ATOM     59  H   UNL A   1      42.507  30.501  31.564  1.00  0.00     0.167 HD
ATOM     60  C   UNL A   1      41.404  33.044  32.166  1.00  0.00     0.074 A 
ATOM     61  C   UNL A   1      40.479  34.157  32.228  1.00  0.00     0.031 C 
ATOM     62  C   UNL A   1      42.627  33.035  32.753  1.00  0.00     0.037 A 
BRANCH  49  63
ATOM     63  C   UNL A   1      45.777  27.777  31.946  1.00  0.00     0.058 A 
ATOM     64  C   UNL A   1      45.859  26.914  33.050  1.00  0.00     0.135 A 
ATOM     65  C   UNL A   1      46.886  27.845  31.087  1.00  0.00     0.135 A 
ATOM     66  F   UNL A   1      44.833  26.820  33.912  1.00  0.00    -0.206 F 
ATOM     67  C   UNL A   1      47.003  26.167  33.309  1.00  0.00     0.059 A 
ATOM     68  C   UNL A   1      48.033  27.087  31.311  1.00  0.00     0.059 A 
ATOM     69  F   UNL A   1      46.862  28.652  30.014  1.00  0.00    -0.206 F 
ATOM     70  C   UNL A   1      48.086  26.261  32.433  1.00  0.00     0.060 A 
BRANCH  70  71
ATOM     71  S   UNL A   1      49.561  25.278  32.776  1.00  0.00     0.124 S 
ATOM     72  O   UNL A   1      49.021  24.239  33.649  1.00  0.00    -0.237 OA
ATOM     73  O   UNL A   1      49.963  24.839  31.443  1.00  0.00    -0.237 OA
ATOM     74  O   UNL A   1      50.462  26.229  33.417  1.00  0.00    -0.744 OA
ENDBRANCH  70  71
ENDBRANCH  49  63
BRANCH  50  75
ATOM     75  C   UNL A   1      37.252  32.607  29.992  1.00  0.00     0.058 A 
ATOM     76  C   UNL A   1      36.100  32.322  30.740  1.00  0.00     0.135 A 
ATOM     77  C   UNL A   1      37.161  33.592  28.997  1.00  0.00     0.135 A 
ATOM     78  F   UNL A   1      36.137  31.385  31.698  1.00  0.00    -0.206 F 
ATOM     79  C   UNL A   1      34.896  32.974  30.497  1.00  0.00     0.059 A 
ATOM     80  C   UNL A   1      35.974  34.274  28.752  1.00  0.00     0.059 A 
ATOM     81  F   UNL A   1      38.241  33.913  28.267  1.00  0.00    -0.206 F 
ATOM     82  C   UNL A   1      34.843  33.949  29.500  1.00  0.00     0.060 A 
BRANCH  82  83
ATOM     83  S   UNL A   1      33.286  34.823  29.220  1.00  0.00     0.124 S 
ATOM     84  O   UNL A   1      32.758  34.920  30.575  1.00  0.00    -0.237 OA
ATOM     85  O   UNL A   1      33.739  36.074  28.618  1.00  0.00    -0.237 OA
ATOM     86  O   UNL A   1      32.561  33.932  28.320  1.00  0.00    -0.744 OA
ENDBRANCH  82  83
ENDBRANCH  50  75
BRANCH  62  87
ATOM     87  C   UNL A   1      43.042  34.277  33.491  1.00  0.00     0.058 A 
ATOM     88  C   UNL A   1      43.553  35.397  32.817  1.00  0.00     0.135 A 
ATOM     89  C   UNL A   1      42.899  34.358  34.885  1.00  0.00     0.135 A 
ATOM     90  F   UNL A   1      43.716  35.368  31.485  1.00  0.00    -0.206 F 
ATOM     91  C   UNL A   1      43.938  36.544  33.503  1.00  0.00     0.059 A 
ATOM     92  C   UNL A   1      43.253  35.505  35.589  1.00  0.00     0.059 A 
ATOM     93  F   UNL A   1      42.404  33.319  35.576  1.00  0.00    -0.206 F 
ATOM     94  C   UNL A   1      43.786  36.588  34.891  1.00  0.00     0.060 A 
BRANCH  94  95
ATOM     95  S   UNL A   1      44.273  38.087  35.771  1.00  0.00     0.124 S 
ATOM     96  O   UNL A   1      43.781  39.127  34.874  1.00  0.00    -0.237 OA
ATOM     97  O   UNL A   1      43.560  37.954  37.038  1.00  0.00    -0.237 OA
ATOM     98  O   UNL A   1      45.725  37.969  35.863  1.00  0.00    -0.744 OA
ENDBRANCH  94  95
ENDBRANCH  62  87
ENDBRANCH  36  37
ENDBRANCH  28  31
ENDBRANCH  26  27
ENDBRANCH  25  26
ENDBRANCH   1  25
TORSDOF 18
ENDMDL
