MODEL 1
REMARK VINA RESULT:      -9.1      0.000      0.000
REMARK SMILES O=C(CCC(=O)/[NH+]=C1\S[C@H]2CS(=O)(=O)C[C@@H]2N1c1ccc(Oc2ccccc2)cc1)NCCCCCCNC(=O)c1ccc(-c2c3nc(c(-c4c(F)cc(S(=O)(=O)[O-])cc4F)c4ccc([nH]4)c(-c4c(F)cc(S(=O)(=O)[O-])cc4F)c4nc(c(-c5c(F)cc(S(=O)(=O)[O-])cc5F)c5ccc2[nH]5)C=C4)C=C3)cc1
REMARK SMILES IDX 33 1 32 2 31 3 2 4 1 5 3 7 4 8 5 9 6 10 7 11 8 12 9 14 17 15
REMARK SMILES IDX 10 16 16 17 11 18 15 19 12 20 13 21 14 22 18 23 19 24 30 25
REMARK SMILES IDX 20 26 29 27 21 28 22 29 23 30 24 31 28 32 25 33 27 34 26 35
REMARK SMILES IDX 34 36 35 37 36 38 37 39 38 40 39 41 40 43 41 44 42 45 106 46
REMARK SMILES IDX 43 47 105 48 44 49 45 50 46 51 99 52 47 53 104 54 98 55
REMARK SMILES IDX 100 56 48 57 103 58 97 59 96 60 49 62 83 63 62 64 82 65
REMARK SMILES IDX 63 66 66 67 81 68 101 69 64 70 65 71 80 73 102 74 67 75
REMARK SMILES IDX 50 76 51 77 60 78 52 79 53 80 59 81 61 82 54 83 55 84 56 85
REMARK SMILES IDX 57 86 58 87 84 88 85 89 94 90 86 91 87 92 93 93 95 94 88 95
REMARK SMILES IDX 89 96 90 97 91 98 92 99 68 100 69 101 78 102 70 103 71 104
REMARK SMILES IDX 77 105 79 106 72 107 73 108 74 109 75 110 76 111
REMARK H PARENT 31 6 7 13 38 42 100 61 66 72
REMARK Flexibility Score: inf
ROOT
ATOM      1  C   UNL A   1      45.355  26.622  30.180  1.00  0.00     0.021 C 
ENDROOT
BRANCH   1   2
ATOM      2  C   UNL A   1      46.667  27.369  29.953  1.00  0.00     0.116 C 
BRANCH   2   3
ATOM      3  N   UNL A   1      47.305  27.024  28.689  1.00  0.00    -0.356 N 
ATOM      4  C   UNL A   1      46.831  27.088  27.421  1.00  0.00     0.220 C 
ATOM      5  O   UNL A   1      47.517  26.640  26.499  1.00  0.00    -0.275 OA
ATOM      6  H   UNL A   1      48.228  26.690  28.770  1.00  0.00     0.163 HD
BRANCH   4   7
ATOM      7  C   UNL A   1      45.503  27.735  27.156  1.00  0.00     0.112 C 
BRANCH   7   8
ATOM      8  C   UNL A   1      45.395  29.249  27.259  1.00  0.00     0.138 C 
BRANCH   8   9
ATOM      9  C   UNL A   1      44.116  30.057  27.007  1.00  0.00     0.308 C 
ATOM     10  O   UNL A   1      43.224  29.528  26.343  1.00  0.00    -0.247 OA
ATOM     11  N   UNL A   1      43.964  31.338  27.479  1.00  0.00    -0.204 N 
ATOM     12  C   UNL A   1      43.839  31.598  28.734  1.00  0.00     0.319 C 
ATOM     13  H   UNL A   1      43.952  32.082  26.835  1.00  0.00     0.316 HD
ATOM     14  S   UNL A   1      43.981  30.330  29.996  1.00  0.00    -0.029 SA
ATOM     15  N   UNL A   1      43.716  32.856  29.342  1.00  0.00    -0.217 N 
ATOM     16  C   UNL A   1      43.911  31.553  31.301  1.00  0.00     0.120 C 
ATOM     17  C   UNL A   1      44.371  32.862  30.648  1.00  0.00     0.212 C 
ATOM     18  C   UNL A   1      44.784  31.420  32.519  1.00  0.00     0.156 C 
ATOM     19  C   UNL A   1      44.053  33.898  31.706  1.00  0.00     0.188 C 
ATOM     20  S   UNL A   1      44.613  33.072  33.211  1.00  0.00     0.155 S 
ATOM     21  O   UNL A   1      43.519  33.057  34.156  1.00  0.00    -0.229 OA
ATOM     22  O   UNL A   1      45.928  33.569  33.559  1.00  0.00    -0.229 OA
BRANCH  15  23
ATOM     23  C   UNL A   1      43.285  34.050  28.742  1.00  0.00     0.128 A 
ATOM     24  C   UNL A   1      42.108  34.704  29.145  1.00  0.00     0.056 A 
ATOM     25  C   UNL A   1      43.991  34.639  27.682  1.00  0.00     0.056 A 
ATOM     26  C   UNL A   1      41.612  35.823  28.461  1.00  0.00     0.051 A 
ATOM     27  C   UNL A   1      43.505  35.781  27.004  1.00  0.00     0.051 A 
ATOM     28  C   UNL A   1      42.283  36.349  27.358  1.00  0.00     0.127 A 
BRANCH  28  29
ATOM     29  O   UNL A   1      41.652  37.427  26.777  1.00  0.00    -0.457 OA
BRANCH  29  30
ATOM     30  C   UNL A   1      42.259  38.653  26.665  1.00  0.00     0.127 A 
ATOM     31  C   UNL A   1      41.459  39.699  26.206  1.00  0.00     0.047 A 
ATOM     32  C   UNL A   1      43.617  38.880  26.864  1.00  0.00     0.047 A 
ATOM     33  C   UNL A   1      41.957  40.998  26.110  1.00  0.00     0.004 A 
ATOM     34  C   UNL A   1      44.132  40.176  26.742  1.00  0.00     0.004 A 
ATOM     35  C   UNL A   1      43.297  41.240  26.395  1.00  0.00     0.000 A 
ENDBRANCH  29  30
ENDBRANCH  28  29
ENDBRANCH  15  23
ENDBRANCH   8   9
ENDBRANCH   7   8
ENDBRANCH   4   7
ENDBRANCH   2   3
ENDBRANCH   1   2
BRANCH   1  36
ATOM     36  C   UNL A   1      45.533  25.296  30.923  1.00  0.00     0.002 C 
BRANCH  36  37
ATOM     37  C   UNL A   1      44.330  24.364  30.850  1.00  0.00     0.002 C 
BRANCH  37  38
ATOM     38  C   UNL A   1      44.201  23.661  29.504  1.00  0.00     0.021 C 
BRANCH  38  39
ATOM     39  C   UNL A   1      42.762  23.298  29.158  1.00  0.00     0.116 C 
BRANCH  39  40
ATOM     40  N   UNL A   1      42.509  23.562  27.750  1.00  0.00    -0.352 N 
ATOM     41  C   UNL A   1      41.463  24.333  27.305  1.00  0.00     0.251 C 
ATOM     42  H   UNL A   1      43.115  23.166  27.083  1.00  0.00     0.163 HD
ATOM     43  O   UNL A   1      40.764  23.974  26.367  1.00  0.00    -0.269 OA
BRANCH  41  44
ATOM     44  C   UNL A   1      41.153  25.576  28.039  1.00  0.00     0.039 A 
ATOM     45  C   UNL A   1      39.916  25.669  28.676  1.00  0.00     0.014 A 
ATOM     46  C   UNL A   1      42.110  26.586  28.179  1.00  0.00     0.014 A 
ATOM     47  C   UNL A   1      39.689  26.714  29.560  1.00  0.00     0.010 A 
ATOM     48  C   UNL A   1      41.929  27.556  29.150  1.00  0.00     0.010 A 
ATOM     49  C   UNL A   1      40.724  27.614  29.861  1.00  0.00    -0.014 A 
BRANCH  49  50
ATOM     50  C   UNL A   1      40.567  28.587  30.963  1.00  0.00     0.031 A 
ATOM     51  C   UNL A   1      41.411  28.465  32.194  1.00  0.00     0.074 A 
ATOM     52  C   UNL A   1      39.624  29.544  30.851  1.00  0.00     0.049 A 
ATOM     53  N   UNL A   1      41.417  29.218  33.261  1.00  0.00    -0.248 NA
ATOM     54  C   UNL A   1      42.353  27.335  32.251  1.00  0.00     0.031 C 
ATOM     55  C   UNL A   1      38.704  29.699  29.717  1.00  0.00     0.029 A 
ATOM     56  N   UNL A   1      39.283  30.571  31.691  1.00  0.00    -0.354 N 
ATOM     57  C   UNL A   1      42.352  28.650  34.116  1.00  0.00     0.074 A 
ATOM     58  C   UNL A   1      42.845  27.452  33.475  1.00  0.00     0.031 C 
ATOM     59  C   UNL A   1      37.943  30.787  29.911  1.00  0.00     0.029 A 
ATOM     60  C   UNL A   1      38.282  31.378  31.199  1.00  0.00     0.049 A 
ATOM     61  H   UNL A   1      39.712  30.718  32.564  1.00  0.00     0.167 HD
ATOM     62  C   UNL A   1      42.776  29.107  35.316  1.00  0.00     0.037 A 
ATOM     63  C   UNL A   1      37.707  32.472  31.733  1.00  0.00     0.037 A 
ATOM     64  C   UNL A   1      42.282  30.311  35.925  1.00  0.00     0.049 A 
ATOM     65  C   UNL A   1      38.198  32.955  33.069  1.00  0.00     0.074 A 
ATOM     66  C   UNL A   1      42.680  30.901  37.110  1.00  0.00     0.029 A 
ATOM     67  N   UNL A   1      41.273  31.108  35.398  1.00  0.00    -0.354 N 
ATOM     68  N   UNL A   1      39.142  32.454  33.830  1.00  0.00    -0.248 NA
ATOM     69  C   UNL A   1      37.554  34.154  33.618  1.00  0.00     0.031 C 
ATOM     70  C   UNL A   1      41.873  32.022  37.329  1.00  0.00     0.029 A 
ATOM     71  C   UNL A   1      41.015  32.168  36.249  1.00  0.00     0.049 A 
ATOM     72  H   UNL A   1      40.809  30.941  34.546  1.00  0.00     0.167 HD
ATOM     73  C   UNL A   1      39.225  33.291  34.936  1.00  0.00     0.074 A 
ATOM     74  C   UNL A   1      38.246  34.340  34.735  1.00  0.00     0.031 C 
ATOM     75  C   UNL A   1      40.038  33.204  36.019  1.00  0.00     0.037 A 
BRANCH  62  76
ATOM     76  C   UNL A   1      43.819  28.301  36.040  1.00  0.00     0.058 A 
ATOM     77  C   UNL A   1      43.473  27.272  36.932  1.00  0.00     0.135 A 
ATOM     78  C   UNL A   1      45.185  28.542  35.820  1.00  0.00     0.135 A 
ATOM     79  F   UNL A   1      42.183  27.012  37.199  1.00  0.00    -0.206 F 
ATOM     80  C   UNL A   1      44.442  26.531  37.599  1.00  0.00     0.059 A 
ATOM     81  C   UNL A   1      46.171  27.791  36.451  1.00  0.00     0.059 A 
ATOM     82  F   UNL A   1      45.572  29.519  34.984  1.00  0.00    -0.206 F 
ATOM     83  C   UNL A   1      45.789  26.795  37.349  1.00  0.00     0.060 A 
BRANCH  83  84
ATOM     84  S   UNL A   1      47.033  25.811  38.210  1.00  0.00     0.124 S 
ATOM     85  O   UNL A   1      48.170  25.917  37.300  1.00  0.00    -0.237 OA
ATOM     86  O   UNL A   1      47.167  26.522  39.477  1.00  0.00    -0.237 OA
ATOM     87  O   UNL A   1      46.421  24.489  38.297  1.00  0.00    -0.744 OA
ENDBRANCH  83  84
ENDBRANCH  62  76
BRANCH  63  88
ATOM     88  C   UNL A   1      36.631  33.189  30.996  1.00  0.00     0.058 A 
ATOM     89  C   UNL A   1      36.939  34.137  30.009  1.00  0.00     0.135 A 
ATOM     90  C   UNL A   1      35.275  32.937  31.256  1.00  0.00     0.135 A 
ATOM     91  F   UNL A   1      38.219  34.416  29.721  1.00  0.00    -0.206 F 
ATOM     92  C   UNL A   1      35.943  34.827  29.323  1.00  0.00     0.059 A 
ATOM     93  C   UNL A   1      34.261  33.593  30.564  1.00  0.00     0.059 A 
ATOM     94  F   UNL A   1      34.924  32.025  32.176  1.00  0.00    -0.206 F 
ATOM     95  C   UNL A   1      34.606  34.547  29.608  1.00  0.00     0.060 A 
BRANCH  95  96
ATOM     96  S   UNL A   1      33.322  35.426  28.692  1.00  0.00     0.124 S 
ATOM     97  O   UNL A   1      32.751  36.277  29.728  1.00  0.00    -0.237 OA
ATOM     98  O   UNL A   1      34.096  36.107  27.659  1.00  0.00    -0.237 OA
ATOM     99  O   UNL A   1      32.458  34.352  28.211  1.00  0.00    -0.744 OA
ENDBRANCH  95  96
ENDBRANCH  63  88
BRANCH  75 100
ATOM    100  C   UNL A   1      39.927  34.291  37.050  1.00  0.00     0.058 A 
ATOM    101  C   UNL A   1      40.604  35.513  36.915  1.00  0.00     0.135 A 
ATOM    102  C   UNL A   1      39.081  34.128  38.160  1.00  0.00     0.135 A 
ATOM    103  F   UNL A   1      41.429  35.717  35.876  1.00  0.00    -0.206 F 
ATOM    104  C   UNL A   1      40.469  36.525  37.860  1.00  0.00     0.059 A 
ATOM    105  C   UNL A   1      38.904  35.139  39.098  1.00  0.00     0.059 A 
ATOM    106  F   UNL A   1      38.402  32.982  38.330  1.00  0.00    -0.206 F 
ATOM    107  C   UNL A   1      39.612  36.329  38.944  1.00  0.00     0.060 A 
BRANCH 107 108
ATOM    108  S   UNL A   1      39.416  37.665  40.141  1.00  0.00     0.124 S 
ATOM    109  O   UNL A   1      38.264  38.378  39.601  1.00  0.00    -0.237 OA
ATOM    110  O   UNL A   1      39.185  36.936  41.385  1.00  0.00    -0.237 OA
ATOM    111  O   UNL A   1      40.688  38.378  40.067  1.00  0.00    -0.744 OA
ENDBRANCH 107 108
ENDBRANCH  75 100
ENDBRANCH  49  50
ENDBRANCH  41  44
ENDBRANCH  39  40
ENDBRANCH  38  39
ENDBRANCH  37  38
ENDBRANCH  36  37
ENDBRANCH   1  36
TORSDOF 21
ENDMDL
MODEL 2
REMARK VINA RESULT:      -8.7      3.514     12.504
REMARK SMILES O=C(CCC(=O)/[NH+]=C1\S[C@H]2CS(=O)(=O)C[C@@H]2N1c1ccc(Oc2ccccc2)cc1)NCCCCCCNC(=O)c1ccc(-c2c3nc(c(-c4c(F)cc(S(=O)(=O)[O-])cc4F)c4ccc([nH]4)c(-c4c(F)cc(S(=O)(=O)[O-])cc4F)c4nc(c(-c5c(F)cc(S(=O)(=O)[O-])cc5F)c5ccc2[nH]5)C=C4)C=C3)cc1
REMARK SMILES IDX 33 1 32 2 31 3 2 4 1 5 3 7 4 8 5 9 6 10 7 11 8 12 9 14 17 15
REMARK SMILES IDX 10 16 16 17 11 18 15 19 12 20 13 21 14 22 18 23 19 24 30 25
REMARK SMILES IDX 20 26 29 27 21 28 22 29 23 30 24 31 28 32 25 33 27 34 26 35
REMARK SMILES IDX 34 36 35 37 36 38 37 39 38 40 39 41 40 43 41 44 42 45 106 46
REMARK SMILES IDX 43 47 105 48 44 49 45 50 46 51 99 52 47 53 104 54 98 55
REMARK SMILES IDX 100 56 48 57 103 58 97 59 96 60 49 62 83 63 62 64 82 65
REMARK SMILES IDX 63 66 66 67 81 68 101 69 64 70 65 71 80 73 102 74 67 75
REMARK SMILES IDX 50 76 51 77 60 78 52 79 53 80 59 81 61 82 54 83 55 84 56 85
REMARK SMILES IDX 57 86 58 87 84 88 85 89 94 90 86 91 87 92 93 93 95 94 88 95
REMARK SMILES IDX 89 96 90 97 91 98 92 99 68 100 69 101 78 102 70 103 71 104
REMARK SMILES IDX 77 105 79 106 72 107 73 108 74 109 75 110 76 111
REMARK H PARENT 31 6 7 13 38 42 100 61 66 72
REMARK Flexibility Score: inf
ROOT
ATOM      1  C   UNL A   1      44.685  41.580  38.319  1.00  0.00     0.021 C 
ENDROOT
BRANCH   1   2
ATOM      2  C   UNL A   1      44.354  41.433  36.837  1.00  0.00     0.116 C 
BRANCH   2   3
ATOM      3  N   UNL A   1      43.452  42.468  36.351  1.00  0.00    -0.356 N 
ATOM      4  C   UNL A   1      42.908  42.654  35.123  1.00  0.00     0.220 C 
ATOM      5  O   UNL A   1      42.246  43.670  34.906  1.00  0.00    -0.275 OA
ATOM      6  H   UNL A   1      43.196  43.141  37.022  1.00  0.00     0.163 HD
BRANCH   4   7
ATOM      7  C   UNL A   1      43.089  41.604  34.065  1.00  0.00     0.112 C 
BRANCH   7   8
ATOM      8  C   UNL A   1      42.413  41.802  32.717  1.00  0.00     0.138 C 
BRANCH   8   9
ATOM      9  C   UNL A   1      43.100  42.359  31.464  1.00  0.00     0.308 C 
ATOM     10  O   UNL A   1      43.858  43.318  31.604  1.00  0.00    -0.247 OA
ATOM     11  N   UNL A   1      42.870  41.831  30.218  1.00  0.00    -0.204 N 
ATOM     12  C   UNL A   1      43.282  40.659  29.879  1.00  0.00     0.319 C 
ATOM     13  H   UNL A   1      42.371  42.367  29.560  1.00  0.00     0.316 HD
ATOM     14  S   UNL A   1      44.082  39.551  31.042  1.00  0.00    -0.029 SA
ATOM     15  N   UNL A   1      43.080  39.996  28.660  1.00  0.00    -0.217 N 
ATOM     16  C   UNL A   1      44.077  38.217  29.849  1.00  0.00     0.120 C 
ATOM     17  C   UNL A   1      42.944  38.557  28.874  1.00  0.00     0.212 C 
ATOM     18  C   UNL A   1      43.781  36.807  30.283  1.00  0.00     0.156 C 
ATOM     19  C   UNL A   1      43.146  37.552  27.758  1.00  0.00     0.188 C 
ATOM     20  S   UNL A   1      43.490  36.040  28.681  1.00  0.00     0.155 S 
ATOM     21  O   UNL A   1      44.741  35.491  28.207  1.00  0.00    -0.229 OA
ATOM     22  O   UNL A   1      42.279  35.249  28.758  1.00  0.00    -0.229 OA
BRANCH  15  23
ATOM     23  C   UNL A   1      42.774  40.576  27.419  1.00  0.00     0.128 A 
ATOM     24  C   UNL A   1      41.461  40.620  26.920  1.00  0.00     0.056 A 
ATOM     25  C   UNL A   1      43.771  41.117  26.592  1.00  0.00     0.056 A 
ATOM     26  C   UNL A   1      41.175  41.084  25.628  1.00  0.00     0.051 A 
ATOM     27  C   UNL A   1      43.483  41.605  25.297  1.00  0.00     0.051 A 
ATOM     28  C   UNL A   1      42.189  41.543  24.787  1.00  0.00     0.127 A 
BRANCH  28  29
ATOM     29  O   UNL A   1      41.751  41.933  23.540  1.00  0.00    -0.457 OA
BRANCH  29  30
ATOM     30  C   UNL A   1      42.551  42.637  22.675  1.00  0.00     0.127 A 
ATOM     31  C   UNL A   1      43.151  43.788  23.185  1.00  0.00     0.047 A 
ATOM     32  C   UNL A   1      42.700  42.342  21.323  1.00  0.00     0.047 A 
ATOM     33  C   UNL A   1      44.028  44.546  22.411  1.00  0.00     0.004 A 
ATOM     34  C   UNL A   1      43.557  43.115  20.532  1.00  0.00     0.004 A 
ATOM     35  C   UNL A   1      44.245  44.197  21.083  1.00  0.00     0.000 A 
ENDBRANCH  29  30
ENDBRANCH  28  29
ENDBRANCH  15  23
ENDBRANCH   8   9
ENDBRANCH   7   8
ENDBRANCH   4   7
ENDBRANCH   2   3
ENDBRANCH   1   2
BRANCH   1  36
ATOM     36  C   UNL A   1      43.452  41.812  39.196  1.00  0.00     0.002 C 
BRANCH  36  37
ATOM     37  C   UNL A   1      43.063  40.626  40.069  1.00  0.00     0.002 C 
BRANCH  37  38
ATOM     38  C   UNL A   1      41.686  40.066  39.735  1.00  0.00     0.021 C 
BRANCH  38  39
ATOM     39  C   UNL A   1      41.540  38.592  40.096  1.00  0.00     0.116 C 
BRANCH  39  40
ATOM     40  N   UNL A   1      40.163  38.306  40.465  1.00  0.00    -0.352 N 
ATOM     41  C   UNL A   1      39.271  37.687  39.624  1.00  0.00     0.251 C 
ATOM     42  H   UNL A   1      39.854  38.570  41.362  1.00  0.00     0.163 HD
ATOM     43  O   UNL A   1      38.129  38.107  39.490  1.00  0.00    -0.269 OA
BRANCH  41  44
ATOM     44  C   UNL A   1      39.749  36.543  38.821  1.00  0.00     0.039 A 
ATOM     45  C   UNL A   1      39.162  35.298  39.042  1.00  0.00     0.014 A 
ATOM     46  C   UNL A   1      40.685  36.724  37.799  1.00  0.00     0.014 A 
ATOM     47  C   UNL A   1      39.418  34.264  38.153  1.00  0.00     0.010 A 
ATOM     48  C   UNL A   1      40.843  35.732  36.846  1.00  0.00     0.010 A 
ATOM     49  C   UNL A   1      40.195  34.501  37.008  1.00  0.00    -0.014 A 
BRANCH  49  50
ATOM     50  C   UNL A   1      40.286  33.478  35.945  1.00  0.00     0.031 A 
ATOM     51  C   UNL A   1      39.362  33.538  34.767  1.00  0.00     0.074 A 
ATOM     52  C   UNL A   1      41.177  32.477  36.087  1.00  0.00     0.049 A 
ATOM     53  N   UNL A   1      39.289  32.734  33.741  1.00  0.00    -0.248 NA
ATOM     54  C   UNL A   1      38.369  34.626  34.750  1.00  0.00     0.031 C 
ATOM     55  C   UNL A   1      42.073  32.295  37.236  1.00  0.00     0.029 A 
ATOM     56  N   UNL A   1      41.487  31.428  35.262  1.00  0.00    -0.354 N 
ATOM     57  C   UNL A   1      38.243  33.211  32.964  1.00  0.00     0.074 A 
ATOM     58  C   UNL A   1      37.664  34.333  33.668  1.00  0.00     0.031 C 
ATOM     59  C   UNL A   1      42.863  31.233  37.017  1.00  0.00     0.029 A 
ATOM     60  C   UNL A   1      42.501  30.629  35.741  1.00  0.00     0.049 A 
ATOM     61  H   UNL A   1      41.028  31.260  34.408  1.00  0.00     0.167 HD
ATOM     62  C   UNL A   1      37.824  32.765  31.758  1.00  0.00     0.037 A 
ATOM     63  C   UNL A   1      43.071  29.534  35.205  1.00  0.00     0.037 A 
ATOM     64  C   UNL A   1      38.427  31.656  31.070  1.00  0.00     0.049 A 
ATOM     65  C   UNL A   1      42.583  29.060  33.864  1.00  0.00     0.074 A 
ATOM     66  C   UNL A   1      38.124  31.154  29.819  1.00  0.00     0.029 A 
ATOM     67  N   UNL A   1      39.455  30.874  31.580  1.00  0.00    -0.354 N 
ATOM     68  N   UNL A   1      41.645  29.571  33.101  1.00  0.00    -0.248 NA
ATOM     69  C   UNL A   1      43.231  27.867  33.307  1.00  0.00     0.031 C 
ATOM     70  C   UNL A   1      38.927  30.031  29.596  1.00  0.00     0.029 A 
ATOM     71  C   UNL A   1      39.778  29.873  30.680  1.00  0.00     0.049 A 
ATOM     72  H   UNL A   1      39.889  31.010  32.453  1.00  0.00     0.167 HD
ATOM     73  C   UNL A   1      41.609  28.779  31.960  1.00  0.00     0.074 A 
ATOM     74  C   UNL A   1      42.631  27.765  32.128  1.00  0.00     0.031 C 
ATOM     75  C   UNL A   1      40.807  28.880  30.871  1.00  0.00     0.037 A 
BRANCH  62  76
ATOM     76  C   UNL A   1      36.664  33.475  31.116  1.00  0.00     0.058 A 
ATOM     77  C   UNL A   1      36.826  34.274  29.973  1.00  0.00     0.135 A 
ATOM     78  C   UNL A   1      35.367  33.334  31.636  1.00  0.00     0.135 A 
ATOM     79  F   UNL A   1      38.046  34.465  29.445  1.00  0.00    -0.206 F 
ATOM     80  C   UNL A   1      35.749  34.929  29.384  1.00  0.00     0.059 A 
ATOM     81  C   UNL A   1      34.271  33.953  31.044  1.00  0.00     0.059 A 
ATOM     82  F   UNL A   1      35.156  32.588  32.732  1.00  0.00    -0.206 F 
ATOM     83  C   UNL A   1      34.474  34.759  29.924  1.00  0.00     0.060 A 
BRANCH  83  84
ATOM     84  S   UNL A   1      33.087  35.602  29.136  1.00  0.00     0.124 S 
ATOM     85  O   UNL A   1      32.487  34.516  28.365  1.00  0.00    -0.237 OA
ATOM     86  O   UNL A   1      32.314  36.066  30.284  1.00  0.00    -0.237 OA
ATOM     87  O   UNL A   1      33.727  36.650  28.349  1.00  0.00    -0.744 OA
ENDBRANCH  83  84
ENDBRANCH  62  76
BRANCH  63  88
ATOM     88  C   UNL A   1      44.172  28.834  35.922  1.00  0.00     0.058 A 
ATOM     89  C   UNL A   1      45.513  29.187  35.707  1.00  0.00     0.135 A 
ATOM     90  C   UNL A   1      43.909  27.806  36.839  1.00  0.00     0.135 A 
ATOM     91  F   UNL A   1      45.820  30.163  34.839  1.00  0.00    -0.206 F 
ATOM     92  C   UNL A   1      46.554  28.531  36.357  1.00  0.00     0.059 A 
ATOM     93  C   UNL A   1      44.930  27.154  37.524  1.00  0.00     0.059 A 
ATOM     94  F   UNL A   1      42.643  27.442  37.098  1.00  0.00    -0.206 F 
ATOM     95  C   UNL A   1      46.252  27.515  37.265  1.00  0.00     0.060 A 
BRANCH  95  96
ATOM     96  S   UNL A   1      47.608  26.690  38.127  1.00  0.00     0.124 S 
ATOM     97  O   UNL A   1      48.712  26.889  37.197  1.00  0.00    -0.237 OA
ATOM     98  O   UNL A   1      47.680  27.444  39.375  1.00  0.00    -0.237 OA
ATOM     99  O   UNL A   1      47.134  25.316  38.261  1.00  0.00    -0.744 OA
ENDBRANCH  95  96
ENDBRANCH  63  88
BRANCH  75 100
ATOM    100  C   UNL A   1      41.027  27.891  29.761  1.00  0.00     0.058 A 
ATOM    101  C   UNL A   1      40.106  26.869  29.486  1.00  0.00     0.135 A 
ATOM    102  C   UNL A   1      42.150  28.008  28.924  1.00  0.00     0.135 A 
ATOM    103  F   UNL A   1      39.021  26.711  30.260  1.00  0.00    -0.206 F 
ATOM    104  C   UNL A   1      40.304  25.979  28.435  1.00  0.00     0.059 A 
ATOM    105  C   UNL A   1      42.349  27.151  27.847  1.00  0.00     0.059 A 
ATOM    106  F   UNL A   1      43.055  28.976  29.138  1.00  0.00    -0.206 F 
ATOM    107  C   UNL A   1      41.426  26.133  27.619  1.00  0.00     0.060 A 
BRANCH 107 108
ATOM    108  S   UNL A   1      41.649  24.995  26.237  1.00  0.00     0.124 S 
ATOM    109  O   UNL A   1      40.715  23.928  26.580  1.00  0.00    -0.237 OA
ATOM    110  O   UNL A   1      41.277  25.821  25.091  1.00  0.00    -0.237 OA
ATOM    111  O   UNL A   1      43.063  24.640  26.312  1.00  0.00    -0.744 OA
ENDBRANCH 107 108
ENDBRANCH  75 100
ENDBRANCH  49  50
ENDBRANCH  41  44
ENDBRANCH  39  40
ENDBRANCH  38  39
ENDBRANCH  37  38
ENDBRANCH  36  37
ENDBRANCH   1  36
TORSDOF 21
ENDMDL
MODEL 3
REMARK VINA RESULT:      -8.2      5.118     10.195
REMARK SMILES O=C(CCC(=O)/[NH+]=C1\S[C@H]2CS(=O)(=O)C[C@@H]2N1c1ccc(Oc2ccccc2)cc1)NCCCCCCNC(=O)c1ccc(-c2c3nc(c(-c4c(F)cc(S(=O)(=O)[O-])cc4F)c4ccc([nH]4)c(-c4c(F)cc(S(=O)(=O)[O-])cc4F)c4nc(c(-c5c(F)cc(S(=O)(=O)[O-])cc5F)c5ccc2[nH]5)C=C4)C=C3)cc1
REMARK SMILES IDX 33 1 32 2 31 3 2 4 1 5 3 7 4 8 5 9 6 10 7 11 8 12 9 14 17 15
REMARK SMILES IDX 10 16 16 17 11 18 15 19 12 20 13 21 14 22 18 23 19 24 30 25
REMARK SMILES IDX 20 26 29 27 21 28 22 29 23 30 24 31 28 32 25 33 27 34 26 35
REMARK SMILES IDX 34 36 35 37 36 38 37 39 38 40 39 41 40 43 41 44 42 45 106 46
REMARK SMILES IDX 43 47 105 48 44 49 45 50 46 51 99 52 47 53 104 54 98 55
REMARK SMILES IDX 100 56 48 57 103 58 97 59 96 60 49 62 83 63 62 64 82 65
REMARK SMILES IDX 63 66 66 67 81 68 101 69 64 70 65 71 80 73 102 74 67 75
REMARK SMILES IDX 50 76 51 77 60 78 52 79 53 80 59 81 61 82 54 83 55 84 56 85
REMARK SMILES IDX 57 86 58 87 84 88 85 89 94 90 86 91 87 92 93 93 95 94 88 95
REMARK SMILES IDX 89 96 90 97 91 98 92 99 68 100 69 101 78 102 70 103 71 104
REMARK SMILES IDX 77 105 79 106 72 107 73 108 74 109 75 110 76 111
REMARK H PARENT 31 6 7 13 38 42 100 61 66 72
REMARK Flexibility Score: inf
ROOT
ATOM      1  C   UNL A   1      44.585  21.960  24.193  1.00  0.00     0.021 C 
ENDROOT
BRANCH   1   2
ATOM      2  C   UNL A   1      44.873  21.052  25.385  1.00  0.00     0.116 C 
BRANCH   2   3
ATOM      3  N   UNL A   1      44.351  19.704  25.211  1.00  0.00    -0.356 N 
ATOM      4  C   UNL A   1      43.260  19.109  25.753  1.00  0.00     0.220 C 
ATOM      5  O   UNL A   1      43.063  17.910  25.545  1.00  0.00    -0.275 OA
ATOM      6  H   UNL A   1      44.874  19.133  24.604  1.00  0.00     0.163 HD
BRANCH   4   7
ATOM      7  C   UNL A   1      42.293  19.925  26.560  1.00  0.00     0.112 C 
BRANCH   7   8
ATOM      8  C   UNL A   1      41.646  21.141  25.914  1.00  0.00     0.138 C 
BRANCH   8   9
ATOM      9  C   UNL A   1      40.520  21.974  26.539  1.00  0.00     0.308 C 
ATOM     10  O   UNL A   1      39.439  21.420  26.738  1.00  0.00    -0.247 OA
ATOM     11  N   UNL A   1      40.689  23.300  26.852  1.00  0.00    -0.204 N 
ATOM     12  C   UNL A   1      41.460  23.689  27.808  1.00  0.00     0.319 C 
ATOM     13  H   UNL A   1      40.205  23.977  26.327  1.00  0.00     0.316 HD
ATOM     14  S   UNL A   1      42.487  22.548  28.737  1.00  0.00    -0.029 SA
ATOM     15  N   UNL A   1      41.744  25.006  28.199  1.00  0.00    -0.217 N 
ATOM     16  C   UNL A   1      43.294  23.897  29.593  1.00  0.00     0.120 C 
ATOM     17  C   UNL A   1      43.121  25.113  28.676  1.00  0.00     0.212 C 
ATOM     18  C   UNL A   1      44.773  23.849  29.869  1.00  0.00     0.156 C 
ATOM     19  C   UNL A   1      43.587  26.262  29.547  1.00  0.00     0.188 C 
ATOM     20  S   UNL A   1      45.065  25.567  30.315  1.00  0.00     0.155 S 
ATOM     21  O   UNL A   1      44.936  25.692  31.749  1.00  0.00    -0.229 OA
ATOM     22  O   UNL A   1      46.233  26.040  29.600  1.00  0.00    -0.229 OA
BRANCH  15  23
ATOM     23  C   UNL A   1      40.972  26.150  27.951  1.00  0.00     0.128 A 
ATOM     24  C   UNL A   1      41.320  27.085  26.961  1.00  0.00     0.056 A 
ATOM     25  C   UNL A   1      39.823  26.442  28.703  1.00  0.00     0.056 A 
ATOM     26  C   UNL A   1      40.620  28.290  26.801  1.00  0.00     0.051 A 
ATOM     27  C   UNL A   1      39.102  27.646  28.530  1.00  0.00     0.051 A 
ATOM     28  C   UNL A   1      39.529  28.602  27.611  1.00  0.00     0.127 A 
BRANCH  28  29
ATOM     29  O   UNL A   1      38.970  29.834  27.351  1.00  0.00    -0.457 OA
BRANCH  29  30
ATOM     30  C   UNL A   1      37.802  30.244  27.944  1.00  0.00     0.127 A 
ATOM     31  C   UNL A   1      36.647  29.557  27.570  1.00  0.00     0.047 A 
ATOM     32  C   UNL A   1      37.689  31.349  28.781  1.00  0.00     0.047 A 
ATOM     33  C   UNL A   1      35.414  29.852  28.153  1.00  0.00     0.004 A 
ATOM     34  C   UNL A   1      36.450  31.669  29.348  1.00  0.00     0.004 A 
ATOM     35  C   UNL A   1      35.319  30.902  29.059  1.00  0.00     0.000 A 
ENDBRANCH  29  30
ENDBRANCH  28  29
ENDBRANCH  15  23
ENDBRANCH   8   9
ENDBRANCH   7   8
ENDBRANCH   4   7
ENDBRANCH   2   3
ENDBRANCH   1   2
BRANCH   1  36
ATOM     36  C   UNL A   1      45.058  23.401  24.399  1.00  0.00     0.002 C 
BRANCH  36  37
ATOM     37  C   UNL A   1      46.568  23.557  24.535  1.00  0.00     0.002 C 
BRANCH  37  38
ATOM     38  C   UNL A   1      46.981  24.932  25.046  1.00  0.00     0.021 C 
BRANCH  38  39
ATOM     39  C   UNL A   1      46.831  25.074  26.556  1.00  0.00     0.116 C 
BRANCH  39  40
ATOM     40  N   UNL A   1      48.039  24.611  27.221  1.00  0.00    -0.352 N 
ATOM     41  C   UNL A   1      49.186  25.362  27.305  1.00  0.00     0.251 C 
ATOM     42  H   UNL A   1      48.035  23.716  27.629  1.00  0.00     0.163 HD
ATOM     43  O   UNL A   1      50.284  24.870  27.079  1.00  0.00    -0.269 OA
BRANCH  41  44
ATOM     44  C   UNL A   1      49.056  26.802  27.602  1.00  0.00     0.039 A 
ATOM     45  C   UNL A   1      48.528  27.630  26.612  1.00  0.00     0.014 A 
ATOM     46  C   UNL A   1      49.354  27.305  28.872  1.00  0.00     0.014 A 
ATOM     47  C   UNL A   1      48.178  28.932  26.936  1.00  0.00     0.010 A 
ATOM     48  C   UNL A   1      48.891  28.560  29.227  1.00  0.00     0.010 A 
ATOM     49  C   UNL A   1      48.282  29.375  28.264  1.00  0.00    -0.014 A 
BRANCH  49  50
ATOM     50  C   UNL A   1      47.703  30.676  28.663  1.00  0.00     0.031 A 
ATOM     51  C   UNL A   1      46.360  30.725  29.324  1.00  0.00     0.074 A 
ATOM     52  C   UNL A   1      48.385  31.802  28.375  1.00  0.00     0.049 A 
ATOM     53  N   UNL A   1      45.690  31.765  29.742  1.00  0.00    -0.248 NA
ATOM     54  C   UNL A   1      45.661  29.443  29.517  1.00  0.00     0.031 C 
ATOM     55  C   UNL A   1      49.671  31.858  27.669  1.00  0.00     0.029 A 
ATOM     56  N   UNL A   1      48.103  33.115  28.644  1.00  0.00    -0.354 N 
ATOM     57  C   UNL A   1      44.494  31.266  30.238  1.00  0.00     0.074 A 
ATOM     58  C   UNL A   1      44.497  29.840  30.008  1.00  0.00     0.031 C 
ATOM     59  C   UNL A   1      50.087  33.132  27.608  1.00  0.00     0.029 A 
ATOM     60  C   UNL A   1      49.081  33.988  28.224  1.00  0.00     0.049 A 
ATOM     61  H   UNL A   1      47.279  33.408  29.095  1.00  0.00     0.167 HD
ATOM     62  C   UNL A   1      43.496  31.940  30.853  1.00  0.00     0.037 A 
ATOM     63  C   UNL A   1      49.153  35.328  28.328  1.00  0.00     0.037 A 
ATOM     64  C   UNL A   1      43.523  33.359  31.085  1.00  0.00     0.049 A 
ATOM     65  C   UNL A   1      48.028  36.051  29.015  1.00  0.00     0.074 A 
ATOM     66  C   UNL A   1      42.596  34.139  31.749  1.00  0.00     0.029 A 
ATOM     67  N   UNL A   1      44.531  34.212  30.652  1.00  0.00    -0.354 N 
ATOM     68  N   UNL A   1      46.938  35.557  29.553  1.00  0.00    -0.248 NA
ATOM     69  C   UNL A   1      48.141  37.511  29.116  1.00  0.00     0.031 C 
ATOM     70  C   UNL A   1      43.013  35.472  31.667  1.00  0.00     0.029 A 
ATOM     71  C   UNL A   1      44.233  35.515  31.009  1.00  0.00     0.049 A 
ATOM     72  H   UNL A   1      45.337  33.931  30.162  1.00  0.00     0.167 HD
ATOM     73  C   UNL A   1      46.248  36.641  30.082  1.00  0.00     0.074 A 
ATOM     74  C   UNL A   1      47.054  37.815  29.812  1.00  0.00     0.031 C 
ATOM     75  C   UNL A   1      45.059  36.665  30.734  1.00  0.00     0.037 A 
BRANCH  62  76
ATOM     76  C   UNL A   1      42.300  31.152  31.312  1.00  0.00     0.058 A 
ATOM     77  C   UNL A   1      42.182  30.689  32.633  1.00  0.00     0.135 A 
ATOM     78  C   UNL A   1      41.246  30.878  30.426  1.00  0.00     0.135 A 
ATOM     79  F   UNL A   1      43.169  30.901  33.518  1.00  0.00    -0.206 F 
ATOM     80  C   UNL A   1      41.074  29.959  33.051  1.00  0.00     0.059 A 
ATOM     81  C   UNL A   1      40.114  30.178  30.832  1.00  0.00     0.059 A 
ATOM     82  F   UNL A   1      41.310  31.289  29.150  1.00  0.00    -0.206 F 
ATOM     83  C   UNL A   1      40.043  29.712  32.145  1.00  0.00     0.060 A 
BRANCH  83  84
ATOM     84  S   UNL A   1      38.605  28.779  32.710  1.00  0.00     0.124 S 
ATOM     85  O   UNL A   1      37.766  28.784  31.515  1.00  0.00    -0.237 OA
ATOM     86  O   UNL A   1      39.192  27.492  33.067  1.00  0.00    -0.237 OA
ATOM     87  O   UNL A   1      38.105  29.571  33.830  1.00  0.00    -0.744 OA
ENDBRANCH  83  84
ENDBRANCH  62  76
BRANCH  63  88
ATOM     88  C   UNL A   1      50.334  36.060  27.793  1.00  0.00     0.058 A 
ATOM     89  C   UNL A   1      51.443  36.336  28.607  1.00  0.00     0.135 A 
ATOM     90  C   UNL A   1      50.382  36.492  26.459  1.00  0.00     0.135 A 
ATOM     91  F   UNL A   1      51.447  35.946  29.891  1.00  0.00    -0.206 F 
ATOM     92  C   UNL A   1      52.546  37.034  28.126  1.00  0.00     0.059 A 
ATOM     93  C   UNL A   1      51.487  37.166  25.946  1.00  0.00     0.059 A 
ATOM     94  F   UNL A   1      49.357  36.237  25.630  1.00  0.00    -0.206 F 
ATOM     95  C   UNL A   1      52.559  37.444  26.792  1.00  0.00     0.060 A 
BRANCH  95  96
ATOM     96  S   UNL A   1      54.009  38.322  26.169  1.00  0.00     0.124 S 
ATOM     97  O   UNL A   1      54.385  39.127  27.324  1.00  0.00    -0.237 OA
ATOM     98  O   UNL A   1      54.910  37.224  25.834  1.00  0.00    -0.237 OA
ATOM     99  O   UNL A   1      53.486  39.065  25.025  1.00  0.00    -0.744 OA
ENDBRANCH  95  96
ENDBRANCH  63  88
BRANCH  75 100
ATOM    100  C   UNL A   1      44.575  37.999  31.231  1.00  0.00     0.058 A 
ATOM    101  C   UNL A   1      43.739  38.819  30.459  1.00  0.00     0.135 A 
ATOM    102  C   UNL A   1      44.908  38.432  32.526  1.00  0.00     0.135 A 
ATOM    103  F   UNL A   1      43.398  38.454  29.214  1.00  0.00    -0.206 F 
ATOM    104  C   UNL A   1      43.271  40.036  30.942  1.00  0.00     0.059 A 
ATOM    105  C   UNL A   1      44.423  39.628  33.042  1.00  0.00     0.059 A 
ATOM    106  F   UNL A   1      45.697  37.678  33.310  1.00  0.00    -0.206 F 
ATOM    107  C   UNL A   1      43.615  40.428  32.237  1.00  0.00     0.060 A 
BRANCH 107 108
ATOM    108  S   UNL A   1      42.969  41.992  32.865  1.00  0.00     0.124 S 
ATOM    109  O   UNL A   1      44.125  42.521  33.581  1.00  0.00    -0.237 OA
ATOM    110  O   UNL A   1      42.607  42.694  31.637  1.00  0.00    -0.237 OA
ATOM    111  O   UNL A   1      41.845  41.585  33.702  1.00  0.00    -0.744 OA
ENDBRANCH 107 108
ENDBRANCH  75 100
ENDBRANCH  49  50
ENDBRANCH  41  44
ENDBRANCH  39  40
ENDBRANCH  38  39
ENDBRANCH  37  38
ENDBRANCH  36  37
ENDBRANCH   1  36
TORSDOF 21
ENDMDL
