MODEL 1
REMARK VINA RESULT:     -11.1      0.000      0.000
REMARK SMILES CC[C@@H](C)N(C)C(=O)N1[C@@H](C(=O)NCCCCCCNC(=O)c2ccc(-c3c4nc(c(-c5c(F)cc(S(=O)(=O)[O-])cc5F)c5ccc([nH]5)c(-c5c(F)cc(S(=O)(=O)[O-])cc5F)c5nc(c(-c6c(F)cc(S(=O)(=O)[O-])cc6F)c6ccc3[nH]6)C=C5)C=C4)cc2)CC[C@H]2CCCC[C@H]21
REMARK SMILES IDX 16 1 15 2 14 3 13 4 11 5 12 6 10 8 9 9 96 10 89 11 91 12
REMARK SMILES IDX 95 13 90 14 92 15 94 16 93 17 7 18 8 19 5 20 6 21 3 22 4 23
REMARK SMILES IDX 2 24 1 25 17 26 18 27 19 28 20 29 21 30 22 32 23 33 24 34
REMARK SMILES IDX 88 35 25 36 87 37 26 38 27 39 28 40 81 41 29 42 86 43 80 44
REMARK SMILES IDX 82 45 30 46 85 47 79 48 78 49 31 51 65 52 44 53 64 54 45 55
REMARK SMILES IDX 48 56 63 57 83 58 46 59 47 60 62 62 84 63 49 64 32 65 33 66
REMARK SMILES IDX 42 67 34 68 35 69 41 70 43 71 36 72 37 73 38 74 39 75 40 76
REMARK SMILES IDX 66 77 67 78 76 79 68 80 69 81 75 82 77 83 70 84 71 85 72 86
REMARK SMILES IDX 73 87 74 88 50 89 51 90 60 91 52 92 53 93 59 94 61 95 54 96
REMARK SMILES IDX 55 97 56 98 57 99 58 100
REMARK H PARENT 13 7 20 31 82 50 48 61
REMARK Flexibility Score: inf
ROOT
ATOM      1  C   UNL A   1      32.813  29.878  27.289  1.00  0.00     0.002 C 
ENDROOT
BRANCH   1   2
ATOM      2  C   UNL A   1      32.458  28.426  27.637  1.00  0.00     0.021 C 
BRANCH   2   3
ATOM      3  C   UNL A   1      31.992  27.616  26.433  1.00  0.00     0.116 C 
BRANCH   3   4
ATOM      4  N   UNL A   1      31.074  26.581  26.843  1.00  0.00    -0.354 N 
ATOM      5  C   UNL A   1      30.219  25.849  26.082  1.00  0.00     0.242 C 
ATOM      6  O   UNL A   1      29.407  25.130  26.675  1.00  0.00    -0.273 OA
ATOM      7  H   UNL A   1      31.065  26.376  27.806  1.00  0.00     0.163 HD
BRANCH   5   8
ATOM      8  C   UNL A   1      30.148  26.018  24.549  1.00  0.00     0.176 C 
ATOM      9  N   UNL A   1      31.376  25.733  23.749  1.00  0.00    -0.309 N 
ATOM     10  C   UNL A   1      31.291  26.204  22.341  1.00  0.00     0.091 C 
ATOM     11  C   UNL A   1      29.530  27.421  24.332  1.00  0.00     0.036 C 
ATOM     12  C   UNL A   1      30.848  27.667  22.203  1.00  0.00     0.012 C 
ATOM     13  C   UNL A   1      32.576  26.069  21.509  1.00  0.00     0.025 C 
ATOM     14  C   UNL A   1      29.498  27.873  22.885  1.00  0.00     0.008 C 
ATOM     15  C   UNL A   1      31.908  28.686  22.651  1.00  0.00     0.006 C 
ATOM     16  C   UNL A   1      33.722  26.863  22.100  1.00  0.00     0.002 C 
ATOM     17  C   UNL A   1      33.382  28.287  22.519  1.00  0.00     0.000 C 
BRANCH   9  18
ATOM     18  C   UNL A   1      31.880  24.412  23.864  1.00  0.00     0.320 C 
ATOM     19  O   UNL A   1      31.424  23.472  23.217  1.00  0.00    -0.248 OA
BRANCH  18  20
ATOM     20  N   UNL A   1      32.929  24.231  24.766  1.00  0.00    -0.325 N 
ATOM     21  C   UNL A   1      32.707  23.194  25.763  1.00  0.00     0.149 C 
BRANCH  20  22
ATOM     22  C   UNL A   1      34.351  24.315  24.311  1.00  0.00     0.083 C 
ATOM     23  C   UNL A   1      34.674  23.280  23.234  1.00  0.00     0.031 C 
BRANCH  22  24
ATOM     24  C   UNL A   1      35.388  24.336  25.455  1.00  0.00     0.021 C 
ATOM     25  C   UNL A   1      36.634  23.501  25.178  1.00  0.00     0.006 C 
ENDBRANCH  22  24
ENDBRANCH  20  22
ENDBRANCH  18  20
ENDBRANCH   9  18
ENDBRANCH   5   8
ENDBRANCH   3   4
ENDBRANCH   2   3
ENDBRANCH   1   2
BRANCH   1  26
ATOM     26  C   UNL A   1      31.791  30.589  26.393  1.00  0.00     0.002 C 
BRANCH  26  27
ATOM     27  C   UNL A   1      31.650  32.090  26.655  1.00  0.00     0.021 C 
BRANCH  27  28
ATOM     28  C   UNL A   1      32.862  32.720  27.331  1.00  0.00     0.116 C 
BRANCH  28  29
ATOM     29  N   UNL A   1      32.622  34.112  27.675  1.00  0.00    -0.352 N 
ATOM     30  C   UNL A   1      33.164  34.850  28.696  1.00  0.00     0.251 C 
ATOM     31  H   UNL A   1      31.985  34.591  27.096  1.00  0.00     0.163 HD
ATOM     32  O   UNL A   1      32.691  35.949  28.981  1.00  0.00    -0.269 OA
BRANCH  30  33
ATOM     33  C   UNL A   1      34.306  34.307  29.458  1.00  0.00     0.039 A 
ATOM     34  C   UNL A   1      34.060  33.574  30.620  1.00  0.00     0.014 A 
ATOM     35  C   UNL A   1      35.617  34.514  29.017  1.00  0.00     0.014 A 
ATOM     36  C   UNL A   1      35.128  33.002  31.312  1.00  0.00     0.010 A 
ATOM     37  C   UNL A   1      36.672  33.882  29.665  1.00  0.00     0.010 A 
ATOM     38  C   UNL A   1      36.440  33.123  30.823  1.00  0.00    -0.014 A 
BRANCH  38  39
ATOM     39  C   UNL A   1      37.583  32.476  31.515  1.00  0.00     0.031 A 
ATOM     40  C   UNL A   1      38.057  33.010  32.841  1.00  0.00     0.074 A 
ATOM     41  C   UNL A   1      38.221  31.442  30.930  1.00  0.00     0.049 A 
ATOM     42  N   UNL A   1      39.085  32.639  33.560  1.00  0.00    -0.248 NA
ATOM     43  C   UNL A   1      37.289  34.123  33.425  1.00  0.00     0.031 C 
ATOM     44  C   UNL A   1      37.876  30.859  29.631  1.00  0.00     0.029 A 
ATOM     45  N   UNL A   1      39.299  30.701  31.347  1.00  0.00    -0.354 N 
ATOM     46  C   UNL A   1      39.083  33.464  34.679  1.00  0.00     0.074 A 
ATOM     47  C   UNL A   1      37.995  34.402  34.511  1.00  0.00     0.031 C 
ATOM     48  C   UNL A   1      38.711  29.841  29.368  1.00  0.00     0.029 A 
ATOM     49  C   UNL A   1      39.677  29.724  30.456  1.00  0.00     0.049 A 
ATOM     50  H   UNL A   1      39.758  30.855  32.203  1.00  0.00     0.167 HD
ATOM     51  C   UNL A   1      39.893  33.423  35.762  1.00  0.00     0.037 A 
ATOM     52  C   UNL A   1      40.696  28.844  30.504  1.00  0.00     0.037 A 
ATOM     53  C   UNL A   1      40.965  32.476  35.932  1.00  0.00     0.049 A 
ATOM     54  C   UNL A   1      41.608  28.850  31.705  1.00  0.00     0.074 A 
ATOM     55  C   UNL A   1      41.833  32.343  37.001  1.00  0.00     0.029 A 
ATOM     56  N   UNL A   1      41.308  31.495  35.014  1.00  0.00    -0.354 N 
ATOM     57  N   UNL A   1      41.566  29.613  32.771  1.00  0.00    -0.248 NA
ATOM     58  C   UNL A   1      42.705  27.871  31.712  1.00  0.00     0.031 C 
ATOM     59  C   UNL A   1      42.726  31.306  36.713  1.00  0.00     0.029 A 
ATOM     60  C   UNL A   1      42.380  30.759  35.488  1.00  0.00     0.049 A 
ATOM     61  H   UNL A   1      40.856  31.344  34.152  1.00  0.00     0.167 HD
ATOM     62  C   UNL A   1      42.602  29.178  33.592  1.00  0.00     0.074 A 
ATOM     63  C   UNL A   1      43.245  28.078  32.904  1.00  0.00     0.031 C 
ATOM     64  C   UNL A   1      42.988  29.646  34.804  1.00  0.00     0.037 A 
BRANCH  51  65
ATOM     65  C   UNL A   1      39.638  34.407  36.869  1.00  0.00     0.058 A 
ATOM     66  C   UNL A   1      38.897  34.048  38.007  1.00  0.00     0.135 A 
ATOM     67  C   UNL A   1      40.196  35.696  36.832  1.00  0.00     0.135 A 
ATOM     68  F   UNL A   1      38.325  32.836  38.086  1.00  0.00    -0.206 F 
ATOM     69  C   UNL A   1      38.710  34.932  39.063  1.00  0.00     0.059 A 
ATOM     70  C   UNL A   1      40.046  36.588  37.890  1.00  0.00     0.059 A 
ATOM     71  F   UNL A   1      40.909  36.093  35.767  1.00  0.00    -0.206 F 
ATOM     72  C   UNL A   1      39.297  36.197  39.000  1.00  0.00     0.060 A 
BRANCH  72  73
ATOM     73  S   UNL A   1      39.079  37.314  40.401  1.00  0.00     0.124 S 
ATOM     74  O   UNL A   1      38.564  36.406  41.422  1.00  0.00    -0.237 OA
ATOM     75  O   UNL A   1      40.436  37.806  40.618  1.00  0.00    -0.237 OA
ATOM     76  O   UNL A   1      38.127  38.303  39.905  1.00  0.00    -0.744 OA
ENDBRANCH  72  73
ENDBRANCH  51  65
BRANCH  52  77
ATOM     77  C   UNL A   1      40.923  27.880  29.392  1.00  0.00     0.058 A 
ATOM     78  C   UNL A   1      40.089  26.763  29.220  1.00  0.00     0.135 A 
ATOM     79  C   UNL A   1      42.006  28.025  28.511  1.00  0.00     0.135 A 
ATOM     80  F   UNL A   1      39.041  26.578  30.038  1.00  0.00    -0.206 F 
ATOM     81  C   UNL A   1      40.349  25.799  28.252  1.00  0.00     0.059 A 
ATOM     82  C   UNL A   1      42.267  27.092  27.513  1.00  0.00     0.059 A 
ATOM     83  F   UNL A   1      42.822  29.085  28.615  1.00  0.00    -0.206 F 
ATOM     84  C   UNL A   1      41.448  25.969  27.409  1.00  0.00     0.060 A 
BRANCH  84  85
ATOM     85  S   UNL A   1      41.791  24.704  26.166  1.00  0.00     0.124 S 
ATOM     86  O   UNL A   1      40.821  23.675  26.524  1.00  0.00    -0.237 OA
ATOM     87  O   UNL A   1      41.534  25.420  24.920  1.00  0.00    -0.237 OA
ATOM     88  O   UNL A   1      43.190  24.368  26.409  1.00  0.00    -0.744 OA
ENDBRANCH  84  85
ENDBRANCH  52  77
BRANCH  64  89
ATOM     89  C   UNL A   1      44.119  28.936  35.495  1.00  0.00     0.058 A 
ATOM     90  C   UNL A   1      45.441  29.401  35.422  1.00  0.00     0.135 A 
ATOM     91  C   UNL A   1      43.865  27.802  36.285  1.00  0.00     0.135 A 
ATOM     92  F   UNL A   1      45.741  30.476  34.677  1.00  0.00    -0.206 F 
ATOM     93  C   UNL A   1      46.477  28.751  36.087  1.00  0.00     0.059 A 
ATOM     94  C   UNL A   1      44.880  27.156  36.984  1.00  0.00     0.059 A 
ATOM     95  F   UNL A   1      42.617  27.322  36.397  1.00  0.00    -0.206 F 
ATOM     96  C   UNL A   1      46.184  27.631  36.869  1.00  0.00     0.060 A 
BRANCH  96  97
ATOM     97  S   UNL A   1      47.532  26.822  37.756  1.00  0.00     0.124 S 
ATOM     98  O   UNL A   1      46.811  25.827  38.542  1.00  0.00    -0.237 OA
ATOM     99  O   UNL A   1      48.351  26.299  36.666  1.00  0.00    -0.237 OA
ATOM    100  O   UNL A   1      48.138  27.909  38.521  1.00  0.00    -0.744 OA
ENDBRANCH  96  97
ENDBRANCH  64  89
ENDBRANCH  38  39
ENDBRANCH  30  33
ENDBRANCH  28  29
ENDBRANCH  27  28
ENDBRANCH  26  27
ENDBRANCH   1  26
TORSDOF 20
ENDMDL
MODEL 2
REMARK VINA RESULT:     -11.0      0.908      8.164
REMARK SMILES CC[C@@H](C)N(C)C(=O)N1[C@@H](C(=O)NCCCCCCNC(=O)c2ccc(-c3c4nc(c(-c5c(F)cc(S(=O)(=O)[O-])cc5F)c5ccc([nH]5)c(-c5c(F)cc(S(=O)(=O)[O-])cc5F)c5nc(c(-c6c(F)cc(S(=O)(=O)[O-])cc6F)c6ccc3[nH]6)C=C5)C=C4)cc2)CC[C@H]2CCCC[C@H]21
REMARK SMILES IDX 16 1 15 2 14 3 13 4 11 5 12 6 10 8 9 9 96 10 89 11 91 12
REMARK SMILES IDX 95 13 90 14 92 15 94 16 93 17 7 18 8 19 5 20 6 21 3 22 4 23
REMARK SMILES IDX 2 24 1 25 17 26 18 27 19 28 20 29 21 30 22 32 23 33 24 34
REMARK SMILES IDX 88 35 25 36 87 37 26 38 27 39 28 40 81 41 29 42 86 43 80 44
REMARK SMILES IDX 82 45 30 46 85 47 79 48 78 49 31 51 65 52 44 53 64 54 45 55
REMARK SMILES IDX 48 56 63 57 83 58 46 59 47 60 62 62 84 63 49 64 32 65 33 66
REMARK SMILES IDX 42 67 34 68 35 69 41 70 43 71 36 72 37 73 38 74 39 75 40 76
REMARK SMILES IDX 66 77 67 78 76 79 68 80 69 81 75 82 77 83 70 84 71 85 72 86
REMARK SMILES IDX 73 87 74 88 50 89 51 90 60 91 52 92 53 93 59 94 61 95 54 96
REMARK SMILES IDX 55 97 56 98 57 99 58 100
REMARK H PARENT 13 7 20 31 82 50 48 61
REMARK Flexibility Score: inf
ROOT
ATOM      1  C   UNL A   1      33.017  30.000  27.072  1.00  0.00     0.002 C 
ENDROOT
BRANCH   1   2
ATOM      2  C   UNL A   1      32.968  28.477  27.246  1.00  0.00     0.021 C 
BRANCH   2   3
ATOM      3  C   UNL A   1      31.642  27.864  26.810  1.00  0.00     0.116 C 
BRANCH   3   4
ATOM      4  N   UNL A   1      31.538  26.501  27.270  1.00  0.00    -0.354 N 
ATOM      5  C   UNL A   1      31.391  25.363  26.541  1.00  0.00     0.242 C 
ATOM      6  O   UNL A   1      31.157  24.319  27.162  1.00  0.00    -0.273 OA
ATOM      7  H   UNL A   1      31.579  26.376  28.246  1.00  0.00     0.163 HD
BRANCH   5   8
ATOM      8  C   UNL A   1      31.358  25.386  24.998  1.00  0.00     0.176 C 
ATOM      9  N   UNL A   1      32.584  25.829  24.271  1.00  0.00    -0.309 N 
ATOM     10  C   UNL A   1      32.354  26.096  22.826  1.00  0.00     0.091 C 
ATOM     11  C   UNL A   1      30.063  26.156  24.640  1.00  0.00     0.036 C 
ATOM     12  C   UNL A   1      31.161  27.020  22.547  1.00  0.00     0.012 C 
ATOM     13  C   UNL A   1      33.543  26.693  22.057  1.00  0.00     0.025 C 
ATOM     14  C   UNL A   1      29.891  26.436  23.159  1.00  0.00     0.008 C 
ATOM     15  C   UNL A   1      31.399  28.485  22.946  1.00  0.00     0.006 C 
ATOM     16  C   UNL A   1      33.970  28.032  22.619  1.00  0.00     0.002 C 
ATOM     17  C   UNL A   1      32.839  29.012  22.903  1.00  0.00     0.000 C 
BRANCH   9  18
ATOM     18  C   UNL A   1      33.746  25.055  24.516  1.00  0.00     0.320 C 
ATOM     19  O   UNL A   1      34.668  25.453  25.227  1.00  0.00    -0.248 OA
BRANCH  18  20
ATOM     20  N   UNL A   1      33.794  23.805  23.898  1.00  0.00    -0.325 N 
ATOM     21  C   UNL A   1      34.990  23.561  23.105  1.00  0.00     0.149 C 
BRANCH  20  22
ATOM     22  C   UNL A   1      33.295  22.584  24.602  1.00  0.00     0.083 C 
ATOM     23  C   UNL A   1      34.377  21.512  24.732  1.00  0.00     0.031 C 
BRANCH  22  24
ATOM     24  C   UNL A   1      31.961  22.030  24.057  1.00  0.00     0.021 C 
ATOM     25  C   UNL A   1      32.053  21.480  22.637  1.00  0.00     0.006 C 
ENDBRANCH  22  24
ENDBRANCH  20  22
ENDBRANCH  18  20
ENDBRANCH   9  18
ENDBRANCH   5   8
ENDBRANCH   3   4
ENDBRANCH   2   3
ENDBRANCH   1   2
BRANCH   1  26
ATOM     26  C   UNL A   1      31.737  30.620  26.496  1.00  0.00     0.002 C 
BRANCH  26  27
ATOM     27  C   UNL A   1      31.633  32.138  26.663  1.00  0.00     0.021 C 
BRANCH  27  28
ATOM     28  C   UNL A   1      32.733  32.745  27.526  1.00  0.00     0.116 C 
BRANCH  28  29
ATOM     29  N   UNL A   1      32.508  34.161  27.767  1.00  0.00    -0.352 N 
ATOM     30  C   UNL A   1      33.070  34.970  28.721  1.00  0.00     0.251 C 
ATOM     31  H   UNL A   1      31.866  34.599  27.163  1.00  0.00     0.163 HD
ATOM     32  O   UNL A   1      32.607  36.090  28.930  1.00  0.00    -0.269 OA
BRANCH  30  33
ATOM     33  C   UNL A   1      34.218  34.476  29.507  1.00  0.00     0.039 A 
ATOM     34  C   UNL A   1      33.994  33.945  30.778  1.00  0.00     0.014 A 
ATOM     35  C   UNL A   1      35.513  34.531  28.981  1.00  0.00     0.014 A 
ATOM     36  C   UNL A   1      35.065  33.418  31.501  1.00  0.00     0.010 A 
ATOM     37  C   UNL A   1      36.565  33.938  29.672  1.00  0.00     0.010 A 
ATOM     38  C   UNL A   1      36.353  33.380  30.942  1.00  0.00    -0.014 A 
BRANCH  38  39
ATOM     39  C   UNL A   1      37.494  32.774  31.674  1.00  0.00     0.031 A 
ATOM     40  C   UNL A   1      38.191  31.565  31.109  1.00  0.00     0.074 A 
ATOM     41  C   UNL A   1      37.868  33.280  32.866  1.00  0.00     0.049 A 
ATOM     42  N   UNL A   1      39.147  30.843  31.634  1.00  0.00    -0.248 NA
ATOM     43  C   UNL A   1      37.740  31.091  29.788  1.00  0.00     0.031 C 
ATOM     44  C   UNL A   1      37.246  34.426  33.533  1.00  0.00     0.029 A 
ATOM     45  N   UNL A   1      38.858  32.892  33.735  1.00  0.00    -0.354 N 
ATOM     46  C   UNL A   1      39.415  29.838  30.711  1.00  0.00     0.074 A 
ATOM     47  C   UNL A   1      38.474  30.001  29.624  1.00  0.00     0.031 C 
ATOM     48  C   UNL A   1      37.880  34.660  34.694  1.00  0.00     0.029 A 
ATOM     49  C   UNL A   1      38.925  33.658  34.876  1.00  0.00     0.049 A 
ATOM     50  H   UNL A   1      39.463  32.137  33.558  1.00  0.00     0.167 HD
ATOM     51  C   UNL A   1      40.378  28.889  30.749  1.00  0.00     0.037 A 
ATOM     52  C   UNL A   1      39.728  33.553  35.952  1.00  0.00     0.037 A 
ATOM     53  C   UNL A   1      41.323  28.742  31.825  1.00  0.00     0.049 A 
ATOM     54  C   UNL A   1      40.764  32.458  35.986  1.00  0.00     0.074 A 
ATOM     55  C   UNL A   1      42.348  27.820  31.951  1.00  0.00     0.029 A 
ATOM     56  N   UNL A   1      41.367  29.544  32.956  1.00  0.00    -0.354 N 
ATOM     57  N   UNL A   1      41.028  31.542  35.084  1.00  0.00    -0.248 NA
ATOM     58  C   UNL A   1      41.617  32.385  37.181  1.00  0.00     0.031 C 
ATOM     59  C   UNL A   1      42.986  28.040  33.175  1.00  0.00     0.029 A 
ATOM     60  C   UNL A   1      42.394  29.132  33.788  1.00  0.00     0.049 A 
ATOM     61  H   UNL A   1      40.757  30.295  33.140  1.00  0.00     0.167 HD
ATOM     62  C   UNL A   1      42.101  30.813  35.586  1.00  0.00     0.074 A 
ATOM     63  C   UNL A   1      42.445  31.402  36.863  1.00  0.00     0.031 C 
ATOM     64  C   UNL A   1      42.743  29.750  35.041  1.00  0.00     0.037 A 
BRANCH  51  65
ATOM     65  C   UNL A   1      40.486  27.948  29.581  1.00  0.00     0.058 A 
ATOM     66  C   UNL A   1      41.451  28.139  28.579  1.00  0.00     0.135 A 
ATOM     67  C   UNL A   1      39.671  26.807  29.495  1.00  0.00     0.135 A 
ATOM     68  F   UNL A   1      42.243  29.223  28.601  1.00  0.00    -0.206 F 
ATOM     69  C   UNL A   1      41.599  27.239  27.530  1.00  0.00     0.059 A 
ATOM     70  C   UNL A   1      39.820  25.878  28.470  1.00  0.00     0.059 A 
ATOM     71  F   UNL A   1      38.729  26.579  30.423  1.00  0.00    -0.206 F 
ATOM     72  C   UNL A   1      40.785  26.106  27.488  1.00  0.00     0.060 A 
BRANCH  72  73
ATOM     73  S   UNL A   1      41.022  24.928  26.142  1.00  0.00     0.124 S 
ATOM     74  O   UNL A   1      42.128  24.121  26.651  1.00  0.00    -0.237 OA
ATOM     75  O   UNL A   1      39.726  24.261  26.083  1.00  0.00    -0.237 OA
ATOM     76  O   UNL A   1      41.342  25.777  24.998  1.00  0.00    -0.744 OA
ENDBRANCH  72  73
ENDBRANCH  51  65
BRANCH  52  77
ATOM     77  C   UNL A   1      39.598  34.501  37.094  1.00  0.00     0.058 A 
ATOM     78  C   UNL A   1      40.164  35.784  37.037  1.00  0.00     0.135 A 
ATOM     79  C   UNL A   1      38.953  34.126  38.282  1.00  0.00     0.135 A 
ATOM     80  F   UNL A   1      40.794  36.190  35.923  1.00  0.00    -0.206 F 
ATOM     81  C   UNL A   1      40.141  36.642  38.133  1.00  0.00     0.059 A 
ATOM     82  C   UNL A   1      38.887  34.979  39.380  1.00  0.00     0.059 A 
ATOM     83  F   UNL A   1      38.375  32.919  38.384  1.00  0.00    -0.206 F 
ATOM     84  C   UNL A   1      39.507  36.224  39.303  1.00  0.00     0.060 A 
BRANCH  84  85
ATOM     85  S   UNL A   1      39.497  37.335  40.727  1.00  0.00     0.124 S 
ATOM     86  O   UNL A   1      38.920  38.544  40.149  1.00  0.00    -0.237 OA
ATOM     87  O   UNL A   1      38.654  36.613  41.674  1.00  0.00    -0.237 OA
ATOM     88  O   UNL A   1      40.907  37.420  41.094  1.00  0.00    -0.744 OA
ENDBRANCH  84  85
ENDBRANCH  52  77
BRANCH  64  89
ATOM     89  C   UNL A   1      43.922  29.193  35.790  1.00  0.00     0.058 A 
ATOM     90  C   UNL A   1      45.211  29.731  35.652  1.00  0.00     0.135 A 
ATOM     91  C   UNL A   1      43.746  28.136  36.699  1.00  0.00     0.135 A 
ATOM     92  F   UNL A   1      45.435  30.738  34.793  1.00  0.00    -0.206 F 
ATOM     93  C   UNL A   1      46.290  29.225  36.369  1.00  0.00     0.059 A 
ATOM     94  C   UNL A   1      44.805  27.635  37.450  1.00  0.00     0.059 A 
ATOM     95  F   UNL A   1      42.533  27.591  36.877  1.00  0.00    -0.206 F 
ATOM     96  C   UNL A   1      46.075  28.178  37.269  1.00  0.00     0.060 A 
BRANCH  96  97
ATOM     97  S   UNL A   1      47.478  27.557  38.221  1.00  0.00     0.124 S 
ATOM     98  O   UNL A   1      46.807  26.866  39.317  1.00  0.00    -0.237 OA
ATOM     99  O   UNL A   1      48.157  26.702  37.252  1.00  0.00    -0.237 OA
ATOM    100  O   UNL A   1      48.202  28.770  38.593  1.00  0.00    -0.744 OA
ENDBRANCH  96  97
ENDBRANCH  64  89
ENDBRANCH  38  39
ENDBRANCH  30  33
ENDBRANCH  28  29
ENDBRANCH  27  28
ENDBRANCH  26  27
ENDBRANCH   1  26
TORSDOF 20
ENDMDL
MODEL 3
REMARK VINA RESULT:     -10.8      2.213      8.771
REMARK SMILES CC[C@@H](C)N(C)C(=O)N1[C@@H](C(=O)NCCCCCCNC(=O)c2ccc(-c3c4nc(c(-c5c(F)cc(S(=O)(=O)[O-])cc5F)c5ccc([nH]5)c(-c5c(F)cc(S(=O)(=O)[O-])cc5F)c5nc(c(-c6c(F)cc(S(=O)(=O)[O-])cc6F)c6ccc3[nH]6)C=C5)C=C4)cc2)CC[C@H]2CCCC[C@H]21
REMARK SMILES IDX 16 1 15 2 14 3 13 4 11 5 12 6 10 8 9 9 96 10 89 11 91 12
REMARK SMILES IDX 95 13 90 14 92 15 94 16 93 17 7 18 8 19 5 20 6 21 3 22 4 23
REMARK SMILES IDX 2 24 1 25 17 26 18 27 19 28 20 29 21 30 22 32 23 33 24 34
REMARK SMILES IDX 88 35 25 36 87 37 26 38 27 39 28 40 81 41 29 42 86 43 80 44
REMARK SMILES IDX 82 45 30 46 85 47 79 48 78 49 31 51 65 52 44 53 64 54 45 55
REMARK SMILES IDX 48 56 63 57 83 58 46 59 47 60 62 62 84 63 49 64 32 65 33 66
REMARK SMILES IDX 42 67 34 68 35 69 41 70 43 71 36 72 37 73 38 74 39 75 40 76
REMARK SMILES IDX 66 77 67 78 76 79 68 80 69 81 75 82 77 83 70 84 71 85 72 86
REMARK SMILES IDX 73 87 74 88 50 89 51 90 60 91 52 92 53 93 59 94 61 95 54 96
REMARK SMILES IDX 55 97 56 98 57 99 58 100
REMARK H PARENT 13 7 20 31 82 50 48 61
REMARK Flexibility Score: inf
ROOT
ATOM      1  C   UNL A   1      37.071  21.907  24.449  1.00  0.00     0.002 C 
ENDROOT
BRANCH   1   2
ATOM      2  C   UNL A   1      36.664  22.964  23.415  1.00  0.00     0.021 C 
BRANCH   2   3
ATOM      3  C   UNL A   1      35.262  23.517  23.640  1.00  0.00     0.116 C 
BRANCH   3   4
ATOM      4  N   UNL A   1      34.606  23.767  22.380  1.00  0.00    -0.354 N 
ATOM      5  C   UNL A   1      33.354  23.418  21.986  1.00  0.00     0.242 C 
ATOM      6  O   UNL A   1      33.064  23.595  20.797  1.00  0.00    -0.273 OA
ATOM      7  H   UNL A   1      35.138  24.258  21.713  1.00  0.00     0.163 HD
BRANCH   5   8
ATOM      8  C   UNL A   1      32.379  22.686  22.932  1.00  0.00     0.176 C 
ATOM      9  N   UNL A   1      31.946  23.384  24.180  1.00  0.00    -0.309 N 
ATOM     10  C   UNL A   1      31.257  22.493  25.151  1.00  0.00     0.091 C 
ATOM     11  C   UNL A   1      33.005  21.286  23.143  1.00  0.00     0.036 C 
ATOM     12  C   UNL A   1      32.024  21.199  25.458  1.00  0.00     0.012 C 
ATOM     13  C   UNL A   1      30.918  23.120  26.513  1.00  0.00     0.025 C 
ATOM     14  C   UNL A   1      32.290  20.428  24.169  1.00  0.00     0.008 C 
ATOM     15  C   UNL A   1      33.291  21.410  26.303  1.00  0.00     0.006 C 
ATOM     16  C   UNL A   1      32.156  23.587  27.248  1.00  0.00     0.002 C 
ATOM     17  C   UNL A   1      33.313  22.596  27.274  1.00  0.00     0.000 C 
BRANCH   9  18
ATOM     18  C   UNL A   1      31.274  24.616  23.981  1.00  0.00     0.320 C 
ATOM     19  O   UNL A   1      30.182  24.692  23.421  1.00  0.00    -0.248 OA
BRANCH  18  20
ATOM     20  N   UNL A   1      31.927  25.755  24.455  1.00  0.00    -0.325 N 
ATOM     21  C   UNL A   1      32.793  26.412  23.486  1.00  0.00     0.149 C 
BRANCH  20  22
ATOM     22  C   UNL A   1      31.227  26.715  25.363  1.00  0.00     0.083 C 
ATOM     23  C   UNL A   1      30.850  28.013  24.650  1.00  0.00     0.031 C 
BRANCH  22  24
ATOM     24  C   UNL A   1      31.940  26.955  26.712  1.00  0.00     0.021 C 
ATOM     25  C   UNL A   1      32.765  28.237  26.757  1.00  0.00     0.006 C 
ENDBRANCH  22  24
ENDBRANCH  20  22
ENDBRANCH  18  20
ENDBRANCH   9  18
ENDBRANCH   5   8
ENDBRANCH   3   4
ENDBRANCH   2   3
ENDBRANCH   1   2
BRANCH   1  26
ATOM     26  C   UNL A   1      37.217  22.435  25.882  1.00  0.00     0.002 C 
BRANCH  26  27
ATOM     27  C   UNL A   1      38.013  23.736  26.004  1.00  0.00     0.021 C 
BRANCH  27  28
ATOM     28  C   UNL A   1      39.240  23.633  26.901  1.00  0.00     0.116 C 
BRANCH  28  29
ATOM     29  N   UNL A   1      40.469  23.873  26.162  1.00  0.00    -0.352 N 
ATOM     30  C   UNL A   1      41.356  24.911  26.286  1.00  0.00     0.251 C 
ATOM     31  H   UNL A   1      40.695  23.200  25.480  1.00  0.00     0.163 HD
ATOM     32  O   UNL A   1      42.228  25.082  25.435  1.00  0.00    -0.269 OA
BRANCH  30  33
ATOM     33  C   UNL A   1      41.243  25.830  27.436  1.00  0.00     0.039 A 
ATOM     34  C   UNL A   1      42.179  26.855  27.581  1.00  0.00     0.014 A 
ATOM     35  C   UNL A   1      40.207  25.682  28.363  1.00  0.00     0.014 A 
ATOM     36  C   UNL A   1      42.043  27.767  28.629  1.00  0.00     0.010 A 
ATOM     37  C   UNL A   1      40.031  26.635  29.361  1.00  0.00     0.010 A 
ATOM     38  C   UNL A   1      40.950  27.684  29.508  1.00  0.00    -0.014 A 
BRANCH  38  39
ATOM     39  C   UNL A   1      40.759  28.678  30.595  1.00  0.00     0.031 A 
ATOM     40  C   UNL A   1      41.594  28.592  31.845  1.00  0.00     0.074 A 
ATOM     41  C   UNL A   1      39.806  29.623  30.477  1.00  0.00     0.049 A 
ATOM     42  N   UNL A   1      41.522  29.310  32.936  1.00  0.00    -0.248 NA
ATOM     43  C   UNL A   1      42.633  27.548  31.883  1.00  0.00     0.031 C 
ATOM     44  C   UNL A   1      38.909  29.785  29.329  1.00  0.00     0.029 A 
ATOM     45  N   UNL A   1      39.423  30.624  31.335  1.00  0.00    -0.354 N 
ATOM     46  C   UNL A   1      42.504  28.810  33.784  1.00  0.00     0.074 A 
ATOM     47  C   UNL A   1      43.113  27.685  33.110  1.00  0.00     0.031 C 
ATOM     48  C   UNL A   1      38.098  30.832  29.546  1.00  0.00     0.029 A 
ATOM     49  C   UNL A   1      38.383  31.392  30.863  1.00  0.00     0.049 A 
ATOM     50  H   UNL A   1      39.852  30.777  32.208  1.00  0.00     0.167 HD
ATOM     51  C   UNL A   1      42.886  29.269  34.999  1.00  0.00     0.037 A 
ATOM     52  C   UNL A   1      37.727  32.420  31.435  1.00  0.00     0.037 A 
ATOM     53  C   UNL A   1      42.289  30.401  35.658  1.00  0.00     0.049 A 
ATOM     54  C   UNL A   1      38.147  32.881  32.807  1.00  0.00     0.074 A 
ATOM     55  C   UNL A   1      42.615  30.954  36.884  1.00  0.00     0.029 A 
ATOM     56  N   UNL A   1      41.249  31.160  35.142  1.00  0.00    -0.354 N 
ATOM     57  N   UNL A   1      39.105  32.421  33.576  1.00  0.00    -0.248 NA
ATOM     58  C   UNL A   1      37.401  34.007  33.388  1.00  0.00     0.031 C 
ATOM     59  C   UNL A   1      41.748  32.022  37.127  1.00  0.00     0.029 A 
ATOM     60  C   UNL A   1      40.915  32.169  36.029  1.00  0.00     0.049 A 
ATOM     61  H   UNL A   1      40.812  31.003  34.274  1.00  0.00     0.167 HD
ATOM     62  C   UNL A   1      39.103  33.226  34.710  1.00  0.00     0.074 A 
ATOM     63  C   UNL A   1      38.056  34.209  34.522  1.00  0.00     0.031 C 
ATOM     64  C   UNL A   1      39.892  33.159  35.811  1.00  0.00     0.037 A 
BRANCH  51  65
ATOM     65  C   UNL A   1      44.026  28.571  35.687  1.00  0.00     0.058 A 
ATOM     66  C   UNL A   1      45.357  28.971  35.482  1.00  0.00     0.135 A 
ATOM     67  C   UNL A   1      43.789  27.544  36.615  1.00  0.00     0.135 A 
ATOM     68  F   UNL A   1      45.642  29.935  34.591  1.00  0.00    -0.206 F 
ATOM     69  C   UNL A   1      46.411  28.373  36.162  1.00  0.00     0.059 A 
ATOM     70  C   UNL A   1      44.825  26.950  37.329  1.00  0.00     0.059 A 
ATOM     71  F   UNL A   1      42.537  27.119  36.847  1.00  0.00    -0.206 F 
ATOM     72  C   UNL A   1      46.134  27.369  37.092  1.00  0.00     0.060 A 
BRANCH  72  73
ATOM     73  S   UNL A   1      47.513  26.636  37.998  1.00  0.00     0.124 S 
ATOM     74  O   UNL A   1      47.862  27.712  38.920  1.00  0.00    -0.237 OA
ATOM     75  O   UNL A   1      46.895  25.460  38.601  1.00  0.00    -0.237 OA
ATOM     76  O   UNL A   1      48.497  26.361  36.956  1.00  0.00    -0.744 OA
ENDBRANCH  72  73
ENDBRANCH  51  65
BRANCH  52  77
ATOM     77  C   UNL A   1      36.602  33.092  30.727  1.00  0.00     0.058 A 
ATOM     78  C   UNL A   1      36.841  34.116  29.796  1.00  0.00     0.135 A 
ATOM     79  C   UNL A   1      35.266  32.763  31.003  1.00  0.00     0.135 A 
ATOM     80  F   UNL A   1      38.101  34.469  29.498  1.00  0.00    -0.206 F 
ATOM     81  C   UNL A   1      35.799  34.823  29.204  1.00  0.00     0.059 A 
ATOM     82  C   UNL A   1      34.207  33.434  30.399  1.00  0.00     0.059 A 
ATOM     83  F   UNL A   1      34.980  31.778  31.868  1.00  0.00    -0.206 F 
ATOM     84  C   UNL A   1      34.485  34.479  29.521  1.00  0.00     0.060 A 
BRANCH  84  85
ATOM     85  S   UNL A   1      33.138  35.415  28.764  1.00  0.00     0.124 S 
ATOM     86  O   UNL A   1      33.873  36.366  27.938  1.00  0.00    -0.237 OA
ATOM     87  O   UNL A   1      32.407  34.374  28.047  1.00  0.00    -0.237 OA
ATOM     88  O   UNL A   1      32.439  35.982  29.913  1.00  0.00    -0.744 OA
ENDBRANCH  84  85
ENDBRANCH  52  77
BRANCH  64  89
ATOM     89  C   UNL A   1      39.700  34.210  36.869  1.00  0.00     0.058 A 
ATOM     90  C   UNL A   1      38.849  34.010  37.967  1.00  0.00     0.135 A 
ATOM     91  C   UNL A   1      40.421  35.414  36.808  1.00  0.00     0.135 A 
ATOM     92  F   UNL A   1      38.132  32.879  38.071  1.00  0.00    -0.206 F 
ATOM     93  C   UNL A   1      38.699  34.978  38.955  1.00  0.00     0.059 A 
ATOM     94  C   UNL A   1      40.311  36.382  37.802  1.00  0.00     0.059 A 
ATOM     95  F   UNL A   1      41.256  35.651  35.786  1.00  0.00    -0.206 F 
ATOM     96  C   UNL A   1      39.438  36.160  38.865  1.00  0.00     0.060 A 
BRANCH  96  97
ATOM     97  S   UNL A   1      39.261  37.390  40.174  1.00  0.00     0.124 S 
ATOM     98  O   UNL A   1      38.750  36.579  41.273  1.00  0.00    -0.237 OA
ATOM     99  O   UNL A   1      40.629  37.879  40.327  1.00  0.00    -0.237 OA
ATOM    100  O   UNL A   1      38.318  38.353  39.612  1.00  0.00    -0.744 OA
ENDBRANCH  96  97
ENDBRANCH  64  89
ENDBRANCH  38  39
ENDBRANCH  30  33
ENDBRANCH  28  29
ENDBRANCH  27  28
ENDBRANCH  26  27
ENDBRANCH   1  26
TORSDOF 20
ENDMDL
