MODEL 1
REMARK VINA RESULT:      -7.2      0.000      0.000
REMARK SMILES CCC(CC)[C@H](C(=O)NCCCCCCNC(=O)c1ccc(-c2c3nc(c(-c4c(F)cc(S(=O)(=O)[O-])cc4F)c4ccc([nH]4)c(-c4c(F)cc(S(=O)(=O)[O-])cc4F)c4nc(c(-c5c(F)cc(S(=O)(=O)[O-])cc5F)c5ccc2[nH]5)C=C4)C=C3)cc1)c1ccc(OC(F)F)cc1
REMARK SMILES IDX 12 1 11 2 10 3 9 4 7 5 8 6 6 8 3 9 2 10 1 11 4 12 5 13 85 14
REMARK SMILES IDX 86 15 94 16 87 17 93 18 88 19 89 20 90 21 91 22 92 23 13 24
REMARK SMILES IDX 14 25 15 26 16 27 17 28 18 30 19 31 20 32 84 33 21 34 83 35
REMARK SMILES IDX 22 36 23 37 24 38 77 39 25 40 82 41 76 42 78 43 26 44 81 45
REMARK SMILES IDX 75 46 74 47 27 49 61 50 40 51 60 52 41 53 44 54 59 55 79 56
REMARK SMILES IDX 42 57 43 58 58 60 80 61 45 62 28 63 29 64 38 65 30 66 31 67
REMARK SMILES IDX 37 68 39 69 32 70 33 71 34 72 35 73 36 74 62 75 63 76 72 77
REMARK SMILES IDX 64 78 65 79 71 80 73 81 66 82 67 83 68 84 69 85 70 86 46 87
REMARK SMILES IDX 47 88 56 89 48 90 49 91 55 92 57 93 50 94 51 95 52 96 53 97
REMARK SMILES IDX 54 98
REMARK H PARENT 9 7 16 29 78 48 44 59
REMARK Flexibility Score: inf
ROOT
ATOM      1  C   UNL A   1      38.211  32.619  30.653  1.00  0.00     0.002 C 
ENDROOT
BRANCH   1   2
ATOM      2  C   UNL A   1      38.062  32.453  32.172  1.00  0.00     0.021 C 
BRANCH   2   3
ATOM      3  C   UNL A   1      38.263  31.021  32.669  1.00  0.00     0.116 C 
BRANCH   3   4
ATOM      4  N   UNL A   1      38.186  30.968  34.119  1.00  0.00    -0.356 N 
ATOM      5  C   UNL A   1      39.173  30.922  35.062  1.00  0.00     0.227 C 
ATOM      6  O   UNL A   1      38.820  30.796  36.237  1.00  0.00    -0.274 OA
ATOM      7  H   UNL A   1      37.271  30.967  34.482  1.00  0.00     0.163 HD
BRANCH   5   8
ATOM      8  C   UNL A   1      40.647  31.119  34.643  1.00  0.00     0.111 C 
BRANCH   8   9
ATOM      9  C   UNL A   1      41.207  32.225  35.617  1.00  0.00     0.005 C 
BRANCH   9  10
ATOM     10  C   UNL A   1      42.581  31.845  36.225  1.00  0.00     0.001 C 
ATOM     11  C   UNL A   1      43.405  32.998  36.770  1.00  0.00     0.004 C 
ENDBRANCH   9  10
BRANCH   9  12
ATOM     12  C   UNL A   1      40.970  33.690  35.161  1.00  0.00     0.001 C 
ATOM     13  C   UNL A   1      40.946  34.027  33.684  1.00  0.00     0.004 C 
ENDBRANCH   9  12
ENDBRANCH   8   9
BRANCH   8  14
ATOM     14  C   UNL A   1      41.392  29.784  34.471  1.00  0.00    -0.035 A 
ATOM     15  C   UNL A   1      41.485  28.816  35.477  1.00  0.00     0.008 A 
ATOM     16  C   UNL A   1      42.098  29.518  33.282  1.00  0.00     0.008 A 
ATOM     17  C   UNL A   1      42.232  27.647  35.316  1.00  0.00     0.047 A 
ATOM     18  C   UNL A   1      42.829  28.330  33.104  1.00  0.00     0.047 A 
ATOM     19  C   UNL A   1      42.900  27.388  34.126  1.00  0.00     0.126 A 
BRANCH  19  20
ATOM     20  O   UNL A   1      43.583  26.209  34.115  1.00  0.00    -0.435 OA
BRANCH  20  21
ATOM     21  C   UNL A   1      44.724  26.103  33.279  1.00  0.00     0.542 C 
ATOM     22  F   UNL A   1      44.364  25.672  32.047  1.00  0.00    -0.167 F 
ATOM     23  F   UNL A   1      45.327  27.307  33.155  1.00  0.00    -0.167 F 
ENDBRANCH  20  21
ENDBRANCH  19  20
ENDBRANCH   8  14
ENDBRANCH   5   8
ENDBRANCH   3   4
ENDBRANCH   2   3
ENDBRANCH   1   2
BRANCH   1  24
ATOM     24  C   UNL A   1      37.301  33.676  30.019  1.00  0.00     0.002 C 
BRANCH  24  25
ATOM     25  C   UNL A   1      36.138  33.119  29.197  1.00  0.00     0.021 C 
BRANCH  25  26
ATOM     26  C   UNL A   1      35.260  32.114  29.935  1.00  0.00     0.116 C 
BRANCH  26  27
ATOM     27  N   UNL A   1      34.536  31.240  29.025  1.00  0.00    -0.352 N 
ATOM     28  C   UNL A   1      35.017  30.232  28.221  1.00  0.00     0.251 C 
ATOM     29  H   UNL A   1      33.564  31.391  28.977  1.00  0.00     0.163 HD
ATOM     30  O   UNL A   1      34.292  29.719  27.380  1.00  0.00    -0.269 OA
BRANCH  28  31
ATOM     31  C   UNL A   1      36.424  29.794  28.363  1.00  0.00     0.039 A 
ATOM     32  C   UNL A   1      37.305  29.989  27.297  1.00  0.00     0.014 A 
ATOM     33  C   UNL A   1      36.874  29.207  29.549  1.00  0.00     0.014 A 
ATOM     34  C   UNL A   1      38.654  29.660  27.446  1.00  0.00     0.010 A 
ATOM     35  C   UNL A   1      38.231  28.948  29.721  1.00  0.00     0.010 A 
ATOM     36  C   UNL A   1      39.137  29.175  28.675  1.00  0.00    -0.014 A 
BRANCH  36  37
ATOM     37  C   UNL A   1      40.585  28.921  28.889  1.00  0.00     0.031 A 
ATOM     38  C   UNL A   1      41.176  27.579  28.554  1.00  0.00     0.074 A 
ATOM     39  C   UNL A   1      41.353  29.876  29.451  1.00  0.00     0.049 A 
ATOM     40  N   UNL A   1      42.394  27.141  28.746  1.00  0.00    -0.248 NA
ATOM     41  C   UNL A   1      40.273  26.587  27.946  1.00  0.00     0.031 C 
ATOM     42  C   UNL A   1      40.887  31.204  29.861  1.00  0.00     0.029 A 
ATOM     43  N   UNL A   1      42.683  29.876  29.789  1.00  0.00    -0.354 N 
ATOM     44  C   UNL A   1      42.402  25.827  28.294  1.00  0.00     0.074 A 
ATOM     45  C   UNL A   1      41.055  25.519  27.868  1.00  0.00     0.031 C 
ATOM     46  C   UNL A   1      41.917  31.893  30.375  1.00  0.00     0.029 A 
ATOM     47  C   UNL A   1      43.106  31.046  30.376  1.00  0.00     0.049 A 
ATOM     48  H   UNL A   1      43.279  29.109  29.627  1.00  0.00     0.167 HD
ATOM     49  C   UNL A   1      43.443  24.963  28.221  1.00  0.00     0.037 A 
ATOM     50  C   UNL A   1      44.310  31.394  30.874  1.00  0.00     0.037 A 
ATOM     51  C   UNL A   1      44.787  25.284  28.630  1.00  0.00     0.049 A 
ATOM     52  C   UNL A   1      45.444  30.409  30.802  1.00  0.00     0.074 A 
ATOM     53  C   UNL A   1      45.922  24.497  28.543  1.00  0.00     0.029 A 
ATOM     54  N   UNL A   1      45.176  26.483  29.210  1.00  0.00    -0.354 N 
ATOM     55  N   UNL A   1      45.450  29.192  30.310  1.00  0.00    -0.248 NA
ATOM     56  C   UNL A   1      46.738  30.841  31.349  1.00  0.00     0.031 C 
ATOM     57  C   UNL A   1      46.985  25.198  29.119  1.00  0.00     0.029 A 
ATOM     58  C   UNL A   1      46.528  26.445  29.512  1.00  0.00     0.049 A 
ATOM     59  H   UNL A   1      44.580  27.247  29.381  1.00  0.00     0.167 HD
ATOM     60  C   UNL A   1      46.751  28.726  30.463  1.00  0.00     0.074 A 
ATOM     61  C   UNL A   1      47.508  29.795  31.081  1.00  0.00     0.031 C 
ATOM     62  C   UNL A   1      47.271  27.520  30.122  1.00  0.00     0.037 A 
BRANCH  49  63
ATOM     63  C   UNL A   1      43.175  23.586  27.676  1.00  0.00     0.058 A 
ATOM     64  C   UNL A   1      42.655  22.561  28.482  1.00  0.00     0.135 A 
ATOM     65  C   UNL A   1      43.396  23.299  26.318  1.00  0.00     0.135 A 
ATOM     66  F   UNL A   1      42.435  22.774  29.790  1.00  0.00    -0.206 F 
ATOM     67  C   UNL A   1      42.391  21.294  27.971  1.00  0.00     0.059 A 
ATOM     68  C   UNL A   1      43.112  22.048  25.778  1.00  0.00     0.059 A 
ATOM     69  F   UNL A   1      43.893  24.241  25.500  1.00  0.00    -0.206 F 
ATOM     70  C   UNL A   1      42.621  21.049  26.616  1.00  0.00     0.060 A 
BRANCH  70  71
ATOM     71  S   UNL A   1      42.264  19.401  25.969  1.00  0.00     0.124 S 
ATOM     72  O   UNL A   1      40.820  19.472  25.771  1.00  0.00    -0.237 OA
ATOM     73  O   UNL A   1      43.070  19.364  24.753  1.00  0.00    -0.237 OA
ATOM     74  O   UNL A   1      42.706  18.512  27.040  1.00  0.00    -0.744 OA
ENDBRANCH  70  71
ENDBRANCH  49  63
BRANCH  50  75
ATOM     75  C   UNL A   1      44.504  32.741  31.477  1.00  0.00     0.058 A 
ATOM     76  C   UNL A   1      44.419  32.930  32.865  1.00  0.00     0.135 A 
ATOM     77  C   UNL A   1      44.787  33.863  30.681  1.00  0.00     0.135 A 
ATOM     78  F   UNL A   1      44.143  31.891  33.667  1.00  0.00    -0.206 F 
ATOM     79  C   UNL A   1      44.588  34.185  33.441  1.00  0.00     0.059 A 
ATOM     80  C   UNL A   1      44.989  35.122  31.238  1.00  0.00     0.059 A 
ATOM     81  F   UNL A   1      44.896  33.734  29.351  1.00  0.00    -0.206 F 
ATOM     82  C   UNL A   1      44.875  35.275  32.619  1.00  0.00     0.060 A 
BRANCH  82  83
ATOM     83  S   UNL A   1      45.137  36.891  33.382  1.00  0.00     0.124 S 
ATOM     84  O   UNL A   1      44.174  37.714  32.661  1.00  0.00    -0.237 OA
ATOM     85  O   UNL A   1      44.827  36.621  34.782  1.00  0.00    -0.237 OA
ATOM     86  O   UNL A   1      46.543  37.170  33.102  1.00  0.00    -0.744 OA
ENDBRANCH  82  83
ENDBRANCH  50  75
BRANCH  62  87
ATOM     87  C   UNL A   1      48.737  27.297  30.378  1.00  0.00     0.058 A 
ATOM     88  C   UNL A   1      49.720  27.750  29.484  1.00  0.00     0.135 A 
ATOM     89  C   UNL A   1      49.166  26.682  31.566  1.00  0.00     0.135 A 
ATOM     90  F   UNL A   1      49.366  28.339  28.331  1.00  0.00    -0.206 F 
ATOM     91  C   UNL A   1      51.075  27.585  29.751  1.00  0.00     0.059 A 
ATOM     92  C   UNL A   1      50.516  26.532  31.866  1.00  0.00     0.059 A 
ATOM     93  F   UNL A   1      48.267  26.237  32.459  1.00  0.00    -0.206 F 
ATOM     94  C   UNL A   1      51.464  26.980  30.948  1.00  0.00     0.060 A 
BRANCH  94  95
ATOM     95  S   UNL A   1      53.226  26.816  31.301  1.00  0.00     0.124 S 
ATOM     96  O   UNL A   1      53.822  27.436  30.122  1.00  0.00    -0.237 OA
ATOM     97  O   UNL A   1      53.364  27.561  32.547  1.00  0.00    -0.237 OA
ATOM     98  O   UNL A   1      53.419  25.373  31.415  1.00  0.00    -0.744 OA
ENDBRANCH  94  95
ENDBRANCH  62  87
ENDBRANCH  36  37
ENDBRANCH  28  31
ENDBRANCH  26  27
ENDBRANCH  25  26
ENDBRANCH  24  25
ENDBRANCH   1  24
TORSDOF 22
ENDMDL
MODEL 2
REMARK VINA RESULT:      -7.0      2.291      4.144
REMARK SMILES CCC(CC)[C@H](C(=O)NCCCCCCNC(=O)c1ccc(-c2c3nc(c(-c4c(F)cc(S(=O)(=O)[O-])cc4F)c4ccc([nH]4)c(-c4c(F)cc(S(=O)(=O)[O-])cc4F)c4nc(c(-c5c(F)cc(S(=O)(=O)[O-])cc5F)c5ccc2[nH]5)C=C4)C=C3)cc1)c1ccc(OC(F)F)cc1
REMARK SMILES IDX 12 1 11 2 10 3 9 4 7 5 8 6 6 8 3 9 2 10 1 11 4 12 5 13 85 14
REMARK SMILES IDX 86 15 94 16 87 17 93 18 88 19 89 20 90 21 91 22 92 23 13 24
REMARK SMILES IDX 14 25 15 26 16 27 17 28 18 30 19 31 20 32 84 33 21 34 83 35
REMARK SMILES IDX 22 36 23 37 24 38 77 39 25 40 82 41 76 42 78 43 26 44 81 45
REMARK SMILES IDX 75 46 74 47 27 49 61 50 40 51 60 52 41 53 44 54 59 55 79 56
REMARK SMILES IDX 42 57 43 58 58 60 80 61 45 62 28 63 29 64 38 65 30 66 31 67
REMARK SMILES IDX 37 68 39 69 32 70 33 71 34 72 35 73 36 74 62 75 63 76 72 77
REMARK SMILES IDX 64 78 65 79 71 80 73 81 66 82 67 83 68 84 69 85 70 86 46 87
REMARK SMILES IDX 47 88 56 89 48 90 49 91 55 92 57 93 50 94 51 95 52 96 53 97
REMARK SMILES IDX 54 98
REMARK H PARENT 9 7 16 29 78 48 44 59
REMARK Flexibility Score: inf
ROOT
ATOM      1  C   UNL A   1      37.999  32.128  30.803  1.00  0.00     0.002 C 
ENDROOT
BRANCH   1   2
ATOM      2  C   UNL A   1      37.470  31.382  32.036  1.00  0.00     0.021 C 
BRANCH   2   3
ATOM      3  C   UNL A   1      38.562  30.882  32.982  1.00  0.00     0.116 C 
BRANCH   3   4
ATOM      4  N   UNL A   1      38.056  30.791  34.341  1.00  0.00    -0.356 N 
ATOM      5  C   UNL A   1      37.815  31.764  35.268  1.00  0.00     0.227 C 
ATOM      6  O   UNL A   1      37.462  31.395  36.391  1.00  0.00    -0.274 OA
ATOM      7  H   UNL A   1      37.854  29.876  34.644  1.00  0.00     0.163 HD
BRANCH   5   8
ATOM      8  C   UNL A   1      37.899  33.252  34.860  1.00  0.00     0.111 C 
BRANCH   8   9
ATOM      9  C   UNL A   1      39.326  33.421  34.213  1.00  0.00     0.005 C 
BRANCH   9  10
ATOM     10  C   UNL A   1      39.386  34.584  33.190  1.00  0.00     0.001 C 
ATOM     11  C   UNL A   1      40.587  34.590  32.263  1.00  0.00     0.004 C 
ENDBRANCH   9  10
BRANCH   9  12
ATOM     12  C   UNL A   1      40.521  33.217  35.182  1.00  0.00     0.001 C 
ATOM     13  C   UNL A   1      40.793  34.236  36.272  1.00  0.00     0.004 C 
ENDBRANCH   9  12
ENDBRANCH   8   9
BRANCH   8  14
ATOM     14  C   UNL A   1      36.643  33.727  34.109  1.00  0.00    -0.035 A 
ATOM     15  C   UNL A   1      35.451  32.996  34.058  1.00  0.00     0.008 A 
ATOM     16  C   UNL A   1      36.679  34.915  33.353  1.00  0.00     0.008 A 
ATOM     17  C   UNL A   1      34.353  33.417  33.305  1.00  0.00     0.047 A 
ATOM     18  C   UNL A   1      35.566  35.358  32.616  1.00  0.00     0.047 A 
ATOM     19  C   UNL A   1      34.396  34.607  32.588  1.00  0.00     0.126 A 
BRANCH  19  20
ATOM     20  O   UNL A   1      33.251  34.888  31.905  1.00  0.00    -0.435 OA
BRANCH  20  21
ATOM     21  C   UNL A   1      33.252  35.998  31.023  1.00  0.00     0.542 C 
ATOM     22  F   UNL A   1      32.477  35.740  29.943  1.00  0.00    -0.167 F 
ATOM     23  F   UNL A   1      32.767  37.094  31.649  1.00  0.00    -0.167 F 
ENDBRANCH  20  21
ENDBRANCH  19  20
ENDBRANCH   8  14
ENDBRANCH   5   8
ENDBRANCH   3   4
ENDBRANCH   2   3
ENDBRANCH   1   2
BRANCH   1  24
ATOM     24  C   UNL A   1      37.091  33.244  30.274  1.00  0.00     0.002 C 
BRANCH  24  25
ATOM     25  C   UNL A   1      36.048  32.798  29.249  1.00  0.00     0.021 C 
BRANCH  25  26
ATOM     26  C   UNL A   1      34.933  31.922  29.813  1.00  0.00     0.116 C 
BRANCH  26  27
ATOM     27  N   UNL A   1      34.289  31.119  28.786  1.00  0.00    -0.352 N 
ATOM     28  C   UNL A   1      34.841  30.188  27.936  1.00  0.00     0.251 C 
ATOM     29  H   UNL A   1      33.320  31.261  28.685  1.00  0.00     0.163 HD
ATOM     30  O   UNL A   1      34.184  29.738  27.008  1.00  0.00    -0.269 OA
BRANCH  28  31
ATOM     31  C   UNL A   1      36.243  29.758  28.138  1.00  0.00     0.039 A 
ATOM     32  C   UNL A   1      37.185  30.032  27.143  1.00  0.00     0.014 A 
ATOM     33  C   UNL A   1      36.628  29.099  29.309  1.00  0.00     0.014 A 
ATOM     34  C   UNL A   1      38.527  29.710  27.356  1.00  0.00     0.010 A 
ATOM     35  C   UNL A   1      37.975  28.846  29.549  1.00  0.00     0.010 A 
ATOM     36  C   UNL A   1      38.941  29.151  28.578  1.00  0.00    -0.014 A 
BRANCH  36  37
ATOM     37  C   UNL A   1      40.377  28.900  28.866  1.00  0.00     0.031 A 
ATOM     38  C   UNL A   1      40.992  27.565  28.545  1.00  0.00     0.074 A 
ATOM     39  C   UNL A   1      41.109  29.850  29.481  1.00  0.00     0.049 A 
ATOM     40  N   UNL A   1      42.200  27.130  28.795  1.00  0.00    -0.248 NA
ATOM     41  C   UNL A   1      40.127  26.578  27.876  1.00  0.00     0.031 C 
ATOM     42  C   UNL A   1      40.615  31.170  29.883  1.00  0.00     0.029 A 
ATOM     43  N   UNL A   1      42.420  29.851  29.890  1.00  0.00    -0.354 N 
ATOM     44  C   UNL A   1      42.238  25.822  28.327  1.00  0.00     0.074 A 
ATOM     45  C   UNL A   1      40.917  25.515  27.826  1.00  0.00     0.031 C 
ATOM     46  C   UNL A   1      41.614  31.856  30.461  1.00  0.00     0.029 A 
ATOM     47  C   UNL A   1      42.805  31.014  30.514  1.00  0.00     0.049 A 
ATOM     48  H   UNL A   1      43.027  29.089  29.749  1.00  0.00     0.167 HD
ATOM     49  C   UNL A   1      43.286  24.964  28.298  1.00  0.00     0.037 A 
ATOM     50  C   UNL A   1      43.978  31.361  31.079  1.00  0.00     0.037 A 
ATOM     51  C   UNL A   1      44.604  25.284  28.782  1.00  0.00     0.049 A 
ATOM     52  C   UNL A   1      45.120  30.382  31.055  1.00  0.00     0.074 A 
ATOM     53  C   UNL A   1      45.747  24.503  28.745  1.00  0.00     0.029 A 
ATOM     54  N   UNL A   1      44.956  26.477  29.398  1.00  0.00    -0.354 N 
ATOM     55  N   UNL A   1      45.158  29.171  30.548  1.00  0.00    -0.248 NA
ATOM     56  C   UNL A   1      46.381  30.812  31.676  1.00  0.00     0.031 C 
ATOM     57  C   UNL A   1      46.774  25.201  29.387  1.00  0.00     0.029 A 
ATOM     58  C   UNL A   1      46.290  26.440  29.772  1.00  0.00     0.049 A 
ATOM     59  H   UNL A   1      44.348  27.235  29.547  1.00  0.00     0.167 HD
ATOM     60  C   UNL A   1      46.451  28.708  30.764  1.00  0.00     0.074 A 
ATOM     61  C   UNL A   1      47.169  29.772  31.435  1.00  0.00     0.031 C 
ATOM     62  C   UNL A   1      46.994  27.510  30.435  1.00  0.00     0.037 A 
BRANCH  49  63
ATOM     63  C   UNL A   1      43.053  23.593  27.721  1.00  0.00     0.058 A 
ATOM     64  C   UNL A   1      42.535  22.543  28.496  1.00  0.00     0.135 A 
ATOM     65  C   UNL A   1      43.308  23.337  26.363  1.00  0.00     0.135 A 
ATOM     66  F   UNL A   1      42.285  22.726  29.802  1.00  0.00    -0.206 F 
ATOM     67  C   UNL A   1      42.305  21.282  27.955  1.00  0.00     0.059 A 
ATOM     68  C   UNL A   1      43.057  22.091  25.793  1.00  0.00     0.059 A 
ATOM     69  F   UNL A   1      43.804  24.303  25.573  1.00  0.00    -0.206 F 
ATOM     70  C   UNL A   1      42.567  21.068  26.601  1.00  0.00     0.060 A 
BRANCH  70  71
ATOM     71  S   UNL A   1      42.253  19.427  25.915  1.00  0.00     0.124 S 
ATOM     72  O   UNL A   1      42.751  18.564  26.981  1.00  0.00    -0.237 OA
ATOM     73  O   UNL A   1      40.805  19.438  25.734  1.00  0.00    -0.237 OA
ATOM     74  O   UNL A   1      43.037  19.417  24.683  1.00  0.00    -0.744 OA
ENDBRANCH  70  71
ENDBRANCH  49  63
BRANCH  50  75
ATOM     75  C   UNL A   1      44.134  32.700  31.710  1.00  0.00     0.058 A 
ATOM     76  C   UNL A   1      43.888  32.887  33.079  1.00  0.00     0.135 A 
ATOM     77  C   UNL A   1      44.539  33.817  30.961  1.00  0.00     0.135 A 
ATOM     78  F   UNL A   1      43.492  31.852  33.836  1.00  0.00    -0.206 F 
ATOM     79  C   UNL A   1      44.020  34.135  33.680  1.00  0.00     0.059 A 
ATOM     80  C   UNL A   1      44.705  35.068  31.546  1.00  0.00     0.059 A 
ATOM     81  F   UNL A   1      44.803  33.690  29.652  1.00  0.00    -0.206 F 
ATOM     82  C   UNL A   1      44.431  35.220  32.905  1.00  0.00     0.060 A 
BRANCH  82  83
ATOM     83  S   UNL A   1      44.641  36.825  33.704  1.00  0.00     0.124 S 
ATOM     84  O   UNL A   1      43.990  36.601  34.989  1.00  0.00    -0.237 OA
ATOM     85  O   UNL A   1      46.094  36.962  33.739  1.00  0.00    -0.237 OA
ATOM     86  O   UNL A   1      43.955  37.743  32.799  1.00  0.00    -0.744 OA
ENDBRANCH  82  83
ENDBRANCH  50  75
BRANCH  62  87
ATOM     87  C   UNL A   1      48.446  27.290  30.765  1.00  0.00     0.058 A 
ATOM     88  C   UNL A   1      48.844  26.588  31.914  1.00  0.00     0.135 A 
ATOM     89  C   UNL A   1      49.449  27.728  29.885  1.00  0.00     0.135 A 
ATOM     90  F   UNL A   1      47.927  26.154  32.793  1.00  0.00    -0.206 F 
ATOM     91  C   UNL A   1      50.186  26.345  32.188  1.00  0.00     0.059 A 
ATOM     92  C   UNL A   1      50.795  27.470  30.124  1.00  0.00     0.059 A 
ATOM     93  F   UNL A   1      49.123  28.396  28.767  1.00  0.00    -0.206 F 
ATOM     94  C   UNL A   1      51.155  26.785  31.283  1.00  0.00     0.060 A 
BRANCH  94  95
ATOM     95  S   UNL A   1      52.888  26.420  31.628  1.00  0.00     0.124 S 
ATOM     96  O   UNL A   1      53.350  25.934  30.331  1.00  0.00    -0.237 OA
ATOM     97  O   UNL A   1      53.405  27.721  32.038  1.00  0.00    -0.237 OA
ATOM     98  O   UNL A   1      52.821  25.415  32.686  1.00  0.00    -0.744 OA
ENDBRANCH  94  95
ENDBRANCH  62  87
ENDBRANCH  36  37
ENDBRANCH  28  31
ENDBRANCH  26  27
ENDBRANCH  25  26
ENDBRANCH  24  25
ENDBRANCH   1  24
TORSDOF 22
ENDMDL
MODEL 3
REMARK VINA RESULT:      -6.9      2.359      9.136
REMARK SMILES CCC(CC)[C@H](C(=O)NCCCCCCNC(=O)c1ccc(-c2c3nc(c(-c4c(F)cc(S(=O)(=O)[O-])cc4F)c4ccc([nH]4)c(-c4c(F)cc(S(=O)(=O)[O-])cc4F)c4nc(c(-c5c(F)cc(S(=O)(=O)[O-])cc5F)c5ccc2[nH]5)C=C4)C=C3)cc1)c1ccc(OC(F)F)cc1
REMARK SMILES IDX 12 1 11 2 10 3 9 4 7 5 8 6 6 8 3 9 2 10 1 11 4 12 5 13 85 14
REMARK SMILES IDX 86 15 94 16 87 17 93 18 88 19 89 20 90 21 91 22 92 23 13 24
REMARK SMILES IDX 14 25 15 26 16 27 17 28 18 30 19 31 20 32 84 33 21 34 83 35
REMARK SMILES IDX 22 36 23 37 24 38 77 39 25 40 82 41 76 42 78 43 26 44 81 45
REMARK SMILES IDX 75 46 74 47 27 49 61 50 40 51 60 52 41 53 44 54 59 55 79 56
REMARK SMILES IDX 42 57 43 58 58 60 80 61 45 62 28 63 29 64 38 65 30 66 31 67
REMARK SMILES IDX 37 68 39 69 32 70 33 71 34 72 35 73 36 74 62 75 63 76 72 77
REMARK SMILES IDX 64 78 65 79 71 80 73 81 66 82 67 83 68 84 69 85 70 86 46 87
REMARK SMILES IDX 47 88 56 89 48 90 49 91 55 92 57 93 50 94 51 95 52 96 53 97
REMARK SMILES IDX 54 98
REMARK H PARENT 9 7 16 29 78 48 44 59
REMARK Flexibility Score: inf
ROOT
ATOM      1  C   UNL A   1      37.590  32.135  30.583  1.00  0.00     0.002 C 
ENDROOT
BRANCH   1   2
ATOM      2  C   UNL A   1      37.163  31.369  31.843  1.00  0.00     0.021 C 
BRANCH   2   3
ATOM      3  C   UNL A   1      38.327  30.841  32.682  1.00  0.00     0.116 C 
BRANCH   3   4
ATOM      4  N   UNL A   1      37.937  30.719  34.076  1.00  0.00    -0.356 N 
ATOM      5  C   UNL A   1      37.812  31.665  35.052  1.00  0.00     0.227 C 
ATOM      6  O   UNL A   1      37.543  31.268  36.188  1.00  0.00    -0.274 OA
ATOM      7  H   UNL A   1      37.727  29.801  34.364  1.00  0.00     0.163 HD
BRANCH   5   8
ATOM      8  C   UNL A   1      37.917  33.163  34.688  1.00  0.00     0.111 C 
BRANCH   8   9
ATOM      9  C   UNL A   1      39.323  33.320  33.993  1.00  0.00     0.005 C 
BRANCH   9  10
ATOM     10  C   UNL A   1      39.338  34.438  32.919  1.00  0.00     0.001 C 
ATOM     11  C   UNL A   1      40.657  34.647  32.199  1.00  0.00     0.004 C 
ENDBRANCH   9  10
BRANCH   9  12
ATOM     12  C   UNL A   1      40.548  33.174  34.936  1.00  0.00     0.001 C 
ATOM     13  C   UNL A   1      41.359  31.894  34.929  1.00  0.00     0.004 C 
ENDBRANCH   9  12
ENDBRANCH   8   9
BRANCH   8  14
ATOM     14  C   UNL A   1      36.645  33.691  34.001  1.00  0.00    -0.035 A 
ATOM     15  C   UNL A   1      35.427  33.003  33.997  1.00  0.00     0.008 A 
ATOM     16  C   UNL A   1      36.690  34.885  33.255  1.00  0.00     0.008 A 
ATOM     17  C   UNL A   1      34.312  33.471  33.300  1.00  0.00     0.047 A 
ATOM     18  C   UNL A   1      35.561  35.376  32.574  1.00  0.00     0.047 A 
ATOM     19  C   UNL A   1      34.364  34.666  32.593  1.00  0.00     0.126 A 
BRANCH  19  20
ATOM     20  O   UNL A   1      33.201  34.996  31.966  1.00  0.00    -0.435 OA
BRANCH  20  21
ATOM     21  C   UNL A   1      32.998  36.349  31.597  1.00  0.00     0.542 C 
ATOM     22  F   UNL A   1      31.889  36.465  30.827  1.00  0.00    -0.167 F 
ATOM     23  F   UNL A   1      32.838  37.117  32.699  1.00  0.00    -0.167 F 
ENDBRANCH  20  21
ENDBRANCH  19  20
ENDBRANCH   8  14
ENDBRANCH   5   8
ENDBRANCH   3   4
ENDBRANCH   2   3
ENDBRANCH   1   2
BRANCH   1  24
ATOM     24  C   UNL A   1      36.552  33.119  30.033  1.00  0.00     0.002 C 
BRANCH  24  25
ATOM     25  C   UNL A   1      35.684  32.574  28.897  1.00  0.00     0.021 C 
BRANCH  25  26
ATOM     26  C   UNL A   1      34.462  31.783  29.352  1.00  0.00     0.116 C 
BRANCH  26  27
ATOM     27  N   UNL A   1      34.062  30.777  28.380  1.00  0.00    -0.352 N 
ATOM     28  C   UNL A   1      34.838  29.861  27.708  1.00  0.00     0.251 C 
ATOM     29  H   UNL A   1      33.100  30.748  28.174  1.00  0.00     0.163 HD
ATOM     30  O   UNL A   1      34.362  29.210  26.788  1.00  0.00    -0.269 OA
BRANCH  28  31
ATOM     31  C   UNL A   1      36.258  29.688  28.089  1.00  0.00     0.039 A 
ATOM     32  C   UNL A   1      36.565  29.018  29.275  1.00  0.00     0.014 A 
ATOM     33  C   UNL A   1      37.282  30.172  27.270  1.00  0.00     0.014 A 
ATOM     34  C   UNL A   1      37.900  28.772  29.604  1.00  0.00     0.010 A 
ATOM     35  C   UNL A   1      38.607  29.862  27.562  1.00  0.00     0.010 A 
ATOM     36  C   UNL A   1      38.931  29.155  28.729  1.00  0.00    -0.014 A 
BRANCH  36  37
ATOM     37  C   UNL A   1      40.349  28.808  29.008  1.00  0.00     0.031 A 
ATOM     38  C   UNL A   1      41.279  29.834  29.598  1.00  0.00     0.074 A 
ATOM     39  C   UNL A   1      40.817  27.591  28.664  1.00  0.00     0.049 A 
ATOM     40  N   UNL A   1      42.562  29.746  29.835  1.00  0.00    -0.248 NA
ATOM     41  C   UNL A   1      40.694  31.140  29.944  1.00  0.00     0.031 C 
ATOM     42  C   UNL A   1      40.025  26.525  28.045  1.00  0.00     0.029 A 
ATOM     43  N   UNL A   1      42.073  27.048  28.772  1.00  0.00    -0.354 N 
ATOM     44  C   UNL A   1      42.940  30.981  30.346  1.00  0.00     0.074 A 
ATOM     45  C   UNL A   1      41.762  31.821  30.335  1.00  0.00     0.031 C 
ATOM     46  C   UNL A   1      40.808  25.453  27.847  1.00  0.00     0.029 A 
ATOM     47  C   UNL A   1      42.166  25.767  28.280  1.00  0.00     0.049 A 
ATOM     48  H   UNL A   1      42.836  27.531  29.164  1.00  0.00     0.167 HD
ATOM     49  C   UNL A   1      44.153  31.374  30.804  1.00  0.00     0.037 A 
ATOM     50  C   UNL A   1      43.227  24.941  28.175  1.00  0.00     0.037 A 
ATOM     51  C   UNL A   1      45.318  30.526  30.829  1.00  0.00     0.049 A 
ATOM     52  C   UNL A   1      44.570  25.408  28.669  1.00  0.00     0.074 A 
ATOM     53  C   UNL A   1      46.578  30.811  31.325  1.00  0.00     0.029 A 
ATOM     54  N   UNL A   1      45.369  29.231  30.332  1.00  0.00    -0.354 N 
ATOM     55  N   UNL A   1      44.894  26.559  29.211  1.00  0.00    -0.248 NA
ATOM     56  C   UNL A   1      45.691  24.467  28.540  1.00  0.00     0.031 C 
ATOM     57  C   UNL A   1      47.404  29.711  31.078  1.00  0.00     0.029 A 
ATOM     58  C   UNL A   1      46.646  28.717  30.482  1.00  0.00     0.049 A 
ATOM     59  H   UNL A   1      44.609  28.751  29.931  1.00  0.00     0.167 HD
ATOM     60  C   UNL A   1      46.249  26.468  29.513  1.00  0.00     0.074 A 
ATOM     61  C   UNL A   1      46.680  25.147  29.106  1.00  0.00     0.031 C 
ATOM     62  C   UNL A   1      47.061  27.396  30.077  1.00  0.00     0.037 A 
BRANCH  49  63
ATOM     63  C   UNL A   1      44.287  32.782  31.318  1.00  0.00     0.058 A 
ATOM     64  C   UNL A   1      44.413  33.877  30.449  1.00  0.00     0.135 A 
ATOM     65  C   UNL A   1      44.243  33.046  32.698  1.00  0.00     0.135 A 
ATOM     66  F   UNL A   1      44.474  33.684  29.122  1.00  0.00    -0.206 F 
ATOM     67  C   UNL A   1      44.519  35.179  30.927  1.00  0.00     0.059 A 
ATOM     68  C   UNL A   1      44.317  34.343  33.198  1.00  0.00     0.059 A 
ATOM     69  F   UNL A   1      44.125  32.038  33.576  1.00  0.00    -0.206 F 
ATOM     70  C   UNL A   1      44.468  35.401  32.304  1.00  0.00     0.060 A 
BRANCH  70  71
ATOM     71  S   UNL A   1      44.597  37.099  32.906  1.00  0.00     0.124 S 
ATOM     72  O   UNL A   1      44.770  37.838  31.659  1.00  0.00    -0.237 OA
ATOM     73  O   UNL A   1      43.318  37.288  33.581  1.00  0.00    -0.237 OA
ATOM     74  O   UNL A   1      45.766  37.062  33.780  1.00  0.00    -0.744 OA
ENDBRANCH  70  71
ENDBRANCH  49  63
BRANCH  50  75
ATOM     75  C   UNL A   1      43.060  23.586  27.583  1.00  0.00     0.058 A 
ATOM     76  C   UNL A   1      43.306  23.356  26.221  1.00  0.00     0.135 A 
ATOM     77  C   UNL A   1      42.659  22.492  28.368  1.00  0.00     0.135 A 
ATOM     78  F   UNL A   1      43.684  24.371  25.428  1.00  0.00    -0.206 F 
ATOM     79  C   UNL A   1      43.144  22.097  25.653  1.00  0.00     0.059 A 
ATOM     80  C   UNL A   1      42.518  21.218  27.828  1.00  0.00     0.059 A 
ATOM     81  F   UNL A   1      42.427  22.653  29.679  1.00  0.00    -0.206 F 
ATOM     82  C   UNL A   1      42.751  21.033  26.465  1.00  0.00     0.060 A 
BRANCH  82  83
ATOM     83  S   UNL A   1      42.587  19.393  25.727  1.00  0.00     0.124 S 
ATOM     84  O   UNL A   1      41.179  19.382  25.349  1.00  0.00    -0.237 OA
ATOM     85  O   UNL A   1      43.544  19.456  24.627  1.00  0.00    -0.237 OA
ATOM     86  O   UNL A   1      42.956  18.495  26.817  1.00  0.00    -0.744 OA
ENDBRANCH  82  83
ENDBRANCH  50  75
BRANCH  62  87
ATOM     87  C   UNL A   1      48.495  27.010  30.321  1.00  0.00     0.058 A 
ATOM     88  C   UNL A   1      49.532  27.453  29.484  1.00  0.00     0.135 A 
ATOM     89  C   UNL A   1      48.843  26.242  31.445  1.00  0.00     0.135 A 
ATOM     90  F   UNL A   1      49.254  28.183  28.392  1.00  0.00    -0.206 F 
ATOM     91  C   UNL A   1      50.861  27.133  29.744  1.00  0.00     0.059 A 
ATOM     92  C   UNL A   1      50.168  25.936  31.739  1.00  0.00     0.059 A 
ATOM     93  F   UNL A   1      47.892  25.800  32.282  1.00  0.00    -0.206 F 
ATOM     94  C   UNL A   1      51.169  26.379  30.877  1.00  0.00     0.060 A 
BRANCH  94  95
ATOM     95  S   UNL A   1      52.902  26.014  31.226  1.00  0.00     0.124 S 
ATOM     96  O   UNL A   1      53.445  25.849  29.881  1.00  0.00    -0.237 OA
ATOM     97  O   UNL A   1      53.334  27.210  31.942  1.00  0.00    -0.237 OA
ATOM     98  O   UNL A   1      52.839  24.797  32.031  1.00  0.00    -0.744 OA
ENDBRANCH  94  95
ENDBRANCH  62  87
ENDBRANCH  36  37
ENDBRANCH  28  31
ENDBRANCH  26  27
ENDBRANCH  25  26
ENDBRANCH  24  25
ENDBRANCH   1  24
TORSDOF 22
ENDMDL
