MODEL 1
REMARK VINA RESULT:     -10.5      0.000      0.000
REMARK SMILES O=C(NCCCCCCNC(=O)C1CC[NH+]([C@H]2CC(=O)N(c3ccc4c(c3)OCCO4)C2=O)CC1)c1ccc(-c2c3nc(c(-c4c(F)cc(S(=O)(=O)[O-])cc4F)c4ccc([nH]4)c(-c4c(F)cc(S(=O)(=O)[O-])cc4F)c4nc(c(-c5c(F)cc(S(=O)(=O)[O-])cc5F)c5ccc2[nH]5)C=C4)C=C3)cc1
REMARK SMILES IDX 6 1 5 2 4 3 3 4 1 5 2 6 36 8 37 9 101 10 38 11 100 12 39 13
REMARK SMILES IDX 40 14 41 15 94 16 42 17 99 18 93 19 95 20 43 21 98 22 92 23
REMARK SMILES IDX 91 24 44 26 78 27 57 28 77 29 58 30 61 31 76 32 96 33 59 34
REMARK SMILES IDX 60 35 75 37 97 38 62 39 45 40 46 41 55 42 47 43 48 44 54 45
REMARK SMILES IDX 56 46 49 47 50 48 51 49 52 50 53 51 79 52 80 53 89 54 81 55
REMARK SMILES IDX 82 56 88 57 90 58 83 59 84 60 85 61 86 62 87 63 63 64 64 65
REMARK SMILES IDX 73 66 65 67 66 68 72 69 74 70 67 71 68 72 69 73 70 74 71 75
REMARK SMILES IDX 7 76 8 77 9 78 10 79 11 80 12 82 13 83 14 84 35 85 15 86
REMARK SMILES IDX 34 87 16 88 17 90 18 91 32 92 19 93 21 94 33 95 20 96 22 97
REMARK SMILES IDX 23 98 27 99 24 100 26 101 25 102 28 103 31 104 29 105 30 106
REMARK H PARENT 3 7 95 25 61 36 10 81 16 89
REMARK Flexibility Score: inf
ROOT
ATOM      1  C   UNL A   1      34.861  32.491  30.855  1.00  0.00     0.002 C 
ENDROOT
BRANCH   1   2
ATOM      2  C   UNL A   1      34.586  33.308  29.592  1.00  0.00     0.021 C 
BRANCH   2   3
ATOM      3  C   UNL A   1      34.950  32.601  28.296  1.00  0.00     0.116 C 
BRANCH   3   4
ATOM      4  N   UNL A   1      34.161  31.399  28.081  1.00  0.00    -0.352 N 
ATOM      5  O   UNL A   1      33.828  29.213  27.623  1.00  0.00    -0.269 OA
ATOM      6  C   UNL A   1      34.600  30.101  27.974  1.00  0.00     0.251 C 
ATOM      7  H   UNL A   1      33.188  31.532  28.001  1.00  0.00     0.163 HD
BRANCH   6   8
ATOM      8  C   UNL A   1      36.016  29.793  28.265  1.00  0.00     0.039 A 
ATOM      9  C   UNL A   1      36.980  29.913  27.261  1.00  0.00     0.014 A 
ATOM     10  C   UNL A   1      36.381  29.368  29.545  1.00  0.00     0.014 A 
ATOM     11  C   UNL A   1      38.280  29.488  27.501  1.00  0.00     0.010 A 
ATOM     12  C   UNL A   1      37.710  29.022  29.808  1.00  0.00     0.010 A 
ATOM     13  C   UNL A   1      38.666  29.059  28.782  1.00  0.00    -0.014 A 
BRANCH  13  14
ATOM     14  C   UNL A   1      40.097  28.752  29.026  1.00  0.00     0.031 A 
ATOM     15  C   UNL A   1      40.700  27.434  28.631  1.00  0.00     0.074 A 
ATOM     16  C   UNL A   1      40.865  29.719  29.568  1.00  0.00     0.049 A 
ATOM     17  N   UNL A   1      41.945  27.041  28.727  1.00  0.00    -0.248 NA
ATOM     18  C   UNL A   1      39.796  26.422  28.061  1.00  0.00     0.031 C 
ATOM     19  C   UNL A   1      40.376  31.027  30.015  1.00  0.00     0.029 A 
ATOM     20  N   UNL A   1      42.213  29.771  29.809  1.00  0.00    -0.354 N 
ATOM     21  C   UNL A   1      41.976  25.739  28.242  1.00  0.00     0.074 A 
ATOM     22  C   UNL A   1      40.618  25.397  27.873  1.00  0.00     0.031 C 
ATOM     23  C   UNL A   1      41.415  31.772  30.421  1.00  0.00     0.029 A 
ATOM     24  C   UNL A   1      42.632  30.976  30.319  1.00  0.00     0.049 A 
ATOM     25  H   UNL A   1      42.822  29.018  29.634  1.00  0.00     0.167 HD
ATOM     26  C   UNL A   1      43.042  24.912  28.111  1.00  0.00     0.037 A 
ATOM     27  C   UNL A   1      43.859  31.396  30.674  1.00  0.00     0.037 A 
ATOM     28  C   UNL A   1      44.392  25.268  28.473  1.00  0.00     0.049 A 
ATOM     29  C   UNL A   1      45.021  30.463  30.505  1.00  0.00     0.074 A 
ATOM     30  C   UNL A   1      45.542  24.503  28.369  1.00  0.00     0.029 A 
ATOM     31  N   UNL A   1      44.776  26.493  29.001  1.00  0.00    -0.354 N 
ATOM     32  N   UNL A   1      45.028  29.238  30.034  1.00  0.00    -0.248 NA
ATOM     33  C   UNL A   1      46.337  30.963  30.919  1.00  0.00     0.031 C 
ATOM     34  C   UNL A   1      46.616  25.255  28.862  1.00  0.00     0.029 A 
ATOM     35  C   UNL A   1      46.142  26.501  29.237  1.00  0.00     0.049 A 
ATOM     36  H   UNL A   1      44.167  27.245  29.182  1.00  0.00     0.167 HD
ATOM     37  C   UNL A   1      46.351  28.819  30.099  1.00  0.00     0.074 A 
ATOM     38  C   UNL A   1      47.118  29.934  30.619  1.00  0.00     0.031 C 
ATOM     39  C   UNL A   1      46.881  27.617  29.769  1.00  0.00     0.037 A 
BRANCH  26  40
ATOM     40  C   UNL A   1      42.802  23.535  27.553  1.00  0.00     0.058 A 
ATOM     41  C   UNL A   1      43.039  23.241  26.203  1.00  0.00     0.135 A 
ATOM     42  C   UNL A   1      42.404  22.483  28.394  1.00  0.00     0.135 A 
ATOM     43  F   UNL A   1      43.405  24.213  25.353  1.00  0.00    -0.206 F 
ATOM     44  C   UNL A   1      42.882  21.952  25.701  1.00  0.00     0.059 A 
ATOM     45  C   UNL A   1      42.259  21.182  27.918  1.00  0.00     0.059 A 
ATOM     46  F   UNL A   1      42.162  22.711  29.695  1.00  0.00    -0.206 F 
ATOM     47  C   UNL A   1      42.495  20.927  26.567  1.00  0.00     0.060 A 
BRANCH  47  48
ATOM     48  S   UNL A   1      42.326  19.255  25.908  1.00  0.00     0.124 S 
ATOM     49  O   UNL A   1      40.880  19.157  25.732  1.00  0.00    -0.237 OA
ATOM     50  O   UNL A   1      43.109  19.323  24.679  1.00  0.00    -0.237 OA
ATOM     51  O   UNL A   1      42.887  18.415  26.961  1.00  0.00    -0.744 OA
ENDBRANCH  47  48
ENDBRANCH  26  40
BRANCH  27  52
ATOM     52  C   UNL A   1      44.040  32.758  31.240  1.00  0.00     0.058 A 
ATOM     53  C   UNL A   1      44.185  32.958  32.620  1.00  0.00     0.135 A 
ATOM     54  C   UNL A   1      44.090  33.884  30.404  1.00  0.00     0.135 A 
ATOM     55  F   UNL A   1      44.144  31.911  33.459  1.00  0.00    -0.206 F 
ATOM     56  C   UNL A   1      44.353  34.231  33.156  1.00  0.00     0.059 A 
ATOM     57  C   UNL A   1      44.284  35.163  30.913  1.00  0.00     0.059 A 
ATOM     58  F   UNL A   1      43.978  33.740  29.074  1.00  0.00    -0.206 F 
ATOM     59  C   UNL A   1      44.400  35.327  32.292  1.00  0.00     0.060 A 
BRANCH  59  60
ATOM     60  S   UNL A   1      44.659  36.975  32.984  1.00  0.00     0.124 S 
ATOM     61  O   UNL A   1      44.085  37.821  31.943  1.00  0.00    -0.237 OA
ATOM     62  O   UNL A   1      43.913  36.909  34.236  1.00  0.00    -0.237 OA
ATOM     63  O   UNL A   1      46.109  37.048  33.131  1.00  0.00    -0.744 OA
ENDBRANCH  59  60
ENDBRANCH  27  52
BRANCH  39  64
ATOM     64  C   UNL A   1      48.361  27.459  29.966  1.00  0.00     0.058 A 
ATOM     65  C   UNL A   1      49.277  27.908  29.003  1.00  0.00     0.135 A 
ATOM     66  C   UNL A   1      48.867  26.853  31.126  1.00  0.00     0.135 A 
ATOM     67  F   UNL A   1      48.840  28.488  27.873  1.00  0.00    -0.206 F 
ATOM     68  C   UNL A   1      50.646  27.728  29.165  1.00  0.00     0.059 A 
ATOM     69  C   UNL A   1      50.234  26.683  31.320  1.00  0.00     0.059 A 
ATOM     70  F   UNL A   1      48.032  26.414  32.081  1.00  0.00    -0.206 F 
ATOM     71  C   UNL A   1      51.115  27.106  30.324  1.00  0.00     0.060 A 
BRANCH  71  72
ATOM     72  S   UNL A   1      52.893  26.872  30.526  1.00  0.00     0.124 S 
ATOM     73  O   UNL A   1      53.288  26.465  29.180  1.00  0.00    -0.237 OA
ATOM     74  O   UNL A   1      53.342  28.196  30.945  1.00  0.00    -0.237 OA
ATOM     75  O   UNL A   1      52.983  25.834  31.548  1.00  0.00    -0.744 OA
ENDBRANCH  71  72
ENDBRANCH  39  64
ENDBRANCH  13  14
ENDBRANCH   6   8
ENDBRANCH   3   4
ENDBRANCH   2   3
ENDBRANCH   1   2
BRANCH   1  76
ATOM     76  C   UNL A   1      34.384  33.137  32.162  1.00  0.00     0.002 C 
BRANCH  76  77
ATOM     77  C   UNL A   1      34.717  34.627  32.314  1.00  0.00     0.021 C 
BRANCH  77  78
ATOM     78  C   UNL A   1      36.052  34.896  33.010  1.00  0.00     0.116 C 
BRANCH  78  79
ATOM     79  N   UNL A   1      36.050  34.358  34.360  1.00  0.00    -0.356 N 
ATOM     80  C   UNL A   1      36.847  33.394  34.905  1.00  0.00     0.223 C 
ATOM     81  H   UNL A   1      35.378  34.744  34.968  1.00  0.00     0.163 HD
ATOM     82  O   UNL A   1      36.585  32.965  36.028  1.00  0.00    -0.275 OA
BRANCH  80  83
ATOM     83  C   UNL A   1      38.073  32.954  34.124  1.00  0.00     0.089 C 
ATOM     84  C   UNL A   1      37.741  31.851  33.110  1.00  0.00     0.075 C 
ATOM     85  C   UNL A   1      39.176  32.593  35.133  1.00  0.00     0.075 C 
ATOM     86  C   UNL A   1      37.832  30.436  33.675  1.00  0.00     0.263 C 
ATOM     87  C   UNL A   1      39.161  31.124  35.554  1.00  0.00     0.263 C 
ATOM     88  N   UNL A   1      39.049  30.177  34.449  1.00  0.00    -0.324 N 
ATOM     89  H   UNL A   1      38.962  29.271  34.911  1.00  0.00     0.348 HD
BRANCH  88  90
ATOM     90  C   UNL A   1      40.249  29.873  33.642  1.00  0.00     0.284 C 
ATOM     91  C   UNL A   1      41.601  30.411  34.078  1.00  0.00     0.176 C 
ATOM     92  C   UNL A   1      40.516  28.365  33.579  1.00  0.00     0.292 C 
ATOM     93  C   UNL A   1      42.237  29.255  34.782  1.00  0.00     0.240 C 
ATOM     94  N   UNL A   1      41.633  28.102  34.346  1.00  0.00    -0.245 N 
ATOM     95  O   UNL A   1      39.811  27.564  32.979  1.00  0.00    -0.267 OA
ATOM     96  O   UNL A   1      43.204  29.387  35.521  1.00  0.00    -0.274 OA
BRANCH  94  97
ATOM     97  C   UNL A   1      42.160  26.813  34.593  1.00  0.00     0.056 A 
ATOM     98  C   UNL A   1      41.525  25.950  35.496  1.00  0.00     0.031 A 
ATOM     99  C   UNL A   1      43.284  26.352  33.894  1.00  0.00     0.077 A 
ATOM    100  C   UNL A   1      41.970  24.635  35.656  1.00  0.00     0.052 A 
ATOM    101  C   UNL A   1      43.758  25.054  34.091  1.00  0.00     0.163 A 
ATOM    102  C   UNL A   1      43.094  24.191  34.964  1.00  0.00     0.161 A 
ATOM    103  O   UNL A   1      44.890  24.703  33.403  1.00  0.00    -0.486 OA
ATOM    104  O   UNL A   1      43.481  22.895  35.181  1.00  0.00    -0.486 OA
ATOM    105  C   UNL A   1      45.075  23.286  33.377  1.00  0.00     0.271 C 
ATOM    106  C   UNL A   1      44.826  22.671  34.745  1.00  0.00     0.271 C 
ENDBRANCH  94  97
ENDBRANCH  88  90
ENDBRANCH  80  83
ENDBRANCH  78  79
ENDBRANCH  77  78
ENDBRANCH  76  77
ENDBRANCH   1  76
TORSDOF 18
ENDMDL
MODEL 2
REMARK VINA RESULT:     -10.3      4.230     10.736
REMARK SMILES O=C(NCCCCCCNC(=O)C1CC[NH+]([C@H]2CC(=O)N(c3ccc4c(c3)OCCO4)C2=O)CC1)c1ccc(-c2c3nc(c(-c4c(F)cc(S(=O)(=O)[O-])cc4F)c4ccc([nH]4)c(-c4c(F)cc(S(=O)(=O)[O-])cc4F)c4nc(c(-c5c(F)cc(S(=O)(=O)[O-])cc5F)c5ccc2[nH]5)C=C4)C=C3)cc1
REMARK SMILES IDX 6 1 5 2 4 3 3 4 1 5 2 6 36 8 37 9 101 10 38 11 100 12 39 13
REMARK SMILES IDX 40 14 41 15 94 16 42 17 99 18 93 19 95 20 43 21 98 22 92 23
REMARK SMILES IDX 91 24 44 26 78 27 57 28 77 29 58 30 61 31 76 32 96 33 59 34
REMARK SMILES IDX 60 35 75 37 97 38 62 39 45 40 46 41 55 42 47 43 48 44 54 45
REMARK SMILES IDX 56 46 49 47 50 48 51 49 52 50 53 51 79 52 80 53 89 54 81 55
REMARK SMILES IDX 82 56 88 57 90 58 83 59 84 60 85 61 86 62 87 63 63 64 64 65
REMARK SMILES IDX 73 66 65 67 66 68 72 69 74 70 67 71 68 72 69 73 70 74 71 75
REMARK SMILES IDX 7 76 8 77 9 78 10 79 11 80 12 82 13 83 14 84 35 85 15 86
REMARK SMILES IDX 34 87 16 88 17 90 18 91 32 92 19 93 21 94 33 95 20 96 22 97
REMARK SMILES IDX 23 98 27 99 24 100 26 101 25 102 28 103 31 104 29 105 30 106
REMARK H PARENT 3 7 95 25 61 36 10 81 16 89
REMARK Flexibility Score: inf
ROOT
ATOM      1  C   UNL A   1      33.608  30.699  27.215  1.00  0.00     0.002 C 
ENDROOT
BRANCH   1   2
ATOM      2  C   UNL A   1      34.469  31.644  28.054  1.00  0.00     0.021 C 
BRANCH   2   3
ATOM      3  C   UNL A   1      35.747  31.019  28.591  1.00  0.00     0.116 C 
BRANCH   3   4
ATOM      4  N   UNL A   1      35.685  30.774  30.022  1.00  0.00    -0.352 N 
ATOM      5  O   UNL A   1      36.350  29.878  31.985  1.00  0.00    -0.269 OA
ATOM      6  C   UNL A   1      36.620  30.162  30.822  1.00  0.00     0.251 C 
ATOM      7  H   UNL A   1      34.869  31.087  30.477  1.00  0.00     0.163 HD
BRANCH   6   8
ATOM      8  C   UNL A   1      37.946  29.831  30.257  1.00  0.00     0.039 A 
ATOM      9  C   UNL A   1      39.005  29.496  31.105  1.00  0.00     0.014 A 
ATOM     10  C   UNL A   1      38.135  29.867  28.874  1.00  0.00     0.014 A 
ATOM     11  C   UNL A   1      40.279  29.326  30.579  1.00  0.00     0.010 A 
ATOM     12  C   UNL A   1      39.401  29.609  28.339  1.00  0.00     0.010 A 
ATOM     13  C   UNL A   1      40.488  29.357  29.190  1.00  0.00    -0.014 A 
BRANCH  13  14
ATOM     14  C   UNL A   1      41.837  29.026  28.668  1.00  0.00     0.031 A 
ATOM     15  C   UNL A   1      42.940  30.045  28.631  1.00  0.00     0.074 A 
ATOM     16  C   UNL A   1      42.066  27.757  28.274  1.00  0.00     0.049 A 
ATOM     17  N   UNL A   1      44.186  29.891  28.258  1.00  0.00    -0.248 NA
ATOM     18  C   UNL A   1      42.611  31.413  29.061  1.00  0.00     0.031 C 
ATOM     19  C   UNL A   1      41.057  26.693  28.242  1.00  0.00     0.029 A 
ATOM     20  N   UNL A   1      43.214  27.136  27.857  1.00  0.00    -0.354 N 
ATOM     21  C   UNL A   1      44.786  31.136  28.396  1.00  0.00     0.074 A 
ATOM     22  C   UNL A   1      43.761  32.045  28.866  1.00  0.00     0.031 C 
ATOM     23  C   UNL A   1      41.641  25.541  27.883  1.00  0.00     0.029 A 
ATOM     24  C   UNL A   1      43.049  25.795  27.604  1.00  0.00     0.049 A 
ATOM     25  H   UNL A   1      44.072  27.604  27.748  1.00  0.00     0.167 HD
ATOM     26  C   UNL A   1      46.075  31.482  28.159  1.00  0.00     0.037 A 
ATOM     27  C   UNL A   1      43.931  24.869  27.185  1.00  0.00     0.037 A 
ATOM     28  C   UNL A   1      47.089  30.565  27.701  1.00  0.00     0.049 A 
ATOM     29  C   UNL A   1      45.353  25.281  26.944  1.00  0.00     0.074 A 
ATOM     30  C   UNL A   1      48.426  30.818  27.440  1.00  0.00     0.029 A 
ATOM     31  N   UNL A   1      46.882  29.218  27.440  1.00  0.00    -0.354 N 
ATOM     32  N   UNL A   1      45.902  26.464  27.092  1.00  0.00    -0.248 NA
ATOM     33  C   UNL A   1      46.274  24.238  26.476  1.00  0.00     0.031 C 
ATOM     34  C   UNL A   1      49.019  29.631  26.995  1.00  0.00     0.029 A 
ATOM     35  C   UNL A   1      48.062  28.630  27.013  1.00  0.00     0.049 A 
ATOM     36  H   UNL A   1      46.023  28.749  27.543  1.00  0.00     0.167 HD
ATOM     37  C   UNL A   1      47.233  26.308  26.730  1.00  0.00     0.074 A 
ATOM     38  C   UNL A   1      47.414  24.909  26.393  1.00  0.00     0.031 C 
ATOM     39  C   UNL A   1      48.216  27.240  26.670  1.00  0.00     0.037 A 
BRANCH  26  40
ATOM     40  C   UNL A   1      46.473  32.915  28.389  1.00  0.00     0.058 A 
ATOM     41  C   UNL A   1      46.918  33.360  29.643  1.00  0.00     0.135 A 
ATOM     42  C   UNL A   1      46.481  33.834  27.327  1.00  0.00     0.135 A 
ATOM     43  F   UNL A   1      46.914  32.528  30.696  1.00  0.00    -0.206 F 
ATOM     44  C   UNL A   1      47.350  34.668  29.838  1.00  0.00     0.059 A 
ATOM     45  C   UNL A   1      46.928  35.142  27.495  1.00  0.00     0.059 A 
ATOM     46  F   UNL A   1      46.064  33.461  26.106  1.00  0.00    -0.206 F 
ATOM     47  C   UNL A   1      47.355  35.553  28.758  1.00  0.00     0.060 A 
BRANCH  47  48
ATOM     48  S   UNL A   1      47.948  37.238  29.022  1.00  0.00     0.124 S 
ATOM     49  O   UNL A   1      48.852  37.408  27.887  1.00  0.00    -0.237 OA
ATOM     50  O   UNL A   1      46.715  38.015  28.971  1.00  0.00    -0.237 OA
ATOM     51  O   UNL A   1      48.591  37.171  30.330  1.00  0.00    -0.744 OA
ENDBRANCH  47  48
ENDBRANCH  26  40
BRANCH  27  52
ATOM     52  C   UNL A   1      43.483  23.472  26.953  1.00  0.00     0.058 A 
ATOM     53  C   UNL A   1      43.218  23.000  25.660  1.00  0.00     0.135 A 
ATOM     54  C   UNL A   1      43.330  22.578  28.023  1.00  0.00     0.135 A 
ATOM     55  F   UNL A   1      43.350  23.818  24.605  1.00  0.00    -0.206 F 
ATOM     56  C   UNL A   1      42.796  21.693  25.436  1.00  0.00     0.059 A 
ATOM     57  C   UNL A   1      42.937  21.260  27.823  1.00  0.00     0.059 A 
ATOM     58  F   UNL A   1      43.594  22.978  29.277  1.00  0.00    -0.206 F 
ATOM     59  C   UNL A   1      42.658  20.831  26.527  1.00  0.00     0.060 A 
BRANCH  59  60
ATOM     60  S   UNL A   1      42.150  19.123  26.232  1.00  0.00     0.124 S 
ATOM     61  O   UNL A   1      43.103  18.709  25.208  1.00  0.00    -0.237 OA
ATOM     62  O   UNL A   1      42.324  18.515  27.548  1.00  0.00    -0.237 OA
ATOM     63  O   UNL A   1      40.766  19.260  25.793  1.00  0.00    -0.744 OA
ENDBRANCH  59  60
ENDBRANCH  27  52
BRANCH  39  64
ATOM     64  C   UNL A   1      49.567  26.763  26.223  1.00  0.00     0.058 A 
ATOM     65  C   UNL A   1      50.476  26.194  27.128  1.00  0.00     0.135 A 
ATOM     66  C   UNL A   1      49.957  26.877  24.880  1.00  0.00     0.135 A 
ATOM     67  F   UNL A   1      50.151  26.071  28.425  1.00  0.00    -0.206 F 
ATOM     68  C   UNL A   1      51.743  25.788  26.725  1.00  0.00     0.059 A 
ATOM     69  C   UNL A   1      51.211  26.456  24.449  1.00  0.00     0.059 A 
ATOM     70  F   UNL A   1      49.120  27.406  23.974  1.00  0.00    -0.206 F 
ATOM     71  C   UNL A   1      52.104  25.930  25.383  1.00  0.00     0.060 A 
BRANCH  71  72
ATOM     72  S   UNL A   1      53.752  25.405  24.867  1.00  0.00     0.124 S 
ATOM     73  O   UNL A   1      54.577  25.927  25.951  1.00  0.00    -0.237 OA
ATOM     74  O   UNL A   1      53.619  23.952  24.814  1.00  0.00    -0.237 OA
ATOM     75  O   UNL A   1      53.925  26.058  23.573  1.00  0.00    -0.744 OA
ENDBRANCH  71  72
ENDBRANCH  39  64
ENDBRANCH  13  14
ENDBRANCH   6   8
ENDBRANCH   3   4
ENDBRANCH   2   3
ENDBRANCH   1   2
BRANCH   1  76
ATOM     76  C   UNL A   1      33.865  29.206  27.448  1.00  0.00     0.002 C 
BRANCH  76  77
ATOM     77  C   UNL A   1      34.511  28.463  26.270  1.00  0.00     0.021 C 
BRANCH  77  78
ATOM     78  C   UNL A   1      33.788  28.664  24.938  1.00  0.00     0.116 C 
BRANCH  78  79
ATOM     79  N   UNL A   1      32.351  28.515  25.102  1.00  0.00    -0.356 N 
ATOM     80  C   UNL A   1      31.529  27.526  24.647  1.00  0.00     0.223 C 
ATOM     81  H   UNL A   1      31.908  29.230  25.614  1.00  0.00     0.163 HD
ATOM     82  O   UNL A   1      30.311  27.661  24.758  1.00  0.00    -0.275 OA
BRANCH  80  83
ATOM     83  C   UNL A   1      32.168  26.263  24.096  1.00  0.00     0.089 C 
ATOM     84  C   UNL A   1      31.304  25.613  23.006  1.00  0.00     0.075 C 
ATOM     85  C   UNL A   1      32.510  25.346  25.282  1.00  0.00     0.075 C 
ATOM     86  C   UNL A   1      30.269  24.625  23.537  1.00  0.00     0.263 C 
ATOM     87  C   UNL A   1      31.386  24.379  25.650  1.00  0.00     0.263 C 
ATOM     88  N   UNL A   1      30.797  23.672  24.516  1.00  0.00    -0.324 N 
ATOM     89  H   UNL A   1      30.020  23.154  24.928  1.00  0.00     0.348 HD
BRANCH  88  90
ATOM     90  C   UNL A   1      31.519  22.519  23.938  1.00  0.00     0.284 C 
ATOM     91  C   UNL A   1      32.196  22.660  22.586  1.00  0.00     0.176 C 
ATOM     92  C   UNL A   1      32.686  22.084  24.831  1.00  0.00     0.292 C 
ATOM     93  C   UNL A   1      33.631  22.912  22.928  1.00  0.00     0.240 C 
ATOM     94  N   UNL A   1      33.858  22.439  24.197  1.00  0.00    -0.245 N 
ATOM     95  O   UNL A   1      32.555  21.556  25.929  1.00  0.00    -0.267 OA
ATOM     96  O   UNL A   1      34.429  23.364  22.118  1.00  0.00    -0.274 OA
BRANCH  94  97
ATOM     97  C   UNL A   1      35.154  22.267  24.736  1.00  0.00     0.056 A 
ATOM     98  C   UNL A   1      35.799  21.025  24.646  1.00  0.00     0.031 A 
ATOM     99  C   UNL A   1      35.842  23.345  25.309  1.00  0.00     0.077 A 
ATOM    100  C   UNL A   1      37.124  20.880  25.068  1.00  0.00     0.052 A 
ATOM    101  C   UNL A   1      37.148  23.186  25.775  1.00  0.00     0.163 A 
ATOM    102  C   UNL A   1      37.793  21.955  25.644  1.00  0.00     0.161 A 
ATOM    103  O   UNL A   1      37.728  24.280  26.364  1.00  0.00    -0.486 OA
ATOM    104  O   UNL A   1      39.084  21.735  26.048  1.00  0.00    -0.486 OA
ATOM    105  C   UNL A   1      39.146  24.137  26.464  1.00  0.00     0.271 C 
ATOM    106  C   UNL A   1      39.529  22.750  26.954  1.00  0.00     0.271 C 
ENDBRANCH  94  97
ENDBRANCH  88  90
ENDBRANCH  80  83
ENDBRANCH  78  79
ENDBRANCH  77  78
ENDBRANCH  76  77
ENDBRANCH   1  76
TORSDOF 18
ENDMDL
MODEL 3
REMARK VINA RESULT:     -10.2      4.870     12.042
REMARK SMILES O=C(NCCCCCCNC(=O)C1CC[NH+]([C@H]2CC(=O)N(c3ccc4c(c3)OCCO4)C2=O)CC1)c1ccc(-c2c3nc(c(-c4c(F)cc(S(=O)(=O)[O-])cc4F)c4ccc([nH]4)c(-c4c(F)cc(S(=O)(=O)[O-])cc4F)c4nc(c(-c5c(F)cc(S(=O)(=O)[O-])cc5F)c5ccc2[nH]5)C=C4)C=C3)cc1
REMARK SMILES IDX 6 1 5 2 4 3 3 4 1 5 2 6 36 8 37 9 101 10 38 11 100 12 39 13
REMARK SMILES IDX 40 14 41 15 94 16 42 17 99 18 93 19 95 20 43 21 98 22 92 23
REMARK SMILES IDX 91 24 44 26 78 27 57 28 77 29 58 30 61 31 76 32 96 33 59 34
REMARK SMILES IDX 60 35 75 37 97 38 62 39 45 40 46 41 55 42 47 43 48 44 54 45
REMARK SMILES IDX 56 46 49 47 50 48 51 49 52 50 53 51 79 52 80 53 89 54 81 55
REMARK SMILES IDX 82 56 88 57 90 58 83 59 84 60 85 61 86 62 87 63 63 64 64 65
REMARK SMILES IDX 73 66 65 67 66 68 72 69 74 70 67 71 68 72 69 73 70 74 71 75
REMARK SMILES IDX 7 76 8 77 9 78 10 79 11 80 12 82 13 83 14 84 35 85 15 86
REMARK SMILES IDX 34 87 16 88 17 90 18 91 32 92 19 93 21 94 33 95 20 96 22 97
REMARK SMILES IDX 23 98 27 99 24 100 26 101 25 102 28 103 31 104 29 105 30 106
REMARK H PARENT 3 7 95 25 61 36 10 81 16 89
REMARK Flexibility Score: inf
ROOT
ATOM      1  C   UNL A   1      41.188  21.277  26.567  1.00  0.00     0.002 C 
ENDROOT
BRANCH   1   2
ATOM      2  C   UNL A   1      42.465  21.828  27.202  1.00  0.00     0.021 C 
BRANCH   2   3
ATOM      3  C   UNL A   1      42.445  23.328  27.452  1.00  0.00     0.116 C 
BRANCH   3   4
ATOM      4  N   UNL A   1      42.347  24.093  26.220  1.00  0.00    -0.352 N 
ATOM      5  O   UNL A   1      41.762  25.858  24.937  1.00  0.00    -0.269 OA
ATOM      6  C   UNL A   1      41.957  25.402  26.060  1.00  0.00     0.251 C 
ATOM      7  H   UNL A   1      42.588  23.613  25.395  1.00  0.00     0.163 HD
BRANCH   6   8
ATOM      8  C   UNL A   1      41.756  26.246  27.258  1.00  0.00     0.039 A 
ATOM      9  C   UNL A   1      40.710  25.971  28.141  1.00  0.00     0.014 A 
ATOM     10  C   UNL A   1      42.611  27.326  27.492  1.00  0.00     0.014 A 
ATOM     11  C   UNL A   1      40.440  26.848  29.183  1.00  0.00     0.010 A 
ATOM     12  C   UNL A   1      42.389  28.160  28.593  1.00  0.00     0.010 A 
ATOM     13  C   UNL A   1      41.289  27.939  29.435  1.00  0.00    -0.014 A 
BRANCH  13  14
ATOM     14  C   UNL A   1      41.045  28.764  30.644  1.00  0.00     0.031 A 
ATOM     15  C   UNL A   1      41.923  28.663  31.859  1.00  0.00     0.074 A 
ATOM     16  C   UNL A   1      40.036  29.657  30.604  1.00  0.00     0.049 A 
ATOM     17  N   UNL A   1      41.872  29.358  32.968  1.00  0.00    -0.248 NA
ATOM     18  C   UNL A   1      42.993  27.653  31.836  1.00  0.00     0.031 C 
ATOM     19  C   UNL A   1      39.103  29.820  29.484  1.00  0.00     0.029 A 
ATOM     20  N   UNL A   1      39.642  30.613  31.502  1.00  0.00    -0.354 N 
ATOM     21  C   UNL A   1      42.889  28.867  33.777  1.00  0.00     0.074 A 
ATOM     22  C   UNL A   1      43.530  27.797  33.042  1.00  0.00     0.031 C 
ATOM     23  C   UNL A   1      38.284  30.850  29.738  1.00  0.00     0.029 A 
ATOM     24  C   UNL A   1      38.593  31.383  31.058  1.00  0.00     0.049 A 
ATOM     25  H   UNL A   1      40.068  30.737  32.381  1.00  0.00     0.167 HD
ATOM     26  C   UNL A   1      43.256  29.281  35.015  1.00  0.00     0.037 A 
ATOM     27  C   UNL A   1      37.944  32.401  31.650  1.00  0.00     0.037 A 
ATOM     28  C   UNL A   1      42.616  30.355  35.732  1.00  0.00     0.049 A 
ATOM     29  C   UNL A   1      38.382  32.844  33.014  1.00  0.00     0.074 A 
ATOM     30  C   UNL A   1      42.921  30.854  36.988  1.00  0.00     0.029 A 
ATOM     31  N   UNL A   1      41.547  31.102  35.257  1.00  0.00    -0.354 N 
ATOM     32  N   UNL A   1      39.355  32.372  33.758  1.00  0.00    -0.248 NA
ATOM     33  C   UNL A   1      37.634  33.951  33.624  1.00  0.00     0.031 C 
ATOM     34  C   UNL A   1      42.018  31.883  37.283  1.00  0.00     0.029 A 
ATOM     35  C   UNL A   1      41.174  32.049  36.197  1.00  0.00     0.049 A 
ATOM     36  H   UNL A   1      41.116  30.976  34.382  1.00  0.00     0.167 HD
ATOM     37  C   UNL A   1      39.333  33.123  34.926  1.00  0.00     0.074 A 
ATOM     38  C   UNL A   1      38.276  34.103  34.773  1.00  0.00     0.031 C 
ATOM     39  C   UNL A   1      40.110  33.005  36.030  1.00  0.00     0.037 A 
BRANCH  26  40
ATOM     40  C   UNL A   1      44.404  28.573  35.682  1.00  0.00     0.058 A 
ATOM     41  C   UNL A   1      44.192  27.493  36.553  1.00  0.00     0.135 A 
ATOM     42  C   UNL A   1      45.730  28.929  35.390  1.00  0.00     0.135 A 
ATOM     43  F   UNL A   1      42.944  27.122  36.879  1.00  0.00    -0.206 F 
ATOM     44  C   UNL A   1      45.255  26.795  37.117  1.00  0.00     0.059 A 
ATOM     45  C   UNL A   1      46.810  28.232  35.928  1.00  0.00     0.059 A 
ATOM     46  F   UNL A   1      45.989  29.956  34.565  1.00  0.00    -0.206 F 
ATOM     47  C   UNL A   1      46.562  27.170  36.797  1.00  0.00     0.060 A 
BRANCH  47  48
ATOM     48  S   UNL A   1      47.930  26.234  37.513  1.00  0.00     0.124 S 
ATOM     49  O   UNL A   1      47.390  24.877  37.502  1.00  0.00    -0.237 OA
ATOM     50  O   UNL A   1      49.013  26.492  36.571  1.00  0.00    -0.237 OA
ATOM     51  O   UNL A   1      48.096  26.831  38.835  1.00  0.00    -0.744 OA
ENDBRANCH  47  48
ENDBRANCH  26  40
BRANCH  27  52
ATOM     52  C   UNL A   1      36.803  33.054  30.957  1.00  0.00     0.058 A 
ATOM     53  C   UNL A   1      35.479  32.808  31.348  1.00  0.00     0.135 A 
ATOM     54  C   UNL A   1      37.020  33.951  29.901  1.00  0.00     0.135 A 
ATOM     55  F   UNL A   1      35.222  31.956  32.353  1.00  0.00    -0.206 F 
ATOM     56  C   UNL A   1      34.406  33.414  30.701  1.00  0.00     0.059 A 
ATOM     57  C   UNL A   1      35.967  34.591  29.258  1.00  0.00     0.059 A 
ATOM     58  F   UNL A   1      38.271  34.236  29.507  1.00  0.00    -0.206 F 
ATOM     59  C   UNL A   1      34.662  34.304  29.656  1.00  0.00     0.060 A 
BRANCH  59  60
ATOM     60  S   UNL A   1      33.272  35.123  28.845  1.00  0.00     0.124 S 
ATOM     61  O   UNL A   1      32.491  35.573  29.991  1.00  0.00    -0.237 OA
ATOM     62  O   UNL A   1      33.934  36.170  28.074  1.00  0.00    -0.237 OA
ATOM     63  O   UNL A   1      32.676  34.054  28.051  1.00  0.00    -0.744 OA
ENDBRANCH  59  60
ENDBRANCH  27  52
BRANCH  39  64
ATOM     64  C   UNL A   1      39.833  33.965  37.151  1.00  0.00     0.058 A 
ATOM     65  C   UNL A   1      40.450  35.225  37.200  1.00  0.00     0.135 A 
ATOM     66  C   UNL A   1      38.948  33.622  38.183  1.00  0.00     0.135 A 
ATOM     67  F   UNL A   1      41.311  35.594  36.239  1.00  0.00    -0.206 F 
ATOM     68  C   UNL A   1      40.226  36.100  38.257  1.00  0.00     0.059 A 
ATOM     69  C   UNL A   1      38.691  34.491  39.239  1.00  0.00     0.059 A 
ATOM     70  F   UNL A   1      38.327  32.432  38.177  1.00  0.00    -0.206 F 
ATOM     71  C   UNL A   1      39.351  35.720  39.277  1.00  0.00     0.060 A 
BRANCH  71  72
ATOM     72  S   UNL A   1      39.069  36.860  40.648  1.00  0.00     0.124 S 
ATOM     73  O   UNL A   1      38.357  36.006  41.595  1.00  0.00    -0.237 OA
ATOM     74  O   UNL A   1      40.425  37.237  41.031  1.00  0.00    -0.237 OA
ATOM     75  O   UNL A   1      38.276  37.926  40.043  1.00  0.00    -0.744 OA
ENDBRANCH  71  72
ENDBRANCH  39  64
ENDBRANCH  13  14
ENDBRANCH   6   8
ENDBRANCH   3   4
ENDBRANCH   2   3
ENDBRANCH   1   2
BRANCH   1  76
ATOM     76  C   UNL A   1      39.962  22.189  26.678  1.00  0.00     0.002 C 
BRANCH  76  77
ATOM     77  C   UNL A   1      38.665  21.615  26.092  1.00  0.00     0.021 C 
BRANCH  77  78
ATOM     78  C   UNL A   1      37.624  22.675  25.730  1.00  0.00     0.116 C 
BRANCH  78  79
ATOM     79  N   UNL A   1      37.441  22.750  24.290  1.00  0.00    -0.356 N 
ATOM     80  C   UNL A   1      36.313  23.035  23.577  1.00  0.00     0.223 C 
ATOM     81  H   UNL A   1      38.246  22.570  23.752  1.00  0.00     0.163 HD
ATOM     82  O   UNL A   1      36.325  22.896  22.356  1.00  0.00    -0.275 OA
BRANCH  80  83
ATOM     83  C   UNL A   1      35.114  23.589  24.328  1.00  0.00     0.089 C 
ATOM     84  C   UNL A   1      34.170  22.476  24.802  1.00  0.00     0.075 C 
ATOM     85  C   UNL A   1      34.456  24.663  23.447  1.00  0.00     0.075 C 
ATOM     86  C   UNL A   1      33.105  22.084  23.782  1.00  0.00     0.263 C 
ATOM     87  C   UNL A   1      33.371  24.112  22.522  1.00  0.00     0.263 C 
ATOM     88  N   UNL A   1      32.413  23.222  23.171  1.00  0.00    -0.324 N 
ATOM     89  H   UNL A   1      31.833  22.885  22.402  1.00  0.00     0.348 HD
BRANCH  88  90
ATOM     90  C   UNL A   1      31.333  23.809  23.991  1.00  0.00     0.284 C 
ATOM     91  C   UNL A   1      31.144  23.347  25.425  1.00  0.00     0.176 C 
ATOM     92  C   UNL A   1      31.521  25.319  24.169  1.00  0.00     0.292 C 
ATOM     93  C   UNL A   1      31.826  24.403  26.235  1.00  0.00     0.240 C 
ATOM     94  N   UNL A   1      31.894  25.546  25.478  1.00  0.00    -0.245 N 
ATOM     95  O   UNL A   1      31.396  26.141  23.270  1.00  0.00    -0.267 OA
ATOM     96  O   UNL A   1      32.138  24.234  27.406  1.00  0.00    -0.274 OA
BRANCH  94  97
ATOM     97  C   UNL A   1      32.227  26.811  26.017  1.00  0.00     0.056 A 
ATOM     98  C   UNL A   1      31.233  27.627  26.573  1.00  0.00     0.031 A 
ATOM     99  C   UNL A   1      33.560  27.242  26.063  1.00  0.00     0.077 A 
ATOM    100  C   UNL A   1      31.572  28.823  27.214  1.00  0.00     0.052 A 
ATOM    101  C   UNL A   1      33.891  28.460  26.659  1.00  0.00     0.163 A 
ATOM    102  C   UNL A   1      32.898  29.245  27.245  1.00  0.00     0.161 A 
ATOM    103  O   UNL A   1      35.211  28.825  26.617  1.00  0.00    -0.486 OA
ATOM    104  O   UNL A   1      33.152  30.434  27.877  1.00  0.00    -0.486 OA
ATOM    105  C   UNL A   1      35.502  29.867  27.552  1.00  0.00     0.271 C 
ATOM    106  C   UNL A   1      34.437  30.952  27.518  1.00  0.00     0.271 C 
ENDBRANCH  94  97
ENDBRANCH  88  90
ENDBRANCH  80  83
ENDBRANCH  78  79
ENDBRANCH  77  78
ENDBRANCH  76  77
ENDBRANCH   1  76
TORSDOF 18
ENDMDL
