MODEL 1
REMARK VINA RESULT:     -11.3      0.000      0.000
REMARK SMILES C[C@H](C(=O)NCCCCCCNC(=O)c1ccc(-c2c3nc(c(-c4c(F)cc(S(=O)(=O)[O-])cc4F)c4ccc([nH]4)c(-c4c(F)cc(S(=O)(=O)[O-])cc4F)c4nc(c(-c5c(F)cc(S(=O)(=O)[O-])cc5F)c5ccc2[nH]5)C=C4)C=C3)cc1)c1ccc(-c2ccccc2)c(F)c1
REMARK SMILES IDX 9 1 8 2 7 3 6 4 5 5 3 6 4 7 2 9 1 10 81 11 82 12 93 13 83 14
REMARK SMILES IDX 91 15 84 16 92 17 85 18 86 19 90 20 87 21 89 22 88 23 10 24
REMARK SMILES IDX 11 25 12 26 13 27 14 29 15 30 16 31 80 32 17 33 79 34 18 35
REMARK SMILES IDX 19 36 20 37 73 38 21 39 78 40 72 41 74 42 22 43 77 44 71 45
REMARK SMILES IDX 70 46 23 48 57 49 36 50 56 51 37 52 40 53 55 54 75 55 38 56
REMARK SMILES IDX 39 57 54 59 76 60 41 61 24 62 25 63 34 64 26 65 27 66 33 67
REMARK SMILES IDX 35 68 28 69 29 70 30 71 31 72 32 73 58 74 59 75 68 76 60 77
REMARK SMILES IDX 61 78 67 79 69 80 62 81 63 82 64 83 65 84 66 85 42 86 43 87
REMARK SMILES IDX 52 88 44 89 45 90 51 91 53 92 46 93 47 94 48 95 49 96 50 97
REMARK H PARENT 5 8 12 28 74 47 40 58
REMARK Flexibility Score: inf
ROOT
ATOM      1  C   UNL A   1      31.769  27.307  25.685  1.00  0.00     0.002 C 
ENDROOT
BRANCH   1   2
ATOM      2  C   UNL A   1      31.268  28.466  24.818  1.00  0.00     0.002 C 
BRANCH   2   3
ATOM      3  C   UNL A   1      31.323  28.215  23.306  1.00  0.00     0.021 C 
BRANCH   3   4
ATOM      4  C   UNL A   1      32.741  28.090  22.758  1.00  0.00     0.116 C 
BRANCH   4   5
ATOM      5  N   UNL A   1      32.807  27.089  21.710  1.00  0.00    -0.356 N 
ATOM      6  C   UNL A   1      32.779  25.730  21.781  1.00  0.00     0.227 C 
ATOM      7  O   UNL A   1      32.847  25.106  20.717  1.00  0.00    -0.274 OA
ATOM      8  H   UNL A   1      32.883  27.452  20.798  1.00  0.00     0.163 HD
BRANCH   6   9
ATOM      9  C   UNL A   1      32.643  24.989  23.113  1.00  0.00     0.105 C 
ATOM     10  C   UNL A   1      31.515  23.950  23.097  1.00  0.00     0.023 C 
BRANCH   9  11
ATOM     11  C   UNL A   1      33.945  24.463  23.709  1.00  0.00    -0.033 A 
ATOM     12  C   UNL A   1      34.227  24.703  25.062  1.00  0.00     0.005 A 
ATOM     13  C   UNL A   1      34.900  23.758  22.964  1.00  0.00     0.044 A 
ATOM     14  C   UNL A   1      35.407  24.229  25.653  1.00  0.00     0.012 A 
ATOM     15  C   UNL A   1      36.065  23.275  23.561  1.00  0.00     0.131 A 
ATOM     16  C   UNL A   1      36.348  23.495  24.913  1.00  0.00     0.017 A 
ATOM     17  F   UNL A   1      36.914  22.575  22.793  1.00  0.00    -0.206 F 
BRANCH  16  18
ATOM     18  C   UNL A   1      37.580  22.990  25.540  1.00  0.00    -0.015 A 
ATOM     19  C   UNL A   1      38.407  23.835  26.300  1.00  0.00     0.009 A 
ATOM     20  C   UNL A   1      37.967  21.646  25.400  1.00  0.00     0.009 A 
ATOM     21  C   UNL A   1      39.578  23.357  26.892  1.00  0.00     0.001 A 
ATOM     22  C   UNL A   1      39.138  21.165  25.992  1.00  0.00     0.001 A 
ATOM     23  C   UNL A   1      39.944  22.022  26.736  1.00  0.00     0.000 A 
ENDBRANCH  16  18
ENDBRANCH   9  11
ENDBRANCH   6   9
ENDBRANCH   4   5
ENDBRANCH   3   4
ENDBRANCH   2   3
ENDBRANCH   1   2
BRANCH   1  24
ATOM     24  C   UNL A   1      32.806  27.694  26.741  1.00  0.00     0.021 C 
BRANCH  24  25
ATOM     25  C   UNL A   1      33.948  28.559  26.220  1.00  0.00     0.116 C 
BRANCH  25  26
ATOM     26  N   UNL A   1      33.741  29.968  26.510  1.00  0.00    -0.352 N 
ATOM     27  C   UNL A   1      34.419  30.780  27.382  1.00  0.00     0.251 C 
ATOM     28  H   UNL A   1      33.013  30.401  26.009  1.00  0.00     0.163 HD
ATOM     29  O   UNL A   1      33.978  31.897  27.649  1.00  0.00    -0.269 OA
BRANCH  27  30
ATOM     30  C   UNL A   1      35.667  30.303  28.015  1.00  0.00     0.039 A 
ATOM     31  C   UNL A   1      36.880  30.495  27.350  1.00  0.00     0.014 A 
ATOM     32  C   UNL A   1      35.641  29.667  29.259  1.00  0.00     0.014 A 
ATOM     33  C   UNL A   1      38.071  30.098  27.959  1.00  0.00     0.010 A 
ATOM     34  C   UNL A   1      36.835  29.343  29.898  1.00  0.00     0.010 A 
ATOM     35  C   UNL A   1      38.063  29.550  29.253  1.00  0.00    -0.014 A 
BRANCH  35  36
ATOM     36  C   UNL A   1      39.329  29.185  29.938  1.00  0.00     0.031 A 
ATOM     37  C   UNL A   1      39.778  29.944  31.159  1.00  0.00     0.074 A 
ATOM     38  C   UNL A   1      40.099  28.199  29.434  1.00  0.00     0.049 A 
ATOM     39  N   UNL A   1      40.873  29.807  31.860  1.00  0.00    -0.248 NA
ATOM     40  C   UNL A   1      38.890  31.016  31.639  1.00  0.00     0.031 C 
ATOM     41  C   UNL A   1      39.796  27.420  28.231  1.00  0.00     0.029 A 
ATOM     42  N   UNL A   1      41.296  27.685  29.865  1.00  0.00    -0.354 N 
ATOM     43  C   UNL A   1      40.805  30.768  32.863  1.00  0.00     0.074 A 
ATOM     44  C   UNL A   1      39.595  31.528  32.637  1.00  0.00     0.031 C 
ATOM     45  C   UNL A   1      40.768  26.515  28.034  1.00  0.00     0.029 A 
ATOM     46  C   UNL A   1      41.783  26.673  29.070  1.00  0.00     0.049 A 
ATOM     47  H   UNL A   1      41.764  28.010  30.667  1.00  0.00     0.167 HD
ATOM     48  C   UNL A   1      41.656  30.978  33.895  1.00  0.00     0.037 A 
ATOM     49  C   UNL A   1      42.922  25.959  29.160  1.00  0.00     0.037 A 
ATOM     50  C   UNL A   1      42.854  30.211  34.121  1.00  0.00     0.049 A 
ATOM     51  C   UNL A   1      43.866  26.232  30.302  1.00  0.00     0.074 A 
ATOM     52  C   UNL A   1      43.768  30.326  35.153  1.00  0.00     0.029 A 
ATOM     53  N   UNL A   1      43.306  29.187  33.301  1.00  0.00    -0.354 N 
ATOM     54  N   UNL A   1      43.756  27.108  31.272  1.00  0.00    -0.248 NA
ATOM     55  C   UNL A   1      45.084  25.412  30.366  1.00  0.00     0.031 C 
ATOM     56  C   UNL A   1      44.796  29.403  34.933  1.00  0.00     0.029 A 
ATOM     57  C   UNL A   1      44.494  28.673  33.795  1.00  0.00     0.049 A 
ATOM     58  H   UNL A   1      42.849  28.872  32.488  1.00  0.00     0.167 HD
ATOM     59  C   UNL A   1      44.873  26.922  32.080  1.00  0.00     0.074 A 
ATOM     60  C   UNL A   1      45.637  25.840  31.493  1.00  0.00     0.031 C 
ATOM     61  C   UNL A   1      45.236  27.587  33.205  1.00  0.00     0.037 A 
BRANCH  48  62
ATOM     62  C   UNL A   1      41.313  32.073  34.871  1.00  0.00     0.058 A 
ATOM     63  C   UNL A   1      41.784  33.385  34.696  1.00  0.00     0.135 A 
ATOM     64  C   UNL A   1      40.472  31.822  35.967  1.00  0.00     0.135 A 
ATOM     65  F   UNL A   1      42.604  33.680  33.675  1.00  0.00    -0.206 F 
ATOM     66  C   UNL A   1      41.457  34.401  35.589  1.00  0.00     0.059 A 
ATOM     67  C   UNL A   1      40.107  32.831  36.855  1.00  0.00     0.059 A 
ATOM     68  F   UNL A   1      39.993  30.587  36.183  1.00  0.00    -0.206 F 
ATOM     69  C   UNL A   1      40.616  34.114  36.665  1.00  0.00     0.060 A 
BRANCH  69  70
ATOM     70  S   UNL A   1      40.195  35.448  37.805  1.00  0.00     0.124 S 
ATOM     71  O   UNL A   1      41.389  35.501  38.645  1.00  0.00    -0.237 OA
ATOM     72  O   UNL A   1      40.005  36.580  36.904  1.00  0.00    -0.237 OA
ATOM     73  O   UNL A   1      38.987  34.964  38.465  1.00  0.00    -0.744 OA
ENDBRANCH  69  70
ENDBRANCH  48  62
BRANCH  49  74
ATOM     74  C   UNL A   1      43.234  24.914  28.148  1.00  0.00     0.058 A 
ATOM     75  C   UNL A   1      42.953  23.561  28.392  1.00  0.00     0.135 A 
ATOM     76  C   UNL A   1      43.834  25.243  26.921  1.00  0.00     0.135 A 
ATOM     77  F   UNL A   1      42.384  23.193  29.550  1.00  0.00    -0.206 F 
ATOM     78  C   UNL A   1      43.284  22.569  27.474  1.00  0.00     0.059 A 
ATOM     79  C   UNL A   1      44.145  24.273  25.974  1.00  0.00     0.059 A 
ATOM     80  F   UNL A   1      44.106  26.525  26.628  1.00  0.00    -0.206 F 
ATOM     81  C   UNL A   1      43.882  22.936  26.267  1.00  0.00     0.060 A 
BRANCH  81  82
ATOM     82  S   UNL A   1      44.292  21.643  25.075  1.00  0.00     0.124 S 
ATOM     83  O   UNL A   1      45.666  21.327  25.446  1.00  0.00    -0.237 OA
ATOM     84  O   UNL A   1      43.296  20.620  25.379  1.00  0.00    -0.237 OA
ATOM     85  O   UNL A   1      44.122  22.310  23.787  1.00  0.00    -0.744 OA
ENDBRANCH  81  82
ENDBRANCH  49  74
BRANCH  61  86
ATOM     86  C   UNL A   1      46.491  27.135  33.903  1.00  0.00     0.058 A 
ATOM     87  C   UNL A   1      47.743  27.701  33.617  1.00  0.00     0.135 A 
ATOM     88  C   UNL A   1      46.431  26.150  34.903  1.00  0.00     0.135 A 
ATOM     89  F   UNL A   1      47.859  28.642  32.666  1.00  0.00    -0.206 F 
ATOM     90  C   UNL A   1      48.896  27.286  34.277  1.00  0.00     0.059 A 
ATOM     91  C   UNL A   1      47.565  25.744  35.598  1.00  0.00     0.059 A 
ATOM     92  F   UNL A   1      45.256  25.583  35.225  1.00  0.00    -0.206 F 
ATOM     93  C   UNL A   1      48.796  26.307  35.267  1.00  0.00     0.060 A 
BRANCH  93  94
ATOM     94  S   UNL A   1      50.295  25.800  36.135  1.00  0.00     0.124 S 
ATOM     95  O   UNL A   1      50.920  24.921  35.152  1.00  0.00    -0.237 OA
ATOM     96  O   UNL A   1      50.969  27.075  36.365  1.00  0.00    -0.237 OA
ATOM     97  O   UNL A   1      49.788  25.140  37.334  1.00  0.00    -0.744 OA
ENDBRANCH  93  94
ENDBRANCH  61  86
ENDBRANCH  35  36
ENDBRANCH  27  30
ENDBRANCH  25  26
ENDBRANCH  24  25
ENDBRANCH   1  24
TORSDOF 18
ENDMDL
MODEL 2
REMARK VINA RESULT:     -11.2      3.672      6.822
REMARK SMILES C[C@H](C(=O)NCCCCCCNC(=O)c1ccc(-c2c3nc(c(-c4c(F)cc(S(=O)(=O)[O-])cc4F)c4ccc([nH]4)c(-c4c(F)cc(S(=O)(=O)[O-])cc4F)c4nc(c(-c5c(F)cc(S(=O)(=O)[O-])cc5F)c5ccc2[nH]5)C=C4)C=C3)cc1)c1ccc(-c2ccccc2)c(F)c1
REMARK SMILES IDX 9 1 8 2 7 3 6 4 5 5 3 6 4 7 2 9 1 10 81 11 82 12 93 13 83 14
REMARK SMILES IDX 91 15 84 16 92 17 85 18 86 19 90 20 87 21 89 22 88 23 10 24
REMARK SMILES IDX 11 25 12 26 13 27 14 29 15 30 16 31 80 32 17 33 79 34 18 35
REMARK SMILES IDX 19 36 20 37 73 38 21 39 78 40 72 41 74 42 22 43 77 44 71 45
REMARK SMILES IDX 70 46 23 48 57 49 36 50 56 51 37 52 40 53 55 54 75 55 38 56
REMARK SMILES IDX 39 57 54 59 76 60 41 61 24 62 25 63 34 64 26 65 27 66 33 67
REMARK SMILES IDX 35 68 28 69 29 70 30 71 31 72 32 73 58 74 59 75 68 76 60 77
REMARK SMILES IDX 61 78 67 79 69 80 62 81 63 82 64 83 65 84 66 85 42 86 43 87
REMARK SMILES IDX 52 88 44 89 45 90 51 91 53 92 46 93 47 94 48 95 49 96 50 97
REMARK H PARENT 5 8 12 28 74 47 40 58
REMARK Flexibility Score: inf
ROOT
ATOM      1  C   UNL A   1      35.120  32.562  31.309  1.00  0.00     0.002 C 
ENDROOT
BRANCH   1   2
ATOM      2  C   UNL A   1      36.652  32.548  31.322  1.00  0.00     0.002 C 
BRANCH   2   3
ATOM      3  C   UNL A   1      37.282  31.752  32.471  1.00  0.00     0.021 C 
BRANCH   3   4
ATOM      4  C   UNL A   1      37.387  32.538  33.774  1.00  0.00     0.116 C 
BRANCH   4   5
ATOM      5  N   UNL A   1      37.424  31.645  34.918  1.00  0.00    -0.356 N 
ATOM      6  C   UNL A   1      38.475  31.027  35.524  1.00  0.00     0.227 C 
ATOM      7  O   UNL A   1      38.225  30.311  36.499  1.00  0.00    -0.274 OA
ATOM      8  H   UNL A   1      36.547  31.457  35.322  1.00  0.00     0.163 HD
BRANCH   6   9
ATOM      9  C   UNL A   1      39.916  31.219  35.046  1.00  0.00     0.105 C 
ATOM     10  C   UNL A   1      40.690  32.231  35.900  1.00  0.00     0.023 C 
BRANCH   9  11
ATOM     11  C   UNL A   1      40.694  29.937  34.771  1.00  0.00    -0.033 A 
ATOM     12  C   UNL A   1      41.447  29.355  35.803  1.00  0.00     0.005 A 
ATOM     13  C   UNL A   1      40.717  29.306  33.520  1.00  0.00     0.044 A 
ATOM     14  C   UNL A   1      42.170  28.172  35.597  1.00  0.00     0.012 A 
ATOM     15  C   UNL A   1      41.424  28.119  33.325  1.00  0.00     0.131 A 
ATOM     16  C   UNL A   1      42.165  27.523  34.351  1.00  0.00     0.017 A 
ATOM     17  F   UNL A   1      41.367  27.552  32.110  1.00  0.00    -0.206 F 
BRANCH  16  18
ATOM     18  C   UNL A   1      42.916  26.275  34.142  1.00  0.00    -0.015 A 
ATOM     19  C   UNL A   1      42.634  25.123  34.898  1.00  0.00     0.009 A 
ATOM     20  C   UNL A   1      43.936  26.194  33.179  1.00  0.00     0.009 A 
ATOM     21  C   UNL A   1      43.350  23.940  34.702  1.00  0.00     0.001 A 
ATOM     22  C   UNL A   1      44.652  25.011  32.981  1.00  0.00     0.001 A 
ATOM     23  C   UNL A   1      44.360  23.885  33.744  1.00  0.00     0.000 A 
ENDBRANCH  16  18
ENDBRANCH   9  11
ENDBRANCH   6   9
ENDBRANCH   4   5
ENDBRANCH   3   4
ENDBRANCH   2   3
ENDBRANCH   1   2
BRANCH   1  24
ATOM     24  C   UNL A   1      34.493  33.324  30.140  1.00  0.00     0.021 C 
BRANCH  24  25
ATOM     25  C   UNL A   1      34.870  32.791  28.762  1.00  0.00     0.116 C 
BRANCH  25  26
ATOM     26  N   UNL A   1      34.046  31.660  28.370  1.00  0.00    -0.352 N 
ATOM     27  C   UNL A   1      34.425  30.378  28.064  1.00  0.00     0.251 C 
ATOM     28  H   UNL A   1      33.079  31.838  28.317  1.00  0.00     0.163 HD
ATOM     29  O   UNL A   1      33.616  29.604  27.556  1.00  0.00    -0.269 OA
BRANCH  27  30
ATOM     30  C   UNL A   1      35.812  29.938  28.326  1.00  0.00     0.039 A 
ATOM     31  C   UNL A   1      36.764  30.060  27.313  1.00  0.00     0.014 A 
ATOM     32  C   UNL A   1      36.170  29.404  29.568  1.00  0.00     0.014 A 
ATOM     33  C   UNL A   1      38.089  29.699  27.564  1.00  0.00     0.010 A 
ATOM     34  C   UNL A   1      37.506  29.118  29.840  1.00  0.00     0.010 A 
ATOM     35  C   UNL A   1      38.478  29.257  28.840  1.00  0.00    -0.014 A 
BRANCH  35  36
ATOM     36  C   UNL A   1      39.897  28.932  29.138  1.00  0.00     0.031 A 
ATOM     37  C   UNL A   1      40.789  29.955  29.790  1.00  0.00     0.074 A 
ATOM     38  C   UNL A   1      40.394  27.730  28.780  1.00  0.00     0.049 A 
ATOM     39  N   UNL A   1      42.061  29.876  30.081  1.00  0.00    -0.248 NA
ATOM     40  C   UNL A   1      40.176  31.248  30.137  1.00  0.00     0.031 C 
ATOM     41  C   UNL A   1      39.643  26.672  28.101  1.00  0.00     0.029 A 
ATOM     42  N   UNL A   1      41.650  27.198  28.931  1.00  0.00    -0.354 N 
ATOM     43  C   UNL A   1      42.399  31.100  30.646  1.00  0.00     0.074 A 
ATOM     44  C   UNL A   1      41.216  31.930  30.593  1.00  0.00     0.031 C 
ATOM     45  C   UNL A   1      40.445  25.611  27.916  1.00  0.00     0.029 A 
ATOM     46  C   UNL A   1      41.777  25.925  28.424  1.00  0.00     0.049 A 
ATOM     47  H   UNL A   1      42.392  27.681  29.362  1.00  0.00     0.167 HD
ATOM     48  C   UNL A   1      43.579  31.488  31.188  1.00  0.00     0.037 A 
ATOM     49  C   UNL A   1      42.846  25.107  28.366  1.00  0.00     0.037 A 
ATOM     50  C   UNL A   1      44.751  30.654  31.247  1.00  0.00     0.049 A 
ATOM     51  C   UNL A   1      44.154  25.573  28.950  1.00  0.00     0.074 A 
ATOM     52  C   UNL A   1      45.986  30.942  31.801  1.00  0.00     0.029 A 
ATOM     53  N   UNL A   1      44.836  29.367  30.733  1.00  0.00    -0.354 N 
ATOM     54  N   UNL A   1      44.438  26.715  29.531  1.00  0.00    -0.248 NA
ATOM     55  C   UNL A   1      45.283  24.635  28.880  1.00  0.00     0.031 C 
ATOM     56  C   UNL A   1      46.831  29.848  31.582  1.00  0.00     0.029 A 
ATOM     57  C   UNL A   1      46.106  28.855  30.943  1.00  0.00     0.049 A 
ATOM     58  H   UNL A   1      44.101  28.888  30.287  1.00  0.00     0.167 HD
ATOM     59  C   UNL A   1      45.769  26.619  29.924  1.00  0.00     0.074 A 
ATOM     60  C   UNL A   1      46.227  25.303  29.529  1.00  0.00     0.031 C 
ATOM     61  C   UNL A   1      46.543  27.537  30.554  1.00  0.00     0.037 A 
BRANCH  48  62
ATOM     62  C   UNL A   1      43.655  32.872  31.776  1.00  0.00     0.058 A 
ATOM     63  C   UNL A   1      43.878  34.001  30.969  1.00  0.00     0.135 A 
ATOM     64  C   UNL A   1      43.462  33.081  33.151  1.00  0.00     0.135 A 
ATOM     65  F   UNL A   1      44.085  33.860  29.650  1.00  0.00    -0.206 F 
ATOM     66  C   UNL A   1      43.936  35.282  31.508  1.00  0.00     0.059 A 
ATOM     67  C   UNL A   1      43.485  34.358  33.707  1.00  0.00     0.059 A 
ATOM     68  F   UNL A   1      43.245  32.040  33.970  1.00  0.00    -0.206 F 
ATOM     69  C   UNL A   1      43.736  35.450  32.879  1.00  0.00     0.060 A 
BRANCH  69  70
ATOM     70  S   UNL A   1      43.804  37.121  33.558  1.00  0.00     0.124 S 
ATOM     71  O   UNL A   1      42.577  37.165  34.348  1.00  0.00    -0.237 OA
ATOM     72  O   UNL A   1      45.048  37.098  34.320  1.00  0.00    -0.237 OA
ATOM     73  O   UNL A   1      43.814  37.971  32.370  1.00  0.00    -0.744 OA
ENDBRANCH  69  70
ENDBRANCH  48  62
BRANCH  49  74
ATOM     74  C   UNL A   1      42.728  23.763  27.739  1.00  0.00     0.058 A 
ATOM     75  C   UNL A   1      42.513  22.616  28.518  1.00  0.00     0.135 A 
ATOM     76  C   UNL A   1      42.844  23.594  26.349  1.00  0.00     0.135 A 
ATOM     77  F   UNL A   1      42.400  22.722  29.850  1.00  0.00    -0.206 F 
ATOM     78  C   UNL A   1      42.450  21.347  27.948  1.00  0.00     0.059 A 
ATOM     79  C   UNL A   1      42.752  22.340  25.753  1.00  0.00     0.059 A 
ATOM     80  F   UNL A   1      43.030  24.660  25.555  1.00  0.00    -0.206 F 
ATOM     81  C   UNL A   1      42.572  21.221  26.564  1.00  0.00     0.060 A 
BRANCH  81  82
ATOM     82  S   UNL A   1      42.471  19.572  25.833  1.00  0.00     0.124 S 
ATOM     83  O   UNL A   1      41.073  19.517  25.424  1.00  0.00    -0.237 OA
ATOM     84  O   UNL A   1      43.452  19.655  24.755  1.00  0.00    -0.237 OA
ATOM     85  O   UNL A   1      42.840  18.693  26.940  1.00  0.00    -0.744 OA
ENDBRANCH  81  82
ENDBRANCH  49  74
BRANCH  61  86
ATOM     86  C   UNL A   1      47.953  27.138  30.898  1.00  0.00     0.058 A 
ATOM     87  C   UNL A   1      49.013  27.304  29.992  1.00  0.00     0.135 A 
ATOM     88  C   UNL A   1      48.253  26.618  32.167  1.00  0.00     0.135 A 
ATOM     89  F   UNL A   1      48.781  27.791  28.762  1.00  0.00    -0.206 F 
ATOM     90  C   UNL A   1      50.315  26.944  30.323  1.00  0.00     0.059 A 
ATOM     91  C   UNL A   1      49.553  26.281  32.531  1.00  0.00     0.059 A 
ATOM     92  F   UNL A   1      47.279  26.447  33.077  1.00  0.00    -0.206 F 
ATOM     93  C   UNL A   1      50.575  26.434  31.596  1.00  0.00     0.060 A 
BRANCH  93  94
ATOM     94  S   UNL A   1      52.274  25.998  32.022  1.00  0.00     0.124 S 
ATOM     95  O   UNL A   1      52.583  26.986  33.049  1.00  0.00    -0.237 OA
ATOM     96  O   UNL A   1      52.135  24.621  32.488  1.00  0.00    -0.237 OA
ATOM     97  O   UNL A   1      52.993  26.157  30.761  1.00  0.00    -0.744 OA
ENDBRANCH  93  94
ENDBRANCH  61  86
ENDBRANCH  35  36
ENDBRANCH  27  30
ENDBRANCH  25  26
ENDBRANCH  24  25
ENDBRANCH   1  24
TORSDOF 18
ENDMDL
MODEL 3
REMARK VINA RESULT:     -11.1      3.185      9.391
REMARK SMILES C[C@H](C(=O)NCCCCCCNC(=O)c1ccc(-c2c3nc(c(-c4c(F)cc(S(=O)(=O)[O-])cc4F)c4ccc([nH]4)c(-c4c(F)cc(S(=O)(=O)[O-])cc4F)c4nc(c(-c5c(F)cc(S(=O)(=O)[O-])cc5F)c5ccc2[nH]5)C=C4)C=C3)cc1)c1ccc(-c2ccccc2)c(F)c1
REMARK SMILES IDX 9 1 8 2 7 3 6 4 5 5 3 6 4 7 2 9 1 10 81 11 82 12 93 13 83 14
REMARK SMILES IDX 91 15 84 16 92 17 85 18 86 19 90 20 87 21 89 22 88 23 10 24
REMARK SMILES IDX 11 25 12 26 13 27 14 29 15 30 16 31 80 32 17 33 79 34 18 35
REMARK SMILES IDX 19 36 20 37 73 38 21 39 78 40 72 41 74 42 22 43 77 44 71 45
REMARK SMILES IDX 70 46 23 48 57 49 36 50 56 51 37 52 40 53 55 54 75 55 38 56
REMARK SMILES IDX 39 57 54 59 76 60 41 61 24 62 25 63 34 64 26 65 27 66 33 67
REMARK SMILES IDX 35 68 28 69 29 70 30 71 31 72 32 73 58 74 59 75 68 76 60 77
REMARK SMILES IDX 61 78 67 79 69 80 62 81 63 82 64 83 65 84 66 85 42 86 43 87
REMARK SMILES IDX 52 88 44 89 45 90 51 91 53 92 46 93 47 94 48 95 49 96 50 97
REMARK H PARENT 5 8 12 28 74 47 40 58
REMARK Flexibility Score: inf
ROOT
ATOM      1  C   UNL A   1      38.037  23.639  26.114  1.00  0.00     0.002 C 
ENDROOT
BRANCH   1   2
ATOM      2  C   UNL A   1      36.682  23.068  25.684  1.00  0.00     0.002 C 
BRANCH   2   3
ATOM      3  C   UNL A   1      36.597  22.638  24.214  1.00  0.00     0.021 C 
BRANCH   3   4
ATOM      4  C   UNL A   1      35.253  22.949  23.563  1.00  0.00     0.116 C 
BRANCH   4   5
ATOM      5  N   UNL A   1      34.177  22.242  24.230  1.00  0.00    -0.356 N 
ATOM      6  C   UNL A   1      32.858  22.555  24.360  1.00  0.00     0.227 C 
ATOM      7  O   UNL A   1      32.146  21.763  24.985  1.00  0.00    -0.274 OA
ATOM      8  H   UNL A   1      34.442  21.396  24.659  1.00  0.00     0.163 HD
BRANCH   6   9
ATOM      9  C   UNL A   1      32.260  23.821  23.742  1.00  0.00     0.105 C 
ATOM     10  C   UNL A   1      30.754  23.694  23.479  1.00  0.00     0.023 C 
BRANCH   9  11
ATOM     11  C   UNL A   1      32.649  25.131  24.419  1.00  0.00    -0.033 A 
ATOM     12  C   UNL A   1      32.284  25.348  25.757  1.00  0.00     0.005 A 
ATOM     13  C   UNL A   1      33.344  26.157  23.765  1.00  0.00     0.044 A 
ATOM     14  C   UNL A   1      32.629  26.533  26.421  1.00  0.00     0.012 A 
ATOM     15  C   UNL A   1      33.700  27.328  24.437  1.00  0.00     0.131 A 
ATOM     16  C   UNL A   1      33.354  27.546  25.774  1.00  0.00     0.017 A 
ATOM     17  F   UNL A   1      34.399  28.248  23.756  1.00  0.00    -0.206 F 
BRANCH  16  18
ATOM     18  C   UNL A   1      33.724  28.784  26.479  1.00  0.00    -0.015 A 
ATOM     19  C   UNL A   1      35.010  28.955  27.020  1.00  0.00     0.009 A 
ATOM     20  C   UNL A   1      32.804  29.835  26.630  1.00  0.00     0.009 A 
ATOM     21  C   UNL A   1      35.359  30.128  27.692  1.00  0.00     0.001 A 
ATOM     22  C   UNL A   1      33.152  31.010  27.301  1.00  0.00     0.001 A 
ATOM     23  C   UNL A   1      34.429  31.155  27.834  1.00  0.00     0.000 A 
ENDBRANCH  16  18
ENDBRANCH   9  11
ENDBRANCH   6   9
ENDBRANCH   4   5
ENDBRANCH   3   4
ENDBRANCH   2   3
ENDBRANCH   1   2
BRANCH   1  24
ATOM     24  C   UNL A   1      39.066  22.596  26.554  1.00  0.00     0.021 C 
BRANCH  24  25
ATOM     25  C   UNL A   1      40.363  23.179  27.103  1.00  0.00     0.116 C 
BRANCH  25  26
ATOM     26  N   UNL A   1      41.132  23.863  26.077  1.00  0.00    -0.352 N 
ATOM     27  C   UNL A   1      41.549  25.168  26.034  1.00  0.00     0.251 C 
ATOM     28  H   UNL A   1      41.391  23.312  25.304  1.00  0.00     0.163 HD
ATOM     29  O   UNL A   1      42.016  25.629  24.994  1.00  0.00    -0.269 OA
BRANCH  27  30
ATOM     30  C   UNL A   1      41.418  26.024  27.233  1.00  0.00     0.039 A 
ATOM     31  C   UNL A   1      42.392  26.992  27.484  1.00  0.00     0.014 A 
ATOM     32  C   UNL A   1      40.337  25.869  28.107  1.00  0.00     0.014 A 
ATOM     33  C   UNL A   1      42.252  27.842  28.583  1.00  0.00     0.010 A 
ATOM     34  C   UNL A   1      40.160  26.768  29.156  1.00  0.00     0.010 A 
ATOM     35  C   UNL A   1      41.118  27.760  29.408  1.00  0.00    -0.014 A 
BRANCH  35  36
ATOM     36  C   UNL A   1      40.926  28.703  30.541  1.00  0.00     0.031 A 
ATOM     37  C   UNL A   1      41.770  28.580  31.781  1.00  0.00     0.074 A 
ATOM     38  C   UNL A   1      39.958  29.640  30.470  1.00  0.00     0.049 A 
ATOM     39  N   UNL A   1      41.715  29.273  32.889  1.00  0.00    -0.248 NA
ATOM     40  C   UNL A   1      42.795  27.523  31.787  1.00  0.00     0.031 C 
ATOM     41  C   UNL A   1      39.044  29.828  29.341  1.00  0.00     0.029 A 
ATOM     42  N   UNL A   1      39.577  30.606  31.367  1.00  0.00    -0.354 N 
ATOM     43  C   UNL A   1      42.695  28.741  33.719  1.00  0.00     0.074 A 
ATOM     44  C   UNL A   1      43.282  27.622  33.015  1.00  0.00     0.031 C 
ATOM     45  C   UNL A   1      38.226  30.860  29.604  1.00  0.00     0.029 A 
ATOM     46  C   UNL A   1      38.527  31.381  30.933  1.00  0.00     0.049 A 
ATOM     47  H   UNL A   1      40.014  30.733  32.240  1.00  0.00     0.167 HD
ATOM     48  C   UNL A   1      43.092  29.165  34.944  1.00  0.00     0.037 A 
ATOM     49  C   UNL A   1      37.873  32.391  31.541  1.00  0.00     0.037 A 
ATOM     50  C   UNL A   1      42.510  30.286  35.636  1.00  0.00     0.049 A 
ATOM     51  C   UNL A   1      38.315  32.825  32.914  1.00  0.00     0.074 A 
ATOM     52  C   UNL A   1      42.859  30.814  36.866  1.00  0.00     0.029 A 
ATOM     53  N   UNL A   1      41.457  31.053  35.158  1.00  0.00    -0.354 N 
ATOM     54  N   UNL A   1      39.282  32.344  33.660  1.00  0.00    -0.248 NA
ATOM     55  C   UNL A   1      37.584  33.944  33.523  1.00  0.00     0.031 C 
ATOM     56  C   UNL A   1      41.988  31.870  37.153  1.00  0.00     0.029 A 
ATOM     57  C   UNL A   1      41.133  32.039  36.076  1.00  0.00     0.049 A 
ATOM     58  H   UNL A   1      41.007  30.917  34.293  1.00  0.00     0.167 HD
ATOM     59  C   UNL A   1      39.296  33.124  34.812  1.00  0.00     0.074 A 
ATOM     60  C   UNL A   1      38.252  34.116  34.656  1.00  0.00     0.031 C 
ATOM     61  C   UNL A   1      40.098  33.027  35.901  1.00  0.00     0.037 A 
BRANCH  48  62
ATOM     62  C   UNL A   1      44.220  28.421  35.608  1.00  0.00     0.058 A 
ATOM     63  C   UNL A   1      45.563  28.751  35.357  1.00  0.00     0.135 A 
ATOM     64  C   UNL A   1      43.961  27.399  36.535  1.00  0.00     0.135 A 
ATOM     65  F   UNL A   1      45.871  29.709  34.469  1.00  0.00    -0.206 F 
ATOM     66  C   UNL A   1      46.607  28.074  35.979  1.00  0.00     0.059 A 
ATOM     67  C   UNL A   1      44.991  26.730  37.192  1.00  0.00     0.059 A 
ATOM     68  F   UNL A   1      42.697  27.042  36.813  1.00  0.00    -0.206 F 
ATOM     69  C   UNL A   1      46.310  27.066  36.897  1.00  0.00     0.060 A 
BRANCH  69  70
ATOM     70  S   UNL A   1      47.679  26.208  37.702  1.00  0.00     0.124 S 
ATOM     71  O   UNL A   1      48.805  26.601  36.860  1.00  0.00    -0.237 OA
ATOM     72  O   UNL A   1      47.661  26.781  39.044  1.00  0.00    -0.237 OA
ATOM     73  O   UNL A   1      47.297  24.801  37.618  1.00  0.00    -0.744 OA
ENDBRANCH  69  70
ENDBRANCH  48  62
BRANCH  49  74
ATOM     74  C   UNL A   1      36.739  33.068  30.857  1.00  0.00     0.058 A 
ATOM     75  C   UNL A   1      36.956  33.931  29.772  1.00  0.00     0.135 A 
ATOM     76  C   UNL A   1      35.413  32.880  31.284  1.00  0.00     0.135 A 
ATOM     77  F   UNL A   1      38.203  34.148  29.328  1.00  0.00    -0.206 F 
ATOM     78  C   UNL A   1      35.908  34.608  29.156  1.00  0.00     0.059 A 
ATOM     79  C   UNL A   1      34.346  33.521  30.664  1.00  0.00     0.059 A 
ATOM     80  F   UNL A   1      35.147  32.050  32.305  1.00  0.00    -0.206 F 
ATOM     81  C   UNL A   1      34.606  34.397  29.611  1.00  0.00     0.060 A 
BRANCH  81  82
ATOM     82  S   UNL A   1      33.251  35.267  28.793  1.00  0.00     0.124 S 
ATOM     83  O   UNL A   1      33.972  36.271  28.019  1.00  0.00    -0.237 OA
ATOM     84  O   UNL A   1      32.620  34.198  28.025  1.00  0.00    -0.237 OA
ATOM     85  O   UNL A   1      32.459  35.778  29.909  1.00  0.00    -0.744 OA
ENDBRANCH  81  82
ENDBRANCH  49  74
BRANCH  61  86
ATOM     86  C   UNL A   1      39.912  34.047  36.993  1.00  0.00     0.058 A 
ATOM     87  C   UNL A   1      40.495  35.322  36.923  1.00  0.00     0.135 A 
ATOM     88  C   UNL A   1      39.104  33.756  38.104  1.00  0.00     0.135 A 
ATOM     89  F   UNL A   1      41.281  35.650  35.885  1.00  0.00    -0.206 F 
ATOM     90  C   UNL A   1      40.306  36.263  37.931  1.00  0.00     0.059 A 
ATOM     91  C   UNL A   1      38.876  34.693  39.107  1.00  0.00     0.059 A 
ATOM     92  F   UNL A   1      38.513  32.555  38.216  1.00  0.00    -0.206 F 
ATOM     93  C   UNL A   1      39.494  35.938  39.019  1.00  0.00     0.060 A 
BRANCH  93  94
ATOM     94  S   UNL A   1      39.236  37.179  40.304  1.00  0.00     0.124 S 
ATOM     95  O   UNL A   1      40.608  37.502  40.680  1.00  0.00    -0.237 OA
ATOM     96  O   UNL A   1      38.511  38.224  39.588  1.00  0.00    -0.237 OA
ATOM     97  O   UNL A   1      38.459  36.466  41.315  1.00  0.00    -0.744 OA
ENDBRANCH  93  94
ENDBRANCH  61  86
ENDBRANCH  35  36
ENDBRANCH  27  30
ENDBRANCH  25  26
ENDBRANCH  24  25
ENDBRANCH   1  24
TORSDOF 18
ENDMDL
