MODEL 1
REMARK VINA RESULT:     -13.5      0.000      0.000
REMARK SMILES Cc1ccc(N2C(=O)[NH+]=C(NCCCCCCNC(=O)c3ccc(-c4c5nc(c(-c6c(F)cc(S(=O)(=O)[O-])cc6F)c6ccc([nH]6)c(-c6c(F)cc(S(=O)(=O)[O-])cc6F)c6nc(c(-c7c(F)cc(S(=O)(=O)[O-])cc7F)c7ccc4[nH]7)C=C6)C=C5)cc3)/C(=C\c3ccccc3OCc3cccc(C(=O)[O-])c3)C2=O)cc1
REMARK SMILES IDX 14 1 13 2 12 3 11 4 6 5 7 6 106 7 8 8 9 9 87 10 107 11 10 12
REMARK SMILES IDX 88 14 5 16 1 17 2 18 3 19 109 20 4 21 108 22 89 23 90 24
REMARK SMILES IDX 94 25 91 26 93 27 92 28 95 29 96 30 97 31 98 32 105 33 99 34
REMARK SMILES IDX 101 35 100 36 102 37 103 38 104 39 15 40 16 41 17 42 18 43
REMARK SMILES IDX 19 44 20 46 21 47 22 48 86 49 23 50 85 51 24 52 25 53 26 54
REMARK SMILES IDX 79 55 27 56 84 57 78 58 80 59 28 60 83 61 77 62 76 63 29 65
REMARK SMILES IDX 63 66 42 67 62 68 43 69 46 70 61 71 81 72 44 73 45 74 60 76
REMARK SMILES IDX 82 77 47 78 30 79 31 80 40 81 32 82 33 83 39 84 41 85 34 86
REMARK SMILES IDX 35 87 36 88 37 89 38 90 64 91 65 92 74 93 66 94 67 95 73 96
REMARK SMILES IDX 75 97 68 98 69 99 70 100 71 101 72 102 48 103 49 104 58 105
REMARK SMILES IDX 50 106 51 107 57 108 59 109 52 110 53 111 54 112 55 113
REMARK SMILES IDX 56 114
REMARK H PARENT 9 13 11 15 18 45 80 64 46 75
REMARK Flexibility Score: inf
ROOT
ATOM      1  C   UNL A   1      32.384  32.332  27.272  1.00  0.00     0.003 C 
ENDROOT
BRANCH   1   2
ATOM      2  C   UNL A   1      32.568  30.929  26.679  1.00  0.00     0.037 C 
BRANCH   2   3
ATOM      3  C   UNL A   1      31.367  30.380  25.910  1.00  0.00     0.194 C 
BRANCH   3   4
ATOM      4  N   UNL A   1      31.758  29.839  24.616  1.00  0.00    -0.305 N 
ATOM      5  N   UNL A   1      33.843  26.259  24.246  1.00  0.00    -0.155 N 
ATOM      6  C   UNL A   1      33.719  26.967  25.455  1.00  0.00     0.448 C 
ATOM      7  C   UNL A   1      33.270  26.706  23.057  1.00  0.00     0.328 C 
ATOM      8  O   UNL A   1      34.232  26.570  26.502  1.00  0.00    -0.212 OA
ATOM      9  N   UNL A   1      33.060  28.162  25.480  1.00  0.00    -0.209 N 
ATOM     10  C   UNL A   1      32.297  27.819  23.227  1.00  0.00     0.129 C 
ATOM     11  O   UNL A   1      33.400  26.173  21.953  1.00  0.00    -0.249 OA
ATOM     12  C   UNL A   1      32.379  28.617  24.476  1.00  0.00     0.236 C 
ATOM     13  H   UNL A   1      33.104  28.705  26.300  1.00  0.00     0.270 HD
ATOM     14  C   UNL A   1      31.284  27.841  22.334  1.00  0.00     0.034 C 
ATOM     15  H   UNL A   1      31.570  30.368  23.808  1.00  0.00     0.256 HD
BRANCH   5  16
ATOM     16  C   UNL A   1      34.562  25.009  24.245  1.00  0.00     0.111 A 
ATOM     17  C   UNL A   1      36.748  21.268  24.266  1.00  0.00     0.044 C 
ATOM     18  C   UNL A   1      35.985  22.558  24.253  1.00  0.00    -0.051 A 
ATOM     19  C   UNL A   1      35.955  23.363  25.393  1.00  0.00     0.007 A 
ATOM     20  C   UNL A   1      35.285  22.971  23.117  1.00  0.00     0.007 A 
ATOM     21  C   UNL A   1      35.260  24.576  25.384  1.00  0.00     0.044 A 
ATOM     22  C   UNL A   1      34.577  24.179  23.117  1.00  0.00     0.044 A 
ENDBRANCH   5  16
BRANCH  14  23
ATOM     23  C   UNL A   1      30.000  28.559  22.387  1.00  0.00     0.018 A 
ATOM     24  C   UNL A   1      29.912  29.737  21.623  1.00  0.00     0.012 A 
ATOM     25  C   UNL A   1      28.866  28.135  23.103  1.00  0.00     0.127 A 
ATOM     26  C   UNL A   1      28.761  30.526  21.643  1.00  0.00     0.001 A 
ATOM     27  C   UNL A   1      27.714  28.933  23.110  1.00  0.00     0.047 A 
ATOM     28  C   UNL A   1      27.666  30.133  22.403  1.00  0.00     0.004 A 
BRANCH  25  29
ATOM     29  O   UNL A   1      28.818  27.064  23.959  1.00  0.00    -0.488 OA
BRANCH  29  30
ATOM     30  C   UNL A   1      29.231  25.810  23.421  1.00  0.00     0.265 C 
BRANCH  30  31
ATOM     31  C   UNL A   1      30.064  25.053  24.436  1.00  0.00    -0.010 A 
ATOM     32  C   UNL A   1      30.319  25.623  25.693  1.00  0.00     0.007 A 
ATOM     33  C   UNL A   1      30.653  23.819  24.123  1.00  0.00     0.017 A 
ATOM     34  C   UNL A   1      31.144  24.981  26.617  1.00  0.00     0.001 A 
ATOM     35  C   UNL A   1      31.505  23.184  25.038  1.00  0.00    -0.002 A 
ATOM     36  C   UNL A   1      31.747  23.768  26.286  1.00  0.00     0.010 A 
BRANCH  35  37
ATOM     37  C   UNL A   1      32.208  21.928  24.697  1.00  0.00     0.071 C 
ATOM     38  O   UNL A   1      32.870  21.246  25.472  1.00  0.00    -0.545 OA
ATOM     39  O   UNL A   1      32.075  21.585  23.407  1.00  0.00    -0.545 OA
ENDBRANCH  35  37
ENDBRANCH  30  31
ENDBRANCH  29  30
ENDBRANCH  25  29
ENDBRANCH  14  23
ENDBRANCH   3   4
ENDBRANCH   2   3
ENDBRANCH   1   2
BRANCH   1  40
ATOM     40  C   UNL A   1      33.669  33.071  27.678  1.00  0.00     0.002 C 
BRANCH  40  41
ATOM     41  C   UNL A   1      34.192  32.864  29.095  1.00  0.00     0.021 C 
BRANCH  41  42
ATOM     42  C   UNL A   1      35.373  31.925  29.200  1.00  0.00     0.116 C 
BRANCH  42  43
ATOM     43  N   UNL A   1      35.138  30.538  28.842  1.00  0.00    -0.352 N 
ATOM     44  C   UNL A   1      36.039  29.706  28.179  1.00  0.00     0.251 C 
ATOM     45  H   UNL A   1      34.266  30.151  29.088  1.00  0.00     0.163 HD
ATOM     46  O   UNL A   1      35.666  28.859  27.375  1.00  0.00    -0.269 OA
BRANCH  44  47
ATOM     47  C   UNL A   1      37.450  29.738  28.644  1.00  0.00     0.039 A 
ATOM     48  C   UNL A   1      38.467  29.916  27.693  1.00  0.00     0.014 A 
ATOM     49  C   UNL A   1      37.760  29.258  29.905  1.00  0.00     0.014 A 
ATOM     50  C   UNL A   1      39.730  29.385  27.933  1.00  0.00     0.010 A 
ATOM     51  C   UNL A   1      38.905  28.533  30.049  1.00  0.00     0.010 A 
ATOM     52  C   UNL A   1      39.889  28.594  29.059  1.00  0.00    -0.014 A 
BRANCH  52  53
ATOM     53  C   UNL A   1      41.087  27.899  29.468  1.00  0.00     0.031 A 
ATOM     54  C   UNL A   1      41.220  26.511  28.986  1.00  0.00     0.074 A 
ATOM     55  C   UNL A   1      42.132  28.655  29.866  1.00  0.00     0.049 A 
ATOM     56  N   UNL A   1      42.207  25.747  29.267  1.00  0.00    -0.248 NA
ATOM     57  C   UNL A   1      40.224  25.857  28.134  1.00  0.00     0.031 C 
ATOM     58  C   UNL A   1      43.555  28.359  29.756  1.00  0.00     0.029 A 
ATOM     59  N   UNL A   1      42.087  29.820  30.632  1.00  0.00    -0.354 N 
ATOM     60  C   UNL A   1      42.153  24.658  28.423  1.00  0.00     0.074 A 
ATOM     61  C   UNL A   1      40.844  24.715  27.825  1.00  0.00     0.031 C 
ATOM     62  C   UNL A   1      44.230  29.135  30.622  1.00  0.00     0.029 A 
ATOM     63  C   UNL A   1      43.240  29.807  31.448  1.00  0.00     0.049 A 
ATOM     64  H   UNL A   1      41.390  30.515  30.609  1.00  0.00     0.167 HD
ATOM     65  C   UNL A   1      43.294  23.933  28.264  1.00  0.00     0.037 A 
ATOM     66  C   UNL A   1      43.095  29.607  32.798  1.00  0.00     0.037 A 
ATOM     67  C   UNL A   1      44.329  24.458  29.157  1.00  0.00     0.049 A 
ATOM     68  C   UNL A   1      43.658  28.284  33.298  1.00  0.00     0.074 A 
ATOM     69  C   UNL A   1      45.419  25.298  29.010  1.00  0.00     0.029 A 
ATOM     70  N   UNL A   1      44.104  24.362  30.511  1.00  0.00    -0.354 N 
ATOM     71  N   UNL A   1      44.140  27.348  32.527  1.00  0.00    -0.248 NA
ATOM     72  C   UNL A   1      43.674  27.889  34.705  1.00  0.00     0.031 C 
ATOM     73  C   UNL A   1      45.836  25.699  30.318  1.00  0.00     0.029 A 
ATOM     74  C   UNL A   1      45.015  25.081  31.245  1.00  0.00     0.049 A 
ATOM     75  H   UNL A   1      43.373  23.836  30.909  1.00  0.00     0.167 HD
ATOM     76  C   UNL A   1      44.440  26.233  33.268  1.00  0.00     0.074 A 
ATOM     77  C   UNL A   1      44.137  26.627  34.632  1.00  0.00     0.031 C 
ATOM     78  C   UNL A   1      44.871  25.067  32.693  1.00  0.00     0.037 A 
BRANCH  65  79
ATOM     79  C   UNL A   1      43.595  22.865  27.235  1.00  0.00     0.058 A 
ATOM     80  C   UNL A   1      42.788  21.702  27.205  1.00  0.00     0.135 A 
ATOM     81  C   UNL A   1      44.648  22.863  26.298  1.00  0.00     0.135 A 
ATOM     82  F   UNL A   1      41.706  21.576  27.985  1.00  0.00    -0.206 F 
ATOM     83  C   UNL A   1      43.050  20.609  26.385  1.00  0.00     0.059 A 
ATOM     84  C   UNL A   1      44.929  21.778  25.461  1.00  0.00     0.059 A 
ATOM     85  F   UNL A   1      45.459  23.909  26.128  1.00  0.00    -0.206 F 
ATOM     86  C   UNL A   1      44.136  20.644  25.527  1.00  0.00     0.060 A 
BRANCH  86  87
ATOM     87  S   UNL A   1      44.478  19.200  24.512  1.00  0.00     0.124 S 
ATOM     88  O   UNL A   1      45.872  18.923  24.845  1.00  0.00    -0.237 OA
ATOM     89  O   UNL A   1      43.501  18.237  25.009  1.00  0.00    -0.237 OA
ATOM     90  O   UNL A   1      44.247  19.677  23.151  1.00  0.00    -0.744 OA
ENDBRANCH  86  87
ENDBRANCH  65  79
BRANCH  66  91
ATOM     91  C   UNL A   1      41.859  30.285  33.313  1.00  0.00     0.058 A 
ATOM     92  C   UNL A   1      41.866  31.697  33.323  1.00  0.00     0.135 A 
ATOM     93  C   UNL A   1      40.613  29.648  33.211  1.00  0.00     0.135 A 
ATOM     94  F   UNL A   1      43.027  32.360  33.456  1.00  0.00    -0.206 F 
ATOM     95  C   UNL A   1      40.730  32.433  33.003  1.00  0.00     0.059 A 
ATOM     96  C   UNL A   1      39.457  30.372  32.910  1.00  0.00     0.059 A 
ATOM     97  F   UNL A   1      40.538  28.308  33.217  1.00  0.00    -0.206 F 
ATOM     98  C   UNL A   1      39.552  31.750  32.712  1.00  0.00     0.060 A 
BRANCH  98  99
ATOM     99  S   UNL A   1      38.232  32.664  31.873  1.00  0.00     0.124 S 
ATOM    100  O   UNL A   1      38.309  33.971  32.518  1.00  0.00    -0.237 OA
ATOM    101  O   UNL A   1      38.681  32.622  30.482  1.00  0.00    -0.237 OA
ATOM    102  O   UNL A   1      37.040  31.882  32.180  1.00  0.00    -0.744 OA
ENDBRANCH  98  99
ENDBRANCH  66  91
BRANCH  78 103
ATOM    103  C   UNL A   1      45.145  23.775  33.435  1.00  0.00     0.058 A 
ATOM    104  C   UNL A   1      44.158  22.807  33.668  1.00  0.00     0.135 A 
ATOM    105  C   UNL A   1      46.403  23.512  34.042  1.00  0.00     0.135 A 
ATOM    106  F   UNL A   1      42.902  22.988  33.232  1.00  0.00    -0.206 F 
ATOM    107  C   UNL A   1      44.420  21.633  34.381  1.00  0.00     0.059 A 
ATOM    108  C   UNL A   1      46.665  22.386  34.812  1.00  0.00     0.059 A 
ATOM    109  F   UNL A   1      47.461  24.317  33.884  1.00  0.00    -0.206 F 
ATOM    110  C   UNL A   1      45.677  21.431  34.947  1.00  0.00     0.060 A 
BRANCH 110 111
ATOM    111  S   UNL A   1      46.016  19.920  35.862  1.00  0.00     0.124 S 
ATOM    112  O   UNL A   1      45.137  18.956  35.207  1.00  0.00    -0.237 OA
ATOM    113  O   UNL A   1      47.444  19.747  35.615  1.00  0.00    -0.237 OA
ATOM    114  O   UNL A   1      45.654  20.260  37.235  1.00  0.00    -0.744 OA
ENDBRANCH 110 111
ENDBRANCH  78 103
ENDBRANCH  52  53
ENDBRANCH  44  47
ENDBRANCH  42  43
ENDBRANCH  41  42
ENDBRANCH  40  41
ENDBRANCH   1  40
TORSDOF 21
ENDMDL
MODEL 2
REMARK VINA RESULT:     -12.7      1.647      2.351
REMARK SMILES Cc1ccc(N2C(=O)[NH+]=C(NCCCCCCNC(=O)c3ccc(-c4c5nc(c(-c6c(F)cc(S(=O)(=O)[O-])cc6F)c6ccc([nH]6)c(-c6c(F)cc(S(=O)(=O)[O-])cc6F)c6nc(c(-c7c(F)cc(S(=O)(=O)[O-])cc7F)c7ccc4[nH]7)C=C6)C=C5)cc3)/C(=C\c3ccccc3OCc3cccc(C(=O)[O-])c3)C2=O)cc1
REMARK SMILES IDX 14 1 13 2 12 3 11 4 6 5 7 6 106 7 8 8 9 9 87 10 107 11 10 12
REMARK SMILES IDX 88 14 5 16 1 17 2 18 3 19 109 20 4 21 108 22 89 23 90 24
REMARK SMILES IDX 94 25 91 26 93 27 92 28 95 29 96 30 97 31 98 32 105 33 99 34
REMARK SMILES IDX 101 35 100 36 102 37 103 38 104 39 15 40 16 41 17 42 18 43
REMARK SMILES IDX 19 44 20 46 21 47 22 48 86 49 23 50 85 51 24 52 25 53 26 54
REMARK SMILES IDX 79 55 27 56 84 57 78 58 80 59 28 60 83 61 77 62 76 63 29 65
REMARK SMILES IDX 63 66 42 67 62 68 43 69 46 70 61 71 81 72 44 73 45 74 60 76
REMARK SMILES IDX 82 77 47 78 30 79 31 80 40 81 32 82 33 83 39 84 41 85 34 86
REMARK SMILES IDX 35 87 36 88 37 89 38 90 64 91 65 92 74 93 66 94 67 95 73 96
REMARK SMILES IDX 75 97 68 98 69 99 70 100 71 101 72 102 48 103 49 104 58 105
REMARK SMILES IDX 50 106 51 107 57 108 59 109 52 110 53 111 54 112 55 113
REMARK SMILES IDX 56 114
REMARK H PARENT 9 13 11 15 18 45 80 64 46 75
REMARK Flexibility Score: inf
ROOT
ATOM      1  C   UNL A   1      32.403  32.626  27.381  1.00  0.00     0.003 C 
ENDROOT
BRANCH   1   2
ATOM      2  C   UNL A   1      32.469  31.177  26.880  1.00  0.00     0.037 C 
BRANCH   2   3
ATOM      3  C   UNL A   1      31.295  30.731  26.009  1.00  0.00     0.194 C 
BRANCH   3   4
ATOM      4  N   UNL A   1      31.744  30.216  24.723  1.00  0.00    -0.305 N 
ATOM      5  N   UNL A   1      33.706  26.567  24.357  1.00  0.00    -0.155 N 
ATOM      6  C   UNL A   1      33.536  27.240  25.579  1.00  0.00     0.448 C 
ATOM      7  C   UNL A   1      33.226  27.075  23.152  1.00  0.00     0.328 C 
ATOM      8  O   UNL A   1      33.967  26.790  26.641  1.00  0.00    -0.212 OA
ATOM      9  N   UNL A   1      32.924  28.460  25.606  1.00  0.00    -0.209 N 
ATOM     10  C   UNL A   1      32.288  28.221  23.301  1.00  0.00     0.129 C 
ATOM     11  O   UNL A   1      33.403  26.573  22.040  1.00  0.00    -0.249 OA
ATOM     12  C   UNL A   1      32.324  28.974  24.579  1.00  0.00     0.236 C 
ATOM     13  H   UNL A   1      32.939  28.974  26.445  1.00  0.00     0.270 HD
ATOM     14  C   UNL A   1      31.334  28.313  22.349  1.00  0.00     0.034 C 
ATOM     15  H   UNL A   1      31.628  30.778  23.924  1.00  0.00     0.256 HD
BRANCH   5  16
ATOM     16  C   UNL A   1      34.374  25.289  24.356  1.00  0.00     0.111 A 
ATOM     17  C   UNL A   1      36.355  21.436  24.325  1.00  0.00     0.044 C 
ATOM     18  C   UNL A   1      35.677  22.772  24.341  1.00  0.00    -0.051 A 
ATOM     19  C   UNL A   1      34.998  23.224  23.208  1.00  0.00     0.007 A 
ATOM     20  C   UNL A   1      35.722  23.590  25.473  1.00  0.00     0.007 A 
ATOM     21  C   UNL A   1      34.348  24.462  23.221  1.00  0.00     0.044 A 
ATOM     22  C   UNL A   1      35.083  24.836  25.476  1.00  0.00     0.044 A 
ENDBRANCH   5  16
BRANCH  14  23
ATOM     23  C   UNL A   1      30.078  29.081  22.350  1.00  0.00     0.018 A 
ATOM     24  C   UNL A   1      30.000  30.148  21.436  1.00  0.00     0.012 A 
ATOM     25  C   UNL A   1      28.960  28.803  23.156  1.00  0.00     0.127 A 
ATOM     26  C   UNL A   1      28.878  30.977  21.389  1.00  0.00     0.001 A 
ATOM     27  C   UNL A   1      27.837  29.638  23.095  1.00  0.00     0.047 A 
ATOM     28  C   UNL A   1      27.802  30.733  22.233  1.00  0.00     0.004 A 
BRANCH  25  29
ATOM     29  O   UNL A   1      28.910  27.859  24.150  1.00  0.00    -0.488 OA
BRANCH  29  30
ATOM     30  C   UNL A   1      28.440  26.568  23.770  1.00  0.00     0.265 C 
BRANCH  30  31
ATOM     31  C   UNL A   1      29.492  25.518  24.066  1.00  0.00    -0.010 A 
ATOM     32  C   UNL A   1      30.181  24.904  23.008  1.00  0.00     0.007 A 
ATOM     33  C   UNL A   1      29.745  25.087  25.377  1.00  0.00     0.017 A 
ATOM     34  C   UNL A   1      31.101  23.882  23.250  1.00  0.00     0.001 A 
ATOM     35  C   UNL A   1      30.647  24.042  25.621  1.00  0.00    -0.002 A 
ATOM     36  C   UNL A   1      31.325  23.442  24.554  1.00  0.00     0.010 A 
BRANCH  35  37
ATOM     37  C   UNL A   1      30.864  23.510  26.984  1.00  0.00     0.071 C 
ATOM     38  O   UNL A   1      30.014  22.971  27.684  1.00  0.00    -0.545 OA
ATOM     39  O   UNL A   1      32.118  23.689  27.424  1.00  0.00    -0.545 OA
ENDBRANCH  35  37
ENDBRANCH  30  31
ENDBRANCH  29  30
ENDBRANCH  25  29
ENDBRANCH  14  23
ENDBRANCH   3   4
ENDBRANCH   2   3
ENDBRANCH   1   2
BRANCH   1  40
ATOM     40  C   UNL A   1      33.746  33.279  27.747  1.00  0.00     0.002 C 
BRANCH  40  41
ATOM     41  C   UNL A   1      34.021  33.564  29.219  1.00  0.00     0.021 C 
BRANCH  41  42
ATOM     42  C   UNL A   1      34.896  32.540  29.907  1.00  0.00     0.116 C 
BRANCH  42  43
ATOM     43  N   UNL A   1      34.902  31.203  29.343  1.00  0.00    -0.352 N 
ATOM     44  C   UNL A   1      36.023  30.532  28.856  1.00  0.00     0.251 C 
ATOM     45  H   UNL A   1      34.040  30.728  29.299  1.00  0.00     0.163 HD
ATOM     46  O   UNL A   1      35.958  29.779  27.890  1.00  0.00    -0.269 OA
BRANCH  44  47
ATOM     47  C   UNL A   1      37.256  30.594  29.684  1.00  0.00     0.039 A 
ATOM     48  C   UNL A   1      38.372  31.278  29.178  1.00  0.00     0.014 A 
ATOM     49  C   UNL A   1      37.406  29.716  30.744  1.00  0.00     0.014 A 
ATOM     50  C   UNL A   1      39.648  30.892  29.572  1.00  0.00     0.010 A 
ATOM     51  C   UNL A   1      38.639  29.173  30.954  1.00  0.00     0.010 A 
ATOM     52  C   UNL A   1      39.760  29.761  30.364  1.00  0.00    -0.014 A 
BRANCH  52  53
ATOM     53  C   UNL A   1      40.981  29.152  30.837  1.00  0.00     0.031 A 
ATOM     54  C   UNL A   1      41.407  27.931  30.126  1.00  0.00     0.074 A 
ATOM     55  C   UNL A   1      41.819  29.929  31.555  1.00  0.00     0.049 A 
ATOM     56  N   UNL A   1      42.452  27.256  30.425  1.00  0.00    -0.248 NA
ATOM     57  C   UNL A   1      40.667  27.358  28.999  1.00  0.00     0.031 C 
ATOM     58  C   UNL A   1      43.272  29.847  31.646  1.00  0.00     0.029 A 
ATOM     59  N   UNL A   1      41.473  30.883  32.513  1.00  0.00    -0.354 N 
ATOM     60  C   UNL A   1      42.700  26.380  29.390  1.00  0.00     0.074 A 
ATOM     61  C   UNL A   1      41.503  26.400  28.590  1.00  0.00     0.031 C 
ATOM     62  C   UNL A   1      43.676  30.494  32.754  1.00  0.00     0.029 A 
ATOM     63  C   UNL A   1      42.479  30.838  33.504  1.00  0.00     0.049 A 
ATOM     64  H   UNL A   1      40.684  31.471  32.501  1.00  0.00     0.167 HD
ATOM     65  C   UNL A   1      43.955  25.859  29.299  1.00  0.00     0.037 A 
ATOM     66  C   UNL A   1      42.170  30.331  34.741  1.00  0.00     0.037 A 
ATOM     67  C   UNL A   1      44.747  26.303  30.448  1.00  0.00     0.049 A 
ATOM     68  C   UNL A   1      42.858  29.013  35.066  1.00  0.00     0.074 A 
ATOM     69  C   UNL A   1      45.696  27.286  30.665  1.00  0.00     0.029 A 
ATOM     70  N   UNL A   1      44.342  25.885  31.695  1.00  0.00    -0.354 N 
ATOM     71  N   UNL A   1      43.595  28.337  34.227  1.00  0.00    -0.248 NA
ATOM     72  C   UNL A   1      42.729  28.325  36.349  1.00  0.00     0.031 C 
ATOM     73  C   UNL A   1      45.844  27.442  32.079  1.00  0.00     0.029 A 
ATOM     74  C   UNL A   1      45.006  26.536  32.706  1.00  0.00     0.049 A 
ATOM     75  H   UNL A   1      43.655  25.196  31.845  1.00  0.00     0.167 HD
ATOM     76  C   UNL A   1      43.958  27.135  34.778  1.00  0.00     0.074 A 
ATOM     77  C   UNL A   1      43.396  27.179  36.116  1.00  0.00     0.031 C 
ATOM     78  C   UNL A   1      44.652  26.187  34.074  1.00  0.00     0.037 A 
BRANCH  65  79
ATOM     79  C   UNL A   1      44.574  25.089  28.153  1.00  0.00     0.058 A 
ATOM     80  C   UNL A   1      44.778  25.752  26.919  1.00  0.00     0.135 A 
ATOM     81  C   UNL A   1      44.943  23.729  28.147  1.00  0.00     0.135 A 
ATOM     82  F   UNL A   1      44.541  27.063  26.776  1.00  0.00    -0.206 F 
ATOM     83  C   UNL A   1      45.225  25.109  25.768  1.00  0.00     0.059 A 
ATOM     84  C   UNL A   1      45.398  23.061  27.005  1.00  0.00     0.059 A 
ATOM     85  F   UNL A   1      44.897  22.969  29.243  1.00  0.00    -0.206 F 
ATOM     86  C   UNL A   1      45.516  23.755  25.812  1.00  0.00     0.060 A 
BRANCH  86  87
ATOM     87  S   UNL A   1      46.047  22.941  24.301  1.00  0.00     0.124 S 
ATOM     88  O   UNL A   1      46.500  21.647  24.801  1.00  0.00    -0.237 OA
ATOM     89  O   UNL A   1      44.820  22.925  23.513  1.00  0.00    -0.237 OA
ATOM     90  O   UNL A   1      47.103  23.815  23.795  1.00  0.00    -0.744 OA
ENDBRANCH  86  87
ENDBRANCH  65  79
BRANCH  66  91
ATOM     91  C   UNL A   1      40.778  30.717  35.148  1.00  0.00     0.058 A 
ATOM     92  C   UNL A   1      40.610  32.010  35.688  1.00  0.00     0.135 A 
ATOM     93  C   UNL A   1      39.671  30.137  34.508  1.00  0.00     0.135 A 
ATOM     94  F   UNL A   1      41.623  32.600  36.344  1.00  0.00    -0.206 F 
ATOM     95  C   UNL A   1      39.489  32.781  35.397  1.00  0.00     0.059 A 
ATOM     96  C   UNL A   1      38.528  30.888  34.224  1.00  0.00     0.059 A 
ATOM     97  F   UNL A   1      39.761  28.902  33.993  1.00  0.00    -0.206 F 
ATOM     98  C   UNL A   1      38.495  32.235  34.588  1.00  0.00     0.060 A 
BRANCH  98  99
ATOM     99  S   UNL A   1      37.287  33.369  33.854  1.00  0.00     0.124 S 
ATOM    100  O   UNL A   1      37.403  33.059  32.432  1.00  0.00    -0.237 OA
ATOM    101  O   UNL A   1      36.047  32.932  34.494  1.00  0.00    -0.237 OA
ATOM    102  O   UNL A   1      37.780  34.682  34.252  1.00  0.00    -0.744 OA
ENDBRANCH  98  99
ENDBRANCH  66  91
BRANCH  78 103
ATOM    103  C   UNL A   1      45.019  24.810  34.587  1.00  0.00     0.058 A 
ATOM    104  C   UNL A   1      46.331  24.448  34.923  1.00  0.00     0.135 A 
ATOM    105  C   UNL A   1      44.068  23.757  34.654  1.00  0.00     0.135 A 
ATOM    106  F   UNL A   1      47.339  25.327  34.805  1.00  0.00    -0.206 F 
ATOM    107  C   UNL A   1      46.659  23.163  35.367  1.00  0.00     0.059 A 
ATOM    108  C   UNL A   1      44.384  22.457  35.025  1.00  0.00     0.059 A 
ATOM    109  F   UNL A   1      42.766  23.946  34.401  1.00  0.00    -0.206 F 
ATOM    110  C   UNL A   1      45.677  22.175  35.416  1.00  0.00     0.060 A 
BRANCH 110 111
ATOM    111  S   UNL A   1      46.097  20.522  35.988  1.00  0.00     0.124 S 
ATOM    112  O   UNL A   1      45.165  19.687  35.237  1.00  0.00    -0.237 OA
ATOM    113  O   UNL A   1      47.497  20.425  35.590  1.00  0.00    -0.237 OA
ATOM    114  O   UNL A   1      45.856  20.583  37.427  1.00  0.00    -0.744 OA
ENDBRANCH 110 111
ENDBRANCH  78 103
ENDBRANCH  52  53
ENDBRANCH  44  47
ENDBRANCH  42  43
ENDBRANCH  41  42
ENDBRANCH  40  41
ENDBRANCH   1  40
TORSDOF 21
ENDMDL
MODEL 3
REMARK VINA RESULT:     -12.2      5.019     11.408
REMARK SMILES Cc1ccc(N2C(=O)[NH+]=C(NCCCCCCNC(=O)c3ccc(-c4c5nc(c(-c6c(F)cc(S(=O)(=O)[O-])cc6F)c6ccc([nH]6)c(-c6c(F)cc(S(=O)(=O)[O-])cc6F)c6nc(c(-c7c(F)cc(S(=O)(=O)[O-])cc7F)c7ccc4[nH]7)C=C6)C=C5)cc3)/C(=C\c3ccccc3OCc3cccc(C(=O)[O-])c3)C2=O)cc1
REMARK SMILES IDX 14 1 13 2 12 3 11 4 6 5 7 6 106 7 8 8 9 9 87 10 107 11 10 12
REMARK SMILES IDX 88 14 5 16 1 17 2 18 3 19 109 20 4 21 108 22 89 23 90 24
REMARK SMILES IDX 94 25 91 26 93 27 92 28 95 29 96 30 97 31 98 32 105 33 99 34
REMARK SMILES IDX 101 35 100 36 102 37 103 38 104 39 15 40 16 41 17 42 18 43
REMARK SMILES IDX 19 44 20 46 21 47 22 48 86 49 23 50 85 51 24 52 25 53 26 54
REMARK SMILES IDX 79 55 27 56 84 57 78 58 80 59 28 60 83 61 77 62 76 63 29 65
REMARK SMILES IDX 63 66 42 67 62 68 43 69 46 70 61 71 81 72 44 73 45 74 60 76
REMARK SMILES IDX 82 77 47 78 30 79 31 80 40 81 32 82 33 83 39 84 41 85 34 86
REMARK SMILES IDX 35 87 36 88 37 89 38 90 64 91 65 92 74 93 66 94 67 95 73 96
REMARK SMILES IDX 75 97 68 98 69 99 70 100 71 101 72 102 48 103 49 104 58 105
REMARK SMILES IDX 50 106 51 107 57 108 59 109 52 110 53 111 54 112 55 113
REMARK SMILES IDX 56 114
REMARK H PARENT 9 13 11 15 18 45 80 64 46 75
REMARK Flexibility Score: inf
ROOT
ATOM      1  C   UNL A   1      42.690  30.128  28.213  1.00  0.00     0.003 C 
ENDROOT
BRANCH   1   2
ATOM      2  C   UNL A   1      43.004  30.677  29.611  1.00  0.00     0.037 C 
BRANCH   2   3
ATOM      3  C   UNL A   1      42.024  31.724  30.138  1.00  0.00     0.194 C 
BRANCH   3   4
ATOM      4  N   UNL A   1      40.962  31.119  30.930  1.00  0.00    -0.305 N 
ATOM      5  N   UNL A   1      37.406  33.106  31.764  1.00  0.00    -0.155 N 
ATOM      6  C   UNL A   1      38.560  33.746  31.283  1.00  0.00     0.448 C 
ATOM      7  C   UNL A   1      37.358  31.734  32.006  1.00  0.00     0.328 C 
ATOM      8  O   UNL A   1      38.599  34.959  31.077  1.00  0.00    -0.212 OA
ATOM      9  N   UNL A   1      39.704  33.028  31.083  1.00  0.00    -0.209 N 
ATOM     10  C   UNL A   1      38.512  30.975  31.452  1.00  0.00     0.129 C 
ATOM     11  O   UNL A   1      36.404  31.123  32.493  1.00  0.00    -0.249 OA
ATOM     12  C   UNL A   1      39.750  31.735  31.147  1.00  0.00     0.236 C 
ATOM     13  H   UNL A   1      40.535  33.516  30.880  1.00  0.00     0.270 HD
ATOM     14  C   UNL A   1      38.238  29.711  31.062  1.00  0.00     0.034 C 
ATOM     15  H   UNL A   1      41.119  30.231  31.326  1.00  0.00     0.256 HD
BRANCH   5  16
ATOM     16  C   UNL A   1      36.217  33.892  31.986  1.00  0.00     0.111 A 
ATOM     17  C   UNL A   1      32.643  36.259  32.614  1.00  0.00     0.044 C 
ATOM     18  C   UNL A   1      33.880  35.438  32.406  1.00  0.00    -0.051 A 
ATOM     19  C   UNL A   1      34.035  34.694  31.235  1.00  0.00     0.007 A 
ATOM     20  C   UNL A   1      34.885  35.391  33.375  1.00  0.00     0.007 A 
ATOM     21  C   UNL A   1      35.193  33.939  31.026  1.00  0.00     0.044 A 
ATOM     22  C   UNL A   1      36.036  34.621  33.169  1.00  0.00     0.044 A 
ENDBRANCH   5  16
BRANCH  14  23
ATOM     23  C   UNL A   1      39.010  28.808  30.194  1.00  0.00     0.018 A 
ATOM     24  C   UNL A   1      40.222  28.324  30.718  1.00  0.00     0.012 A 
ATOM     25  C   UNL A   1      38.608  28.373  28.918  1.00  0.00     0.127 A 
ATOM     26  C   UNL A   1      41.061  27.505  29.961  1.00  0.00     0.001 A 
ATOM     27  C   UNL A   1      39.456  27.545  28.169  1.00  0.00     0.047 A 
ATOM     28  C   UNL A   1      40.686  27.130  28.676  1.00  0.00     0.004 A 
BRANCH  25  29
ATOM     29  O   UNL A   1      37.504  28.818  28.235  1.00  0.00    -0.488 OA
BRANCH  29  30
ATOM     30  C   UNL A   1      37.419  30.226  28.026  1.00  0.00     0.265 C 
BRANCH  30  31
ATOM     31  C   UNL A   1      35.971  30.648  27.878  1.00  0.00    -0.010 A 
ATOM     32  C   UNL A   1      34.998  29.693  27.542  1.00  0.00     0.007 A 
ATOM     33  C   UNL A   1      35.586  31.992  27.996  1.00  0.00     0.017 A 
ATOM     34  C   UNL A   1      33.671  30.069  27.326  1.00  0.00     0.001 A 
ATOM     35  C   UNL A   1      34.260  32.377  27.753  1.00  0.00    -0.002 A 
ATOM     36  C   UNL A   1      33.304  31.411  27.420  1.00  0.00     0.010 A 
BRANCH  35  37
ATOM     37  C   UNL A   1      33.850  33.797  27.785  1.00  0.00     0.071 C 
ATOM     38  O   UNL A   1      34.600  34.761  27.670  1.00  0.00    -0.545 OA
ATOM     39  O   UNL A   1      32.532  33.958  27.976  1.00  0.00    -0.545 OA
ENDBRANCH  35  37
ENDBRANCH  30  31
ENDBRANCH  29  30
ENDBRANCH  25  29
ENDBRANCH  14  23
ENDBRANCH   3   4
ENDBRANCH   2   3
ENDBRANCH   1   2
BRANCH   1  40
ATOM     40  C   UNL A   1      43.845  29.419  27.487  1.00  0.00     0.002 C 
BRANCH  40  41
ATOM     41  C   UNL A   1      44.390  28.135  28.102  1.00  0.00     0.021 C 
BRANCH  41  42
ATOM     42  C   UNL A   1      44.027  26.873  27.351  1.00  0.00     0.116 C 
BRANCH  42  43
ATOM     43  N   UNL A   1      45.128  26.086  26.826  1.00  0.00    -0.352 N 
ATOM     44  C   UNL A   1      46.245  25.669  27.548  1.00  0.00     0.251 C 
ATOM     45  H   UNL A   1      45.082  25.824  25.878  1.00  0.00     0.163 HD
ATOM     46  O   UNL A   1      47.356  25.594  27.036  1.00  0.00    -0.269 OA
BRANCH  44  47
ATOM     47  C   UNL A   1      45.998  25.109  28.904  1.00  0.00     0.039 A 
ATOM     48  C   UNL A   1      44.765  24.490  29.160  1.00  0.00     0.014 A 
ATOM     49  C   UNL A   1      46.809  25.498  29.956  1.00  0.00     0.014 A 
ATOM     50  C   UNL A   1      44.254  24.493  30.454  1.00  0.00     0.010 A 
ATOM     51  C   UNL A   1      46.222  25.720  31.166  1.00  0.00     0.010 A 
ATOM     52  C   UNL A   1      44.941  25.219  31.413  1.00  0.00    -0.014 A 
BRANCH  52  53
ATOM     53  C   UNL A   1      44.562  25.406  32.794  1.00  0.00     0.031 A 
ATOM     54  C   UNL A   1      44.124  26.766  33.160  1.00  0.00     0.074 A 
ATOM     55  C   UNL A   1      44.240  24.302  33.500  1.00  0.00     0.049 A 
ATOM     56  N   UNL A   1      43.771  27.111  34.341  1.00  0.00    -0.248 NA
ATOM     57  C   UNL A   1      44.053  27.873  32.203  1.00  0.00     0.031 C 
ATOM     58  C   UNL A   1      43.304  24.181  34.611  1.00  0.00     0.029 A 
ATOM     59  N   UNL A   1      44.858  23.052  33.440  1.00  0.00    -0.354 N 
ATOM     60  C   UNL A   1      43.149  28.339  34.255  1.00  0.00     0.074 A 
ATOM     61  C   UNL A   1      43.455  28.819  32.933  1.00  0.00     0.031 C 
ATOM     62  C   UNL A   1      43.578  23.053  35.290  1.00  0.00     0.029 A 
ATOM     63  C   UNL A   1      44.819  22.524  34.750  1.00  0.00     0.049 A 
ATOM     64  H   UNL A   1      45.244  22.623  32.643  1.00  0.00     0.167 HD
ATOM     65  C   UNL A   1      42.351  28.709  35.294  1.00  0.00     0.037 A 
ATOM     66  C   UNL A   1      45.990  22.423  35.459  1.00  0.00     0.037 A 
ATOM     67  C   UNL A   1      42.435  27.701  36.352  1.00  0.00     0.049 A 
ATOM     68  C   UNL A   1      46.078  23.356  36.658  1.00  0.00     0.074 A 
ATOM     69  C   UNL A   1      41.648  26.638  36.760  1.00  0.00     0.029 A 
ATOM     70  N   UNL A   1      43.655  27.525  36.964  1.00  0.00    -0.354 N 
ATOM     71  N   UNL A   1      45.190  24.266  36.952  1.00  0.00    -0.248 NA
ATOM     72  C   UNL A   1      47.202  23.373  37.592  1.00  0.00     0.031 C 
ATOM     73  C   UNL A   1      42.436  25.825  37.634  1.00  0.00     0.029 A 
ATOM     74  C   UNL A   1      43.682  26.413  37.768  1.00  0.00     0.049 A 
ATOM     75  H   UNL A   1      44.422  28.131  36.840  1.00  0.00     0.167 HD
ATOM     76  C   UNL A   1      45.623  25.026  38.008  1.00  0.00     0.074 A 
ATOM     77  C   UNL A   1      46.889  24.419  38.380  1.00  0.00     0.031 C 
ATOM     78  C   UNL A   1      44.927  26.116  38.460  1.00  0.00     0.037 A 
BRANCH  65  79
ATOM     79  C   UNL A   1      41.368  29.858  35.363  1.00  0.00     0.058 A 
ATOM     80  C   UNL A   1      41.648  30.943  36.228  1.00  0.00     0.135 A 
ATOM     81  C   UNL A   1      40.139  29.963  34.681  1.00  0.00     0.135 A 
ATOM     82  F   UNL A   1      42.805  31.029  36.898  1.00  0.00    -0.206 F 
ATOM     83  C   UNL A   1      40.758  31.988  36.458  1.00  0.00     0.059 A 
ATOM     84  C   UNL A   1      39.230  31.005  34.894  1.00  0.00     0.059 A 
ATOM     85  F   UNL A   1      39.748  29.075  33.765  1.00  0.00    -0.206 F 
ATOM     86  C   UNL A   1      39.539  32.004  35.802  1.00  0.00     0.060 A 
BRANCH  86  87
ATOM     87  S   UNL A   1      38.391  33.342  36.153  1.00  0.00     0.124 S 
ATOM     88  O   UNL A   1      38.640  33.585  37.571  1.00  0.00    -0.237 OA
ATOM     89  O   UNL A   1      38.843  34.384  35.239  1.00  0.00    -0.237 OA
ATOM     90  O   UNL A   1      37.087  32.762  35.843  1.00  0.00    -0.744 OA
ENDBRANCH  86  87
ENDBRANCH  65  79
BRANCH  66  91
ATOM     91  C   UNL A   1      47.130  22.037  34.562  1.00  0.00     0.058 A 
ATOM     92  C   UNL A   1      48.120  23.017  34.336  1.00  0.00     0.135 A 
ATOM     93  C   UNL A   1      47.518  20.692  34.456  1.00  0.00     0.135 A 
ATOM     94  F   UNL A   1      47.798  24.320  34.387  1.00  0.00    -0.206 F 
ATOM     95  C   UNL A   1      49.469  22.684  34.253  1.00  0.00     0.059 A 
ATOM     96  C   UNL A   1      48.865  20.337  34.352  1.00  0.00     0.059 A 
ATOM     97  F   UNL A   1      46.618  19.714  34.639  1.00  0.00    -0.206 F 
ATOM     98  C   UNL A   1      49.833  21.343  34.353  1.00  0.00     0.060 A 
BRANCH  98  99
ATOM     99  S   UNL A   1      51.571  20.964  34.695  1.00  0.00     0.124 S 
ATOM    100  O   UNL A   1      51.717  19.639  34.101  1.00  0.00    -0.237 OA
ATOM    101  O   UNL A   1      52.254  22.048  33.989  1.00  0.00    -0.237 OA
ATOM    102  O   UNL A   1      51.641  21.010  36.150  1.00  0.00    -0.744 OA
ENDBRANCH  98  99
ENDBRANCH  66  91
BRANCH  78 103
ATOM    103  C   UNL A   1      45.381  27.047  39.566  1.00  0.00     0.058 A 
ATOM    104  C   UNL A   1      46.338  28.052  39.369  1.00  0.00     0.135 A 
ATOM    105  C   UNL A   1      44.942  26.886  40.907  1.00  0.00     0.135 A 
ATOM    106  F   UNL A   1      46.903  28.236  38.165  1.00  0.00    -0.206 F 
ATOM    107  C   UNL A   1      46.769  28.884  40.407  1.00  0.00     0.059 A 
ATOM    108  C   UNL A   1      45.408  27.655  41.966  1.00  0.00     0.059 A 
ATOM    109  F   UNL A   1      44.004  25.997  41.257  1.00  0.00    -0.206 F 
ATOM    110  C   UNL A   1      46.296  28.679  41.702  1.00  0.00     0.060 A 
BRANCH 110 111
ATOM    111  S   UNL A   1      46.846  29.750  43.038  1.00  0.00     0.124 S 
ATOM    112  O   UNL A   1      45.671  29.798  43.903  1.00  0.00    -0.237 OA
ATOM    113  O   UNL A   1      47.985  29.000  43.558  1.00  0.00    -0.237 OA
ATOM    114  O   UNL A   1      47.175  31.002  42.364  1.00  0.00    -0.744 OA
ENDBRANCH 110 111
ENDBRANCH  78 103
ENDBRANCH  52  53
ENDBRANCH  44  47
ENDBRANCH  42  43
ENDBRANCH  41  42
ENDBRANCH  40  41
ENDBRANCH   1  40
TORSDOF 21
ENDMDL
