MODEL 1
REMARK VINA RESULT:     -11.6      0.000      0.000
REMARK SMILES O=C(NCCCCCCNC(=O)c1ccc(-c2c3nc(c(-c4c(F)cc(S(=O)(=O)[O-])cc4F)c4ccc([nH]4)c(-c4c(F)cc(S(=O)(=O)[O-])cc4F)c4nc(c(-c5c(F)cc(S(=O)(=O)[O-])cc5F)c5ccc2[nH]5)C=C4)C=C3)cc1)C1=Cc2cc(Cl)c(Cl)cc2O[C@@H]1C(F)(F)F
REMARK SMILES IDX 7 1 6 2 5 3 4 4 3 5 1 6 2 7 79 9 80 10 90 11 81 12 89 13
REMARK SMILES IDX 82 14 88 15 83 16 87 17 84 18 85 19 86 20 91 21 92 22 93 23
REMARK SMILES IDX 94 24 8 25 9 26 10 27 11 28 12 30 13 31 14 32 78 33 15 34
REMARK SMILES IDX 77 35 16 36 17 37 18 38 71 39 19 40 76 41 70 42 72 43 20 44
REMARK SMILES IDX 75 45 69 46 68 47 21 49 55 50 34 51 54 52 35 53 38 54 53 55
REMARK SMILES IDX 73 56 36 57 37 58 52 60 74 61 39 62 22 63 23 64 32 65 24 66
REMARK SMILES IDX 25 67 31 68 33 69 26 70 27 71 28 72 29 73 30 74 56 75 57 76
REMARK SMILES IDX 66 77 58 78 59 79 65 80 67 81 60 82 61 83 62 84 63 85 64 86
REMARK SMILES IDX 40 87 41 88 50 89 42 90 43 91 49 92 51 93 44 94 45 95 46 96
REMARK SMILES IDX 47 97 48 98
REMARK H PARENT 3 8 10 29 72 48 38 59
REMARK Flexibility Score: inf
ROOT
ATOM      1  C   UNL A   1      31.965  28.545  24.786  1.00  0.00     0.002 C 
ENDROOT
BRANCH   1   2
ATOM      2  C   UNL A   1      30.976  27.374  24.766  1.00  0.00     0.002 C 
BRANCH   2   3
ATOM      3  C   UNL A   1      30.640  26.726  26.107  1.00  0.00     0.021 C 
BRANCH   3   4
ATOM      4  C   UNL A   1      30.093  25.304  26.062  1.00  0.00     0.116 C 
BRANCH   4   5
ATOM      5  N   UNL A   1      30.819  24.332  26.860  1.00  0.00    -0.352 N 
ATOM      6  O   UNL A   1      32.570  23.105  27.552  1.00  0.00    -0.270 OA
ATOM      7  C   UNL A   1      32.074  23.816  26.679  1.00  0.00     0.251 C 
ATOM      8  H   UNL A   1      30.336  23.992  27.650  1.00  0.00     0.163 HD
BRANCH   7   9
ATOM      9  C   UNL A   1      32.913  24.163  25.493  1.00  0.00     0.067 C 
ATOM     10  C   UNL A   1      34.171  24.617  25.628  1.00  0.00     0.025 C 
ATOM     11  C   UNL A   1      32.538  23.379  24.256  1.00  0.00     0.314 C 
ATOM     12  C   UNL A   1      35.167  23.619  25.174  1.00  0.00     0.019 A 
ATOM     13  O   UNL A   1      33.482  22.306  23.990  1.00  0.00    -0.475 OA
ATOM     14  C   UNL A   1      36.463  23.690  25.698  1.00  0.00     0.034 A 
ATOM     15  C   UNL A   1      34.754  22.477  24.473  1.00  0.00     0.129 A 
ATOM     16  C   UNL A   1      37.307  22.580  25.612  1.00  0.00     0.060 A 
ATOM     17  C   UNL A   1      35.613  21.388  24.350  1.00  0.00     0.069 A 
ATOM     18  Cl  UNL A   1      38.815  22.663  26.449  1.00  0.00    -0.083 Cl
ATOM     19  C   UNL A   1      36.876  21.423  24.949  1.00  0.00     0.063 A 
ATOM     20  Cl  UNL A   1      37.817  19.977  24.916  1.00  0.00    -0.083 Cl
BRANCH  11  21
ATOM     21  C   UNL A   1      32.364  24.285  23.027  1.00  0.00     0.429 C 
ATOM     22  F   UNL A   1      31.057  24.551  22.790  1.00  0.00    -0.167 F 
ATOM     23  F   UNL A   1      32.984  25.479  23.192  1.00  0.00    -0.167 F 
ATOM     24  F   UNL A   1      32.870  23.729  21.900  1.00  0.00    -0.167 F 
ENDBRANCH  11  21
ENDBRANCH   7   9
ENDBRANCH   4   5
ENDBRANCH   3   4
ENDBRANCH   2   3
ENDBRANCH   1   2
BRANCH   1  25
ATOM     25  C   UNL A   1      33.428  28.228  25.119  1.00  0.00     0.021 C 
BRANCH  25  26
ATOM     26  C   UNL A   1      33.842  28.346  26.585  1.00  0.00     0.116 C 
BRANCH  26  27
ATOM     27  N   UNL A   1      33.634  29.674  27.133  1.00  0.00    -0.352 N 
ATOM     28  C   UNL A   1      34.459  30.456  27.904  1.00  0.00     0.251 C 
ATOM     29  H   UNL A   1      32.761  30.077  26.919  1.00  0.00     0.163 HD
ATOM     30  O   UNL A   1      34.024  31.510  28.361  1.00  0.00    -0.269 OA
BRANCH  28  31
ATOM     31  C   UNL A   1      35.850  30.042  28.209  1.00  0.00     0.039 A 
ATOM     32  C   UNL A   1      36.809  30.128  27.193  1.00  0.00     0.014 A 
ATOM     33  C   UNL A   1      36.214  29.526  29.456  1.00  0.00     0.014 A 
ATOM     34  C   UNL A   1      38.133  29.750  27.440  1.00  0.00     0.010 A 
ATOM     35  C   UNL A   1      37.548  29.208  29.722  1.00  0.00     0.010 A 
ATOM     36  C   UNL A   1      38.522  29.311  28.716  1.00  0.00    -0.014 A 
BRANCH  36  37
ATOM     37  C   UNL A   1      39.937  28.957  29.007  1.00  0.00     0.031 A 
ATOM     38  C   UNL A   1      40.863  29.968  29.631  1.00  0.00     0.074 A 
ATOM     39  C   UNL A   1      40.404  27.738  28.667  1.00  0.00     0.049 A 
ATOM     40  N   UNL A   1      42.137  29.860  29.911  1.00  0.00    -0.248 NA
ATOM     41  C   UNL A   1      40.288  31.281  29.965  1.00  0.00     0.031 C 
ATOM     42  C   UNL A   1      39.620  26.683  28.021  1.00  0.00     0.029 A 
ATOM     43  N   UNL A   1      41.653  27.183  28.807  1.00  0.00    -0.354 N 
ATOM     44  C   UNL A   1      42.519  31.091  30.432  1.00  0.00     0.074 A 
ATOM     45  C   UNL A   1      41.352  31.945  30.396  1.00  0.00     0.031 C 
ATOM     46  C   UNL A   1      40.398  25.602  27.843  1.00  0.00     0.029 A 
ATOM     47  C   UNL A   1      41.744  25.898  28.324  1.00  0.00     0.049 A 
ATOM     48  H   UNL A   1      42.411  27.660  29.214  1.00  0.00     0.167 HD
ATOM     49  C   UNL A   1      43.728  31.470  30.913  1.00  0.00     0.037 A 
ATOM     50  C   UNL A   1      42.794  25.054  28.270  1.00  0.00     0.037 A 
ATOM     51  C   UNL A   1      44.878  30.605  30.983  1.00  0.00     0.049 A 
ATOM     52  C   UNL A   1      44.126  25.501  28.812  1.00  0.00     0.074 A 
ATOM     53  C   UNL A   1      46.125  30.874  31.524  1.00  0.00     0.029 A 
ATOM     54  N   UNL A   1      44.927  29.307  30.497  1.00  0.00    -0.354 N 
ATOM     55  N   UNL A   1      44.450  26.646  29.365  1.00  0.00    -0.248 NA
ATOM     56  C   UNL A   1      45.236  24.541  28.727  1.00  0.00     0.031 C 
ATOM     57  C   UNL A   1      46.940  29.756  31.324  1.00  0.00     0.029 A 
ATOM     58  C   UNL A   1      46.188  28.772  30.703  1.00  0.00     0.049 A 
ATOM     59  H   UNL A   1      44.176  28.836  30.069  1.00  0.00     0.167 HD
ATOM     60  C   UNL A   1      45.789  26.531  29.722  1.00  0.00     0.074 A 
ATOM     61  C   UNL A   1      46.212  25.202  29.331  1.00  0.00     0.031 C 
ATOM     62  C   UNL A   1      46.594  27.443  30.321  1.00  0.00     0.037 A 
BRANCH  49  63
ATOM     63  C   UNL A   1      43.879  32.883  31.408  1.00  0.00     0.058 A 
ATOM     64  C   UNL A   1      44.283  33.924  30.557  1.00  0.00     0.135 A 
ATOM     65  C   UNL A   1      43.555  33.211  32.735  1.00  0.00     0.135 A 
ATOM     66  F   UNL A   1      44.617  33.665  29.283  1.00  0.00    -0.206 F 
ATOM     67  C   UNL A   1      44.382  35.237  31.010  1.00  0.00     0.059 A 
ATOM     68  C   UNL A   1      43.621  34.521  33.202  1.00  0.00     0.059 A 
ATOM     69  F   UNL A   1      43.162  32.255  33.591  1.00  0.00    -0.206 F 
ATOM     70  C   UNL A   1      44.047  35.526  32.334  1.00  0.00     0.060 A 
BRANCH  70  71
ATOM     71  S   UNL A   1      44.162  37.236  32.900  1.00  0.00     0.124 S 
ATOM     72  O   UNL A   1      45.508  37.267  33.463  1.00  0.00    -0.237 OA
ATOM     73  O   UNL A   1      43.975  37.988  31.663  1.00  0.00    -0.237 OA
ATOM     74  O   UNL A   1      43.074  37.349  33.868  1.00  0.00    -0.744 OA
ENDBRANCH  70  71
ENDBRANCH  49  63
BRANCH  50  75
ATOM     75  C   UNL A   1      42.631  23.691  27.698  1.00  0.00     0.058 A 
ATOM     76  C   UNL A   1      42.411  22.583  28.530  1.00  0.00     0.135 A 
ATOM     77  C   UNL A   1      42.702  23.464  26.314  1.00  0.00     0.135 A 
ATOM     78  F   UNL A   1      42.343  22.747  29.860  1.00  0.00    -0.206 F 
ATOM     79  C   UNL A   1      42.291  21.296  28.015  1.00  0.00     0.059 A 
ATOM     80  C   UNL A   1      42.558  22.190  25.774  1.00  0.00     0.059 A 
ATOM     81  F   UNL A   1      42.897  24.492  25.473  1.00  0.00    -0.206 F 
ATOM     82  C   UNL A   1      42.368  21.110  26.635  1.00  0.00     0.060 A 
BRANCH  82  83
ATOM     83  S   UNL A   1      42.185  19.439  25.974  1.00  0.00     0.124 S 
ATOM     84  O   UNL A   1      42.995  19.511  24.764  1.00  0.00    -0.237 OA
ATOM     85  O   UNL A   1      42.724  18.619  27.055  1.00  0.00    -0.237 OA
ATOM     86  O   UNL A   1      40.745  19.317  25.764  1.00  0.00    -0.744 OA
ENDBRANCH  82  83
ENDBRANCH  50  75
BRANCH  62  87
ATOM     87  C   UNL A   1      48.004  27.025  30.631  1.00  0.00     0.058 A 
ATOM     88  C   UNL A   1      49.057  27.252  29.732  1.00  0.00     0.135 A 
ATOM     89  C   UNL A   1      48.314  26.436  31.867  1.00  0.00     0.135 A 
ATOM     90  F   UNL A   1      48.815  27.806  28.533  1.00  0.00    -0.206 F 
ATOM     91  C   UNL A   1      50.365  26.889  30.037  1.00  0.00     0.059 A 
ATOM     92  C   UNL A   1      49.619  26.090  32.207  1.00  0.00     0.059 A 
ATOM     93  F   UNL A   1      47.346  26.207  32.769  1.00  0.00    -0.206 F 
ATOM     94  C   UNL A   1      50.637  26.310  31.279  1.00  0.00     0.060 A 
BRANCH  94  95
ATOM     95  S   UNL A   1      52.343  25.876  31.679  1.00  0.00     0.124 S 
ATOM     96  O   UNL A   1      52.197  24.496  32.129  1.00  0.00    -0.237 OA
ATOM     97  O   UNL A   1      53.020  26.057  30.399  1.00  0.00    -0.237 OA
ATOM     98  O   UNL A   1      52.705  26.840  32.715  1.00  0.00    -0.744 OA
ENDBRANCH  94  95
ENDBRANCH  62  87
ENDBRANCH  36  37
ENDBRANCH  28  31
ENDBRANCH  26  27
ENDBRANCH  25  26
ENDBRANCH   1  25
TORSDOF 17
ENDMDL
MODEL 2
REMARK VINA RESULT:     -11.5      4.985     10.351
REMARK SMILES O=C(NCCCCCCNC(=O)c1ccc(-c2c3nc(c(-c4c(F)cc(S(=O)(=O)[O-])cc4F)c4ccc([nH]4)c(-c4c(F)cc(S(=O)(=O)[O-])cc4F)c4nc(c(-c5c(F)cc(S(=O)(=O)[O-])cc5F)c5ccc2[nH]5)C=C4)C=C3)cc1)C1=Cc2cc(Cl)c(Cl)cc2O[C@@H]1C(F)(F)F
REMARK SMILES IDX 7 1 6 2 5 3 4 4 3 5 1 6 2 7 79 9 80 10 90 11 81 12 89 13
REMARK SMILES IDX 82 14 88 15 83 16 87 17 84 18 85 19 86 20 91 21 92 22 93 23
REMARK SMILES IDX 94 24 8 25 9 26 10 27 11 28 12 30 13 31 14 32 78 33 15 34
REMARK SMILES IDX 77 35 16 36 17 37 18 38 71 39 19 40 76 41 70 42 72 43 20 44
REMARK SMILES IDX 75 45 69 46 68 47 21 49 55 50 34 51 54 52 35 53 38 54 53 55
REMARK SMILES IDX 73 56 36 57 37 58 52 60 74 61 39 62 22 63 23 64 32 65 24 66
REMARK SMILES IDX 25 67 31 68 33 69 26 70 27 71 28 72 29 73 30 74 56 75 57 76
REMARK SMILES IDX 66 77 58 78 59 79 65 80 67 81 60 82 61 83 62 84 63 85 64 86
REMARK SMILES IDX 40 87 41 88 50 89 42 90 43 91 49 92 51 93 44 94 45 95 46 96
REMARK SMILES IDX 47 97 48 98
REMARK H PARENT 3 8 10 29 72 48 38 59
REMARK Flexibility Score: inf
ROOT
ATOM      1  C   UNL A   1      40.177  21.317  26.362  1.00  0.00     0.002 C 
ENDROOT
BRANCH   1   2
ATOM      2  C   UNL A   1      38.788  21.632  25.792  1.00  0.00     0.002 C 
BRANCH   2   3
ATOM      3  C   UNL A   1      38.164  22.968  26.187  1.00  0.00     0.021 C 
BRANCH   3   4
ATOM      4  C   UNL A   1      36.708  23.187  25.789  1.00  0.00     0.116 C 
BRANCH   4   5
ATOM      5  N   UNL A   1      35.724  22.748  26.763  1.00  0.00    -0.352 N 
ATOM      6  O   UNL A   1      34.013  21.550  27.592  1.00  0.00    -0.270 OA
ATOM      7  C   UNL A   1      34.648  21.916  26.604  1.00  0.00     0.251 C 
ATOM      8  H   UNL A   1      35.849  23.103  27.674  1.00  0.00     0.163 HD
BRANCH   7   9
ATOM      9  C   UNL A   1      34.269  21.353  25.274  1.00  0.00     0.067 C 
ATOM     10  C   UNL A   1      34.997  20.389  24.684  1.00  0.00     0.025 C 
ATOM     11  C   UNL A   1      32.784  21.430  25.002  1.00  0.00     0.314 C 
ATOM     12  C   UNL A   1      34.279  19.093  24.665  1.00  0.00     0.019 A 
ATOM     13  O   UNL A   1      32.135  20.142  25.180  1.00  0.00    -0.475 OA
ATOM     14  C   UNL A   1      35.035  17.918  24.579  1.00  0.00     0.034 A 
ATOM     15  C   UNL A   1      32.922  19.032  25.010  1.00  0.00     0.129 A 
ATOM     16  C   UNL A   1      34.460  16.696  24.942  1.00  0.00     0.060 A 
ATOM     17  C   UNL A   1      32.339  17.807  25.328  1.00  0.00     0.069 A 
ATOM     18  Cl  UNL A   1      35.499  15.318  25.003  1.00  0.00    -0.083 Cl
ATOM     19  C   UNL A   1      33.115  16.644  25.329  1.00  0.00     0.063 A 
ATOM     20  Cl  UNL A   1      32.379  15.194  25.907  1.00  0.00    -0.083 Cl
BRANCH  11  21
ATOM     21  C   UNL A   1      32.479  22.020  23.616  1.00  0.00     0.429 C 
ATOM     22  F   UNL A   1      31.345  22.761  23.633  1.00  0.00    -0.167 F 
ATOM     23  F   UNL A   1      33.474  22.835  23.188  1.00  0.00    -0.167 F 
ATOM     24  F   UNL A   1      32.318  21.063  22.671  1.00  0.00    -0.167 F 
ENDBRANCH  11  21
ENDBRANCH   7   9
ENDBRANCH   4   5
ENDBRANCH   3   4
ENDBRANCH   2   3
ENDBRANCH   1   2
BRANCH   1  25
ATOM     25  C   UNL A   1      40.623  22.097  27.604  1.00  0.00     0.021 C 
BRANCH  25  26
ATOM     26  C   UNL A   1      41.875  22.960  27.462  1.00  0.00     0.116 C 
BRANCH  26  27
ATOM     27  N   UNL A   1      41.867  23.789  26.271  1.00  0.00    -0.352 N 
ATOM     28  C   UNL A   1      41.620  25.132  26.124  1.00  0.00     0.251 C 
ATOM     29  H   UNL A   1      42.071  23.311  25.433  1.00  0.00     0.163 HD
ATOM     30  O   UNL A   1      41.548  25.604  24.992  1.00  0.00    -0.269 OA
BRANCH  28  31
ATOM     31  C   UNL A   1      41.418  26.012  27.302  1.00  0.00     0.039 A 
ATOM     32  C   UNL A   1      42.373  27.002  27.564  1.00  0.00     0.014 A 
ATOM     33  C   UNL A   1      40.340  25.847  28.175  1.00  0.00     0.014 A 
ATOM     34  C   UNL A   1      42.219  27.855  28.662  1.00  0.00     0.010 A 
ATOM     35  C   UNL A   1      40.153  26.739  29.234  1.00  0.00     0.010 A 
ATOM     36  C   UNL A   1      41.093  27.749  29.493  1.00  0.00    -0.014 A 
BRANCH  36  37
ATOM     37  C   UNL A   1      40.889  28.683  30.633  1.00  0.00     0.031 A 
ATOM     38  C   UNL A   1      41.744  28.576  31.869  1.00  0.00     0.074 A 
ATOM     39  C   UNL A   1      39.901  29.600  30.577  1.00  0.00     0.049 A 
ATOM     40  N   UNL A   1      41.681  29.265  32.980  1.00  0.00    -0.248 NA
ATOM     41  C   UNL A   1      42.794  27.545  31.865  1.00  0.00     0.031 C 
ATOM     42  C   UNL A   1      38.978  29.780  29.454  1.00  0.00     0.029 A 
ATOM     43  N   UNL A   1      39.500  30.547  31.488  1.00  0.00    -0.354 N 
ATOM     44  C   UNL A   1      42.664  28.740  33.811  1.00  0.00     0.074 A 
ATOM     45  C   UNL A   1      43.286  27.650  33.092  1.00  0.00     0.031 C 
ATOM     46  C   UNL A   1      38.136  30.789  29.733  1.00  0.00     0.029 A 
ATOM     47  C   UNL A   1      38.432  31.303  31.067  1.00  0.00     0.049 A 
ATOM     48  H   UNL A   1      39.937  30.672  32.361  1.00  0.00     0.167 HD
ATOM     49  C   UNL A   1      43.028  29.141  35.054  1.00  0.00     0.037 A 
ATOM     50  C   UNL A   1      37.761  32.294  31.685  1.00  0.00     0.037 A 
ATOM     51  C   UNL A   1      42.431  30.252  35.751  1.00  0.00     0.049 A 
ATOM     52  C   UNL A   1      38.186  32.721  33.066  1.00  0.00     0.074 A 
ATOM     53  C   UNL A   1      42.783  30.783  36.981  1.00  0.00     0.029 A 
ATOM     54  N   UNL A   1      41.362  31.002  35.286  1.00  0.00    -0.354 N 
ATOM     55  N   UNL A   1      39.164  32.258  33.808  1.00  0.00    -0.248 NA
ATOM     56  C   UNL A   1      37.419  33.807  33.693  1.00  0.00     0.031 C 
ATOM     57  C   UNL A   1      41.897  31.823  37.280  1.00  0.00     0.029 A 
ATOM     58  C   UNL A   1      41.024  31.973  36.214  1.00  0.00     0.049 A 
ATOM     59  H   UNL A   1      40.909  30.863  34.422  1.00  0.00     0.167 HD
ATOM     60  C   UNL A   1      39.150  33.017  34.973  1.00  0.00     0.074 A 
ATOM     61  C   UNL A   1      38.072  33.975  34.834  1.00  0.00     0.031 C 
ATOM     62  C   UNL A   1      39.958  32.930  36.059  1.00  0.00     0.037 A 
BRANCH  49  63
ATOM     63  C   UNL A   1      44.124  28.380  35.748  1.00  0.00     0.058 A 
ATOM     64  C   UNL A   1      43.848  27.294  36.593  1.00  0.00     0.135 A 
ATOM     65  C   UNL A   1      45.472  28.703  35.516  1.00  0.00     0.135 A 
ATOM     66  F   UNL A   1      42.579  26.950  36.859  1.00  0.00    -0.206 F 
ATOM     67  C   UNL A   1      44.869  26.568  37.201  1.00  0.00     0.059 A 
ATOM     68  C   UNL A   1      46.508  27.975  36.092  1.00  0.00     0.059 A 
ATOM     69  F   UNL A   1      45.792  29.732  34.716  1.00  0.00    -0.206 F 
ATOM     70  C   UNL A   1      46.196  26.915  36.943  1.00  0.00     0.060 A 
BRANCH  70  71
ATOM     71  S   UNL A   1      47.507  25.950  37.724  1.00  0.00     0.124 S 
ATOM     72  O   UNL A   1      48.699  26.542  37.125  1.00  0.00    -0.237 OA
ATOM     73  O   UNL A   1      47.303  26.234  39.140  1.00  0.00    -0.237 OA
ATOM     74  O   UNL A   1      47.213  24.580  37.313  1.00  0.00    -0.744 OA
ENDBRANCH  70  71
ENDBRANCH  49  63
BRANCH  50  75
ATOM     75  C   UNL A   1      36.626  32.972  31.002  1.00  0.00     0.058 A 
ATOM     76  C   UNL A   1      36.850  33.838  29.922  1.00  0.00     0.135 A 
ATOM     77  C   UNL A   1      35.300  32.778  31.419  1.00  0.00     0.135 A 
ATOM     78  F   UNL A   1      38.101  34.063  29.491  1.00  0.00    -0.206 F 
ATOM     79  C   UNL A   1      35.805  34.508  29.294  1.00  0.00     0.059 A 
ATOM     80  C   UNL A   1      34.235  33.415  30.789  1.00  0.00     0.059 A 
ATOM     81  F   UNL A   1      35.030  31.948  32.439  1.00  0.00    -0.206 F 
ATOM     82  C   UNL A   1      34.499  34.290  29.737  1.00  0.00     0.060 A 
BRANCH  82  83
ATOM     83  S   UNL A   1      33.146  35.142  28.898  1.00  0.00     0.124 S 
ATOM     84  O   UNL A   1      32.204  35.345  29.992  1.00  0.00    -0.237 OA
ATOM     85  O   UNL A   1      33.805  36.343  28.392  1.00  0.00    -0.237 OA
ATOM     86  O   UNL A   1      32.731  34.187  27.875  1.00  0.00    -0.744 OA
ENDBRANCH  82  83
ENDBRANCH  50  75
BRANCH  62  87
ATOM     87  C   UNL A   1      39.738  33.921  37.167  1.00  0.00     0.058 A 
ATOM     88  C   UNL A   1      38.965  33.607  38.296  1.00  0.00     0.135 A 
ATOM     89  C   UNL A   1      40.354  35.182  37.124  1.00  0.00     0.135 A 
ATOM     90  F   UNL A   1      38.348  32.418  38.384  1.00  0.00    -0.206 F 
ATOM     91  C   UNL A   1      38.790  34.519  39.332  1.00  0.00     0.059 A 
ATOM     92  C   UNL A   1      40.216  36.099  38.162  1.00  0.00     0.059 A 
ATOM     93  F   UNL A   1      41.114  35.527  36.073  1.00  0.00    -0.206 F 
ATOM     94  C   UNL A   1      39.422  35.763  39.257  1.00  0.00     0.060 A 
BRANCH  94  95
ATOM     95  S   UNL A   1      39.218  36.924  40.624  1.00  0.00     0.124 S 
ATOM     96  O   UNL A   1      38.539  36.095  41.614  1.00  0.00    -0.237 OA
ATOM     97  O   UNL A   1      40.597  37.283  40.938  1.00  0.00    -0.237 OA
ATOM     98  O   UNL A   1      38.414  37.996  40.043  1.00  0.00    -0.744 OA
ENDBRANCH  94  95
ENDBRANCH  62  87
ENDBRANCH  36  37
ENDBRANCH  28  31
ENDBRANCH  26  27
ENDBRANCH  25  26
ENDBRANCH   1  25
TORSDOF 17
ENDMDL
MODEL 3
REMARK VINA RESULT:     -11.4      5.152      9.816
REMARK SMILES O=C(NCCCCCCNC(=O)c1ccc(-c2c3nc(c(-c4c(F)cc(S(=O)(=O)[O-])cc4F)c4ccc([nH]4)c(-c4c(F)cc(S(=O)(=O)[O-])cc4F)c4nc(c(-c5c(F)cc(S(=O)(=O)[O-])cc5F)c5ccc2[nH]5)C=C4)C=C3)cc1)C1=Cc2cc(Cl)c(Cl)cc2O[C@@H]1C(F)(F)F
REMARK SMILES IDX 7 1 6 2 5 3 4 4 3 5 1 6 2 7 79 9 80 10 90 11 81 12 89 13
REMARK SMILES IDX 82 14 88 15 83 16 87 17 84 18 85 19 86 20 91 21 92 22 93 23
REMARK SMILES IDX 94 24 8 25 9 26 10 27 11 28 12 30 13 31 14 32 78 33 15 34
REMARK SMILES IDX 77 35 16 36 17 37 18 38 71 39 19 40 76 41 70 42 72 43 20 44
REMARK SMILES IDX 75 45 69 46 68 47 21 49 55 50 34 51 54 52 35 53 38 54 53 55
REMARK SMILES IDX 73 56 36 57 37 58 52 60 74 61 39 62 22 63 23 64 32 65 24 66
REMARK SMILES IDX 25 67 31 68 33 69 26 70 27 71 28 72 29 73 30 74 56 75 57 76
REMARK SMILES IDX 66 77 58 78 59 79 65 80 67 81 60 82 61 83 62 84 63 85 64 86
REMARK SMILES IDX 40 87 41 88 50 89 42 90 43 91 49 92 51 93 44 94 45 95 46 96
REMARK SMILES IDX 47 97 48 98
REMARK H PARENT 3 8 10 29 72 48 38 59
REMARK Flexibility Score: inf
ROOT
ATOM      1  C   UNL A   1      39.967  21.520  26.509  1.00  0.00     0.002 C 
ENDROOT
BRANCH   1   2
ATOM      2  C   UNL A   1      38.690  21.919  25.759  1.00  0.00     0.002 C 
BRANCH   2   3
ATOM      3  C   UNL A   1      37.977  23.185  26.229  1.00  0.00     0.021 C 
BRANCH   3   4
ATOM      4  C   UNL A   1      36.513  23.335  25.826  1.00  0.00     0.116 C 
BRANCH   4   5
ATOM      5  N   UNL A   1      35.549  22.819  26.781  1.00  0.00    -0.352 N 
ATOM      6  O   UNL A   1      33.914  21.495  27.574  1.00  0.00    -0.270 OA
ATOM      7  C   UNL A   1      34.537  21.915  26.599  1.00  0.00     0.251 C 
ATOM      8  H   UNL A   1      35.636  23.172  27.697  1.00  0.00     0.163 HD
BRANCH   7   9
ATOM      9  C   UNL A   1      34.217  21.340  25.258  1.00  0.00     0.067 C 
ATOM     10  C   UNL A   1      34.976  20.377  24.705  1.00  0.00     0.025 C 
ATOM     11  C   UNL A   1      32.743  21.404  24.925  1.00  0.00     0.314 C 
ATOM     12  C   UNL A   1      34.269  19.076  24.666  1.00  0.00     0.019 A 
ATOM     13  O   UNL A   1      32.097  20.111  25.085  1.00  0.00    -0.475 OA
ATOM     14  C   UNL A   1      35.036  17.906  24.619  1.00  0.00     0.034 A 
ATOM     15  C   UNL A   1      32.899  19.006  24.955  1.00  0.00     0.129 A 
ATOM     16  C   UNL A   1      34.456  16.683  24.966  1.00  0.00     0.060 A 
ATOM     17  C   UNL A   1      32.313  17.780  25.258  1.00  0.00     0.069 A 
ATOM     18  Cl  UNL A   1      35.502  15.313  25.080  1.00  0.00    -0.083 Cl
ATOM     19  C   UNL A   1      33.097  16.622  25.298  1.00  0.00     0.063 A 
ATOM     20  Cl  UNL A   1      32.349  15.170  25.856  1.00  0.00    -0.083 Cl
BRANCH  11  21
ATOM     21  C   UNL A   1      32.492  21.982  23.524  1.00  0.00     0.429 C 
ATOM     22  F   UNL A   1      32.326  20.999  22.606  1.00  0.00    -0.167 F 
ATOM     23  F   UNL A   1      31.372  22.745  23.489  1.00  0.00    -0.167 F 
ATOM     24  F   UNL A   1      33.514  22.761  23.095  1.00  0.00    -0.167 F 
ENDBRANCH  11  21
ENDBRANCH   7   9
ENDBRANCH   4   5
ENDBRANCH   3   4
ENDBRANCH   2   3
ENDBRANCH   1   2
BRANCH   1  25
ATOM     25  C   UNL A   1      40.441  22.446  27.635  1.00  0.00     0.021 C 
BRANCH  25  26
ATOM     26  C   UNL A   1      41.730  23.228  27.387  1.00  0.00     0.116 C 
BRANCH  26  27
ATOM     27  N   UNL A   1      41.652  24.110  26.237  1.00  0.00    -0.352 N 
ATOM     28  C   UNL A   1      41.361  25.451  26.164  1.00  0.00     0.251 C 
ATOM     29  H   UNL A   1      41.837  23.678  25.372  1.00  0.00     0.163 HD
ATOM     30  O   UNL A   1      41.231  25.973  25.060  1.00  0.00    -0.269 OA
BRANCH  28  31
ATOM     31  C   UNL A   1      41.179  26.269  27.389  1.00  0.00     0.039 A 
ATOM     32  C   UNL A   1      42.139  27.243  27.686  1.00  0.00     0.014 A 
ATOM     33  C   UNL A   1      40.114  26.059  28.270  1.00  0.00     0.014 A 
ATOM     34  C   UNL A   1      42.003  28.038  28.829  1.00  0.00     0.010 A 
ATOM     35  C   UNL A   1      39.946  26.895  29.376  1.00  0.00     0.010 A 
ATOM     36  C   UNL A   1      40.891  27.890  29.672  1.00  0.00    -0.014 A 
BRANCH  36  37
ATOM     37  C   UNL A   1      40.707  28.764  30.862  1.00  0.00     0.031 A 
ATOM     38  C   UNL A   1      39.649  29.836  30.864  1.00  0.00     0.074 A 
ATOM     39  C   UNL A   1      41.525  28.626  31.926  1.00  0.00     0.049 A 
ATOM     40  N   UNL A   1      39.375  30.726  31.785  1.00  0.00    -0.248 NA
ATOM     41  C   UNL A   1      38.802  29.938  29.665  1.00  0.00     0.031 C 
ATOM     42  C   UNL A   1      42.614  27.652  32.033  1.00  0.00     0.029 A 
ATOM     43  N   UNL A   1      41.575  29.309  33.116  1.00  0.00    -0.354 N 
ATOM     44  C   UNL A   1      38.342  31.502  31.270  1.00  0.00     0.074 A 
ATOM     45  C   UNL A   1      38.063  31.004  29.941  1.00  0.00     0.031 C 
ATOM     46  C   UNL A   1      43.208  27.785  33.231  1.00  0.00     0.029 A 
ATOM     47  C   UNL A   1      42.570  28.876  33.961  1.00  0.00     0.049 A 
ATOM     48  H   UNL A   1      40.957  30.040  33.343  1.00  0.00     0.167 HD
ATOM     49  C   UNL A   1      37.675  32.524  31.859  1.00  0.00     0.037 A 
ATOM     50  C   UNL A   1      42.933  29.311  35.184  1.00  0.00     0.037 A 
ATOM     51  C   UNL A   1      37.932  32.992  33.197  1.00  0.00     0.049 A 
ATOM     52  C   UNL A   1      42.175  30.449  35.815  1.00  0.00     0.074 A 
ATOM     53  C   UNL A   1      37.257  33.971  33.909  1.00  0.00     0.029 A 
ATOM     54  N   UNL A   1      38.937  32.520  34.026  1.00  0.00    -0.354 N 
ATOM     55  N   UNL A   1      41.155  31.125  35.341  1.00  0.00    -0.248 NA
ATOM     56  C   UNL A   1      42.614  30.883  37.149  1.00  0.00     0.031 C 
ATOM     57  C   UNL A   1      37.886  34.122  35.149  1.00  0.00     0.029 A 
ATOM     58  C   UNL A   1      38.919  33.203  35.231  1.00  0.00     0.049 A 
ATOM     59  H   UNL A   1      39.572  31.803  33.792  1.00  0.00     0.167 HD
ATOM     60  C   UNL A   1      40.811  32.040  36.330  1.00  0.00     0.074 A 
ATOM     61  C   UNL A   1      41.726  31.825  37.433  1.00  0.00     0.031 C 
ATOM     62  C   UNL A   1      39.826  32.971  36.327  1.00  0.00     0.037 A 
BRANCH  49  63
ATOM     63  C   UNL A   1      36.599  33.214  31.065  1.00  0.00     0.058 A 
ATOM     64  C   UNL A   1      36.905  34.088  30.010  1.00  0.00     0.135 A 
ATOM     65  C   UNL A   1      35.244  32.949  31.323  1.00  0.00     0.135 A 
ATOM     66  F   UNL A   1      38.182  34.387  29.728  1.00  0.00    -0.206 F 
ATOM     67  C   UNL A   1      35.905  34.692  29.254  1.00  0.00     0.059 A 
ATOM     68  C   UNL A   1      34.228  33.520  30.563  1.00  0.00     0.059 A 
ATOM     69  F   UNL A   1      34.895  32.120  32.320  1.00  0.00    -0.206 F 
ATOM     70  C   UNL A   1      34.569  34.401  29.536  1.00  0.00     0.060 A 
BRANCH  70  71
ATOM     71  S   UNL A   1      33.285  35.177  28.532  1.00  0.00     0.124 S 
ATOM     72  O   UNL A   1      32.518  35.895  29.545  1.00  0.00    -0.237 OA
ATOM     73  O   UNL A   1      34.062  36.008  27.619  1.00  0.00    -0.237 OA
ATOM     74  O   UNL A   1      32.603  34.043  27.915  1.00  0.00    -0.744 OA
ENDBRANCH  70  71
ENDBRANCH  49  63
BRANCH  50  75
ATOM     75  C   UNL A   1      44.058  28.660  35.908  1.00  0.00     0.058 A 
ATOM     76  C   UNL A   1      43.826  27.585  36.779  1.00  0.00     0.135 A 
ATOM     77  C   UNL A   1      45.381  29.103  35.755  1.00  0.00     0.135 A 
ATOM     78  F   UNL A   1      42.578  27.130  36.966  1.00  0.00    -0.206 F 
ATOM     79  C   UNL A   1      44.861  26.987  37.492  1.00  0.00     0.059 A 
ATOM     80  C   UNL A   1      46.436  28.503  36.436  1.00  0.00     0.059 A 
ATOM     81  F   UNL A   1      45.658  30.119  34.923  1.00  0.00    -0.206 F 
ATOM     82  C   UNL A   1      46.163  27.455  37.314  1.00  0.00     0.060 A 
BRANCH  82  83
ATOM     83  S   UNL A   1      47.504  26.655  38.223  1.00  0.00     0.124 S 
ATOM     84  O   UNL A   1      46.850  25.442  38.701  1.00  0.00    -0.237 OA
ATOM     85  O   UNL A   1      48.512  26.469  37.183  1.00  0.00    -0.237 OA
ATOM     86  O   UNL A   1      47.845  27.635  39.249  1.00  0.00    -0.744 OA
ENDBRANCH  82  83
ENDBRANCH  50  75
BRANCH  62  87
ATOM     87  C   UNL A   1      39.655  33.804  37.566  1.00  0.00     0.058 A 
ATOM     88  C   UNL A   1      38.829  33.392  38.624  1.00  0.00     0.135 A 
ATOM     89  C   UNL A   1      40.368  35.003  37.720  1.00  0.00     0.135 A 
ATOM     90  F   UNL A   1      38.120  32.257  38.526  1.00  0.00    -0.206 F 
ATOM     91  C   UNL A   1      38.697  34.154  39.781  1.00  0.00     0.059 A 
ATOM     92  C   UNL A   1      40.273  35.767  38.879  1.00  0.00     0.059 A 
ATOM     93  F   UNL A   1      41.180  35.436  36.743  1.00  0.00    -0.206 F 
ATOM     94  C   UNL A   1      39.426  35.339  39.901  1.00  0.00     0.060 A 
BRANCH  94  95
ATOM     95  S   UNL A   1      39.276  36.301  41.422  1.00  0.00     0.124 S 
ATOM     96  O   UNL A   1      39.147  37.657  40.900  1.00  0.00    -0.237 OA
ATOM     97  O   UNL A   1      38.073  35.739  42.029  1.00  0.00    -0.237 OA
ATOM     98  O   UNL A   1      40.520  36.014  42.129  1.00  0.00    -0.744 OA
ENDBRANCH  94  95
ENDBRANCH  62  87
ENDBRANCH  36  37
ENDBRANCH  28  31
ENDBRANCH  26  27
ENDBRANCH  25  26
ENDBRANCH   1  25
TORSDOF 17
ENDMDL
