MODEL 1
REMARK VINA RESULT:     -13.1      0.000      0.000
REMARK SMILES NC(=O)c1cc(NC(=O)/C=C\C(=O)NCCCCCCNC(=O)c2ccc(-c3c4nc(c(-c5c(F)cc(S(=O)(=O)[O-])cc5F)c5ccc([nH]5)c(-c5c(F)cc(S(=O)(=O)[O-])cc5F)c5nc(c(-c6c(F)cc(S(=O)(=O)[O-])cc6F)c6ccc3[nH]6)C=C5)C=C4)cc2)ccc1N1CCOCC1
REMARK SMILES IDX 17 1 16 2 15 3 14 4 12 5 13 6 11 8 10 9 8 10 7 11 9 13 6 14
REMARK SMILES IDX 4 15 5 16 92 17 91 18 90 19 2 20 1 21 3 24 93 25 94 26 98 27
REMARK SMILES IDX 95 28 97 29 96 30 18 31 19 32 20 33 21 34 22 35 23 37 24 38
REMARK SMILES IDX 25 39 89 40 26 41 88 42 27 43 28 44 29 45 82 46 30 47 87 48
REMARK SMILES IDX 81 49 83 50 31 51 86 52 80 53 79 54 32 56 66 57 45 58 65 59
REMARK SMILES IDX 46 60 49 61 64 62 84 63 47 64 48 65 63 67 85 68 50 69 33 70
REMARK SMILES IDX 34 71 43 72 35 73 36 74 42 75 44 76 37 77 38 78 39 79 40 80
REMARK SMILES IDX 41 81 67 82 68 83 77 84 69 85 70 86 76 87 78 88 71 89 72 90
REMARK SMILES IDX 73 91 74 92 75 93 51 94 52 95 61 96 53 97 54 98 60 99 62 100
REMARK SMILES IDX 55 101 56 102 57 103 58 104 59 105
REMARK H PARENT 14 7 7 12 1 22 1 23 21 36 83 55 49 66
REMARK Flexibility Score: inf
ROOT
ATOM      1  C   UNL A   1      37.325  21.677  25.729  1.00  0.00     0.002 C 
ENDROOT
BRANCH   1   2
ATOM      2  C   UNL A   1      36.829  20.764  24.614  1.00  0.00     0.021 C 
BRANCH   2   3
ATOM      3  C   UNL A   1      36.784  19.248  24.970  1.00  0.00     0.116 C 
BRANCH   3   4
ATOM      4  N   UNL A   1      35.330  18.415  24.697  1.00  0.00    -0.353 N 
ATOM      5  C   UNL A   1      33.374  18.630  24.700  1.00  0.00     0.244 C 
ATOM      6  O   UNL A   1      32.450  17.765  24.622  1.00  0.00    -0.270 OA
ATOM      7  H   UNL A   1      35.543  17.487  24.447  1.00  0.00     0.163 HD
BRANCH   5   8
ATOM      8  C   UNL A   1      32.421  20.074  24.623  1.00  0.00     0.077 C 
ATOM      9  C   UNL A   1      32.387  21.308  25.170  1.00  0.00     0.077 C 
BRANCH   9  10
ATOM     10  C   UNL A   1      33.274  21.825  26.246  1.00  0.00     0.248 C 
ATOM     11  N   UNL A   1      33.509  23.159  26.190  1.00  0.00    -0.322 N 
ATOM     12  H   UNL A   1      34.283  23.555  26.650  1.00  0.00     0.170 HD
ATOM     13  O   UNL A   1      33.848  21.069  27.016  1.00  0.00    -0.270 OA
BRANCH  11  14
ATOM     14  C   UNL A   1      32.633  23.949  25.469  1.00  0.00     0.042 A 
ATOM     15  C   UNL A   1      32.176  25.697  22.863  1.00  0.00     0.064 A 
ATOM     16  C   UNL A   1      32.956  24.255  23.663  1.00  0.00     0.042 A 
ATOM     17  C   UNL A   1      31.026  26.780  23.782  1.00  0.00     0.050 A 
ATOM     18  C   UNL A   1      30.652  26.390  25.545  1.00  0.00     0.029 A 
ATOM     19  C   UNL A   1      31.476  25.011  26.391  1.00  0.00     0.028 A 
BRANCH  15  20
ATOM     20  C   UNL A   1      33.072  26.252  21.831  1.00  0.00     0.250 C 
ATOM     21  N   UNL A   1      33.828  27.295  22.281  1.00  0.00    -0.366 N 
ATOM     22  H   UNL A   1      34.463  27.742  21.675  1.00  0.00     0.159 HD
ATOM     23  H   UNL A   1      33.740  27.603  23.213  1.00  0.00     0.159 HD
ATOM     24  O   UNL A   1      33.237  25.724  20.745  1.00  0.00    -0.269 OA
ENDBRANCH  15  20
BRANCH  17  25
ATOM     25  N   UNL A   1      30.577  28.013  23.287  1.00  0.00    -0.366 N 
ATOM     26  C   UNL A   1      31.173  29.340  23.545  1.00  0.00     0.145 C 
ATOM     27  C   UNL A   1      29.307  28.099  22.545  1.00  0.00     0.145 C 
ATOM     28  C   UNL A   1      30.121  30.316  24.138  1.00  0.00     0.181 C 
ATOM     29  C   UNL A   1      28.345  29.064  23.250  1.00  0.00     0.181 C 
ATOM     30  O   UNL A   1      28.919  30.374  23.350  1.00  0.00    -0.378 OA
ENDBRANCH  17  25
ENDBRANCH  11  14
ENDBRANCH   9  10
ENDBRANCH   5   8
ENDBRANCH   3   4
ENDBRANCH   2   3
ENDBRANCH   1   2
BRANCH   1  31
ATOM     31  C   UNL A   1      36.817  23.106  25.564  1.00  0.00     0.002 C 
BRANCH  31  32
ATOM     32  C   UNL A   1      37.849  24.187  25.912  1.00  0.00     0.021 C 
BRANCH  32  33
ATOM     33  C   UNL A   1      38.933  23.720  26.876  1.00  0.00     0.116 C 
BRANCH  33  34
ATOM     34  N   UNL A   1      40.248  23.893  26.278  1.00  0.00    -0.352 N 
ATOM     35  C   UNL A   1      41.015  25.033  26.296  1.00  0.00     0.251 C 
ATOM     36  H   UNL A   1      40.628  23.114  25.813  1.00  0.00     0.163 HD
ATOM     37  O   UNL A   1      41.883  25.226  25.454  1.00  0.00    -0.269 OA
BRANCH  35  38
ATOM     38  C   UNL A   1      40.760  26.007  27.371  1.00  0.00     0.039 A 
ATOM     39  C   UNL A   1      39.916  25.674  28.429  1.00  0.00     0.014 A 
ATOM     40  C   UNL A   1      41.429  27.235  27.339  1.00  0.00     0.014 A 
ATOM     41  C   UNL A   1      39.768  26.575  29.483  1.00  0.00     0.010 A 
ATOM     42  C   UNL A   1      41.353  28.084  28.432  1.00  0.00     0.010 A 
ATOM     43  C   UNL A   1      40.501  27.775  29.502  1.00  0.00    -0.014 A 
BRANCH  43  44
ATOM     44  C   UNL A   1      40.366  28.742  30.619  1.00  0.00     0.031 A 
ATOM     45  C   UNL A   1      41.241  28.599  31.834  1.00  0.00     0.074 A 
ATOM     46  C   UNL A   1      39.431  29.708  30.556  1.00  0.00     0.049 A 
ATOM     47  N   UNL A   1      41.258  29.315  32.927  1.00  0.00    -0.248 NA
ATOM     48  C   UNL A   1      42.205  27.485  31.834  1.00  0.00     0.031 C 
ATOM     49  C   UNL A   1      38.495  29.910  29.447  1.00  0.00     0.029 A 
ATOM     50  N   UNL A   1      39.111  30.702  31.444  1.00  0.00    -0.354 N 
ATOM     51  C   UNL A   1      42.225  28.739  33.741  1.00  0.00     0.074 A 
ATOM     52  C   UNL A   1      42.718  27.568  33.051  1.00  0.00     0.031 C 
ATOM     53  C   UNL A   1      37.735  30.986  29.704  1.00  0.00     0.029 A 
ATOM     54  C   UNL A   1      38.093  31.520  31.014  1.00  0.00     0.049 A 
ATOM     55  H   UNL A   1      39.568  30.820  32.308  1.00  0.00     0.167 HD
ATOM     56  C   UNL A   1      42.684  29.164  34.941  1.00  0.00     0.037 A 
ATOM     57  C   UNL A   1      37.513  32.577  31.613  1.00  0.00     0.037 A 
ATOM     58  C   UNL A   1      42.188  30.336  35.613  1.00  0.00     0.049 A 
ATOM     59  C   UNL A   1      38.014  33.013  32.964  1.00  0.00     0.074 A 
ATOM     60  C   UNL A   1      42.609  30.883  36.811  1.00  0.00     0.029 A 
ATOM     61  N   UNL A   1      41.152  31.136  35.150  1.00  0.00    -0.354 N 
ATOM     62  N   UNL A   1      38.979  32.499  33.691  1.00  0.00    -0.248 NA
ATOM     63  C   UNL A   1      37.356  34.176  33.572  1.00  0.00     0.031 C 
ATOM     64  C   UNL A   1      41.784  31.973  37.106  1.00  0.00     0.029 A 
ATOM     65  C   UNL A   1      40.898  32.152  36.055  1.00  0.00     0.049 A 
ATOM     66  H   UNL A   1      40.668  30.999  34.304  1.00  0.00     0.167 HD
ATOM     67  C   UNL A   1      39.064  33.295  34.829  1.00  0.00     0.074 A 
ATOM     68  C   UNL A   1      38.062  34.331  34.684  1.00  0.00     0.031 C 
ATOM     69  C   UNL A   1      39.897  33.180  35.893  1.00  0.00     0.037 A 
BRANCH  56  70
ATOM     70  C   UNL A   1      43.768  28.353  35.602  1.00  0.00     0.058 A 
ATOM     71  C   UNL A   1      45.129  28.562  35.318  1.00  0.00     0.135 A 
ATOM     72  C   UNL A   1      43.445  27.362  36.541  1.00  0.00     0.135 A 
ATOM     73  F   UNL A   1      45.498  29.485  34.415  1.00  0.00    -0.206 F 
ATOM     74  C   UNL A   1      46.124  27.793  35.912  1.00  0.00     0.059 A 
ATOM     75  C   UNL A   1      44.427  26.606  37.177  1.00  0.00     0.059 A 
ATOM     76  F   UNL A   1      42.163  27.115  36.851  1.00  0.00    -0.206 F 
ATOM     77  C   UNL A   1      45.763  26.817  36.841  1.00  0.00     0.060 A 
BRANCH  77  78
ATOM     78  S   UNL A   1      47.067  25.827  37.598  1.00  0.00     0.124 S 
ATOM     79  O   UNL A   1      48.033  25.734  36.508  1.00  0.00    -0.237 OA
ATOM     80  O   UNL A   1      47.468  26.657  38.730  1.00  0.00    -0.237 OA
ATOM     81  O   UNL A   1      46.393  24.580  37.946  1.00  0.00    -0.744 OA
ENDBRANCH  77  78
ENDBRANCH  56  70
BRANCH  57  82
ATOM     82  C   UNL A   1      36.414  33.310  30.927  1.00  0.00     0.058 A 
ATOM     83  C   UNL A   1      35.090  33.222  31.381  1.00  0.00     0.135 A 
ATOM     84  C   UNL A   1      36.667  34.129  29.814  1.00  0.00     0.135 A 
ATOM     85  F   UNL A   1      34.794  32.448  32.437  1.00  0.00    -0.206 F 
ATOM     86  C   UNL A   1      34.055  33.905  30.752  1.00  0.00     0.059 A 
ATOM     87  C   UNL A   1      35.654  34.846  29.187  1.00  0.00     0.059 A 
ATOM     88  F   UNL A   1      37.918  34.262  29.347  1.00  0.00    -0.206 F 
ATOM     89  C   UNL A   1      34.349  34.722  29.659  1.00  0.00     0.060 A 
BRANCH  89  90
ATOM     90  S   UNL A   1      33.004  35.648  28.887  1.00  0.00     0.124 S 
ATOM     91  O   UNL A   1      33.733  36.699  28.187  1.00  0.00    -0.237 OA
ATOM     92  O   UNL A   1      32.381  34.631  28.045  1.00  0.00    -0.237 OA
ATOM     93  O   UNL A   1      32.202  36.086  30.025  1.00  0.00    -0.744 OA
ENDBRANCH  89  90
ENDBRANCH  57  82
BRANCH  69  94
ATOM     94  C   UNL A   1      39.793  34.226  36.972  1.00  0.00     0.058 A 
ATOM     95  C   UNL A   1      40.392  35.488  36.844  1.00  0.00     0.135 A 
ATOM     96  C   UNL A   1      39.033  33.975  38.128  1.00  0.00     0.135 A 
ATOM     97  F   UNL A   1      41.134  35.780  35.764  1.00  0.00    -0.206 F 
ATOM     98  C   UNL A   1      40.263  36.457  37.836  1.00  0.00     0.059 A 
ATOM     99  C   UNL A   1      38.860  34.941  39.113  1.00  0.00     0.059 A 
ATOM    100  F   UNL A   1      38.430  32.788  38.296  1.00  0.00    -0.206 F 
ATOM    101  C   UNL A   1      39.489  36.176  38.963  1.00  0.00     0.060 A 
BRANCH 101 102
ATOM    102  S   UNL A   1      39.301  37.455  40.221  1.00  0.00     0.124 S 
ATOM    103  O   UNL A   1      40.657  37.989  40.305  1.00  0.00    -0.237 OA
ATOM    104  O   UNL A   1      38.307  38.338  39.619  1.00  0.00    -0.237 OA
ATOM    105  O   UNL A   1      38.846  36.715  41.395  1.00  0.00    -0.744 OA
ENDBRANCH 101 102
ENDBRANCH  69  94
ENDBRANCH  43  44
ENDBRANCH  35  38
ENDBRANCH  33  34
ENDBRANCH  32  33
ENDBRANCH  31  32
ENDBRANCH   1  31
TORSDOF 20
ENDMDL
MODEL 2
REMARK VINA RESULT:     -13.0      6.579     11.885
REMARK SMILES NC(=O)c1cc(NC(=O)/C=C\C(=O)NCCCCCCNC(=O)c2ccc(-c3c4nc(c(-c5c(F)cc(S(=O)(=O)[O-])cc5F)c5ccc([nH]5)c(-c5c(F)cc(S(=O)(=O)[O-])cc5F)c5nc(c(-c6c(F)cc(S(=O)(=O)[O-])cc6F)c6ccc3[nH]6)C=C5)C=C4)cc2)ccc1N1CCOCC1
REMARK SMILES IDX 17 1 16 2 15 3 14 4 12 5 13 6 11 8 10 9 8 10 7 11 9 13 6 14
REMARK SMILES IDX 4 15 5 16 92 17 91 18 90 19 2 20 1 21 3 24 93 25 94 26 98 27
REMARK SMILES IDX 95 28 97 29 96 30 18 31 19 32 20 33 21 34 22 35 23 37 24 38
REMARK SMILES IDX 25 39 89 40 26 41 88 42 27 43 28 44 29 45 82 46 30 47 87 48
REMARK SMILES IDX 81 49 83 50 31 51 86 52 80 53 79 54 32 56 66 57 45 58 65 59
REMARK SMILES IDX 46 60 49 61 64 62 84 63 47 64 48 65 63 67 85 68 50 69 33 70
REMARK SMILES IDX 34 71 43 72 35 73 36 74 42 75 44 76 37 77 38 78 39 79 40 80
REMARK SMILES IDX 41 81 67 82 68 83 77 84 69 85 70 86 76 87 78 88 71 89 72 90
REMARK SMILES IDX 73 91 74 92 75 93 51 94 52 95 61 96 53 97 54 98 60 99 62 100
REMARK SMILES IDX 55 101 56 102 57 103 58 104 59 105
REMARK H PARENT 14 7 7 12 1 22 1 23 21 36 83 55 49 66
REMARK Flexibility Score: inf
ROOT
ATOM      1  C   UNL A   1      34.301  32.488  28.617  1.00  0.00     0.002 C 
ENDROOT
BRANCH   1   2
ATOM      2  C   UNL A   1      34.945  31.530  27.620  1.00  0.00     0.021 C 
BRANCH   2   3
ATOM      3  C   UNL A   1      34.978  30.037  28.063  1.00  0.00     0.116 C 
BRANCH   3   4
ATOM      4  N   UNL A   1      33.614  29.082  27.724  1.00  0.00    -0.353 N 
ATOM      5  C   UNL A   1      32.789  27.964  26.332  1.00  0.00     0.244 C 
ATOM      6  O   UNL A   1      31.624  27.470  26.254  1.00  0.00    -0.270 OA
ATOM      7  H   UNL A   1      33.022  29.092  28.511  1.00  0.00     0.163 HD
BRANCH   5   8
ATOM      8  C   UNL A   1      33.509  27.218  24.944  1.00  0.00     0.077 C 
ATOM      9  C   UNL A   1      33.342  27.171  23.605  1.00  0.00     0.077 C 
BRANCH   9  10
ATOM     10  C   UNL A   1      32.242  27.800  22.827  1.00  0.00     0.248 C 
ATOM     11  N   UNL A   1      31.504  26.933  22.092  1.00  0.00    -0.322 N 
ATOM     12  H   UNL A   1      30.957  27.248  21.337  1.00  0.00     0.170 HD
ATOM     13  O   UNL A   1      32.125  29.015  22.758  1.00  0.00    -0.270 OA
BRANCH  11  14
ATOM     14  C   UNL A   1      31.539  25.593  22.430  1.00  0.00     0.042 A 
ATOM     15  C   UNL A   1      31.016  23.411  24.670  1.00  0.00     0.064 A 
ATOM     16  C   UNL A   1      30.552  24.992  23.886  1.00  0.00     0.042 A 
ATOM     17  C   UNL A   1      32.367  22.382  23.995  1.00  0.00     0.050 A 
ATOM     18  C   UNL A   1      33.261  22.961  22.489  1.00  0.00     0.029 A 
ATOM     19  C   UNL A   1      32.877  24.569  21.737  1.00  0.00     0.028 A 
BRANCH  15  20
ATOM     20  C   UNL A   1      30.770  23.472  26.123  1.00  0.00     0.250 C 
ATOM     21  N   UNL A   1      29.889  22.525  26.560  1.00  0.00    -0.366 N 
ATOM     22  H   UNL A   1      29.652  22.475  27.514  1.00  0.00     0.159 HD
ATOM     23  H   UNL A   1      29.489  21.891  25.920  1.00  0.00     0.159 HD
ATOM     24  O   UNL A   1      31.415  24.184  26.873  1.00  0.00    -0.269 OA
ENDBRANCH  15  20
BRANCH  17  25
ATOM     25  N   UNL A   1      32.905  21.282  24.678  1.00  0.00    -0.366 N 
ATOM     26  C   UNL A   1      34.158  21.252  25.459  1.00  0.00     0.145 C 
ATOM     27  C   UNL A   1      32.296  19.947  24.535  1.00  0.00     0.145 C 
ATOM     28  C   UNL A   1      35.110  20.139  24.942  1.00  0.00     0.181 C 
ATOM     29  C   UNL A   1      33.325  18.951  23.984  1.00  0.00     0.181 C 
ATOM     30  O   UNL A   1      34.461  18.858  24.855  1.00  0.00    -0.378 OA
ENDBRANCH  17  25
ENDBRANCH  11  14
ENDBRANCH   9  10
ENDBRANCH   5   8
ENDBRANCH   3   4
ENDBRANCH   2   3
ENDBRANCH   1   2
BRANCH   1  31
ATOM     31  C   UNL A   1      35.074  33.798  28.728  1.00  0.00     0.002 C 
BRANCH  31  32
ATOM     32  C   UNL A   1      35.769  34.008  30.079  1.00  0.00     0.021 C 
BRANCH  32  33
ATOM     33  C   UNL A   1      36.903  33.026  30.351  1.00  0.00     0.116 C 
BRANCH  33  34
ATOM     34  N   UNL A   1      36.425  31.917  31.163  1.00  0.00    -0.352 N 
ATOM     35  C   UNL A   1      36.880  30.622  31.134  1.00  0.00     0.251 C 
ATOM     36  H   UNL A   1      35.701  32.116  31.799  1.00  0.00     0.163 HD
ATOM     37  O   UNL A   1      36.181  29.696  31.524  1.00  0.00    -0.269 OA
BRANCH  35  38
ATOM     38  C   UNL A   1      38.244  30.392  30.624  1.00  0.00     0.039 A 
ATOM     39  C   UNL A   1      39.302  30.218  31.514  1.00  0.00     0.014 A 
ATOM     40  C   UNL A   1      38.437  30.290  29.243  1.00  0.00     0.014 A 
ATOM     41  C   UNL A   1      40.563  29.905  31.010  1.00  0.00     0.010 A 
ATOM     42  C   UNL A   1      39.669  29.886  28.752  1.00  0.00     0.010 A 
ATOM     43  C   UNL A   1      40.751  29.715  29.628  1.00  0.00    -0.014 A 
BRANCH  43  44
ATOM     44  C   UNL A   1      42.082  29.372  29.073  1.00  0.00     0.031 A 
ATOM     45  C   UNL A   1      42.351  27.967  28.605  1.00  0.00     0.074 A 
ATOM     46  C   UNL A   1      43.051  30.306  29.035  1.00  0.00     0.049 A 
ATOM     47  N   UNL A   1      43.452  27.456  28.121  1.00  0.00    -0.248 NA
ATOM     48  C   UNL A   1      41.246  27.001  28.726  1.00  0.00     0.031 C 
ATOM     49  C   UNL A   1      42.915  31.686  29.506  1.00  0.00     0.029 A 
ATOM     50  N   UNL A   1      44.342  30.236  28.580  1.00  0.00    -0.354 N 
ATOM     51  C   UNL A   1      43.174  26.116  27.885  1.00  0.00     0.074 A 
ATOM     52  C   UNL A   1      41.827  25.873  28.351  1.00  0.00     0.031 C 
ATOM     53  C   UNL A   1      44.063  32.343  29.279  1.00  0.00     0.029 A 
ATOM     54  C   UNL A   1      45.031  31.421  28.693  1.00  0.00     0.049 A 
ATOM     55  H   UNL A   1      44.738  29.416  28.207  1.00  0.00     0.167 HD
ATOM     56  C   UNL A   1      43.958  25.179  27.302  1.00  0.00     0.037 A 
ATOM     57  C   UNL A   1      46.301  31.725  28.365  1.00  0.00     0.037 A 
ATOM     58  C   UNL A   1      45.295  25.437  26.836  1.00  0.00     0.049 A 
ATOM     59  C   UNL A   1      47.168  30.658  27.751  1.00  0.00     0.074 A 
ATOM     60  C   UNL A   1      46.163  24.574  26.193  1.00  0.00     0.029 A 
ATOM     61  N   UNL A   1      45.962  26.647  26.974  1.00  0.00    -0.354 N 
ATOM     62  N   UNL A   1      46.868  29.412  27.469  1.00  0.00    -0.248 NA
ATOM     63  C   UNL A   1      48.543  31.039  27.403  1.00  0.00     0.031 C 
ATOM     64  C   UNL A   1      47.378  25.240  26.003  1.00  0.00     0.029 A 
ATOM     65  C   UNL A   1      47.243  26.543  26.458  1.00  0.00     0.049 A 
ATOM     66  H   UNL A   1      45.581  27.459  27.380  1.00  0.00     0.167 HD
ATOM     67  C   UNL A   1      48.006  28.868  26.882  1.00  0.00     0.074 A 
ATOM     68  C   UNL A   1      48.994  29.928  26.838  1.00  0.00     0.031 C 
ATOM     69  C   UNL A   1      48.213  27.610  26.418  1.00  0.00     0.037 A 
BRANCH  56  70
ATOM     70  C   UNL A   1      43.390  23.792  27.147  1.00  0.00     0.058 A 
ATOM     71  C   UNL A   1      43.343  22.884  28.219  1.00  0.00     0.135 A 
ATOM     72  C   UNL A   1      42.872  23.368  25.913  1.00  0.00     0.135 A 
ATOM     73  F   UNL A   1      43.839  23.227  29.419  1.00  0.00    -0.206 F 
ATOM     74  C   UNL A   1      42.841  21.597  28.063  1.00  0.00     0.059 A 
ATOM     75  C   UNL A   1      42.329  22.097  25.744  1.00  0.00     0.059 A 
ATOM     76  F   UNL A   1      42.891  24.190  24.852  1.00  0.00    -0.206 F 
ATOM     77  C   UNL A   1      42.335  21.213  26.821  1.00  0.00     0.060 A 
BRANCH  77  78
ATOM     78  S   UNL A   1      41.690  19.537  26.636  1.00  0.00     0.124 S 
ATOM     79  O   UNL A   1      40.869  19.407  27.836  1.00  0.00    -0.237 OA
ATOM     80  O   UNL A   1      40.960  19.624  25.375  1.00  0.00    -0.237 OA
ATOM     81  O   UNL A   1      42.892  18.709  26.607  1.00  0.00    -0.744 OA
ENDBRANCH  77  78
ENDBRANCH  56  70
BRANCH  57  82
ATOM     82  C   UNL A   1      46.817  33.103  28.587  1.00  0.00     0.058 A 
ATOM     83  C   UNL A   1      47.468  33.450  29.780  1.00  0.00     0.135 A 
ATOM     84  C   UNL A   1      46.687  34.097  27.603  1.00  0.00     0.135 A 
ATOM     85  F   UNL A   1      47.612  32.539  30.754  1.00  0.00    -0.206 F 
ATOM     86  C   UNL A   1      47.959  34.733  29.997  1.00  0.00     0.059 A 
ATOM     87  C   UNL A   1      47.198  35.378  27.784  1.00  0.00     0.059 A 
ATOM     88  F   UNL A   1      46.088  33.815  26.436  1.00  0.00    -0.206 F 
ATOM     89  C   UNL A   1      47.825  35.689  28.989  1.00  0.00     0.060 A 
BRANCH  89  90
ATOM     90  S   UNL A   1      48.518  37.335  29.262  1.00  0.00     0.124 S 
ATOM     91  O   UNL A   1      48.805  37.764  27.898  1.00  0.00    -0.237 OA
ATOM     92  O   UNL A   1      47.416  38.019  29.930  1.00  0.00    -0.237 OA
ATOM     93  O   UNL A   1      49.684  37.073  30.100  1.00  0.00    -0.744 OA
ENDBRANCH  89  90
ENDBRANCH  57  82
BRANCH  69  94
ATOM     94  C   UNL A   1      49.546  27.315  25.783  1.00  0.00     0.058 A 
ATOM     95  C   UNL A   1      50.657  26.910  26.539  1.00  0.00     0.135 A 
ATOM     96  C   UNL A   1      49.694  27.383  24.387  1.00  0.00     0.135 A 
ATOM     97  F   UNL A   1      50.574  26.833  27.877  1.00  0.00    -0.206 F 
ATOM     98  C   UNL A   1      51.876  26.611  25.937  1.00  0.00     0.059 A 
ATOM     99  C   UNL A   1      50.891  27.052  23.761  1.00  0.00     0.059 A 
ATOM    100  F   UNL A   1      48.661  27.754  23.615  1.00  0.00    -0.206 F 
ATOM    101  C   UNL A   1      51.980  26.679  24.546  1.00  0.00     0.060 A 
BRANCH 101 102
ATOM    102  S   UNL A   1      53.555  26.250  23.778  1.00  0.00     0.124 S 
ATOM    103  O   UNL A   1      53.147  25.971  22.405  1.00  0.00    -0.237 OA
ATOM    104  O   UNL A   1      54.336  27.468  23.973  1.00  0.00    -0.237 OA
ATOM    105  O   UNL A   1      54.006  25.092  24.545  1.00  0.00    -0.744 OA
ENDBRANCH 101 102
ENDBRANCH  69  94
ENDBRANCH  43  44
ENDBRANCH  35  38
ENDBRANCH  33  34
ENDBRANCH  32  33
ENDBRANCH  31  32
ENDBRANCH   1  31
TORSDOF 20
ENDMDL
MODEL 3
REMARK VINA RESULT:     -12.8      1.864      2.951
REMARK SMILES NC(=O)c1cc(NC(=O)/C=C\C(=O)NCCCCCCNC(=O)c2ccc(-c3c4nc(c(-c5c(F)cc(S(=O)(=O)[O-])cc5F)c5ccc([nH]5)c(-c5c(F)cc(S(=O)(=O)[O-])cc5F)c5nc(c(-c6c(F)cc(S(=O)(=O)[O-])cc6F)c6ccc3[nH]6)C=C5)C=C4)cc2)ccc1N1CCOCC1
REMARK SMILES IDX 17 1 16 2 15 3 14 4 12 5 13 6 11 8 10 9 8 10 7 11 9 13 6 14
REMARK SMILES IDX 4 15 5 16 92 17 91 18 90 19 2 20 1 21 3 24 93 25 94 26 98 27
REMARK SMILES IDX 95 28 97 29 96 30 18 31 19 32 20 33 21 34 22 35 23 37 24 38
REMARK SMILES IDX 25 39 89 40 26 41 88 42 27 43 28 44 29 45 82 46 30 47 87 48
REMARK SMILES IDX 81 49 83 50 31 51 86 52 80 53 79 54 32 56 66 57 45 58 65 59
REMARK SMILES IDX 46 60 49 61 64 62 84 63 47 64 48 65 63 67 85 68 50 69 33 70
REMARK SMILES IDX 34 71 43 72 35 73 36 74 42 75 44 76 37 77 38 78 39 79 40 80
REMARK SMILES IDX 41 81 67 82 68 83 77 84 69 85 70 86 76 87 78 88 71 89 72 90
REMARK SMILES IDX 73 91 74 92 75 93 51 94 52 95 61 96 53 97 54 98 60 99 62 100
REMARK SMILES IDX 55 101 56 102 57 103 58 104 59 105
REMARK H PARENT 14 7 7 12 1 22 1 23 21 36 83 55 49 66
REMARK Flexibility Score: inf
ROOT
ATOM      1  C   UNL A   1      40.121  25.697  27.969  1.00  0.00     0.002 C 
ENDROOT
BRANCH   1   2
ATOM      2  C   UNL A   1      38.913  24.885  27.514  1.00  0.00     0.021 C 
BRANCH   2   3
ATOM      3  C   UNL A   1      39.248  23.524  26.835  1.00  0.00     0.116 C 
BRANCH   3   4
ATOM      4  N   UNL A   1      38.238  23.000  25.574  1.00  0.00    -0.353 N 
ATOM      5  C   UNL A   1      36.351  22.785  25.061  1.00  0.00     0.244 C 
ATOM      6  O   UNL A   1      35.827  22.180  24.078  1.00  0.00    -0.270 OA
ATOM      7  H   UNL A   1      38.803  22.691  24.829  1.00  0.00     0.163 HD
BRANCH   5   8
ATOM      8  C   UNL A   1      34.934  23.528  25.726  1.00  0.00     0.077 C 
ATOM      9  C   UNL A   1      33.698  23.182  26.147  1.00  0.00     0.077 C 
BRANCH   9  10
ATOM     10  C   UNL A   1      33.078  21.833  26.058  1.00  0.00     0.248 C 
ATOM     11  N   UNL A   1      31.761  21.838  25.738  1.00  0.00    -0.322 N 
ATOM     12  H   UNL A   1      31.192  21.059  25.930  1.00  0.00     0.170 HD
ATOM     13  O   UNL A   1      33.689  20.828  26.392  1.00  0.00    -0.270 OA
BRANCH  11  14
ATOM     14  C   UNL A   1      31.238  22.967  25.136  1.00  0.00     0.042 A 
ATOM     15  C   UNL A   1      31.467  25.046  22.754  1.00  0.00     0.064 A 
ATOM     16  C   UNL A   1      31.666  23.339  23.365  1.00  0.00     0.042 A 
ATOM     17  C   UNL A   1      30.779  26.359  23.823  1.00  0.00     0.050 A 
ATOM     18  C   UNL A   1      30.273  25.932  25.544  1.00  0.00     0.029 A 
ATOM     19  C   UNL A   1      30.535  24.263  26.206  1.00  0.00     0.028 A 
BRANCH  15  20
ATOM     20  C   UNL A   1      32.512  25.355  21.760  1.00  0.00     0.250 C 
ATOM     21  N   UNL A   1      32.011  25.634  20.521  1.00  0.00    -0.366 N 
ATOM     22  H   UNL A   1      32.621  25.854  19.780  1.00  0.00     0.159 HD
ATOM     23  H   UNL A   1      31.038  25.614  20.367  1.00  0.00     0.159 HD
ATOM     24  O   UNL A   1      33.684  25.510  22.059  1.00  0.00    -0.269 OA
ENDBRANCH  15  20
BRANCH  17  25
ATOM     25  N   UNL A   1      30.811  27.719  23.481  1.00  0.00    -0.366 N 
ATOM     26  C   UNL A   1      31.721  28.747  24.025  1.00  0.00     0.145 C 
ATOM     27  C   UNL A   1      29.773  28.290  22.605  1.00  0.00     0.145 C 
ATOM     28  C   UNL A   1      30.922  29.935  24.628  1.00  0.00     0.181 C 
ATOM     29  C   UNL A   1      29.035  29.426  23.327  1.00  0.00     0.181 C 
ATOM     30  O   UNL A   1      29.948  30.463  23.711  1.00  0.00    -0.378 OA
ENDBRANCH  17  25
ENDBRANCH  11  14
ENDBRANCH   9  10
ENDBRANCH   5   8
ENDBRANCH   3   4
ENDBRANCH   2   3
ENDBRANCH   1   2
BRANCH   1  31
ATOM     31  C   UNL A   1      40.606  26.653  26.885  1.00  0.00     0.002 C 
BRANCH  31  32
ATOM     32  C   UNL A   1      41.251  25.963  25.676  1.00  0.00     0.021 C 
BRANCH  32  33
ATOM     33  C   UNL A   1      42.651  26.467  25.350  1.00  0.00     0.116 C 
BRANCH  33  34
ATOM     34  N   UNL A   1      43.647  25.486  25.755  1.00  0.00    -0.352 N 
ATOM     35  C   UNL A   1      44.534  25.598  26.798  1.00  0.00     0.251 C 
ATOM     36  H   UNL A   1      43.689  24.656  25.227  1.00  0.00     0.163 HD
ATOM     37  O   UNL A   1      45.572  24.949  26.819  1.00  0.00    -0.269 OA
BRANCH  35  38
ATOM     38  C   UNL A   1      44.183  26.519  27.893  1.00  0.00     0.039 A 
ATOM     39  C   UNL A   1      44.440  27.883  27.768  1.00  0.00     0.014 A 
ATOM     40  C   UNL A   1      43.533  26.006  29.020  1.00  0.00     0.014 A 
ATOM     41  C   UNL A   1      44.010  28.745  28.775  1.00  0.00     0.010 A 
ATOM     42  C   UNL A   1      43.024  26.877  29.971  1.00  0.00     0.010 A 
ATOM     43  C   UNL A   1      43.280  28.252  29.872  1.00  0.00    -0.014 A 
BRANCH  43  44
ATOM     44  C   UNL A   1      42.805  29.154  30.948  1.00  0.00     0.031 A 
ATOM     45  C   UNL A   1      43.599  29.272  32.221  1.00  0.00     0.074 A 
ATOM     46  C   UNL A   1      41.647  29.823  30.797  1.00  0.00     0.049 A 
ATOM     47  N   UNL A   1      43.341  29.977  33.291  1.00  0.00    -0.248 NA
ATOM     48  C   UNL A   1      44.830  28.469  32.316  1.00  0.00     0.031 C 
ATOM     49  C   UNL A   1      40.772  29.746  29.624  1.00  0.00     0.029 A 
ATOM     50  N   UNL A   1      41.004  30.699  31.633  1.00  0.00    -0.354 N 
ATOM     51  C   UNL A   1      44.370  29.700  34.183  1.00  0.00     0.074 A 
ATOM     52  C   UNL A   1      45.214  28.704  33.561  1.00  0.00     0.031 C 
ATOM     53  C   UNL A   1      39.728  30.571  29.800  1.00  0.00     0.029 A 
ATOM     54  C   UNL A   1      39.833  31.198  31.114  1.00  0.00     0.049 A 
ATOM     55  H   UNL A   1      41.349  30.947  32.521  1.00  0.00     0.167 HD
ATOM     56  C   UNL A   1      44.608  30.248  35.397  1.00  0.00     0.037 A 
ATOM     57  C   UNL A   1      38.943  32.059  31.643  1.00  0.00     0.037 A 
ATOM     58  C   UNL A   1      43.762  31.244  36.001  1.00  0.00     0.049 A 
ATOM     59  C   UNL A   1      39.209  32.630  33.010  1.00  0.00     0.074 A 
ATOM     60  C   UNL A   1      43.931  31.898  37.207  1.00  0.00     0.029 A 
ATOM     61  N   UNL A   1      42.580  31.720  35.449  1.00  0.00    -0.354 N 
ATOM     62  N   UNL A   1      40.224  32.412  33.812  1.00  0.00    -0.248 NA
ATOM     63  C   UNL A   1      38.214  33.572  33.540  1.00  0.00     0.031 C 
ATOM     64  C   UNL A   1      42.818  32.720  37.416  1.00  0.00     0.029 A 
ATOM     65  C   UNL A   1      41.993  32.635  36.305  1.00  0.00     0.049 A 
ATOM     66  H   UNL A   1      42.214  31.446  34.577  1.00  0.00     0.167 HD
ATOM     67  C   UNL A   1      40.007  33.212  34.929  1.00  0.00     0.074 A 
ATOM     68  C   UNL A   1      38.769  33.928  34.690  1.00  0.00     0.031 C 
ATOM     69  C   UNL A   1      40.762  33.344  36.049  1.00  0.00     0.037 A 
BRANCH  56  70
ATOM     70  C   UNL A   1      45.825  29.776  36.150  1.00  0.00     0.058 A 
ATOM     71  C   UNL A   1      47.085  30.373  35.973  1.00  0.00     0.135 A 
ATOM     72  C   UNL A   1      45.729  28.721  37.071  1.00  0.00     0.135 A 
ATOM     73  F   UNL A   1      47.242  31.376  35.093  1.00  0.00    -0.206 F 
ATOM     74  C   UNL A   1      48.209  29.917  36.652  1.00  0.00     0.059 A 
ATOM     75  C   UNL A   1      46.834  28.273  37.790  1.00  0.00     0.059 A 
ATOM     76  F   UNL A   1      44.552  28.110  37.280  1.00  0.00    -0.206 F 
ATOM     77  C   UNL A   1      48.074  28.866  37.559  1.00  0.00     0.060 A 
BRANCH  77  78
ATOM     78  S   UNL A   1      49.545  28.285  38.428  1.00  0.00     0.124 S 
ATOM     79  O   UNL A   1      50.455  29.412  38.245  1.00  0.00    -0.237 OA
ATOM     80  O   UNL A   1      49.045  28.088  39.785  1.00  0.00    -0.237 OA
ATOM     81  O   UNL A   1      49.906  27.066  37.712  1.00  0.00    -0.744 OA
ENDBRANCH  77  78
ENDBRANCH  56  70
BRANCH  57  82
ATOM     82  C   UNL A   1      37.735  32.451  30.866  1.00  0.00     0.058 A 
ATOM     83  C   UNL A   1      37.786  33.487  29.921  1.00  0.00     0.135 A 
ATOM     84  C   UNL A   1      36.511  31.785  31.037  1.00  0.00     0.135 A 
ATOM     85  F   UNL A   1      38.931  34.159  29.724  1.00  0.00    -0.206 F 
ATOM     86  C   UNL A   1      36.666  33.859  29.185  1.00  0.00     0.059 A 
ATOM     87  C   UNL A   1      35.385  32.118  30.290  1.00  0.00     0.059 A 
ATOM     88  F   UNL A   1      36.410  30.775  31.915  1.00  0.00    -0.206 F 
ATOM     89  C   UNL A   1      35.471  33.163  29.372  1.00  0.00     0.060 A 
BRANCH  89  90
ATOM     90  S   UNL A   1      34.040  33.620  28.368  1.00  0.00     0.124 S 
ATOM     91  O   UNL A   1      33.165  34.228  29.363  1.00  0.00    -0.237 OA
ATOM     92  O   UNL A   1      34.633  34.531  27.394  1.00  0.00    -0.237 OA
ATOM     93  O   UNL A   1      33.589  32.341  27.827  1.00  0.00    -0.744 OA
ENDBRANCH  89  90
ENDBRANCH  57  82
BRANCH  69  94
ATOM     94  C   UNL A   1      40.298  34.331  37.087  1.00  0.00     0.058 A 
ATOM     95  C   UNL A   1      39.597  33.928  38.234  1.00  0.00     0.135 A 
ATOM     96  C   UNL A   1      40.613  35.694  36.957  1.00  0.00     0.135 A 
ATOM     97  F   UNL A   1      39.265  32.639  38.408  1.00  0.00    -0.206 F 
ATOM     98  C   UNL A   1      39.200  34.847  39.203  1.00  0.00     0.059 A 
ATOM     99  C   UNL A   1      40.260  36.623  37.930  1.00  0.00     0.059 A 
ATOM    100  F   UNL A   1      41.292  36.132  35.885  1.00  0.00    -0.206 F 
ATOM    101  C   UNL A   1      39.542  36.191  39.044  1.00  0.00     0.060 A 
BRANCH 101 102
ATOM    102  S   UNL A   1      39.054  37.362  40.326  1.00  0.00     0.124 S 
ATOM    103  O   UNL A   1      38.288  36.508  41.229  1.00  0.00    -0.237 OA
ATOM    104  O   UNL A   1      40.343  37.824  40.830  1.00  0.00    -0.237 OA
ATOM    105  O   UNL A   1      38.276  38.361  39.598  1.00  0.00    -0.744 OA
ENDBRANCH 101 102
ENDBRANCH  69  94
ENDBRANCH  43  44
ENDBRANCH  35  38
ENDBRANCH  33  34
ENDBRANCH  32  33
ENDBRANCH  31  32
ENDBRANCH   1  31
TORSDOF 20
ENDMDL
