MODEL 1
REMARK VINA RESULT:     -10.8      0.000      0.000
REMARK SMILES Cc1coc2cc3c(cc12)[C@@H](C)[C@H](CCC(=O)N[C@@H](Cc1c[nH]c2ccccc12)C(=O)NCCCCCCNC(=O)c1ccc(-c2c4nc(c(-c5c(F)cc(S(=O)(=O)[O-])cc5F)c5ccc([nH]5)c(-c5c(F)cc(S(=O)(=O)[O-])cc5F)c5nc(c(-c6c(F)cc(S(=O)(=O)[O-])cc6F)c6ccc2[nH]6)C=C5)C=C4)cc1)C(=O)O3
REMARK SMILES IDX 35 1 34 2 33 3 32 4 30 5 31 6 19 8 18 9 16 10 17 11 15 13
REMARK SMILES IDX 14 14 13 15 1 16 2 17 3 18 10 19 4 20 5 21 9 22 6 23 8 24
REMARK SMILES IDX 7 25 11 26 110 27 12 28 108 29 109 30 20 31 21 32 22 33
REMARK SMILES IDX 29 34 23 35 24 36 28 37 25 39 27 40 26 41 36 42 37 43 38 44
REMARK SMILES IDX 39 45 40 46 41 48 42 49 43 50 107 51 44 52 106 53 45 54
REMARK SMILES IDX 46 55 47 56 100 57 48 58 105 59 99 60 101 61 49 62 104 63
REMARK SMILES IDX 98 64 97 65 50 67 84 68 63 69 83 70 64 71 67 72 82 73 102 74
REMARK SMILES IDX 65 75 66 76 81 78 103 79 68 80 51 81 52 82 61 83 53 84 54 85
REMARK SMILES IDX 60 86 62 87 55 88 56 89 57 90 58 91 59 92 85 93 86 94 95 95
REMARK SMILES IDX 87 96 88 97 94 98 96 99 89 100 90 101 91 102 92 103 93 104
REMARK SMILES IDX 69 105 70 106 79 107 71 108 72 109 78 110 80 111 73 112
REMARK SMILES IDX 74 113 75 114 76 115 77 116
REMARK H PARENT 32 7 18 12 23 38 39 47 101 66 67 77
REMARK Flexibility Score: inf
ROOT
ATOM      1  C   UNL A   1      36.266  31.954  32.816  1.00  0.00     0.002 C 
ENDROOT
BRANCH   1   2
ATOM      2  C   UNL A   1      35.201  32.822  32.140  1.00  0.00     0.021 C 
BRANCH   2   3
ATOM      3  C   UNL A   1      34.753  32.309  30.785  1.00  0.00     0.116 C 
BRANCH   3   4
ATOM      4  N   UNL A   1      35.321  33.060  29.694  1.00  0.00    -0.354 N 
ATOM      5  C   UNL A   1      35.446  32.699  28.393  1.00  0.00     0.242 C 
ATOM      6  O   UNL A   1      35.748  33.586  27.583  1.00  0.00    -0.273 OA
ATOM      7  H   UNL A   1      35.664  33.954  29.923  1.00  0.00     0.163 HD
BRANCH   5   8
ATOM      8  C   UNL A   1      35.171  31.270  27.892  1.00  0.00     0.175 C 
BRANCH   8   9
ATOM      9  N   UNL A   1      34.091  31.097  26.910  1.00  0.00    -0.344 N 
ATOM     10  C   UNL A   1      33.307  30.013  26.641  1.00  0.00     0.220 C 
ATOM     11  O   UNL A   1      32.385  30.147  25.833  1.00  0.00    -0.275 OA
ATOM     12  H   UNL A   1      33.903  31.891  26.357  1.00  0.00     0.164 HD
BRANCH  10  13
ATOM     13  C   UNL A   1      33.565  28.653  27.284  1.00  0.00     0.101 C 
BRANCH  13  14
ATOM     14  C   UNL A   1      32.314  27.754  27.336  1.00  0.00     0.026 C 
BRANCH  14  15
ATOM     15  C   UNL A   1      32.076  26.965  26.039  1.00  0.00     0.107 C 
ATOM     16  C   UNL A   1      37.826  22.954  24.897  1.00  0.00     0.048 C 
ATOM     17  C   UNL A   1      36.518  22.524  25.446  1.00  0.00    -0.005 A 
ATOM     18  C   UNL A   1      36.151  21.251  25.836  1.00  0.00     0.199 A 
ATOM     19  C   UNL A   1      35.364  23.330  25.649  1.00  0.00     0.024 A 
ATOM     20  O   UNL A   1      34.860  21.220  26.256  1.00  0.00    -0.464 OA
ATOM     21  C   UNL A   1      34.373  22.484  26.131  1.00  0.00     0.137 A 
ATOM     22  C   UNL A   1      35.046  24.682  25.442  1.00  0.00     0.020 A 
ATOM     23  C   UNL A   1      33.074  22.883  26.418  1.00  0.00     0.095 A 
ATOM     24  C   UNL A   1      33.736  25.122  25.692  1.00  0.00    -0.001 A 
ATOM     25  C   UNL A   1      32.786  24.225  26.173  1.00  0.00     0.138 A 
ATOM     26  C   UNL A   1      33.353  26.520  25.316  1.00  0.00     0.034 C 
ATOM     27  O   UNL A   1      31.451  24.602  26.382  1.00  0.00    -0.426 OA
ATOM     28  C   UNL A   1      33.224  26.593  23.784  1.00  0.00     0.014 C 
ATOM     29  C   UNL A   1      31.015  25.906  26.234  1.00  0.00     0.314 C 
ATOM     30  O   UNL A   1      29.836  26.192  26.325  1.00  0.00    -0.251 OA
ENDBRANCH  14  15
ENDBRANCH  13  14
ENDBRANCH  10  13
ENDBRANCH   8   9
BRANCH   8  31
ATOM     31  C   UNL A   1      36.427  30.413  27.623  1.00  0.00     0.072 C 
BRANCH  31  32
ATOM     32  C   UNL A   1      37.074  29.639  28.716  1.00  0.00    -0.020 A 
ATOM     33  C   UNL A   1      36.563  29.456  29.987  1.00  0.00     0.087 A 
ATOM     34  C   UNL A   1      38.217  28.781  28.602  1.00  0.00     0.003 A 
ATOM     35  N   UNL A   1      37.388  28.599  30.665  1.00  0.00    -0.361 N 
ATOM     36  C   UNL A   1      38.415  28.187  29.849  1.00  0.00     0.046 A 
ATOM     37  C   UNL A   1      39.072  28.415  27.541  1.00  0.00     0.010 A 
ATOM     38  H   UNL A   1      37.263  28.320  31.601  1.00  0.00     0.166 HD
ATOM     39  C   UNL A   1      39.463  27.297  30.107  1.00  0.00     0.026 A 
ATOM     40  C   UNL A   1      40.103  27.495  27.773  1.00  0.00     0.001 A 
ATOM     41  C   UNL A   1      40.304  26.961  29.042  1.00  0.00     0.002 A 
ENDBRANCH  31  32
ENDBRANCH   8  31
ENDBRANCH   5   8
ENDBRANCH   3   4
ENDBRANCH   2   3
ENDBRANCH   1   2
BRANCH   1  42
ATOM     42  C   UNL A   1      37.102  32.631  33.910  1.00  0.00     0.002 C 
BRANCH  42  43
ATOM     43  C   UNL A   1      37.206  34.159  33.847  1.00  0.00     0.021 C 
BRANCH  43  44
ATOM     44  C   UNL A   1      38.417  34.711  33.096  1.00  0.00     0.116 C 
BRANCH  44  45
ATOM     45  N   UNL A   1      38.214  34.850  31.671  1.00  0.00    -0.352 N 
ATOM     46  C   UNL A   1      38.669  34.193  30.566  1.00  0.00     0.251 C 
ATOM     47  H   UNL A   1      37.607  35.592  31.447  1.00  0.00     0.163 HD
ATOM     48  O   UNL A   1      38.226  34.592  29.485  1.00  0.00    -0.269 OA
BRANCH  46  49
ATOM     49  C   UNL A   1      39.654  33.077  30.576  1.00  0.00     0.039 A 
ATOM     50  C   UNL A   1      39.344  31.721  30.674  1.00  0.00     0.014 A 
ATOM     51  C   UNL A   1      41.010  33.445  30.486  1.00  0.00     0.014 A 
ATOM     52  C   UNL A   1      40.352  30.766  30.744  1.00  0.00     0.010 A 
ATOM     53  C   UNL A   1      42.024  32.489  30.521  1.00  0.00     0.010 A 
ATOM     54  C   UNL A   1      41.694  31.146  30.677  1.00  0.00    -0.014 A 
BRANCH  54  55
ATOM     55  C   UNL A   1      42.687  30.074  30.676  1.00  0.00     0.031 A 
ATOM     56  C   UNL A   1      43.043  29.516  32.014  1.00  0.00     0.074 A 
ATOM     57  C   UNL A   1      43.213  29.517  29.569  1.00  0.00     0.049 A 
ATOM     58  N   UNL A   1      44.188  29.536  32.617  1.00  0.00    -0.248 NA
ATOM     59  C   UNL A   1      41.956  28.926  32.810  1.00  0.00     0.031 C 
ATOM     60  C   UNL A   1      42.795  29.701  28.179  1.00  0.00     0.029 A 
ATOM     61  N   UNL A   1      44.202  28.580  29.481  1.00  0.00    -0.354 N 
ATOM     62  C   UNL A   1      44.021  28.792  33.784  1.00  0.00     0.074 A 
ATOM     63  C   UNL A   1      42.607  28.546  33.910  1.00  0.00     0.031 C 
ATOM     64  C   UNL A   1      43.385  28.756  27.414  1.00  0.00     0.029 A 
ATOM     65  C   UNL A   1      44.318  27.997  28.230  1.00  0.00     0.049 A 
ATOM     66  H   UNL A   1      44.781  28.339  30.241  1.00  0.00     0.167 HD
ATOM     67  C   UNL A   1      45.072  28.270  34.477  1.00  0.00     0.037 A 
ATOM     68  C   UNL A   1      45.088  26.934  27.896  1.00  0.00     0.037 A 
ATOM     69  C   UNL A   1      46.317  28.899  34.128  1.00  0.00     0.049 A 
ATOM     70  C   UNL A   1      46.161  26.808  28.913  1.00  0.00     0.074 A 
ATOM     71  C   UNL A   1      46.819  30.183  34.196  1.00  0.00     0.029 A 
ATOM     72  N   UNL A   1      47.192  28.199  33.334  1.00  0.00    -0.354 N 
ATOM     73  N   UNL A   1      47.148  27.649  29.053  1.00  0.00    -0.248 NA
ATOM     74  C   UNL A   1      45.963  25.893  30.027  1.00  0.00     0.031 C 
ATOM     75  C   UNL A   1      47.703  30.303  33.084  1.00  0.00     0.029 A 
ATOM     76  C   UNL A   1      47.696  29.080  32.413  1.00  0.00     0.049 A 
ATOM     77  H   UNL A   1      47.416  27.243  33.413  1.00  0.00     0.167 HD
ATOM     78  C   UNL A   1      47.433  27.644  30.409  1.00  0.00     0.074 A 
ATOM     79  C   UNL A   1      46.770  26.455  30.930  1.00  0.00     0.031 C 
ATOM     80  C   UNL A   1      47.950  28.744  31.027  1.00  0.00     0.037 A 
BRANCH  67  81
ATOM     81  C   UNL A   1      45.024  26.967  35.241  1.00  0.00     0.058 A 
ATOM     82  C   UNL A   1      45.442  26.927  36.588  1.00  0.00     0.135 A 
ATOM     83  C   UNL A   1      44.860  25.711  34.617  1.00  0.00     0.135 A 
ATOM     84  F   UNL A   1      45.639  28.063  37.276  1.00  0.00    -0.206 F 
ATOM     85  C   UNL A   1      45.752  25.733  37.240  1.00  0.00     0.059 A 
ATOM     86  C   UNL A   1      45.110  24.506  35.265  1.00  0.00     0.059 A 
ATOM     87  F   UNL A   1      44.550  25.598  33.318  1.00  0.00    -0.206 F 
ATOM     88  C   UNL A   1      45.603  24.528  36.560  1.00  0.00     0.060 A 
BRANCH  88  89
ATOM     89  S   UNL A   1      46.141  22.995  37.341  1.00  0.00     0.124 S 
ATOM     90  O   UNL A   1      45.627  23.169  38.695  1.00  0.00    -0.237 OA
ATOM     91  O   UNL A   1      45.472  21.985  36.526  1.00  0.00    -0.237 OA
ATOM     92  O   UNL A   1      47.593  23.042  37.204  1.00  0.00    -0.744 OA
ENDBRANCH  88  89
ENDBRANCH  67  81
BRANCH  68  93
ATOM     93  C   UNL A   1      44.822  25.884  26.882  1.00  0.00     0.058 A 
ATOM     94  C   UNL A   1      45.743  25.609  25.857  1.00  0.00     0.135 A 
ATOM     95  C   UNL A   1      43.781  24.947  27.054  1.00  0.00     0.135 A 
ATOM     96  F   UNL A   1      46.779  26.433  25.640  1.00  0.00    -0.206 F 
ATOM     97  C   UNL A   1      45.664  24.451  25.077  1.00  0.00     0.059 A 
ATOM     98  C   UNL A   1      43.674  23.796  26.279  1.00  0.00     0.059 A 
ATOM     99  F   UNL A   1      42.888  25.077  28.046  1.00  0.00    -0.206 F 
ATOM    100  C   UNL A   1      44.636  23.540  25.310  1.00  0.00     0.060 A 
BRANCH 100 101
ATOM    101  S   UNL A   1      44.632  21.966  24.423  1.00  0.00     0.124 S 
ATOM    102  O   UNL A   1      45.992  21.489  24.647  1.00  0.00    -0.237 OA
ATOM    103  O   UNL A   1      43.575  21.231  25.110  1.00  0.00    -0.237 OA
ATOM    104  O   UNL A   1      44.325  22.352  23.048  1.00  0.00    -0.744 OA
ENDBRANCH 100 101
ENDBRANCH  68  93
BRANCH  80 105
ATOM    105  C   UNL A   1      48.565  29.819  30.173  1.00  0.00     0.058 A 
ATOM    106  C   UNL A   1      49.912  29.825  29.770  1.00  0.00     0.135 A 
ATOM    107  C   UNL A   1      47.721  30.791  29.614  1.00  0.00     0.135 A 
ATOM    108  F   UNL A   1      50.759  28.869  30.176  1.00  0.00    -0.206 F 
ATOM    109  C   UNL A   1      50.403  30.778  28.876  1.00  0.00     0.059 A 
ATOM    110  C   UNL A   1      48.183  31.730  28.695  1.00  0.00     0.059 A 
ATOM    111  F   UNL A   1      46.411  30.796  29.913  1.00  0.00    -0.206 F 
ATOM    112  C   UNL A   1      49.529  31.722  28.337  1.00  0.00     0.060 A 
BRANCH 112 113
ATOM    113  S   UNL A   1      50.147  32.868  27.085  1.00  0.00     0.124 S 
ATOM    114  O   UNL A   1      50.495  31.970  25.990  1.00  0.00    -0.237 OA
ATOM    115  O   UNL A   1      48.993  33.733  26.852  1.00  0.00    -0.237 OA
ATOM    116  O   UNL A   1      51.276  33.518  27.745  1.00  0.00    -0.744 OA
ENDBRANCH 112 113
ENDBRANCH  80 105
ENDBRANCH  54  55
ENDBRANCH  46  49
ENDBRANCH  44  45
ENDBRANCH  43  44
ENDBRANCH  42  43
ENDBRANCH   1  42
TORSDOF 22
ENDMDL
MODEL 2
REMARK VINA RESULT:     -10.2      1.828      6.797
REMARK SMILES Cc1coc2cc3c(cc12)[C@@H](C)[C@H](CCC(=O)N[C@@H](Cc1c[nH]c2ccccc12)C(=O)NCCCCCCNC(=O)c1ccc(-c2c4nc(c(-c5c(F)cc(S(=O)(=O)[O-])cc5F)c5ccc([nH]5)c(-c5c(F)cc(S(=O)(=O)[O-])cc5F)c5nc(c(-c6c(F)cc(S(=O)(=O)[O-])cc6F)c6ccc2[nH]6)C=C5)C=C4)cc1)C(=O)O3
REMARK SMILES IDX 35 1 34 2 33 3 32 4 30 5 31 6 19 8 18 9 16 10 17 11 15 13
REMARK SMILES IDX 14 14 13 15 1 16 2 17 3 18 10 19 4 20 5 21 9 22 6 23 8 24
REMARK SMILES IDX 7 25 11 26 110 27 12 28 108 29 109 30 20 31 21 32 22 33
REMARK SMILES IDX 29 34 23 35 24 36 28 37 25 39 27 40 26 41 36 42 37 43 38 44
REMARK SMILES IDX 39 45 40 46 41 48 42 49 43 50 107 51 44 52 106 53 45 54
REMARK SMILES IDX 46 55 47 56 100 57 48 58 105 59 99 60 101 61 49 62 104 63
REMARK SMILES IDX 98 64 97 65 50 67 84 68 63 69 83 70 64 71 67 72 82 73 102 74
REMARK SMILES IDX 65 75 66 76 81 78 103 79 68 80 51 81 52 82 61 83 53 84 54 85
REMARK SMILES IDX 60 86 62 87 55 88 56 89 57 90 58 91 59 92 85 93 86 94 95 95
REMARK SMILES IDX 87 96 88 97 94 98 96 99 89 100 90 101 91 102 92 103 93 104
REMARK SMILES IDX 69 105 70 106 79 107 71 108 72 109 78 110 80 111 73 112
REMARK SMILES IDX 74 113 75 114 76 115 77 116
REMARK H PARENT 32 7 18 12 23 38 39 47 101 66 67 77
REMARK Flexibility Score: inf
ROOT
ATOM      1  C   UNL A   1      36.402  31.971  32.888  1.00  0.00     0.002 C 
ENDROOT
BRANCH   1   2
ATOM      2  C   UNL A   1      35.293  32.848  32.300  1.00  0.00     0.021 C 
BRANCH   2   3
ATOM      3  C   UNL A   1      34.740  32.345  30.981  1.00  0.00     0.116 C 
BRANCH   3   4
ATOM      4  N   UNL A   1      35.181  33.135  29.859  1.00  0.00    -0.354 N 
ATOM      5  C   UNL A   1      35.185  32.808  28.542  1.00  0.00     0.242 C 
ATOM      6  O   UNL A   1      35.386  33.721  27.731  1.00  0.00    -0.273 OA
ATOM      7  H   UNL A   1      35.526  34.031  30.076  1.00  0.00     0.163 HD
BRANCH   5   8
ATOM      8  C   UNL A   1      34.893  31.385  28.035  1.00  0.00     0.175 C 
BRANCH   8   9
ATOM      9  N   UNL A   1      33.719  31.207  27.168  1.00  0.00    -0.344 N 
ATOM     10  C   UNL A   1      33.055  30.072  26.802  1.00  0.00     0.220 C 
ATOM     11  O   UNL A   1      32.020  30.190  26.142  1.00  0.00    -0.275 OA
ATOM     12  H   UNL A   1      33.352  32.041  26.792  1.00  0.00     0.164 HD
BRANCH  10  13
ATOM     13  C   UNL A   1      33.579  28.683  27.156  1.00  0.00     0.101 C 
BRANCH  13  14
ATOM     14  C   UNL A   1      32.510  27.579  27.045  1.00  0.00     0.026 C 
BRANCH  14  15
ATOM     15  C   UNL A   1      32.364  27.012  25.624  1.00  0.00     0.107 C 
ATOM     16  C   UNL A   1      37.491  22.180  24.721  1.00  0.00     0.048 C 
ATOM     17  C   UNL A   1      36.058  21.934  25.009  1.00  0.00    -0.005 A 
ATOM     18  C   UNL A   1      35.428  20.713  25.148  1.00  0.00     0.199 A 
ATOM     19  C   UNL A   1      35.033  22.909  25.165  1.00  0.00     0.024 A 
ATOM     20  O   UNL A   1      34.098  20.870  25.372  1.00  0.00    -0.464 OA
ATOM     21  C   UNL A   1      33.852  22.207  25.370  1.00  0.00     0.137 A 
ATOM     22  C   UNL A   1      34.979  24.310  25.120  1.00  0.00     0.020 A 
ATOM     23  C   UNL A   1      32.605  22.801  25.526  1.00  0.00     0.095 A 
ATOM     24  C   UNL A   1      33.735  24.952  25.244  1.00  0.00    -0.001 A 
ATOM     25  C   UNL A   1      32.585  24.193  25.446  1.00  0.00     0.138 A 
ATOM     26  C   UNL A   1      33.653  26.431  25.030  1.00  0.00     0.034 C 
ATOM     27  O   UNL A   1      31.314  24.781  25.518  1.00  0.00    -0.426 OA
ATOM     28  C   UNL A   1      33.793  26.713  23.524  1.00  0.00     0.014 C 
ATOM     29  C   UNL A   1      31.127  26.151  25.506  1.00  0.00     0.314 C 
ATOM     30  O   UNL A   1      30.012  26.637  25.471  1.00  0.00    -0.251 OA
ENDBRANCH  14  15
ENDBRANCH  13  14
ENDBRANCH  10  13
ENDBRANCH   8   9
BRANCH   8  31
ATOM     31  C   UNL A   1      36.134  30.569  27.609  1.00  0.00     0.072 C 
BRANCH  31  32
ATOM     32  C   UNL A   1      36.950  29.838  28.615  1.00  0.00    -0.020 A 
ATOM     33  C   UNL A   1      36.519  29.434  29.865  1.00  0.00     0.087 A 
ATOM     34  C   UNL A   1      38.236  29.240  28.408  1.00  0.00     0.003 A 
ATOM     35  N   UNL A   1      37.515  28.697  30.448  1.00  0.00    -0.361 N 
ATOM     36  C   UNL A   1      38.581  28.579  29.587  1.00  0.00     0.046 A 
ATOM     37  C   UNL A   1      39.119  29.156  27.309  1.00  0.00     0.010 A 
ATOM     38  H   UNL A   1      37.473  28.309  31.352  1.00  0.00     0.166 HD
ATOM     39  C   UNL A   1      39.791  27.895  29.747  1.00  0.00     0.026 A 
ATOM     40  C   UNL A   1      40.316  28.442  27.440  1.00  0.00     0.001 A 
ATOM     41  C   UNL A   1      40.653  27.839  28.649  1.00  0.00     0.002 A 
ENDBRANCH  31  32
ENDBRANCH   8  31
ENDBRANCH   5   8
ENDBRANCH   3   4
ENDBRANCH   2   3
ENDBRANCH   1   2
BRANCH   1  42
ATOM     42  C   UNL A   1      37.096  32.504  34.147  1.00  0.00     0.002 C 
BRANCH  42  43
ATOM     43  C   UNL A   1      37.393  34.007  34.183  1.00  0.00     0.021 C 
BRANCH  43  44
ATOM     44  C   UNL A   1      38.583  34.468  33.341  1.00  0.00     0.116 C 
BRANCH  44  45
ATOM     45  N   UNL A   1      38.342  34.441  31.915  1.00  0.00    -0.352 N 
ATOM     46  C   UNL A   1      38.845  33.725  30.869  1.00  0.00     0.251 C 
ATOM     47  H   UNL A   1      37.656  35.090  31.636  1.00  0.00     0.163 HD
ATOM     48  O   UNL A   1      38.344  33.965  29.766  1.00  0.00    -0.269 OA
BRANCH  46  49
ATOM     49  C   UNL A   1      39.941  32.723  30.963  1.00  0.00     0.039 A 
ATOM     50  C   UNL A   1      40.401  31.922  29.918  1.00  0.00     0.014 A 
ATOM     51  C   UNL A   1      40.548  32.584  32.226  1.00  0.00     0.014 A 
ATOM     52  C   UNL A   1      41.389  30.968  30.137  1.00  0.00     0.010 A 
ATOM     53  C   UNL A   1      41.563  31.653  32.443  1.00  0.00     0.010 A 
ATOM     54  C   UNL A   1      41.966  30.823  31.401  1.00  0.00    -0.014 A 
BRANCH  54  55
ATOM     55  C   UNL A   1      43.053  29.854  31.526  1.00  0.00     0.031 A 
ATOM     56  C   UNL A   1      44.345  30.239  30.884  1.00  0.00     0.074 A 
ATOM     57  C   UNL A   1      42.985  28.715  32.240  1.00  0.00     0.049 A 
ATOM     58  N   UNL A   1      44.965  29.657  29.908  1.00  0.00    -0.248 NA
ATOM     59  C   UNL A   1      44.986  31.478  31.349  1.00  0.00     0.031 C 
ATOM     60  C   UNL A   1      41.940  28.293  33.172  1.00  0.00     0.029 A 
ATOM     61  N   UNL A   1      43.916  27.720  32.337  1.00  0.00    -0.354 N 
ATOM     62  C   UNL A   1      46.171  30.339  29.758  1.00  0.00     0.074 A 
ATOM     63  C   UNL A   1      46.077  31.517  30.584  1.00  0.00     0.031 C 
ATOM     64  C   UNL A   1      42.386  27.236  33.886  1.00  0.00     0.029 A 
ATOM     65  C   UNL A   1      43.682  26.827  33.370  1.00  0.00     0.049 A 
ATOM     66  H   UNL A   1      44.685  27.645  31.726  1.00  0.00     0.167 HD
ATOM     67  C   UNL A   1      47.241  29.801  29.109  1.00  0.00     0.037 A 
ATOM     68  C   UNL A   1      44.514  25.850  33.804  1.00  0.00     0.037 A 
ATOM     69  C   UNL A   1      46.866  28.693  28.273  1.00  0.00     0.049 A 
ATOM     70  C   UNL A   1      45.466  25.539  32.710  1.00  0.00     0.074 A 
ATOM     71  C   UNL A   1      46.031  28.523  27.186  1.00  0.00     0.029 A 
ATOM     72  N   UNL A   1      47.178  27.426  28.703  1.00  0.00    -0.354 N 
ATOM     73  N   UNL A   1      45.141  24.950  31.593  1.00  0.00    -0.248 NA
ATOM     74  C   UNL A   1      46.768  26.191  32.712  1.00  0.00     0.031 C 
ATOM     75  C   UNL A   1      45.525  27.196  27.302  1.00  0.00     0.029 A 
ATOM     76  C   UNL A   1      46.091  26.632  28.446  1.00  0.00     0.049 A 
ATOM     77  H   UNL A   1      48.024  27.143  29.118  1.00  0.00     0.167 HD
ATOM     78  C   UNL A   1      45.995  25.487  30.643  1.00  0.00     0.074 A 
ATOM     79  C   UNL A   1      47.052  26.135  31.408  1.00  0.00     0.031 C 
ATOM     80  C   UNL A   1      45.622  25.590  29.335  1.00  0.00     0.037 A 
BRANCH  67  81
ATOM     81  C   UNL A   1      48.682  30.073  29.473  1.00  0.00     0.058 A 
ATOM     82  C   UNL A   1      49.158  29.735  30.757  1.00  0.00     0.135 A 
ATOM     83  C   UNL A   1      49.525  30.913  28.713  1.00  0.00     0.135 A 
ATOM     84  F   UNL A   1      48.433  28.949  31.570  1.00  0.00    -0.206 F 
ATOM     85  C   UNL A   1      50.343  30.257  31.278  1.00  0.00     0.059 A 
ATOM     86  C   UNL A   1      50.737  31.400  29.190  1.00  0.00     0.059 A 
ATOM     87  F   UNL A   1      49.163  31.383  27.512  1.00  0.00    -0.206 F 
ATOM     88  C   UNL A   1      51.114  31.109  30.492  1.00  0.00     0.060 A 
BRANCH  88  89
ATOM     89  S   UNL A   1      52.565  31.904  31.206  1.00  0.00     0.124 S 
ATOM     90  O   UNL A   1      52.178  31.999  32.609  1.00  0.00    -0.237 OA
ATOM     91  O   UNL A   1      53.623  30.947  30.895  1.00  0.00    -0.237 OA
ATOM     92  O   UNL A   1      52.641  33.170  30.483  1.00  0.00    -0.744 OA
ENDBRANCH  88  89
ENDBRANCH  67  81
BRANCH  68  93
ATOM     93  C   UNL A   1      44.684  25.329  35.183  1.00  0.00     0.058 A 
ATOM     94  C   UNL A   1      44.448  23.978  35.486  1.00  0.00     0.135 A 
ATOM     95  C   UNL A   1      45.337  26.087  36.177  1.00  0.00     0.135 A 
ATOM     96  F   UNL A   1      43.855  23.177  34.588  1.00  0.00    -0.206 F 
ATOM     97  C   UNL A   1      44.875  23.399  36.685  1.00  0.00     0.059 A 
ATOM     98  C   UNL A   1      45.757  25.536  37.385  1.00  0.00     0.059 A 
ATOM     99  F   UNL A   1      45.672  27.368  35.964  1.00  0.00    -0.206 F 
ATOM    100  C   UNL A   1      45.547  24.183  37.621  1.00  0.00     0.060 A 
BRANCH 100 101
ATOM    101  S   UNL A   1      46.249  23.400  39.090  1.00  0.00     0.124 S 
ATOM    102  O   UNL A   1      47.481  24.159  39.279  1.00  0.00    -0.237 OA
ATOM    103  O   UNL A   1      45.203  23.622  40.083  1.00  0.00    -0.237 OA
ATOM    104  O   UNL A   1      46.429  22.010  38.680  1.00  0.00    -0.744 OA
ENDBRANCH 100 101
ENDBRANCH  68  93
BRANCH  80 105
ATOM    105  C   UNL A   1      44.451  24.773  28.861  1.00  0.00     0.058 A 
ATOM    106  C   UNL A   1      43.109  25.123  29.086  1.00  0.00     0.135 A 
ATOM    107  C   UNL A   1      44.698  23.682  28.013  1.00  0.00     0.135 A 
ATOM    108  F   UNL A   1      42.789  26.213  29.798  1.00  0.00    -0.206 F 
ATOM    109  C   UNL A   1      42.059  24.398  28.520  1.00  0.00     0.059 A 
ATOM    110  C   UNL A   1      43.668  22.966  27.411  1.00  0.00     0.059 A 
ATOM    111  F   UNL A   1      45.962  23.339  27.711  1.00  0.00    -0.206 F 
ATOM    112  C   UNL A   1      42.348  23.325  27.676  1.00  0.00     0.060 A 
BRANCH 112 113
ATOM    113  S   UNL A   1      40.986  22.475  26.848  1.00  0.00     0.124 S 
ATOM    114  O   UNL A   1      40.592  21.485  27.844  1.00  0.00    -0.237 OA
ATOM    115  O   UNL A   1      40.032  23.556  26.617  1.00  0.00    -0.237 OA
ATOM    116  O   UNL A   1      41.606  21.935  25.640  1.00  0.00    -0.744 OA
ENDBRANCH 112 113
ENDBRANCH  80 105
ENDBRANCH  54  55
ENDBRANCH  46  49
ENDBRANCH  44  45
ENDBRANCH  43  44
ENDBRANCH  42  43
ENDBRANCH   1  42
TORSDOF 22
ENDMDL
MODEL 3
REMARK VINA RESULT:     -10.2      4.383      9.696
REMARK SMILES Cc1coc2cc3c(cc12)[C@@H](C)[C@H](CCC(=O)N[C@@H](Cc1c[nH]c2ccccc12)C(=O)NCCCCCCNC(=O)c1ccc(-c2c4nc(c(-c5c(F)cc(S(=O)(=O)[O-])cc5F)c5ccc([nH]5)c(-c5c(F)cc(S(=O)(=O)[O-])cc5F)c5nc(c(-c6c(F)cc(S(=O)(=O)[O-])cc6F)c6ccc2[nH]6)C=C5)C=C4)cc1)C(=O)O3
REMARK SMILES IDX 35 1 34 2 33 3 32 4 30 5 31 6 19 8 18 9 16 10 17 11 15 13
REMARK SMILES IDX 14 14 13 15 1 16 2 17 3 18 10 19 4 20 5 21 9 22 6 23 8 24
REMARK SMILES IDX 7 25 11 26 110 27 12 28 108 29 109 30 20 31 21 32 22 33
REMARK SMILES IDX 29 34 23 35 24 36 28 37 25 39 27 40 26 41 36 42 37 43 38 44
REMARK SMILES IDX 39 45 40 46 41 48 42 49 43 50 107 51 44 52 106 53 45 54
REMARK SMILES IDX 46 55 47 56 100 57 48 58 105 59 99 60 101 61 49 62 104 63
REMARK SMILES IDX 98 64 97 65 50 67 84 68 63 69 83 70 64 71 67 72 82 73 102 74
REMARK SMILES IDX 65 75 66 76 81 78 103 79 68 80 51 81 52 82 61 83 53 84 54 85
REMARK SMILES IDX 60 86 62 87 55 88 56 89 57 90 58 91 59 92 85 93 86 94 95 95
REMARK SMILES IDX 87 96 88 97 94 98 96 99 89 100 90 101 91 102 92 103 93 104
REMARK SMILES IDX 69 105 70 106 79 107 71 108 72 109 78 110 80 111 73 112
REMARK SMILES IDX 74 113 75 114 76 115 77 116
REMARK H PARENT 32 7 18 12 23 38 39 47 101 66 67 77
REMARK Flexibility Score: inf
ROOT
ATOM      1  C   UNL A   1      36.712  32.058  32.605  1.00  0.00     0.002 C 
ENDROOT
BRANCH   1   2
ATOM      2  C   UNL A   1      38.010  31.248  32.674  1.00  0.00     0.021 C 
BRANCH   2   3
ATOM      3  C   UNL A   1      38.686  31.277  34.031  1.00  0.00     0.116 C 
BRANCH   3   4
ATOM      4  N   UNL A   1      37.805  31.730  35.079  1.00  0.00    -0.354 N 
ATOM      5  C   UNL A   1      37.825  32.907  35.752  1.00  0.00     0.242 C 
ATOM      6  O   UNL A   1      36.837  33.183  36.444  1.00  0.00    -0.273 OA
ATOM      7  H   UNL A   1      37.095  31.101  35.341  1.00  0.00     0.163 HD
BRANCH   5   8
ATOM      8  C   UNL A   1      38.982  33.916  35.635  1.00  0.00     0.175 C 
BRANCH   8   9
ATOM      9  N   UNL A   1      40.280  33.521  36.202  1.00  0.00    -0.344 N 
ATOM     10  C   UNL A   1      40.845  33.823  37.406  1.00  0.00     0.220 C 
ATOM     11  O   UNL A   1      41.912  33.279  37.701  1.00  0.00    -0.275 OA
ATOM     12  H   UNL A   1      40.828  32.946  35.619  1.00  0.00     0.164 HD
BRANCH  10  13
ATOM     13  C   UNL A   1      40.213  34.830  38.364  1.00  0.00     0.101 C 
BRANCH  13  14
ATOM     14  C   UNL A   1      39.472  34.171  39.543  1.00  0.00     0.026 C 
BRANCH  14  15
ATOM     15  C   UNL A   1      39.741  34.859  40.892  1.00  0.00     0.107 C 
ATOM     16  C   UNL A   1      44.332  40.148  39.710  1.00  0.00     0.048 C 
ATOM     17  C   UNL A   1      42.866  40.250  39.904  1.00  0.00    -0.005 A 
ATOM     18  C   UNL A   1      42.099  41.398  39.906  1.00  0.00     0.199 A 
ATOM     19  C   UNL A   1      41.957  39.186  40.164  1.00  0.00     0.024 A 
ATOM     20  O   UNL A   1      40.794  41.115  40.152  1.00  0.00    -0.464 OA
ATOM     21  C   UNL A   1      40.706  39.769  40.323  1.00  0.00     0.137 A 
ATOM     22  C   UNL A   1      42.071  37.796  40.315  1.00  0.00     0.020 A 
ATOM     23  C   UNL A   1      39.548  39.066  40.632  1.00  0.00     0.095 A 
ATOM     24  C   UNL A   1      40.932  37.049  40.657  1.00  0.00    -0.001 A 
ATOM     25  C   UNL A   1      39.705  37.690  40.804  1.00  0.00     0.138 A 
ATOM     26  C   UNL A   1      41.083  35.595  40.980  1.00  0.00     0.034 C 
ATOM     27  O   UNL A   1      38.551  36.999  41.200  1.00  0.00    -0.426 OA
ATOM     28  C   UNL A   1      41.738  35.471  42.367  1.00  0.00     0.014 C 
ATOM     29  C   UNL A   1      38.525  35.626  41.362  1.00  0.00     0.314 C 
ATOM     30  O   UNL A   1      37.543  35.059  41.800  1.00  0.00    -0.251 OA
ENDBRANCH  14  15
ENDBRANCH  13  14
ENDBRANCH  10  13
ENDBRANCH   8   9
BRANCH   8  31
ATOM     31  C   UNL A   1      39.072  34.661  34.285  1.00  0.00     0.072 C 
BRANCH  31  32
ATOM     32  C   UNL A   1      40.388  34.955  33.659  1.00  0.00    -0.020 A 
ATOM     33  C   UNL A   1      41.449  35.595  34.271  1.00  0.00     0.087 A 
ATOM     34  C   UNL A   1      40.874  34.457  32.405  1.00  0.00     0.003 A 
ATOM     35  N   UNL A   1      42.517  35.579  33.415  1.00  0.00    -0.361 N 
ATOM     36  C   UNL A   1      42.187  34.906  32.262  1.00  0.00     0.046 A 
ATOM     37  C   UNL A   1      40.338  33.622  31.401  1.00  0.00     0.010 A 
ATOM     38  H   UNL A   1      43.393  35.990  33.599  1.00  0.00     0.166 HD
ATOM     39  C   UNL A   1      42.968  34.621  31.137  1.00  0.00     0.026 A 
ATOM     40  C   UNL A   1      41.120  33.295  30.287  1.00  0.00     0.001 A 
ATOM     41  C   UNL A   1      42.408  33.804  30.151  1.00  0.00     0.002 A 
ENDBRANCH  31  32
ENDBRANCH   8  31
ENDBRANCH   5   8
ENDBRANCH   3   4
ENDBRANCH   2   3
ENDBRANCH   1   2
BRANCH   1  42
ATOM     42  C   UNL A   1      36.784  33.398  31.862  1.00  0.00     0.002 C 
BRANCH  42  43
ATOM     43  C   UNL A   1      35.554  33.792  31.037  1.00  0.00     0.021 C 
BRANCH  43  44
ATOM     44  C   UNL A   1      34.487  32.708  30.880  1.00  0.00     0.116 C 
BRANCH  44  45
ATOM     45  N   UNL A   1      34.212  32.346  29.508  1.00  0.00    -0.352 N 
ATOM     46  C   UNL A   1      34.833  31.567  28.576  1.00  0.00     0.251 C 
ATOM     47  H   UNL A   1      33.385  32.758  29.167  1.00  0.00     0.163 HD
ATOM     48  O   UNL A   1      34.254  31.467  27.490  1.00  0.00    -0.269 OA
BRANCH  46  49
ATOM     49  C   UNL A   1      36.135  30.873  28.768  1.00  0.00     0.039 A 
ATOM     50  C   UNL A   1      36.303  29.504  28.969  1.00  0.00     0.014 A 
ATOM     51  C   UNL A   1      37.283  31.689  28.749  1.00  0.00     0.014 A 
ATOM     52  C   UNL A   1      37.566  28.971  29.208  1.00  0.00     0.010 A 
ATOM     53  C   UNL A   1      38.554  31.156  28.954  1.00  0.00     0.010 A 
ATOM     54  C   UNL A   1      38.694  29.795  29.210  1.00  0.00    -0.014 A 
BRANCH  54  55
ATOM     55  C   UNL A   1      39.990  29.144  29.388  1.00  0.00     0.031 A 
ATOM     56  C   UNL A   1      40.451  28.988  30.799  1.00  0.00     0.074 A 
ATOM     57  C   UNL A   1      40.723  28.612  28.392  1.00  0.00     0.049 A 
ATOM     58  N   UNL A   1      41.493  29.504  31.368  1.00  0.00    -0.248 NA
ATOM     59  C   UNL A   1      39.593  28.215  31.708  1.00  0.00     0.031 C 
ATOM     60  C   UNL A   1      40.332  28.391  27.000  1.00  0.00     0.029 A 
ATOM     61  N   UNL A   1      41.974  28.068  28.460  1.00  0.00    -0.354 N 
ATOM     62  C   UNL A   1      41.534  28.969  32.654  1.00  0.00     0.074 A 
ATOM     63  C   UNL A   1      40.282  28.281  32.847  1.00  0.00     0.031 C 
ATOM     64  C   UNL A   1      41.241  27.584  26.410  1.00  0.00     0.029 A 
ATOM     65  C   UNL A   1      42.338  27.346  27.335  1.00  0.00     0.049 A 
ATOM     66  H   UNL A   1      42.565  28.178  29.240  1.00  0.00     0.167 HD
ATOM     67  C   UNL A   1      42.667  28.968  33.411  1.00  0.00     0.037 A 
ATOM     68  C   UNL A   1      43.436  26.568  27.187  1.00  0.00     0.037 A 
ATOM     69  C   UNL A   1      43.640  29.911  32.931  1.00  0.00     0.049 A 
ATOM     70  C   UNL A   1      44.441  26.999  28.191  1.00  0.00     0.074 A 
ATOM     71  C   UNL A   1      43.675  31.280  32.754  1.00  0.00     0.029 A 
ATOM     72  N   UNL A   1      44.736  29.422  32.264  1.00  0.00    -0.354 N 
ATOM     73  N   UNL A   1      45.078  28.136  28.157  1.00  0.00    -0.248 NA
ATOM     74  C   UNL A   1      44.512  26.285  29.457  1.00  0.00     0.031 C 
ATOM     75  C   UNL A   1      44.516  31.493  31.624  1.00  0.00     0.029 A 
ATOM     76  C   UNL A   1      44.954  30.242  31.188  1.00  0.00     0.049 A 
ATOM     77  H   UNL A   1      45.266  28.630  32.512  1.00  0.00     0.167 HD
ATOM     78  C   UNL A   1      45.285  28.470  29.485  1.00  0.00     0.074 A 
ATOM     79  C   UNL A   1      45.040  27.240  30.227  1.00  0.00     0.031 C 
ATOM     80  C   UNL A   1      45.370  29.773  29.883  1.00  0.00     0.037 A 
BRANCH  67  81
ATOM     81  C   UNL A   1      43.027  27.885  34.403  1.00  0.00     0.058 A 
ATOM     82  C   UNL A   1      43.194  28.208  35.765  1.00  0.00     0.135 A 
ATOM     83  C   UNL A   1      43.496  26.611  34.017  1.00  0.00     0.135 A 
ATOM     84  F   UNL A   1      42.793  29.399  36.240  1.00  0.00    -0.206 F 
ATOM     85  C   UNL A   1      43.851  27.362  36.660  1.00  0.00     0.059 A 
ATOM     86  C   UNL A   1      44.103  25.728  34.903  1.00  0.00     0.059 A 
ATOM     87  F   UNL A   1      43.480  26.205  32.740  1.00  0.00    -0.206 F 
ATOM     88  C   UNL A   1      44.321  26.131  36.211  1.00  0.00     0.060 A 
BRANCH  88  89
ATOM     89  S   UNL A   1      45.298  25.098  37.318  1.00  0.00     0.124 S 
ATOM     90  O   UNL A   1      46.655  25.485  36.949  1.00  0.00    -0.237 OA
ATOM     91  O   UNL A   1      44.841  25.539  38.632  1.00  0.00    -0.237 OA
ATOM     92  O   UNL A   1      44.903  23.743  36.945  1.00  0.00    -0.744 OA
ENDBRANCH  88  89
ENDBRANCH  67  81
BRANCH  68  93
ATOM     93  C   UNL A   1      43.588  25.327  26.388  1.00  0.00     0.058 A 
ATOM     94  C   UNL A   1      44.603  25.199  25.425  1.00  0.00     0.135 A 
ATOM     95  C   UNL A   1      42.906  24.143  26.738  1.00  0.00     0.135 A 
ATOM     96  F   UNL A   1      45.320  26.270  25.052  1.00  0.00    -0.206 F 
ATOM     97  C   UNL A   1      44.954  23.963  24.874  1.00  0.00     0.059 A 
ATOM     98  C   UNL A   1      43.228  22.904  26.191  1.00  0.00     0.059 A 
ATOM     99  F   UNL A   1      41.967  24.141  27.696  1.00  0.00    -0.206 F 
ATOM    100  C   UNL A   1      44.272  22.816  25.280  1.00  0.00     0.060 A 
BRANCH 100 101
ATOM    101  S   UNL A   1      44.837  21.201  24.700  1.00  0.00     0.124 S 
ATOM    102  O   UNL A   1      44.031  20.291  25.507  1.00  0.00    -0.237 OA
ATOM    103  O   UNL A   1      44.510  21.255  23.280  1.00  0.00    -0.237 OA
ATOM    104  O   UNL A   1      46.265  21.209  25.009  1.00  0.00    -0.744 OA
ENDBRANCH 100 101
ENDBRANCH  68  93
BRANCH  80 105
ATOM    105  C   UNL A   1      45.624  30.822  28.835  1.00  0.00     0.058 A 
ATOM    106  C   UNL A   1      44.611  31.442  28.084  1.00  0.00     0.135 A 
ATOM    107  C   UNL A   1      46.926  31.329  28.702  1.00  0.00     0.135 A 
ATOM    108  F   UNL A   1      43.327  31.087  28.231  1.00  0.00    -0.206 F 
ATOM    109  C   UNL A   1      44.888  32.497  27.213  1.00  0.00     0.059 A 
ATOM    110  C   UNL A   1      47.219  32.402  27.865  1.00  0.00     0.059 A 
ATOM    111  F   UNL A   1      47.925  30.819  29.442  1.00  0.00    -0.206 F 
ATOM    112  C   UNL A   1      46.194  32.977  27.116  1.00  0.00     0.060 A 
BRANCH 112 113
ATOM    113  S   UNL A   1      46.518  34.424  26.085  1.00  0.00     0.124 S 
ATOM    114  O   UNL A   1      46.384  35.518  27.040  1.00  0.00    -0.237 OA
ATOM    115  O   UNL A   1      47.872  34.169  25.600  1.00  0.00    -0.237 OA
ATOM    116  O   UNL A   1      45.478  34.354  25.062  1.00  0.00    -0.744 OA
ENDBRANCH 112 113
ENDBRANCH  80 105
ENDBRANCH  54  55
ENDBRANCH  46  49
ENDBRANCH  44  45
ENDBRANCH  43  44
ENDBRANCH  42  43
ENDBRANCH   1  42
TORSDOF 22
ENDMDL
