MODEL 1
REMARK VINA RESULT:     -12.2      0.000      0.000
REMARK SMILES O=C(NCCCCCCNC(=O)[C@H]1C=C[C@H](NS(=O)(=O)c2ccc(F)c(F)c2F)C1)c1ccc(-c2c3nc(c(-c4c(F)cc(S(=O)(=O)[O-])cc4F)c4ccc([nH]4)c(-c4c(F)cc(S(=O)(=O)[O-])cc4F)c4nc(c(-c5c(F)cc(S(=O)(=O)[O-])cc5F)c5ccc2[nH]5)C=C4)C=C3)cc1
REMARK SMILES IDX 6 1 5 2 4 3 3 4 1 5 2 6 31 8 32 9 96 10 33 11 95 12 34 13
REMARK SMILES IDX 35 14 36 15 89 16 37 17 94 18 88 19 90 20 38 21 93 22 87 23
REMARK SMILES IDX 86 24 39 26 73 27 52 28 72 29 53 30 56 31 71 32 91 33 54 34
REMARK SMILES IDX 55 35 70 37 92 38 57 39 40 40 41 41 50 42 42 43 43 44 49 45
REMARK SMILES IDX 51 46 44 47 45 48 46 49 47 50 48 51 74 52 75 53 84 54 76 55
REMARK SMILES IDX 77 56 83 57 85 58 78 59 79 60 80 61 81 62 82 63 58 64 59 65
REMARK SMILES IDX 68 66 60 67 61 68 67 69 69 70 62 71 63 72 64 73 65 74 66 75
REMARK SMILES IDX 7 76 8 77 9 78 10 79 11 80 12 82 13 83 14 84 30 85 15 86
REMARK SMILES IDX 16 87 17 88 18 90 19 91 20 92 21 93 22 94 28 95 23 96 26 97
REMARK SMILES IDX 29 98 24 99 27 100 25 101
REMARK H PARENT 3 7 90 25 56 36 10 81 17 89
REMARK Flexibility Score: inf
ROOT
ATOM      1  C   UNL A   1      34.528  28.645  26.860  1.00  0.00     0.002 C 
ENDROOT
BRANCH   1   2
ATOM      2  C   UNL A   1      34.365  30.120  27.228  1.00  0.00     0.021 C 
BRANCH   2   3
ATOM      3  C   UNL A   1      35.575  30.735  27.920  1.00  0.00     0.116 C 
BRANCH   3   4
ATOM      4  N   UNL A   1      35.481  30.662  29.370  1.00  0.00    -0.352 N 
ATOM      5  O   UNL A   1      36.056  29.983  31.444  1.00  0.00    -0.269 OA
ATOM      6  C   UNL A   1      36.369  30.118  30.266  1.00  0.00     0.251 C 
ATOM      7  H   UNL A   1      34.670  31.057  29.763  1.00  0.00     0.163 HD
BRANCH   6   8
ATOM      8  C   UNL A   1      37.698  29.673  29.789  1.00  0.00     0.039 A 
ATOM      9  C   UNL A   1      38.653  29.210  30.696  1.00  0.00     0.014 A 
ATOM     10  C   UNL A   1      37.999  29.746  28.427  1.00  0.00     0.014 A 
ATOM     11  C   UNL A   1      39.952  28.972  30.266  1.00  0.00     0.010 A 
ATOM     12  C   UNL A   1      39.282  29.411  27.982  1.00  0.00     0.010 A 
ATOM     13  C   UNL A   1      40.281  29.059  28.903  1.00  0.00    -0.014 A 
BRANCH  13  14
ATOM     14  C   UNL A   1      41.664  28.727  28.473  1.00  0.00     0.031 A 
ATOM     15  C   UNL A   1      42.762  29.757  28.510  1.00  0.00     0.074 A 
ATOM     16  C   UNL A   1      41.932  27.465  28.085  1.00  0.00     0.049 A 
ATOM     17  N   UNL A   1      44.031  29.615  28.215  1.00  0.00    -0.248 NA
ATOM     18  C   UNL A   1      42.393  31.120  28.919  1.00  0.00     0.031 C 
ATOM     19  C   UNL A   1      40.943  26.386  27.996  1.00  0.00     0.029 A 
ATOM     20  N   UNL A   1      43.109  26.864  27.720  1.00  0.00    -0.354 N 
ATOM     21  C   UNL A   1      44.606  30.871  28.377  1.00  0.00     0.074 A 
ATOM     22  C   UNL A   1      43.541  31.768  28.776  1.00  0.00     0.031 C 
ATOM     23  C   UNL A   1      41.564  25.245  27.664  1.00  0.00     0.029 A 
ATOM     24  C   UNL A   1      42.979  25.522  27.452  1.00  0.00     0.049 A 
ATOM     25  H   UNL A   1      43.963  27.348  27.657  1.00  0.00     0.167 HD
ATOM     26  C   UNL A   1      45.901  31.238  28.213  1.00  0.00     0.037 A 
ATOM     27  C   UNL A   1      43.895  24.613  27.069  1.00  0.00     0.037 A 
ATOM     28  C   UNL A   1      46.956  30.329  27.840  1.00  0.00     0.049 A 
ATOM     29  C   UNL A   1      45.320  25.048  26.890  1.00  0.00     0.074 A 
ATOM     30  C   UNL A   1      48.308  30.592  27.695  1.00  0.00     0.029 A 
ATOM     31  N   UNL A   1      46.779  28.985  27.544  1.00  0.00    -0.354 N 
ATOM     32  N   UNL A   1      45.850  26.233  27.083  1.00  0.00    -0.248 NA
ATOM     33  C   UNL A   1      46.270  24.026  26.436  1.00  0.00     0.031 C 
ATOM     34  C   UNL A   1      48.940  29.420  27.266  1.00  0.00     0.029 A 
ATOM     35  C   UNL A   1      47.993  28.412  27.194  1.00  0.00     0.049 A 
ATOM     36  H   UNL A   1      45.919  28.508  27.578  1.00  0.00     0.167 HD
ATOM     37  C   UNL A   1      47.202  26.093  26.797  1.00  0.00     0.074 A 
ATOM     38  C   UNL A   1      47.409  24.706  26.431  1.00  0.00     0.031 C 
ATOM     39  C   UNL A   1      48.183  27.028  26.833  1.00  0.00     0.037 A 
BRANCH  26  40
ATOM     40  C   UNL A   1      46.249  32.690  28.411  1.00  0.00     0.058 A 
ATOM     41  C   UNL A   1      46.700  33.187  29.644  1.00  0.00     0.135 A 
ATOM     42  C   UNL A   1      46.166  33.591  27.336  1.00  0.00     0.135 A 
ATOM     43  F   UNL A   1      46.788  32.375  30.709  1.00  0.00    -0.206 F 
ATOM     44  C   UNL A   1      47.025  34.531  29.813  1.00  0.00     0.059 A 
ATOM     45  C   UNL A   1      46.511  34.933  27.475  1.00  0.00     0.059 A 
ATOM     46  F   UNL A   1      45.745  33.170  26.133  1.00  0.00    -0.206 F 
ATOM     47  C   UNL A   1      46.924  35.397  28.722  1.00  0.00     0.060 A 
BRANCH  47  48
ATOM     48  S   UNL A   1      47.341  37.138  28.958  1.00  0.00     0.124 S 
ATOM     49  O   UNL A   1      46.738  37.743  27.775  1.00  0.00    -0.237 OA
ATOM     50  O   UNL A   1      46.690  37.447  30.228  1.00  0.00    -0.237 OA
ATOM     51  O   UNL A   1      48.800  37.138  28.989  1.00  0.00    -0.744 OA
ENDBRANCH  47  48
ENDBRANCH  26  40
BRANCH  27  52
ATOM     52  C   UNL A   1      43.484  23.202  26.844  1.00  0.00     0.058 A 
ATOM     53  C   UNL A   1      43.417  22.669  25.548  1.00  0.00     0.135 A 
ATOM     54  C   UNL A   1      43.182  22.352  27.919  1.00  0.00     0.135 A 
ATOM     55  F   UNL A   1      43.695  23.443  24.488  1.00  0.00    -0.206 F 
ATOM     56  C   UNL A   1      43.052  21.346  25.325  1.00  0.00     0.059 A 
ATOM     57  C   UNL A   1      42.843  21.018  27.723  1.00  0.00     0.059 A 
ATOM     58  F   UNL A   1      43.251  22.811  29.179  1.00  0.00    -0.206 F 
ATOM     59  C   UNL A   1      42.771  20.526  26.420  1.00  0.00     0.060 A 
BRANCH  59  60
ATOM     60  S   UNL A   1      42.352  18.796  26.123  1.00  0.00     0.124 S 
ATOM     61  O   UNL A   1      40.942  18.893  25.764  1.00  0.00    -0.237 OA
ATOM     62  O   UNL A   1      43.264  18.440  25.040  1.00  0.00    -0.237 OA
ATOM     63  O   UNL A   1      42.636  18.158  27.405  1.00  0.00    -0.744 OA
ENDBRANCH  59  60
ENDBRANCH  27  52
BRANCH  39  64
ATOM     64  C   UNL A   1      49.577  26.570  26.504  1.00  0.00     0.058 A 
ATOM     65  C   UNL A   1      50.421  26.011  27.476  1.00  0.00     0.135 A 
ATOM     66  C   UNL A   1      50.066  26.677  25.192  1.00  0.00     0.135 A 
ATOM     67  F   UNL A   1      50.006  25.895  28.748  1.00  0.00    -0.206 F 
ATOM     68  C   UNL A   1      51.714  25.603  27.165  1.00  0.00     0.059 A 
ATOM     69  C   UNL A   1      51.346  26.248  24.853  1.00  0.00     0.059 A 
ATOM     70  F   UNL A   1      49.295  27.195  24.223  1.00  0.00    -0.206 F 
ATOM     71  C   UNL A   1      52.168  25.728  25.851  1.00  0.00     0.060 A 
BRANCH  71  72
ATOM     72  S   UNL A   1      53.844  25.183  25.457  1.00  0.00     0.124 S 
ATOM     73  O   UNL A   1      53.584  23.981  24.671  1.00  0.00    -0.237 OA
ATOM     74  O   UNL A   1      54.378  26.322  24.717  1.00  0.00    -0.237 OA
ATOM     75  O   UNL A   1      54.444  24.959  26.768  1.00  0.00    -0.744 OA
ENDBRANCH  71  72
ENDBRANCH  39  64
ENDBRANCH  13  14
ENDBRANCH   6   8
ENDBRANCH   3   4
ENDBRANCH   2   3
ENDBRANCH   1   2
BRANCH   1  76
ATOM     76  C   UNL A   1      33.321  28.015  26.156  1.00  0.00     0.002 C 
BRANCH  76  77
ATOM     77  C   UNL A   1      32.410  29.003  25.416  1.00  0.00     0.021 C 
BRANCH  77  78
ATOM     78  C   UNL A   1      32.599  28.995  23.900  1.00  0.00     0.116 C 
BRANCH  78  79
ATOM     79  N   UNL A   1      31.364  29.365  23.239  1.00  0.00    -0.356 N 
ATOM     80  C   UNL A   1      30.449  28.611  22.574  1.00  0.00     0.226 C 
ATOM     81  H   UNL A   1      31.151  30.326  23.276  1.00  0.00     0.163 HD
ATOM     82  O   UNL A   1      29.585  29.210  21.926  1.00  0.00    -0.274 OA
BRANCH  80  83
ATOM     83  C   UNL A   1      30.394  27.085  22.697  1.00  0.00     0.103 C 
ATOM     84  C   UNL A   1      31.627  26.294  22.405  1.00  0.00    -0.016 C 
ATOM     85  C   UNL A   1      29.995  26.655  24.110  1.00  0.00     0.042 C 
ATOM     86  C   UNL A   1      31.938  25.470  23.414  1.00  0.00    -0.011 C 
ATOM     87  C   UNL A   1      31.038  25.639  24.595  1.00  0.00     0.093 C 
BRANCH  87  88
ATOM     88  N   UNL A   1      30.396  24.377  24.906  1.00  0.00    -0.204 NA
ATOM     89  H   UNL A   1      30.498  23.787  24.080  1.00  0.00     0.142 HD
BRANCH  88  90
ATOM     90  S   UNL A   1      30.899  23.462  26.214  1.00  0.00     0.244 S 
ATOM     91  O   UNL A   1      31.264  24.422  27.228  1.00  0.00    -0.207 OA
ATOM     92  O   UNL A   1      29.920  22.429  26.475  1.00  0.00    -0.207 OA
BRANCH  90  93
ATOM     93  C   UNL A   1      32.392  22.702  25.654  1.00  0.00     0.121 A 
ATOM     94  C   UNL A   1      32.349  21.482  24.964  1.00  0.00     0.028 A 
ATOM     95  C   UNL A   1      33.610  23.330  25.887  1.00  0.00     0.181 A 
ATOM     96  C   UNL A   1      33.541  20.876  24.558  1.00  0.00     0.044 A 
ATOM     97  C   UNL A   1      34.795  22.709  25.507  1.00  0.00     0.195 A 
ATOM     98  F   UNL A   1      33.679  24.501  26.534  1.00  0.00    -0.202 F 
ATOM     99  C   UNL A   1      34.758  21.488  24.848  1.00  0.00     0.161 A 
ATOM    100  F   UNL A   1      35.972  23.277  25.805  1.00  0.00    -0.200 F 
ATOM    101  F   UNL A   1      35.899  20.881  24.492  1.00  0.00    -0.204 F 
ENDBRANCH  90  93
ENDBRANCH  88  90
ENDBRANCH  87  88
ENDBRANCH  80  83
ENDBRANCH  78  79
ENDBRANCH  77  78
ENDBRANCH  76  77
ENDBRANCH   1  76
TORSDOF 19
ENDMDL
MODEL 2
REMARK VINA RESULT:     -12.1      0.655      1.813
REMARK SMILES O=C(NCCCCCCNC(=O)[C@H]1C=C[C@H](NS(=O)(=O)c2ccc(F)c(F)c2F)C1)c1ccc(-c2c3nc(c(-c4c(F)cc(S(=O)(=O)[O-])cc4F)c4ccc([nH]4)c(-c4c(F)cc(S(=O)(=O)[O-])cc4F)c4nc(c(-c5c(F)cc(S(=O)(=O)[O-])cc5F)c5ccc2[nH]5)C=C4)C=C3)cc1
REMARK SMILES IDX 6 1 5 2 4 3 3 4 1 5 2 6 31 8 32 9 96 10 33 11 95 12 34 13
REMARK SMILES IDX 35 14 36 15 89 16 37 17 94 18 88 19 90 20 38 21 93 22 87 23
REMARK SMILES IDX 86 24 39 26 73 27 52 28 72 29 53 30 56 31 71 32 91 33 54 34
REMARK SMILES IDX 55 35 70 37 92 38 57 39 40 40 41 41 50 42 42 43 43 44 49 45
REMARK SMILES IDX 51 46 44 47 45 48 46 49 47 50 48 51 74 52 75 53 84 54 76 55
REMARK SMILES IDX 77 56 83 57 85 58 78 59 79 60 80 61 81 62 82 63 58 64 59 65
REMARK SMILES IDX 68 66 60 67 61 68 67 69 69 70 62 71 63 72 64 73 65 74 66 75
REMARK SMILES IDX 7 76 8 77 9 78 10 79 11 80 12 82 13 83 14 84 30 85 15 86
REMARK SMILES IDX 16 87 17 88 18 90 19 91 20 92 21 93 22 94 28 95 23 96 26 97
REMARK SMILES IDX 29 98 24 99 27 100 25 101
REMARK H PARENT 3 7 90 25 56 36 10 81 17 89
REMARK Flexibility Score: inf
ROOT
ATOM      1  C   UNL A   1      34.435  28.932  27.213  1.00  0.00     0.002 C 
ENDROOT
BRANCH   1   2
ATOM      2  C   UNL A   1      34.502  30.457  27.304  1.00  0.00     0.021 C 
BRANCH   2   3
ATOM      3  C   UNL A   1      35.706  30.991  28.068  1.00  0.00     0.116 C 
BRANCH   3   4
ATOM      4  N   UNL A   1      35.583  30.794  29.505  1.00  0.00    -0.352 N 
ATOM      5  O   UNL A   1      36.096  29.916  31.520  1.00  0.00    -0.269 OA
ATOM      6  C   UNL A   1      36.436  30.144  30.363  1.00  0.00     0.251 C 
ATOM      7  H   UNL A   1      34.778  31.181  29.919  1.00  0.00     0.163 HD
BRANCH   6   8
ATOM      8  C   UNL A   1      37.758  29.698  29.870  1.00  0.00     0.039 A 
ATOM      9  C   UNL A   1      38.751  29.307  30.770  1.00  0.00     0.014 A 
ATOM     10  C   UNL A   1      38.014  29.695  28.496  1.00  0.00     0.014 A 
ATOM     11  C   UNL A   1      40.040  29.070  30.312  1.00  0.00     0.010 A 
ATOM     12  C   UNL A   1      39.289  29.360  28.030  1.00  0.00     0.010 A 
ATOM     13  C   UNL A   1      40.324  29.082  28.936  1.00  0.00    -0.014 A 
BRANCH  13  14
ATOM     14  C   UNL A   1      41.700  28.752  28.481  1.00  0.00     0.031 A 
ATOM     15  C   UNL A   1      42.795  29.785  28.491  1.00  0.00     0.074 A 
ATOM     16  C   UNL A   1      41.964  27.489  28.095  1.00  0.00     0.049 A 
ATOM     17  N   UNL A   1      44.058  29.646  28.172  1.00  0.00    -0.248 NA
ATOM     18  C   UNL A   1      42.430  31.149  28.900  1.00  0.00     0.031 C 
ATOM     19  C   UNL A   1      40.977  26.406  28.032  1.00  0.00     0.029 A 
ATOM     20  N   UNL A   1      43.136  26.889  27.711  1.00  0.00    -0.354 N 
ATOM     21  C   UNL A   1      44.632  30.904  28.316  1.00  0.00     0.074 A 
ATOM     22  C   UNL A   1      43.573  31.801  28.731  1.00  0.00     0.031 C 
ATOM     23  C   UNL A   1      41.595  25.265  27.694  1.00  0.00     0.029 A 
ATOM     24  C   UNL A   1      43.005  25.545  27.452  1.00  0.00     0.049 A 
ATOM     25  H   UNL A   1      43.987  27.375  27.628  1.00  0.00     0.167 HD
ATOM     26  C   UNL A   1      45.922  31.275  28.125  1.00  0.00     0.037 A 
ATOM     27  C   UNL A   1      43.916  24.637  27.056  1.00  0.00     0.037 A 
ATOM     28  C   UNL A   1      46.973  30.367  27.736  1.00  0.00     0.049 A 
ATOM     29  C   UNL A   1      45.336  25.076  26.847  1.00  0.00     0.074 A 
ATOM     30  C   UNL A   1      48.321  30.634  27.563  1.00  0.00     0.029 A 
ATOM     31  N   UNL A   1      46.795  29.020  27.451  1.00  0.00    -0.354 N 
ATOM     32  N   UNL A   1      45.866  26.263  27.024  1.00  0.00    -0.248 NA
ATOM     33  C   UNL A   1      46.281  24.054  26.380  1.00  0.00     0.031 C 
ATOM     34  C   UNL A   1      48.949  29.461  27.129  1.00  0.00     0.029 A 
ATOM     35  C   UNL A   1      48.004  28.449  27.081  1.00  0.00     0.049 A 
ATOM     36  H   UNL A   1      45.938  28.541  27.504  1.00  0.00     0.167 HD
ATOM     37  C   UNL A   1      47.213  26.126  26.712  1.00  0.00     0.074 A 
ATOM     38  C   UNL A   1      47.417  24.737  26.349  1.00  0.00     0.031 C 
ATOM     39  C   UNL A   1      48.192  27.064  26.724  1.00  0.00     0.037 A 
BRANCH  26  40
ATOM     40  C   UNL A   1      46.270  32.729  28.307  1.00  0.00     0.058 A 
ATOM     41  C   UNL A   1      46.192  33.652  27.252  1.00  0.00     0.135 A 
ATOM     42  C   UNL A   1      46.652  33.213  29.570  1.00  0.00     0.135 A 
ATOM     43  F   UNL A   1      45.844  33.244  26.022  1.00  0.00    -0.206 F 
ATOM     44  C   UNL A   1      46.510  34.995  27.435  1.00  0.00     0.059 A 
ATOM     45  C   UNL A   1      46.950  34.557  29.781  1.00  0.00     0.059 A 
ATOM     46  F   UNL A   1      46.741  32.376  30.616  1.00  0.00    -0.206 F 
ATOM     47  C   UNL A   1      46.892  35.438  28.703  1.00  0.00     0.060 A 
BRANCH  47  48
ATOM     48  S   UNL A   1      47.310  37.181  28.923  1.00  0.00     0.124 S 
ATOM     49  O   UNL A   1      48.609  37.252  28.262  1.00  0.00    -0.237 OA
ATOM     50  O   UNL A   1      46.213  37.856  28.236  1.00  0.00    -0.237 OA
ATOM     51  O   UNL A   1      47.333  37.345  30.372  1.00  0.00    -0.744 OA
ENDBRANCH  47  48
ENDBRANCH  26  40
BRANCH  27  52
ATOM     52  C   UNL A   1      43.506  23.224  26.847  1.00  0.00     0.058 A 
ATOM     53  C   UNL A   1      43.248  22.379  27.937  1.00  0.00     0.135 A 
ATOM     54  C   UNL A   1      43.334  22.699  25.556  1.00  0.00     0.135 A 
ATOM     55  F   UNL A   1      43.400  22.835  29.190  1.00  0.00    -0.206 F 
ATOM     56  C   UNL A   1      42.846  21.061  27.755  1.00  0.00     0.059 A 
ATOM     57  C   UNL A   1      42.906  21.393  25.350  1.00  0.00     0.059 A 
ATOM     58  F   UNL A   1      43.550  23.474  24.482  1.00  0.00    -0.206 F 
ATOM     59  C   UNL A   1      42.673  20.578  26.457  1.00  0.00     0.060 A 
BRANCH  59  60
ATOM     60  S   UNL A   1      42.099  18.882  26.232  1.00  0.00     0.124 S 
ATOM     61  O   UNL A   1      42.243  18.342  27.579  1.00  0.00    -0.237 OA
ATOM     62  O   UNL A   1      40.730  19.080  25.765  1.00  0.00    -0.237 OA
ATOM     63  O   UNL A   1      43.020  18.345  25.235  1.00  0.00    -0.744 OA
ENDBRANCH  59  60
ENDBRANCH  27  52
BRANCH  39  64
ATOM     64  C   UNL A   1      49.579  26.609  26.370  1.00  0.00     0.058 A 
ATOM     65  C   UNL A   1      50.098  26.756  25.074  1.00  0.00     0.135 A 
ATOM     66  C   UNL A   1      50.407  26.033  27.347  1.00  0.00     0.135 A 
ATOM     67  F   UNL A   1      49.345  27.290  24.100  1.00  0.00    -0.206 F 
ATOM     68  C   UNL A   1      51.379  26.318  24.751  1.00  0.00     0.059 A 
ATOM     69  C   UNL A   1      51.702  25.616  27.054  1.00  0.00     0.059 A 
ATOM     70  F   UNL A   1      49.963  25.879  28.605  1.00  0.00    -0.206 F 
ATOM     71  C   UNL A   1      52.172  25.747  25.748  1.00  0.00     0.060 A 
BRANCH  71  72
ATOM     72  S   UNL A   1      53.837  25.195  25.322  1.00  0.00     0.124 S 
ATOM     73  O   UNL A   1      53.993  25.743  23.979  1.00  0.00    -0.237 OA
ATOM     74  O   UNL A   1      54.651  25.820  26.360  1.00  0.00    -0.237 OA
ATOM     75  O   UNL A   1      53.742  23.740  25.400  1.00  0.00    -0.744 OA
ENDBRANCH  71  72
ENDBRANCH  39  64
ENDBRANCH  13  14
ENDBRANCH   6   8
ENDBRANCH   3   4
ENDBRANCH   2   3
ENDBRANCH   1   2
BRANCH   1  76
ATOM     76  C   UNL A   1      33.147  28.375  26.598  1.00  0.00     0.002 C 
BRANCH  76  77
ATOM     77  C   UNL A   1      32.368  29.359  25.714  1.00  0.00     0.021 C 
BRANCH  77  78
ATOM     78  C   UNL A   1      32.671  29.218  24.224  1.00  0.00     0.116 C 
BRANCH  78  79
ATOM     79  N   UNL A   1      31.475  29.466  23.444  1.00  0.00    -0.356 N 
ATOM     80  C   UNL A   1      30.739  28.640  22.655  1.00  0.00     0.226 C 
ATOM     81  H   UNL A   1      31.139  30.390  23.493  1.00  0.00     0.163 HD
ATOM     82  O   UNL A   1      29.878  29.160  21.938  1.00  0.00    -0.274 OA
BRANCH  80  83
ATOM     83  C   UNL A   1      30.865  27.114  22.715  1.00  0.00     0.103 C 
ATOM     84  C   UNL A   1      32.212  26.496  22.535  1.00  0.00    -0.016 C 
ATOM     85  C   UNL A   1      30.377  26.568  24.059  1.00  0.00     0.042 C 
ATOM     86  C   UNL A   1      32.517  25.667  23.541  1.00  0.00    -0.011 C 
ATOM     87  C   UNL A   1      31.483  25.665  24.620  1.00  0.00     0.093 C 
BRANCH  87  88
ATOM     88  N   UNL A   1      30.977  24.320  24.812  1.00  0.00    -0.204 NA
ATOM     89  H   UNL A   1      31.447  23.731  24.124  1.00  0.00     0.142 HD
BRANCH  88  90
ATOM     90  S   UNL A   1      31.137  23.549  26.289  1.00  0.00     0.244 S 
ATOM     91  O   UNL A   1      31.371  24.607  27.243  1.00  0.00    -0.207 OA
ATOM     92  O   UNL A   1      30.046  22.614  26.457  1.00  0.00    -0.207 OA
BRANCH  90  93
ATOM     93  C   UNL A   1      32.645  22.643  26.136  1.00  0.00     0.121 A 
ATOM     94  C   UNL A   1      33.756  22.983  26.921  1.00  0.00     0.028 A 
ATOM     95  C   UNL A   1      32.719  21.579  25.244  1.00  0.00     0.181 A 
ATOM     96  C   UNL A   1      34.953  22.279  26.764  1.00  0.00     0.044 A 
ATOM     97  C   UNL A   1      33.920  20.901  25.071  1.00  0.00     0.195 A 
ATOM     98  F   UNL A   1      31.670  21.227  24.489  1.00  0.00    -0.202 F 
ATOM     99  C   UNL A   1      35.030  21.252  25.826  1.00  0.00     0.161 A 
ATOM    100  F   UNL A   1      34.012  19.929  24.152  1.00  0.00    -0.200 F 
ATOM    101  F   UNL A   1      36.194  20.609  25.653  1.00  0.00    -0.204 F 
ENDBRANCH  90  93
ENDBRANCH  88  90
ENDBRANCH  87  88
ENDBRANCH  80  83
ENDBRANCH  78  79
ENDBRANCH  77  78
ENDBRANCH  76  77
ENDBRANCH   1  76
TORSDOF 19
ENDMDL
MODEL 3
REMARK VINA RESULT:     -12.1      2.610      9.001
REMARK SMILES O=C(NCCCCCCNC(=O)[C@H]1C=C[C@H](NS(=O)(=O)c2ccc(F)c(F)c2F)C1)c1ccc(-c2c3nc(c(-c4c(F)cc(S(=O)(=O)[O-])cc4F)c4ccc([nH]4)c(-c4c(F)cc(S(=O)(=O)[O-])cc4F)c4nc(c(-c5c(F)cc(S(=O)(=O)[O-])cc5F)c5ccc2[nH]5)C=C4)C=C3)cc1
REMARK SMILES IDX 6 1 5 2 4 3 3 4 1 5 2 6 31 8 32 9 96 10 33 11 95 12 34 13
REMARK SMILES IDX 35 14 36 15 89 16 37 17 94 18 88 19 90 20 38 21 93 22 87 23
REMARK SMILES IDX 86 24 39 26 73 27 52 28 72 29 53 30 56 31 71 32 91 33 54 34
REMARK SMILES IDX 55 35 70 37 92 38 57 39 40 40 41 41 50 42 42 43 43 44 49 45
REMARK SMILES IDX 51 46 44 47 45 48 46 49 47 50 48 51 74 52 75 53 84 54 76 55
REMARK SMILES IDX 77 56 83 57 85 58 78 59 79 60 80 61 81 62 82 63 58 64 59 65
REMARK SMILES IDX 68 66 60 67 61 68 67 69 69 70 62 71 63 72 64 73 65 74 66 75
REMARK SMILES IDX 7 76 8 77 9 78 10 79 11 80 12 82 13 83 14 84 30 85 15 86
REMARK SMILES IDX 16 87 17 88 18 90 19 91 20 92 21 93 22 94 28 95 23 96 26 97
REMARK SMILES IDX 29 98 24 99 27 100 25 101
REMARK H PARENT 3 7 90 25 56 36 10 81 17 89
REMARK Flexibility Score: inf
ROOT
ATOM      1  C   UNL A   1      37.431  20.974  24.643  1.00  0.00     0.002 C 
ENDROOT
BRANCH   1   2
ATOM      2  C   UNL A   1      38.357  19.806  24.984  1.00  0.00     0.021 C 
BRANCH   2   3
ATOM      3  C   UNL A   1      39.373  20.106  26.078  1.00  0.00     0.116 C 
BRANCH   3   4
ATOM      4  N   UNL A   1      40.518  19.208  26.033  1.00  0.00    -0.352 N 
ATOM      5  O   UNL A   1      42.699  18.650  25.870  1.00  0.00    -0.269 OA
ATOM      6  C   UNL A   1      41.856  19.512  26.099  1.00  0.00     0.251 C 
ATOM      7  H   UNL A   1      40.303  18.251  25.943  1.00  0.00     0.163 HD
BRANCH   6   8
ATOM      8  C   UNL A   1      42.269  20.895  26.423  1.00  0.00     0.039 A 
ATOM      9  C   UNL A   1      42.433  21.838  25.407  1.00  0.00     0.014 A 
ATOM     10  C   UNL A   1      42.520  21.244  27.753  1.00  0.00     0.014 A 
ATOM     11  C   UNL A   1      42.997  23.074  25.699  1.00  0.00     0.010 A 
ATOM     12  C   UNL A   1      42.996  22.524  28.056  1.00  0.00     0.010 A 
ATOM     13  C   UNL A   1      43.276  23.437  27.027  1.00  0.00    -0.014 A 
BRANCH  13  14
ATOM     14  C   UNL A   1      43.812  24.795  27.306  1.00  0.00     0.031 A 
ATOM     15  C   UNL A   1      45.247  25.143  27.015  1.00  0.00     0.074 A 
ATOM     16  C   UNL A   1      42.972  25.731  27.789  1.00  0.00     0.049 A 
ATOM     17  N   UNL A   1      45.858  26.294  27.155  1.00  0.00    -0.248 NA
ATOM     18  C   UNL A   1      46.113  24.065  26.513  1.00  0.00     0.031 C 
ATOM     19  C   UNL A   1      41.563  25.503  28.122  1.00  0.00     0.029 A 
ATOM     20  N   UNL A   1      43.164  27.061  28.059  1.00  0.00    -0.354 N 
ATOM     21  C   UNL A   1      47.180  26.075  26.785  1.00  0.00     0.074 A 
ATOM     22  C   UNL A   1      47.289  24.674  26.434  1.00  0.00     0.031 C 
ATOM     23  C   UNL A   1      41.004  26.665  28.491  1.00  0.00     0.029 A 
ATOM     24  C   UNL A   1      42.026  27.704  28.485  1.00  0.00     0.049 A 
ATOM     25  H   UNL A   1      44.033  27.511  27.958  1.00  0.00     0.167 HD
ATOM     26  C   UNL A   1      48.205  26.961  26.737  1.00  0.00     0.037 A 
ATOM     27  C   UNL A   1      41.826  28.986  28.841  1.00  0.00     0.037 A 
ATOM     28  C   UNL A   1      48.079  28.359  27.066  1.00  0.00     0.049 A 
ATOM     29  C   UNL A   1      42.979  29.945  28.785  1.00  0.00     0.074 A 
ATOM     30  C   UNL A   1      49.044  29.350  27.003  1.00  0.00     0.029 A 
ATOM     31  N   UNL A   1      46.918  28.966  27.525  1.00  0.00    -0.354 N 
ATOM     32  N   UNL A   1      44.214  29.727  28.397  1.00  0.00    -0.248 NA
ATOM     33  C   UNL A   1      42.716  31.322  29.218  1.00  0.00     0.031 C 
ATOM     34  C   UNL A   1      48.482  30.543  27.469  1.00  0.00     0.029 A 
ATOM     35  C   UNL A   1      47.150  30.311  27.772  1.00  0.00     0.049 A 
ATOM     36  H   UNL A   1      46.056  28.509  27.656  1.00  0.00     0.167 HD
ATOM     37  C   UNL A   1      44.869  30.945  28.517  1.00  0.00     0.074 A 
ATOM     38  C   UNL A   1      43.890  31.899  29.000  1.00  0.00     0.031 C 
ATOM     39  C   UNL A   1      46.164  31.248  28.252  1.00  0.00     0.037 A 
BRANCH  26  40
ATOM     40  C   UNL A   1      49.564  26.444  26.341  1.00  0.00     0.058 A 
ATOM     41  C   UNL A   1      50.092  26.646  25.056  1.00  0.00     0.135 A 
ATOM     42  C   UNL A   1      50.364  25.768  27.276  1.00  0.00     0.135 A 
ATOM     43  F   UNL A   1      49.367  27.276  24.118  1.00  0.00    -0.206 F 
ATOM     44  C   UNL A   1      51.351  26.169  24.703  1.00  0.00     0.059 A 
ATOM     45  C   UNL A   1      51.637  25.304  26.952  1.00  0.00     0.059 A 
ATOM     46  F   UNL A   1      49.912  25.549  28.521  1.00  0.00    -0.206 F 
ATOM     47  C   UNL A   1      52.116  25.495  25.658  1.00  0.00     0.060 A 
BRANCH  47  48
ATOM     48  S   UNL A   1      53.743  24.874  25.183  1.00  0.00     0.124 S 
ATOM     49  O   UNL A   1      54.556  25.291  26.321  1.00  0.00    -0.237 OA
ATOM     50  O   UNL A   1      53.509  23.438  25.065  1.00  0.00    -0.237 OA
ATOM     51  O   UNL A   1      54.019  25.566  23.928  1.00  0.00    -0.744 OA
ENDBRANCH  47  48
ENDBRANCH  26  40
BRANCH  27  52
ATOM     52  C   UNL A   1      40.473  29.431  29.269  1.00  0.00     0.058 A 
ATOM     53  C   UNL A   1      40.193  29.692  30.618  1.00  0.00     0.135 A 
ATOM     54  C   UNL A   1      39.445  29.633  28.334  1.00  0.00     0.135 A 
ATOM     55  F   UNL A   1      41.144  29.511  31.548  1.00  0.00    -0.206 F 
ATOM     56  C   UNL A   1      38.937  30.125  31.028  1.00  0.00     0.059 A 
ATOM     57  C   UNL A   1      38.191  30.093  28.717  1.00  0.00     0.059 A 
ATOM     58  F   UNL A   1      39.670  29.415  27.029  1.00  0.00    -0.206 F 
ATOM     59  C   UNL A   1      37.943  30.328  30.069  1.00  0.00     0.060 A 
BRANCH  59  60
ATOM     60  S   UNL A   1      36.334  30.943  30.606  1.00  0.00     0.124 S 
ATOM     61  O   UNL A   1      36.670  32.284  31.065  1.00  0.00    -0.237 OA
ATOM     62  O   UNL A   1      35.549  30.865  29.377  1.00  0.00    -0.237 OA
ATOM     63  O   UNL A   1      35.944  29.997  31.647  1.00  0.00    -0.744 OA
ENDBRANCH  59  60
ENDBRANCH  27  52
BRANCH  39  64
ATOM     64  C   UNL A   1      46.585  32.678  28.444  1.00  0.00     0.058 A 
ATOM     65  C   UNL A   1      46.451  33.632  27.423  1.00  0.00     0.135 A 
ATOM     66  C   UNL A   1      47.112  33.103  29.675  1.00  0.00     0.135 A 
ATOM     67  F   UNL A   1      45.963  33.276  26.224  1.00  0.00    -0.206 F 
ATOM     68  C   UNL A   1      46.857  34.951  27.604  1.00  0.00     0.059 A 
ATOM     69  C   UNL A   1      47.496  34.423  29.887  1.00  0.00     0.059 A 
ATOM     70  F   UNL A   1      47.251  32.233  30.687  1.00  0.00    -0.206 F 
ATOM     71  C   UNL A   1      47.380  35.335  28.840  1.00  0.00     0.060 A 
BRANCH  71  72
ATOM     72  S   UNL A   1      47.891  37.052  29.069  1.00  0.00     0.124 S 
ATOM     73  O   UNL A   1      46.604  37.739  29.102  1.00  0.00    -0.237 OA
ATOM     74  O   UNL A   1      48.615  36.998  30.335  1.00  0.00    -0.237 OA
ATOM     75  O   UNL A   1      48.716  37.319  27.894  1.00  0.00    -0.744 OA
ENDBRANCH  71  72
ENDBRANCH  39  64
ENDBRANCH  13  14
ENDBRANCH   6   8
ENDBRANCH   3   4
ENDBRANCH   2   3
ENDBRANCH   1   2
BRANCH   1  76
ATOM     76  C   UNL A   1      35.969  20.787  25.064  1.00  0.00     0.002 C 
BRANCH  76  77
ATOM     77  C   UNL A   1      35.417  21.872  25.998  1.00  0.00     0.021 C 
BRANCH  77  78
ATOM     78  C   UNL A   1      34.153  21.453  26.746  1.00  0.00     0.116 C 
BRANCH  78  79
ATOM     79  N   UNL A   1      33.595  20.253  26.154  1.00  0.00    -0.356 N 
ATOM     80  C   UNL A   1      32.514  20.078  25.350  1.00  0.00     0.226 C 
ATOM     81  H   UNL A   1      34.081  19.426  26.371  1.00  0.00     0.163 HD
ATOM     82  O   UNL A   1      32.138  18.918  25.151  1.00  0.00    -0.274 OA
BRANCH  80  83
ATOM     83  C   UNL A   1      31.839  21.238  24.611  1.00  0.00     0.103 C 
ATOM     84  C   UNL A   1      31.411  22.437  25.392  1.00  0.00    -0.016 C 
ATOM     85  C   UNL A   1      32.747  21.805  23.517  1.00  0.00     0.042 C 
ATOM     86  C   UNL A   1      31.903  23.569  24.874  1.00  0.00    -0.011 C 
ATOM     87  C   UNL A   1      32.829  23.323  23.726  1.00  0.00     0.093 C 
BRANCH  87  88
ATOM     88  N   UNL A   1      32.342  24.014  22.548  1.00  0.00    -0.204 NA
ATOM     89  H   UNL A   1      31.381  24.292  22.749  1.00  0.00     0.142 HD
BRANCH  88  90
ATOM     90  S   UNL A   1      33.124  25.377  21.973  1.00  0.00     0.244 S 
ATOM     91  O   UNL A   1      34.437  25.341  22.573  1.00  0.00    -0.207 OA
ATOM     92  O   UNL A   1      32.956  25.452  20.538  1.00  0.00    -0.207 OA
BRANCH  90  93
ATOM     93  C   UNL A   1      32.248  26.717  22.720  1.00  0.00     0.121 A 
ATOM     94  C   UNL A   1      30.853  26.799  22.608  1.00  0.00     0.028 A 
ATOM     95  C   UNL A   1      32.950  27.683  23.433  1.00  0.00     0.181 A 
ATOM     96  C   UNL A   1      30.178  27.885  23.174  1.00  0.00     0.044 A 
ATOM     97  C   UNL A   1      32.278  28.775  23.969  1.00  0.00     0.195 A 
ATOM     98  F   UNL A   1      34.282  27.623  23.563  1.00  0.00    -0.202 F 
ATOM     99  C   UNL A   1      30.899  28.874  23.838  1.00  0.00     0.161 A 
ATOM    100  F   UNL A   1      32.965  29.746  24.586  1.00  0.00    -0.200 F 
ATOM    101  F   UNL A   1      30.249  29.932  24.342  1.00  0.00    -0.204 F 
ENDBRANCH  90  93
ENDBRANCH  88  90
ENDBRANCH  87  88
ENDBRANCH  80  83
ENDBRANCH  78  79
ENDBRANCH  77  78
ENDBRANCH  76  77
ENDBRANCH   1  76
TORSDOF 19
ENDMDL
