MODEL 1
REMARK VINA RESULT:     -11.8      0.000      0.000
REMARK SMILES CCCN1CCC[C@@]2(CCN(c3ccc(C(=O)NCCCCCCNC(=O)c4ccc(-c5c6nc(c(-c7c(F)cc(S(=O)(=O)[O-])cc7F)c7ccc([nH]7)c(-c7c(F)cc(S(=O)(=O)[O-])cc7F)c7nc(c(-c8c(F)cc(S(=O)(=O)[O-])cc8F)c8ccc5[nH]8)C=C7)C=C6)cc4)cn3)C2)C1=O
REMARK SMILES IDX 21 1 20 2 19 3 18 4 16 5 17 6 15 8 12 9 13 10 95 11 14 12
REMARK SMILES IDX 94 13 11 14 4 15 5 16 97 17 6 18 8 19 98 20 7 21 9 22 96 23
REMARK SMILES IDX 10 24 3 25 2 26 1 27 22 28 23 29 24 30 25 31 26 32 27 34
REMARK SMILES IDX 28 35 29 36 93 37 30 38 92 39 31 40 32 41 33 42 86 43 34 44
REMARK SMILES IDX 91 45 85 46 87 47 35 48 90 49 84 50 83 51 36 53 70 54 49 55
REMARK SMILES IDX 69 56 50 57 53 58 68 59 88 60 51 61 52 62 67 64 89 65 54 66
REMARK SMILES IDX 37 67 38 68 47 69 39 70 40 71 46 72 48 73 41 74 42 75 43 76
REMARK SMILES IDX 44 77 45 78 71 79 72 80 81 81 73 82 74 83 80 84 82 85 75 86
REMARK SMILES IDX 76 87 77 88 78 89 79 90 55 91 56 92 65 93 57 94 58 95 64 96
REMARK SMILES IDX 66 97 59 98 60 99 61 100 62 101 63 102
REMARK H PARENT 18 7 25 33 87 52 53 63
REMARK Flexibility Score: inf
ROOT
ATOM      1  C   UNL A   1      40.017  21.917  26.840  1.00  0.00     0.002 C 
ENDROOT
BRANCH   1   2
ATOM      2  C   UNL A   1      39.321  21.038  25.793  1.00  0.00     0.021 C 
BRANCH   2   3
ATOM      3  C   UNL A   1      37.967  21.591  25.339  1.00  0.00     0.116 C 
BRANCH   3   4
ATOM      4  N   UNL A   1      37.037  20.510  25.072  1.00  0.00    -0.352 N 
ATOM      5  C   UNL A   1      35.668  20.454  24.993  1.00  0.00     0.252 C 
ATOM      6  O   UNL A   1      35.161  19.367  24.710  1.00  0.00    -0.269 OA
ATOM      7  H   UNL A   1      37.476  19.642  24.914  1.00  0.00     0.163 HD
BRANCH   5   8
ATOM      8  C   UNL A   1      34.778  21.627  25.189  1.00  0.00     0.058 A 
ATOM      9  C   UNL A   1      33.062  23.720  25.842  1.00  0.00     0.128 A 
ATOM     10  C   UNL A   1      33.367  23.451  24.511  1.00  0.00     0.048 A 
ATOM     11  N   UNL A   1      33.624  23.014  26.839  1.00  0.00    -0.239 NA
ATOM     12  C   UNL A   1      34.264  22.434  24.186  1.00  0.00     0.019 A 
ATOM     13  C   UNL A   1      34.445  21.982  26.494  1.00  0.00     0.127 A 
BRANCH   9  14
ATOM     14  N   UNL A   1      32.174  24.730  26.115  1.00  0.00    -0.356 N 
ATOM     15  N   UNL A   1      32.009  28.677  24.408  1.00  0.00    -0.342 N 
ATOM     16  C   UNL A   1      32.342  29.658  25.434  1.00  0.00     0.119 C 
ATOM     17  C   UNL A   1      31.183  27.593  24.690  1.00  0.00     0.230 C 
ATOM     18  C   UNL A   1      32.551  29.065  26.816  1.00  0.00     0.023 C 
ATOM     19  C   UNL A   1      31.362  26.975  26.083  1.00  0.00     0.069 C 
ATOM     20  O   UNL A   1      30.448  27.090  23.841  1.00  0.00    -0.274 OA
ATOM     21  C   UNL A   1      31.437  28.077  27.147  1.00  0.00     0.021 C 
ATOM     22  C   UNL A   1      30.248  25.950  26.382  1.00  0.00     0.040 C 
ATOM     23  C   UNL A   1      32.650  26.108  26.071  1.00  0.00     0.135 C 
ATOM     24  C   UNL A   1      30.774  24.652  25.758  1.00  0.00     0.119 C 
BRANCH  15  25
ATOM     25  C   UNL A   1      32.329  28.971  23.012  1.00  0.00     0.119 C 
BRANCH  25  26
ATOM     26  C   UNL A   1      33.632  28.374  22.477  1.00  0.00     0.018 C 
ATOM     27  C   UNL A   1      33.551  26.877  22.212  1.00  0.00     0.006 C 
ENDBRANCH  25  26
ENDBRANCH  15  25
ENDBRANCH   9  14
ENDBRANCH   5   8
ENDBRANCH   3   4
ENDBRANCH   2   3
ENDBRANCH   1   2
BRANCH   1  28
ATOM     28  C   UNL A   1      41.526  21.683  26.980  1.00  0.00     0.002 C 
BRANCH  28  29
ATOM     29  C   UNL A   1      42.252  22.641  27.932  1.00  0.00     0.021 C 
BRANCH  29  30
ATOM     30  C   UNL A   1      43.225  23.600  27.251  1.00  0.00     0.116 C 
BRANCH  30  31
ATOM     31  N   UNL A   1      42.612  24.262  26.113  1.00  0.00    -0.352 N 
ATOM     32  C   UNL A   1      41.780  25.352  26.074  1.00  0.00     0.251 C 
ATOM     33  H   UNL A   1      42.827  23.869  25.236  1.00  0.00     0.163 HD
ATOM     34  O   UNL A   1      41.172  25.606  25.039  1.00  0.00    -0.269 OA
BRANCH  32  35
ATOM     35  C   UNL A   1      41.612  26.219  27.261  1.00  0.00     0.039 A 
ATOM     36  C   UNL A   1      40.544  25.968  28.128  1.00  0.00     0.014 A 
ATOM     37  C   UNL A   1      42.446  27.319  27.487  1.00  0.00     0.014 A 
ATOM     38  C   UNL A   1      40.326  26.802  29.226  1.00  0.00     0.010 A 
ATOM     39  C   UNL A   1      42.264  28.116  28.618  1.00  0.00     0.010 A 
ATOM     40  C   UNL A   1      41.188  27.878  29.486  1.00  0.00    -0.014 A 
BRANCH  40  41
ATOM     41  C   UNL A   1      40.945  28.782  30.639  1.00  0.00     0.031 A 
ATOM     42  C   UNL A   1      41.754  28.633  31.901  1.00  0.00     0.074 A 
ATOM     43  C   UNL A   1      39.979  29.719  30.561  1.00  0.00     0.049 A 
ATOM     44  N   UNL A   1      41.680  29.317  33.014  1.00  0.00    -0.248 NA
ATOM     45  C   UNL A   1      42.761  27.558  31.927  1.00  0.00     0.031 C 
ATOM     46  C   UNL A   1      39.087  29.922  29.416  1.00  0.00     0.029 A 
ATOM     47  N   UNL A   1      39.578  30.671  31.464  1.00  0.00    -0.354 N 
ATOM     48  C   UNL A   1      42.613  28.747  33.874  1.00  0.00     0.074 A 
ATOM     49  C   UNL A   1      43.210  27.634  33.172  1.00  0.00     0.031 C 
ATOM     50  C   UNL A   1      38.258  30.945  29.680  1.00  0.00     0.029 A 
ATOM     51  C   UNL A   1      38.541  31.456  31.017  1.00  0.00     0.049 A 
ATOM     52  H   UNL A   1      39.994  30.782  32.349  1.00  0.00     0.167 HD
ATOM     53  C   UNL A   1      42.955  29.133  35.126  1.00  0.00     0.037 A 
ATOM     54  C   UNL A   1      37.894  32.474  31.618  1.00  0.00     0.037 A 
ATOM     55  C   UNL A   1      42.396  30.275  35.801  1.00  0.00     0.049 A 
ATOM     56  C   UNL A   1      38.330  32.911  32.991  1.00  0.00     0.074 A 
ATOM     57  C   UNL A   1      42.742  30.800  37.035  1.00  0.00     0.029 A 
ATOM     58  N   UNL A   1      41.378  31.071  35.299  1.00  0.00    -0.354 N 
ATOM     59  N   UNL A   1      39.273  32.412  33.754  1.00  0.00    -0.248 NA
ATOM     60  C   UNL A   1      37.623  34.057  33.580  1.00  0.00     0.031 C 
ATOM     61  C   UNL A   1      41.909  31.893  37.294  1.00  0.00     0.029 A 
ATOM     62  C   UNL A   1      41.072  32.072  36.205  1.00  0.00     0.049 A 
ATOM     63  H   UNL A   1      40.940  30.943  34.427  1.00  0.00     0.167 HD
ATOM     64  C   UNL A   1      39.285  33.196  34.903  1.00  0.00     0.074 A 
ATOM     65  C   UNL A   1      38.270  34.213  34.726  1.00  0.00     0.031 C 
ATOM     66  C   UNL A   1      40.062  33.081  36.008  1.00  0.00     0.037 A 
BRANCH  53  67
ATOM     67  C   UNL A   1      44.001  28.331  35.851  1.00  0.00     0.058 A 
ATOM     68  C   UNL A   1      45.366  28.637  35.745  1.00  0.00     0.135 A 
ATOM     69  C   UNL A   1      43.627  27.293  36.720  1.00  0.00     0.135 A 
ATOM     70  F   UNL A   1      45.779  29.609  34.915  1.00  0.00    -0.206 F 
ATOM     71  C   UNL A   1      46.327  27.934  36.465  1.00  0.00     0.059 A 
ATOM     72  C   UNL A   1      44.568  26.593  37.468  1.00  0.00     0.059 A 
ATOM     73  F   UNL A   1      42.334  26.958  36.856  1.00  0.00    -0.206 F 
ATOM     74  C   UNL A   1      45.917  26.916  37.329  1.00  0.00     0.060 A 
BRANCH  74  75
ATOM     75  S   UNL A   1      47.172  26.043  38.288  1.00  0.00     0.124 S 
ATOM     76  O   UNL A   1      47.391  24.855  37.468  1.00  0.00    -0.237 OA
ATOM     77  O   UNL A   1      48.270  27.004  38.316  1.00  0.00    -0.237 OA
ATOM     78  O   UNL A   1      46.517  25.806  39.570  1.00  0.00    -0.744 OA
ENDBRANCH  74  75
ENDBRANCH  53  67
BRANCH  54  79
ATOM     79  C   UNL A   1      36.774  33.163  30.925  1.00  0.00     0.058 A 
ATOM     80  C   UNL A   1      35.441  32.944  31.308  1.00  0.00     0.135 A 
ATOM     81  C   UNL A   1      37.011  34.036  29.853  1.00  0.00     0.135 A 
ATOM     82  F   UNL A   1      35.164  32.114  32.325  1.00  0.00    -0.206 F 
ATOM     83  C   UNL A   1      34.382  33.541  30.633  1.00  0.00     0.059 A 
ATOM     84  C   UNL A   1      35.970  34.665  29.178  1.00  0.00     0.059 A 
ATOM     85  F   UNL A   1      38.268  34.295  29.461  1.00  0.00    -0.206 F 
ATOM     86  C   UNL A   1      34.656  34.396  29.564  1.00  0.00     0.060 A 
BRANCH  86  87
ATOM     87  S   UNL A   1      33.279  35.183  28.700  1.00  0.00     0.124 S 
ATOM     88  O   UNL A   1      32.526  35.753  29.811  1.00  0.00    -0.237 OA
ATOM     89  O   UNL A   1      33.963  36.139  27.835  1.00  0.00    -0.237 OA
ATOM     90  O   UNL A   1      32.641  34.069  28.007  1.00  0.00    -0.744 OA
ENDBRANCH  86  87
ENDBRANCH  54  79
BRANCH  66  91
ATOM     91  C   UNL A   1      39.862  34.094  37.098  1.00  0.00     0.058 A 
ATOM     92  C   UNL A   1      40.522  35.333  37.079  1.00  0.00     0.135 A 
ATOM     93  C   UNL A   1      38.973  33.837  38.155  1.00  0.00     0.135 A 
ATOM     94  F   UNL A   1      41.385  35.623  36.094  1.00  0.00    -0.206 F 
ATOM     95  C   UNL A   1      40.327  36.273  38.085  1.00  0.00     0.059 A 
ATOM     96  C   UNL A   1      38.744  34.774  39.157  1.00  0.00     0.059 A 
ATOM     97  F   UNL A   1      38.310  32.672  38.212  1.00  0.00    -0.206 F 
ATOM     98  C   UNL A   1      39.438  35.983  39.122  1.00  0.00     0.060 A 
BRANCH  98  99
ATOM     99  S   UNL A   1      39.176  37.219  40.411  1.00  0.00     0.124 S 
ATOM    100  O   UNL A   1      40.538  37.686  40.649  1.00  0.00    -0.237 OA
ATOM    101  O   UNL A   1      38.285  38.173  39.758  1.00  0.00    -0.237 OA
ATOM    102  O   UNL A   1      38.575  36.453  41.498  1.00  0.00    -0.744 OA
ENDBRANCH  98  99
ENDBRANCH  66  91
ENDBRANCH  40  41
ENDBRANCH  32  35
ENDBRANCH  30  31
ENDBRANCH  29  30
ENDBRANCH  28  29
ENDBRANCH   1  28
TORSDOF 19
ENDMDL
MODEL 2
REMARK VINA RESULT:     -11.6      4.082      7.129
REMARK SMILES CCCN1CCC[C@@]2(CCN(c3ccc(C(=O)NCCCCCCNC(=O)c4ccc(-c5c6nc(c(-c7c(F)cc(S(=O)(=O)[O-])cc7F)c7ccc([nH]7)c(-c7c(F)cc(S(=O)(=O)[O-])cc7F)c7nc(c(-c8c(F)cc(S(=O)(=O)[O-])cc8F)c8ccc5[nH]8)C=C7)C=C6)cc4)cn3)C2)C1=O
REMARK SMILES IDX 21 1 20 2 19 3 18 4 16 5 17 6 15 8 12 9 13 10 95 11 14 12
REMARK SMILES IDX 94 13 11 14 4 15 5 16 97 17 6 18 8 19 98 20 7 21 9 22 96 23
REMARK SMILES IDX 10 24 3 25 2 26 1 27 22 28 23 29 24 30 25 31 26 32 27 34
REMARK SMILES IDX 28 35 29 36 93 37 30 38 92 39 31 40 32 41 33 42 86 43 34 44
REMARK SMILES IDX 91 45 85 46 87 47 35 48 90 49 84 50 83 51 36 53 70 54 49 55
REMARK SMILES IDX 69 56 50 57 53 58 68 59 88 60 51 61 52 62 67 64 89 65 54 66
REMARK SMILES IDX 37 67 38 68 47 69 39 70 40 71 46 72 48 73 41 74 42 75 43 76
REMARK SMILES IDX 44 77 45 78 71 79 72 80 81 81 73 82 74 83 80 84 82 85 75 86
REMARK SMILES IDX 76 87 77 88 78 89 79 90 55 91 56 92 65 93 57 94 58 95 64 96
REMARK SMILES IDX 66 97 59 98 60 99 61 100 62 101 63 102
REMARK H PARENT 18 7 25 33 87 52 53 63
REMARK Flexibility Score: inf
ROOT
ATOM      1  C   UNL A   1      41.047  20.278  26.364  1.00  0.00     0.002 C 
ENDROOT
BRANCH   1   2
ATOM      2  C   UNL A   1      41.697  18.967  25.904  1.00  0.00     0.021 C 
BRANCH   2   3
ATOM      3  C   UNL A   1      43.203  18.907  26.176  1.00  0.00     0.116 C 
BRANCH   3   4
ATOM      4  N   UNL A   1      43.931  18.609  24.956  1.00  0.00    -0.352 N 
ATOM      5  C   UNL A   1      44.737  19.366  24.143  1.00  0.00     0.252 C 
ATOM      6  O   UNL A   1      45.250  18.803  23.174  1.00  0.00    -0.269 OA
ATOM      7  H   UNL A   1      43.827  17.678  24.652  1.00  0.00     0.163 HD
BRANCH   5   8
ATOM      8  C   UNL A   1      45.053  20.796  24.387  1.00  0.00     0.058 A 
ATOM      9  C   UNL A   1      45.776  23.386  25.109  1.00  0.00     0.128 A 
ATOM     10  C   UNL A   1      44.824  23.173  24.117  1.00  0.00     0.048 A 
ATOM     11  N   UNL A   1      46.402  22.354  25.702  1.00  0.00    -0.239 NA
ATOM     12  C   UNL A   1      44.496  21.877  23.721  1.00  0.00     0.019 A 
ATOM     13  C   UNL A   1      46.017  21.096  25.347  1.00  0.00     0.127 A 
BRANCH   9  14
ATOM     14  N   UNL A   1      46.066  24.679  25.466  1.00  0.00    -0.356 N 
ATOM     15  N   UNL A   1      49.079  27.288  23.845  1.00  0.00    -0.342 N 
ATOM     16  C   UNL A   1      50.097  27.534  24.859  1.00  0.00     0.119 C 
ATOM     17  C   UNL A   1      47.726  27.281  24.171  1.00  0.00     0.230 C 
ATOM     18  C   UNL A   1      49.791  26.914  26.210  1.00  0.00     0.023 C 
ATOM     19  C   UNL A   1      47.382  26.670  25.536  1.00  0.00     0.069 C 
ATOM     20  O   UNL A   1      46.857  27.629  23.372  1.00  0.00    -0.274 OA
ATOM     21  C   UNL A   1      48.344  27.191  26.609  1.00  0.00     0.021 C 
ATOM     22  C   UNL A   1      45.904  26.927  25.901  1.00  0.00     0.040 C 
ATOM     23  C   UNL A   1      47.454  25.124  25.410  1.00  0.00     0.135 C 
ATOM     24  C   UNL A   1      45.157  25.777  25.217  1.00  0.00     0.119 C 
BRANCH  15  25
ATOM     25  C   UNL A   1      49.460  27.308  22.433  1.00  0.00     0.119 C 
BRANCH  25  26
ATOM     26  C   UNL A   1      50.679  28.162  22.074  1.00  0.00     0.018 C 
ATOM     27  C   UNL A   1      50.582  28.812  20.701  1.00  0.00     0.006 C 
ENDBRANCH  25  26
ENDBRANCH  15  25
ENDBRANCH   9  14
ENDBRANCH   5   8
ENDBRANCH   3   4
ENDBRANCH   2   3
ENDBRANCH   1   2
BRANCH   1  28
ATOM     28  C   UNL A   1      41.961  21.508  26.304  1.00  0.00     0.002 C 
BRANCH  28  29
ATOM     29  C   UNL A   1      42.364  22.091  27.663  1.00  0.00     0.021 C 
BRANCH  29  30
ATOM     30  C   UNL A   1      42.809  23.551  27.624  1.00  0.00     0.116 C 
BRANCH  30  31
ATOM     31  N   UNL A   1      42.421  24.192  26.379  1.00  0.00    -0.352 N 
ATOM     32  C   UNL A   1      41.681  25.327  26.170  1.00  0.00     0.251 C 
ATOM     33  H   UNL A   1      42.740  23.744  25.563  1.00  0.00     0.163 HD
ATOM     34  O   UNL A   1      41.255  25.567  25.044  1.00  0.00    -0.269 OA
BRANCH  32  35
ATOM     35  C   UNL A   1      41.393  26.260  27.282  1.00  0.00     0.039 A 
ATOM     36  C   UNL A   1      42.201  27.390  27.434  1.00  0.00     0.014 A 
ATOM     37  C   UNL A   1      40.387  25.993  28.218  1.00  0.00     0.014 A 
ATOM     38  C   UNL A   1      41.989  28.260  28.506  1.00  0.00     0.010 A 
ATOM     39  C   UNL A   1      40.137  26.894  29.253  1.00  0.00     0.010 A 
ATOM     40  C   UNL A   1      40.951  28.025  29.421  1.00  0.00    -0.014 A 
BRANCH  40  41
ATOM     41  C   UNL A   1      40.738  28.934  30.576  1.00  0.00     0.031 A 
ATOM     42  C   UNL A   1      41.579  28.791  31.816  1.00  0.00     0.074 A 
ATOM     43  C   UNL A   1      39.769  29.869  30.518  1.00  0.00     0.049 A 
ATOM     44  N   UNL A   1      41.534  29.481  32.927  1.00  0.00    -0.248 NA
ATOM     45  C   UNL A   1      42.587  27.717  31.821  1.00  0.00     0.031 C 
ATOM     46  C   UNL A   1      38.847  30.066  29.396  1.00  0.00     0.029 A 
ATOM     47  N   UNL A   1      39.391  30.826  31.427  1.00  0.00    -0.354 N 
ATOM     48  C   UNL A   1      42.489  28.916  33.766  1.00  0.00     0.074 A 
ATOM     49  C   UNL A   1      43.069  27.799  33.054  1.00  0.00     0.031 C 
ATOM     50  C   UNL A   1      38.024  31.090  29.676  1.00  0.00     0.029 A 
ATOM     51  C   UNL A   1      38.342  31.608  31.003  1.00  0.00     0.049 A 
ATOM     52  H   UNL A   1      39.830  30.941  32.300  1.00  0.00     0.167 HD
ATOM     53  C   UNL A   1      42.864  29.307  35.007  1.00  0.00     0.037 A 
ATOM     54  C   UNL A   1      37.710  32.628  31.615  1.00  0.00     0.037 A 
ATOM     55  C   UNL A   1      42.322  30.452  35.691  1.00  0.00     0.049 A 
ATOM     56  C   UNL A   1      38.181  33.072  32.975  1.00  0.00     0.074 A 
ATOM     57  C   UNL A   1      42.699  30.983  36.912  1.00  0.00     0.029 A 
ATOM     58  N   UNL A   1      41.290  31.245  35.211  1.00  0.00    -0.354 N 
ATOM     59  N   UNL A   1      39.144  32.577  33.716  1.00  0.00    -0.248 NA
ATOM     60  C   UNL A   1      37.489  34.220  33.576  1.00  0.00     0.031 C 
ATOM     61  C   UNL A   1      41.872  32.077  37.187  1.00  0.00     0.029 A 
ATOM     62  C   UNL A   1      41.006  32.251  36.120  1.00  0.00     0.049 A 
ATOM     63  H   UNL A   1      40.829  31.113  34.352  1.00  0.00     0.167 HD
ATOM     64  C   UNL A   1      39.185  33.366  34.860  1.00  0.00     0.074 A 
ATOM     65  C   UNL A   1      38.166  34.382  34.705  1.00  0.00     0.031 C 
ATOM     66  C   UNL A   1      39.992  33.258  35.944  1.00  0.00     0.037 A 
BRANCH  53  67
ATOM     67  C   UNL A   1      43.929  28.510  35.708  1.00  0.00     0.058 A 
ATOM     68  C   UNL A   1      45.292  28.801  35.546  1.00  0.00     0.135 A 
ATOM     69  C   UNL A   1      43.578  27.492  36.609  1.00  0.00     0.135 A 
ATOM     70  F   UNL A   1      45.682  29.754  34.683  1.00  0.00    -0.206 F 
ATOM     71  C   UNL A   1      46.272  28.103  36.244  1.00  0.00     0.059 A 
ATOM     72  C   UNL A   1      44.541  26.797  37.336  1.00  0.00     0.059 A 
ATOM     73  F   UNL A   1      42.288  27.171  36.799  1.00  0.00    -0.206 F 
ATOM     74  C   UNL A   1      45.886  27.106  37.141  1.00  0.00     0.060 A 
BRANCH  74  75
ATOM     75  S   UNL A   1      47.168  26.239  38.070  1.00  0.00     0.124 S 
ATOM     76  O   UNL A   1      46.375  25.534  39.073  1.00  0.00    -0.237 OA
ATOM     77  O   UNL A   1      47.784  25.401  37.046  1.00  0.00    -0.237 OA
ATOM     78  O   UNL A   1      48.007  27.318  38.580  1.00  0.00    -0.744 OA
ENDBRANCH  74  75
ENDBRANCH  53  67
BRANCH  54  79
ATOM     79  C   UNL A   1      36.571  33.313  30.949  1.00  0.00     0.058 A 
ATOM     80  C   UNL A   1      36.779  34.158  29.848  1.00  0.00     0.135 A 
ATOM     81  C   UNL A   1      35.257  33.151  31.411  1.00  0.00     0.135 A 
ATOM     82  F   UNL A   1      38.018  34.347  29.372  1.00  0.00    -0.206 F 
ATOM     83  C   UNL A   1      35.728  34.845  29.250  1.00  0.00     0.059 A 
ATOM     84  C   UNL A   1      34.186  33.808  30.814  1.00  0.00     0.059 A 
ATOM     85  F   UNL A   1      35.003  32.337  32.448  1.00  0.00    -0.206 F 
ATOM     86  C   UNL A   1      34.434  34.668  29.744  1.00  0.00     0.060 A 
BRANCH  86  87
ATOM     87  S   UNL A   1      33.069  35.549  28.954  1.00  0.00     0.124 S 
ATOM     88  O   UNL A   1      33.780  36.587  28.217  1.00  0.00    -0.237 OA
ATOM     89  O   UNL A   1      32.452  34.501  28.147  1.00  0.00    -0.237 OA
ATOM     90  O   UNL A   1      32.271  36.008  30.086  1.00  0.00    -0.744 OA
ENDBRANCH  86  87
ENDBRANCH  54  79
BRANCH  66  91
ATOM     91  C   UNL A   1      39.819  34.276  37.035  1.00  0.00     0.058 A 
ATOM     92  C   UNL A   1      40.404  35.549  36.950  1.00  0.00     0.135 A 
ATOM     93  C   UNL A   1      39.030  33.988  38.160  1.00  0.00     0.135 A 
ATOM     94  F   UNL A   1      41.172  35.870  35.897  1.00  0.00    -0.206 F 
ATOM     95  C   UNL A   1      40.235  36.494  37.956  1.00  0.00     0.059 A 
ATOM     96  C   UNL A   1      38.826  34.927  39.166  1.00  0.00     0.059 A 
ATOM     97  F   UNL A   1      38.440  32.789  38.283  1.00  0.00    -0.206 F 
ATOM     98  C   UNL A   1      39.446  36.172  39.062  1.00  0.00     0.060 A 
BRANCH  98  99
ATOM     99  S   UNL A   1      39.215  37.413  40.353  1.00  0.00     0.124 S 
ATOM    100  O   UNL A   1      40.582  37.876  40.560  1.00  0.00    -0.237 OA
ATOM    101  O   UNL A   1      38.313  38.366  39.716  1.00  0.00    -0.237 OA
ATOM    102  O   UNL A   1      38.635  36.651  41.455  1.00  0.00    -0.744 OA
ENDBRANCH  98  99
ENDBRANCH  66  91
ENDBRANCH  40  41
ENDBRANCH  32  35
ENDBRANCH  30  31
ENDBRANCH  29  30
ENDBRANCH  28  29
ENDBRANCH   1  28
TORSDOF 19
ENDMDL
MODEL 3
REMARK VINA RESULT:     -11.2      4.995     12.385
REMARK SMILES CCCN1CCC[C@@]2(CCN(c3ccc(C(=O)NCCCCCCNC(=O)c4ccc(-c5c6nc(c(-c7c(F)cc(S(=O)(=O)[O-])cc7F)c7ccc([nH]7)c(-c7c(F)cc(S(=O)(=O)[O-])cc7F)c7nc(c(-c8c(F)cc(S(=O)(=O)[O-])cc8F)c8ccc5[nH]8)C=C7)C=C6)cc4)cn3)C2)C1=O
REMARK SMILES IDX 21 1 20 2 19 3 18 4 16 5 17 6 15 8 12 9 13 10 95 11 14 12
REMARK SMILES IDX 94 13 11 14 4 15 5 16 97 17 6 18 8 19 98 20 7 21 9 22 96 23
REMARK SMILES IDX 10 24 3 25 2 26 1 27 22 28 23 29 24 30 25 31 26 32 27 34
REMARK SMILES IDX 28 35 29 36 93 37 30 38 92 39 31 40 32 41 33 42 86 43 34 44
REMARK SMILES IDX 91 45 85 46 87 47 35 48 90 49 84 50 83 51 36 53 70 54 49 55
REMARK SMILES IDX 69 56 50 57 53 58 68 59 88 60 51 61 52 62 67 64 89 65 54 66
REMARK SMILES IDX 37 67 38 68 47 69 39 70 40 71 46 72 48 73 41 74 42 75 43 76
REMARK SMILES IDX 44 77 45 78 71 79 72 80 81 81 73 82 74 83 80 84 82 85 75 86
REMARK SMILES IDX 76 87 77 88 78 89 79 90 55 91 56 92 65 93 57 94 58 95 64 96
REMARK SMILES IDX 66 97 59 98 60 99 61 100 62 101 63 102
REMARK H PARENT 18 7 25 33 87 52 53 63
REMARK Flexibility Score: inf
ROOT
ATOM      1  C   UNL A   1      37.516  32.917  29.464  1.00  0.00     0.002 C 
ENDROOT
BRANCH   1   2
ATOM      2  C   UNL A   1      38.157  34.309  29.527  1.00  0.00     0.021 C 
BRANCH   2   3
ATOM      3  C   UNL A   1      39.214  34.441  30.629  1.00  0.00     0.116 C 
BRANCH   3   4
ATOM      4  N   UNL A   1      38.604  34.877  31.872  1.00  0.00    -0.352 N 
ATOM      5  C   UNL A   1      38.512  34.306  33.116  1.00  0.00     0.252 C 
ATOM      6  O   UNL A   1      37.944  34.956  33.996  1.00  0.00    -0.269 OA
ATOM      7  H   UNL A   1      38.171  35.759  31.811  1.00  0.00     0.163 HD
BRANCH   5   8
ATOM      8  C   UNL A   1      39.086  32.982  33.465  1.00  0.00     0.058 A 
ATOM      9  C   UNL A   1      40.413  30.652  34.216  1.00  0.00     0.128 A 
ATOM     10  C   UNL A   1      39.308  30.590  33.372  1.00  0.00     0.048 A 
ATOM     11  N   UNL A   1      40.832  31.823  34.726  1.00  0.00    -0.239 NA
ATOM     12  C   UNL A   1      38.614  31.751  33.035  1.00  0.00     0.019 A 
ATOM     13  C   UNL A   1      40.179  32.952  34.329  1.00  0.00     0.127 A 
BRANCH   9  14
ATOM     14  N   UNL A   1      41.065  29.483  34.520  1.00  0.00    -0.356 N 
ATOM     15  N   UNL A   1      45.230  28.533  34.002  1.00  0.00    -0.342 N 
ATOM     16  C   UNL A   1      45.365  27.507  32.976  1.00  0.00     0.119 C 
ATOM     17  C   UNL A   1      44.224  28.466  34.961  1.00  0.00     0.230 C 
ATOM     18  C   UNL A   1      44.042  26.980  32.448  1.00  0.00     0.023 C 
ATOM     19  C   UNL A   1      42.876  27.928  34.462  1.00  0.00     0.069 C 
ATOM     20  O   UNL A   1      44.368  28.917  36.097  1.00  0.00    -0.274 OA
ATOM     21  C   UNL A   1      43.089  26.678  33.600  1.00  0.00     0.021 C 
ATOM     22  C   UNL A   1      41.913  27.668  35.640  1.00  0.00     0.040 C 
ATOM     23  C   UNL A   1      42.166  29.056  33.664  1.00  0.00     0.135 C 
ATOM     24  C   UNL A   1      41.260  29.034  35.881  1.00  0.00     0.119 C 
BRANCH  15  25
ATOM     25  C   UNL A   1      46.312  29.500  34.188  1.00  0.00     0.119 C 
BRANCH  25  26
ATOM     26  C   UNL A   1      47.729  28.990  33.915  1.00  0.00     0.018 C 
ATOM     27  C   UNL A   1      48.780  30.091  33.908  1.00  0.00     0.006 C 
ENDBRANCH  25  26
ENDBRANCH  15  25
ENDBRANCH   9  14
ENDBRANCH   5   8
ENDBRANCH   3   4
ENDBRANCH   2   3
ENDBRANCH   1   2
BRANCH   1  28
ATOM     28  C   UNL A   1      36.402  32.671  30.488  1.00  0.00     0.002 C 
BRANCH  28  29
ATOM     29  C   UNL A   1      34.975  32.862  29.962  1.00  0.00     0.021 C 
BRANCH  29  30
ATOM     30  C   UNL A   1      34.783  32.497  28.492  1.00  0.00     0.116 C 
BRANCH  30  31
ATOM     31  N   UNL A   1      34.056  31.248  28.344  1.00  0.00    -0.352 N 
ATOM     32  C   UNL A   1      34.525  29.981  28.107  1.00  0.00     0.251 C 
ATOM     33  H   UNL A   1      33.078  31.322  28.428  1.00  0.00     0.163 HD
ATOM     34  O   UNL A   1      33.737  29.103  27.769  1.00  0.00    -0.269 OA
BRANCH  32  35
ATOM     35  C   UNL A   1      35.963  29.666  28.254  1.00  0.00     0.039 A 
ATOM     36  C   UNL A   1      36.432  29.247  29.503  1.00  0.00     0.014 A 
ATOM     37  C   UNL A   1      36.864  29.851  27.199  1.00  0.00     0.014 A 
ATOM     38  C   UNL A   1      37.793  28.995  29.688  1.00  0.00     0.010 A 
ATOM     39  C   UNL A   1      38.213  29.541  27.368  1.00  0.00     0.010 A 
ATOM     40  C   UNL A   1      38.695  29.132  28.621  1.00  0.00    -0.014 A 
BRANCH  40  41
ATOM     41  C   UNL A   1      40.147  28.889  28.820  1.00  0.00     0.031 A 
ATOM     42  C   UNL A   1      40.752  27.565  28.432  1.00  0.00     0.074 A 
ATOM     43  C   UNL A   1      40.914  29.848  29.374  1.00  0.00     0.049 A 
ATOM     44  N   UNL A   1      41.992  27.162  28.540  1.00  0.00    -0.248 NA
ATOM     45  C   UNL A   1      39.842  26.551  27.874  1.00  0.00     0.031 C 
ATOM     46  C   UNL A   1      40.434  31.149  29.847  1.00  0.00     0.029 A 
ATOM     47  N   UNL A   1      42.260  29.876  29.641  1.00  0.00    -0.354 N 
ATOM     48  C   UNL A   1      42.008  25.849  28.082  1.00  0.00     0.074 A 
ATOM     49  C   UNL A   1      40.647  25.506  27.736  1.00  0.00     0.031 C 
ATOM     50  C   UNL A   1      41.471  31.853  30.330  1.00  0.00     0.029 A 
ATOM     51  C   UNL A   1      42.684  31.049  30.222  1.00  0.00     0.049 A 
ATOM     52  H   UNL A   1      42.865  29.128  29.436  1.00  0.00     0.167 HD
ATOM     53  C   UNL A   1      43.064  25.014  27.941  1.00  0.00     0.037 A 
ATOM     54  C   UNL A   1      43.913  31.432  30.620  1.00  0.00     0.037 A 
ATOM     55  C   UNL A   1      44.426  25.377  28.236  1.00  0.00     0.049 A 
ATOM     56  C   UNL A   1      45.076  30.500  30.407  1.00  0.00     0.074 A 
ATOM     57  C   UNL A   1      45.576  24.633  28.042  1.00  0.00     0.029 A 
ATOM     58  N   UNL A   1      44.821  26.589  28.782  1.00  0.00    -0.354 N 
ATOM     59  N   UNL A   1      45.082  29.293  29.893  1.00  0.00    -0.248 NA
ATOM     60  C   UNL A   1      46.402  30.987  30.814  1.00  0.00     0.031 C 
ATOM     61  C   UNL A   1      46.664  25.380  28.503  1.00  0.00     0.029 A 
ATOM     62  C   UNL A   1      46.196  26.605  28.948  1.00  0.00     0.049 A 
ATOM     63  H   UNL A   1      44.214  27.327  29.017  1.00  0.00     0.167 HD
ATOM     64  C   UNL A   1      46.412  28.886  29.898  1.00  0.00     0.074 A 
ATOM     65  C   UNL A   1      47.183  29.982  30.446  1.00  0.00     0.031 C 
ATOM     66  C   UNL A   1      46.947  27.709  29.489  1.00  0.00     0.037 A 
BRANCH  53  67
ATOM     67  C   UNL A   1      42.804  23.626  27.424  1.00  0.00     0.058 A 
ATOM     68  C   UNL A   1      42.963  23.305  26.067  1.00  0.00     0.135 A 
ATOM     69  C   UNL A   1      42.465  22.589  28.309  1.00  0.00     0.135 A 
ATOM     70  F   UNL A   1      43.269  24.262  25.177  1.00  0.00    -0.206 F 
ATOM     71  C   UNL A   1      42.782  22.006  25.602  1.00  0.00     0.059 A 
ATOM     72  C   UNL A   1      42.304  21.278  27.869  1.00  0.00     0.059 A 
ATOM     73  F   UNL A   1      42.298  22.843  29.617  1.00  0.00    -0.206 F 
ATOM     74  C   UNL A   1      42.458  20.998  26.512  1.00  0.00     0.060 A 
BRANCH  74  75
ATOM     75  S   UNL A   1      42.269  19.311  25.898  1.00  0.00     0.124 S 
ATOM     76  O   UNL A   1      40.820  19.216  25.750  1.00  0.00    -0.237 OA
ATOM     77  O   UNL A   1      43.033  19.343  24.655  1.00  0.00    -0.237 OA
ATOM     78  O   UNL A   1      42.845  18.496  26.962  1.00  0.00    -0.744 OA
ENDBRANCH  74  75
ENDBRANCH  53  67
BRANCH  54  79
ATOM     79  C   UNL A   1      44.115  32.763  31.251  1.00  0.00     0.058 A 
ATOM     80  C   UNL A   1      44.359  33.904  30.470  1.00  0.00     0.135 A 
ATOM     81  C   UNL A   1      44.090  32.917  32.645  1.00  0.00     0.135 A 
ATOM     82  F   UNL A   1      44.396  33.807  29.134  1.00  0.00    -0.206 F 
ATOM     83  C   UNL A   1      44.603  35.144  31.051  1.00  0.00     0.059 A 
ATOM     84  C   UNL A   1      44.306  34.152  33.248  1.00  0.00     0.059 A 
ATOM     85  F   UNL A   1      43.841  31.860  33.434  1.00  0.00    -0.206 F 
ATOM     86  C   UNL A   1      44.580  35.257  32.442  1.00  0.00     0.060 A 
BRANCH  86  87
ATOM     87  S   UNL A   1      44.880  36.872  33.192  1.00  0.00     0.124 S 
ATOM     88  O   UNL A   1      44.853  36.543  34.613  1.00  0.00    -0.237 OA
ATOM     89  O   UNL A   1      46.184  37.230  32.643  1.00  0.00    -0.237 OA
ATOM     90  O   UNL A   1      43.763  37.677  32.707  1.00  0.00    -0.744 OA
ENDBRANCH  86  87
ENDBRANCH  54  79
BRANCH  66  91
ATOM     91  C   UNL A   1      48.437  27.556  29.599  1.00  0.00     0.058 A 
ATOM     92  C   UNL A   1      49.029  26.906  30.693  1.00  0.00     0.135 A 
ATOM     93  C   UNL A   1      49.279  28.031  28.580  1.00  0.00     0.135 A 
ATOM     94  F   UNL A   1      48.267  26.439  31.694  1.00  0.00    -0.206 F 
ATOM     95  C   UNL A   1      50.408  26.756  30.788  1.00  0.00     0.059 A 
ATOM     96  C   UNL A   1      50.659  27.868  28.642  1.00  0.00     0.059 A 
ATOM     97  F   UNL A   1      48.761  28.649  27.508  1.00  0.00    -0.206 F 
ATOM     98  C   UNL A   1      51.215  27.243  29.758  1.00  0.00     0.060 A 
BRANCH  98  99
ATOM     99  S   UNL A   1      53.003  27.024  29.880  1.00  0.00     0.124 S 
ATOM    100  O   UNL A   1      53.264  26.129  28.757  1.00  0.00    -0.237 OA
ATOM    101  O   UNL A   1      53.499  28.388  29.730  1.00  0.00    -0.237 OA
ATOM    102  O   UNL A   1      53.183  26.439  31.205  1.00  0.00    -0.744 OA
ENDBRANCH  98  99
ENDBRANCH  66  91
ENDBRANCH  40  41
ENDBRANCH  32  35
ENDBRANCH  30  31
ENDBRANCH  29  30
ENDBRANCH  28  29
ENDBRANCH   1  28
TORSDOF 19
ENDMDL
