MODEL 1
REMARK VINA RESULT:     -11.5      0.000      0.000
REMARK SMILES [NH3+]C1CC[NH+](CC(=O)N2CCO[C@H](CC(=O)NCCCCCCNC(=O)c3ccc(-c4c5nc(c(-c6c(F)cc(S(=O)(=O)[O-])cc6F)c6ccc([nH]6)c(-c6c(F)cc(S(=O)(=O)[O-])cc6F)c6nc(c(-c7c(F)cc(S(=O)(=O)[O-])cc7F)c7ccc4[nH]7)C=C6)C=C5)cc3)C2)CC1
REMARK SMILES IDX 19 1 18 2 17 3 15 4 16 5 14 7 13 8 9 9 10 10 93 11 11 12
REMARK SMILES IDX 12 13 7 14 8 15 6 16 5 17 2 18 3 19 95 20 4 21 94 22 1 24
REMARK SMILES IDX 20 28 21 29 22 30 23 31 24 32 25 33 26 35 27 36 28 37 92 38
REMARK SMILES IDX 29 39 91 40 30 41 31 42 32 43 85 44 33 45 90 46 84 47 86 48
REMARK SMILES IDX 34 49 89 50 83 51 82 52 35 54 69 55 48 56 68 57 49 58 52 59
REMARK SMILES IDX 67 60 87 61 50 62 51 63 66 65 88 66 53 67 36 68 37 69 46 70
REMARK SMILES IDX 38 71 39 72 45 73 47 74 40 75 41 76 42 77 43 78 44 79 70 80
REMARK SMILES IDX 71 81 80 82 72 83 73 84 79 85 81 86 74 87 75 88 76 89 77 90
REMARK SMILES IDX 78 91 54 92 55 93 64 94 56 95 57 96 63 97 65 98 58 99 59 100
REMARK SMILES IDX 60 101 61 102 62 103
REMARK H PARENT 17 6 5 23 1 25 1 26 1 27 24 34 86 53 52 64
REMARK Flexibility Score: inf
ROOT
ATOM      1  C   UNL A   1      35.735  21.396  25.782  1.00  0.00     0.021 C 
ENDROOT
BRANCH   1   2
ATOM      2  C   UNL A   1      35.271  20.541  24.607  1.00  0.00     0.116 C 
BRANCH   2   3
ATOM      3  N   UNL A   1      34.264  19.608  25.063  1.00  0.00    -0.356 N 
ATOM      4  C   UNL A   1      32.946  19.631  24.727  1.00  0.00     0.222 C 
ATOM      5  O   UNL A   1      32.139  18.957  25.369  1.00  0.00    -0.275 OA
ATOM      6  H   UNL A   1      34.560  18.892  25.671  1.00  0.00     0.163 HD
BRANCH   4   7
ATOM      7  C   UNL A   1      32.516  20.447  23.538  1.00  0.00     0.133 C 
BRANCH   7   8
ATOM      8  C   UNL A   1      31.934  21.829  23.891  1.00  0.00     0.147 C 
ATOM      9  N   UNL A   1      32.547  24.206  23.223  1.00  0.00    -0.333 N 
ATOM     10  C   UNL A   1      32.713  24.529  24.640  1.00  0.00     0.148 C 
ATOM     11  C   UNL A   1      32.606  22.796  22.924  1.00  0.00     0.152 C 
ATOM     12  C   UNL A   1      31.938  23.551  25.532  1.00  0.00     0.182 C 
ATOM     13  O   UNL A   1      32.292  22.185  25.240  1.00  0.00    -0.374 OA
BRANCH   9  14
ATOM     14  C   UNL A   1      32.940  25.141  22.259  1.00  0.00     0.277 C 
ATOM     15  O   UNL A   1      34.133  25.363  22.028  1.00  0.00    -0.268 OA
BRANCH  14  16
ATOM     16  C   UNL A   1      31.837  25.971  21.570  1.00  0.00     0.363 C 
BRANCH  16  17
ATOM     17  N   UNL A   1      31.610  27.339  22.050  1.00  0.00    -0.327 N 
ATOM     18  C   UNL A   1      31.789  28.531  24.763  1.00  0.00     0.192 C 
ATOM     19  C   UNL A   1      30.615  27.645  24.329  1.00  0.00     0.126 C 
ATOM     20  C   UNL A   1      33.016  28.224  23.917  1.00  0.00     0.126 C 
ATOM     21  C   UNL A   1      30.399  27.606  22.814  1.00  0.00     0.268 C 
ATOM     22  C   UNL A   1      32.727  28.192  22.416  1.00  0.00     0.268 C 
ATOM     23  H   UNL A   1      31.417  27.678  21.107  1.00  0.00     0.348 HD
BRANCH  18  24
ATOM     24  N   UNL A   1      31.483  29.962  24.701  1.00  0.00    -0.355 N 
ATOM     25  H   UNL A   1      31.272  30.306  25.638  1.00  0.00     0.344 HD
ATOM     26  H   UNL A   1      30.675  30.111  24.095  1.00  0.00     0.344 HD
ATOM     27  H   UNL A   1      32.286  30.466  24.326  1.00  0.00     0.344 HD
ENDBRANCH  18  24
ENDBRANCH  16  17
ENDBRANCH  14  16
ENDBRANCH   9  14
ENDBRANCH   7   8
ENDBRANCH   4   7
ENDBRANCH   2   3
ENDBRANCH   1   2
BRANCH   1  28
ATOM     28  C   UNL A   1      37.210  21.781  25.690  1.00  0.00     0.002 C 
BRANCH  28  29
ATOM     29  C   UNL A   1      37.453  23.197  25.162  1.00  0.00     0.002 C 
BRANCH  29  30
ATOM     30  C   UNL A   1      38.068  24.165  26.178  1.00  0.00     0.021 C 
BRANCH  30  31
ATOM     31  C   UNL A   1      39.300  23.623  26.899  1.00  0.00     0.116 C 
BRANCH  31  32
ATOM     32  N   UNL A   1      40.516  23.947  26.176  1.00  0.00    -0.352 N 
ATOM     33  C   UNL A   1      41.264  25.094  26.217  1.00  0.00     0.251 C 
ATOM     34  H   UNL A   1      40.850  23.245  25.572  1.00  0.00     0.163 HD
ATOM     35  O   UNL A   1      42.087  25.321  25.338  1.00  0.00    -0.269 OA
BRANCH  33  36
ATOM     36  C   UNL A   1      41.071  26.049  27.327  1.00  0.00     0.039 A 
ATOM     37  C   UNL A   1      41.855  27.203  27.368  1.00  0.00     0.014 A 
ATOM     38  C   UNL A   1      40.152  25.778  28.347  1.00  0.00     0.014 A 
ATOM     39  C   UNL A   1      41.698  28.104  28.422  1.00  0.00     0.010 A 
ATOM     40  C   UNL A   1      39.953  26.708  29.363  1.00  0.00     0.010 A 
ATOM     41  C   UNL A   1      40.739  27.868  29.420  1.00  0.00    -0.014 A 
BRANCH  41  42
ATOM     42  C   UNL A   1      40.572  28.811  30.553  1.00  0.00     0.031 A 
ATOM     43  C   UNL A   1      41.432  28.670  31.779  1.00  0.00     0.074 A 
ATOM     44  C   UNL A   1      39.618  29.759  30.494  1.00  0.00     0.049 A 
ATOM     45  N   UNL A   1      41.414  29.369  32.884  1.00  0.00    -0.248 NA
ATOM     46  C   UNL A   1      42.425  27.584  31.774  1.00  0.00     0.031 C 
ATOM     47  C   UNL A   1      38.689  29.955  29.378  1.00  0.00     0.029 A 
ATOM     48  N   UNL A   1      39.266  30.730  31.394  1.00  0.00    -0.354 N 
ATOM     49  C   UNL A   1      42.376  28.799  33.709  1.00  0.00     0.074 A 
ATOM     50  C   UNL A   1      42.926  27.666  32.997  1.00  0.00     0.031 C 
ATOM     51  C   UNL A   1      37.885  30.994  29.654  1.00  0.00     0.029 A 
ATOM     52  C   UNL A   1      38.224  31.521  30.973  1.00  0.00     0.049 A 
ATOM     53  H   UNL A   1      39.718  30.851  32.261  1.00  0.00     0.167 HD
ATOM     54  C   UNL A   1      42.779  29.197  34.940  1.00  0.00     0.037 A 
ATOM     55  C   UNL A   1      37.612  32.554  31.583  1.00  0.00     0.037 A 
ATOM     56  C   UNL A   1      42.250  30.347  35.625  1.00  0.00     0.049 A 
ATOM     57  C   UNL A   1      38.100  33.000  32.933  1.00  0.00     0.074 A 
ATOM     58  C   UNL A   1      42.636  30.875  36.845  1.00  0.00     0.029 A 
ATOM     59  N   UNL A   1      41.221  31.146  35.151  1.00  0.00    -0.354 N 
ATOM     60  N   UNL A   1      39.058  32.491  33.671  1.00  0.00    -0.248 NA
ATOM     61  C   UNL A   1      37.435  34.166  33.528  1.00  0.00     0.031 C 
ATOM     62  C   UNL A   1      41.818  31.976  37.121  1.00  0.00     0.029 A 
ATOM     63  C   UNL A   1      40.949  32.156  36.058  1.00  0.00     0.049 A 
ATOM     64  H   UNL A   1      40.753  31.014  34.294  1.00  0.00     0.167 HD
ATOM     65  C   UNL A   1      39.125  33.288  34.808  1.00  0.00     0.074 A 
ATOM     66  C   UNL A   1      38.119  34.320  34.654  1.00  0.00     0.031 C 
ATOM     67  C   UNL A   1      39.945  33.177  35.883  1.00  0.00     0.037 A 
BRANCH  54  68
ATOM     68  C   UNL A   1      43.848  28.385  35.617  1.00  0.00     0.058 A 
ATOM     69  C   UNL A   1      43.533  27.339  36.499  1.00  0.00     0.135 A 
ATOM     70  C   UNL A   1      45.206  28.640  35.364  1.00  0.00     0.135 A 
ATOM     71  F   UNL A   1      42.251  27.062  36.788  1.00  0.00    -0.206 F 
ATOM     72  C   UNL A   1      44.524  26.598  37.134  1.00  0.00     0.059 A 
ATOM     73  C   UNL A   1      46.215  27.894  35.967  1.00  0.00     0.059 A 
ATOM     74  F   UNL A   1      45.564  29.629  34.530  1.00  0.00    -0.206 F 
ATOM     75  C   UNL A   1      45.864  26.886  36.863  1.00  0.00     0.060 A 
BRANCH  75  76
ATOM     76  S   UNL A   1      47.140  25.918  37.697  1.00  0.00     0.124 S 
ATOM     77  O   UNL A   1      47.407  24.879  36.709  1.00  0.00    -0.237 OA
ATOM     78  O   UNL A   1      48.204  26.899  37.887  1.00  0.00    -0.237 OA
ATOM     79  O   UNL A   1      46.481  25.470  38.919  1.00  0.00    -0.744 OA
ENDBRANCH  75  76
ENDBRANCH  54  68
BRANCH  55  80
ATOM     80  C   UNL A   1      36.493  33.253  30.901  1.00  0.00     0.058 A 
ATOM     81  C   UNL A   1      35.172  33.105  31.347  1.00  0.00     0.135 A 
ATOM     82  C   UNL A   1      36.725  34.107  29.810  1.00  0.00     0.135 A 
ATOM     83  F   UNL A   1      34.901  32.298  32.384  1.00  0.00    -0.206 F 
ATOM     84  C   UNL A   1      34.116  33.768  30.731  1.00  0.00     0.059 A 
ATOM     85  C   UNL A   1      35.688  34.798  29.192  1.00  0.00     0.059 A 
ATOM     86  F   UNL A   1      37.974  34.296  29.358  1.00  0.00    -0.206 F 
ATOM     87  C   UNL A   1      34.385  34.616  29.654  1.00  0.00     0.060 A 
BRANCH  87  88
ATOM     88  S   UNL A   1      33.017  35.522  28.900  1.00  0.00     0.124 S 
ATOM     89  O   UNL A   1      32.426  34.502  28.042  1.00  0.00    -0.237 OA
ATOM     90  O   UNL A   1      32.228  35.914  30.063  1.00  0.00    -0.237 OA
ATOM     91  O   UNL A   1      33.685  36.621  28.208  1.00  0.00    -0.744 OA
ENDBRANCH  87  88
ENDBRANCH  55  80
BRANCH  67  92
ATOM     92  C   UNL A   1      39.806  34.211  36.963  1.00  0.00     0.058 A 
ATOM     93  C   UNL A   1      40.328  35.504  36.814  1.00  0.00     0.135 A 
ATOM     94  C   UNL A   1      39.102  33.916  38.142  1.00  0.00     0.135 A 
ATOM     95  F   UNL A   1      41.015  35.833  35.708  1.00  0.00    -0.206 F 
ATOM     96  C   UNL A   1      40.179  36.465  37.809  1.00  0.00     0.059 A 
ATOM     97  C   UNL A   1      38.920  34.869  39.138  1.00  0.00     0.059 A 
ATOM     98  F   UNL A   1      38.573  32.696  38.327  1.00  0.00    -0.206 F 
ATOM     99  C   UNL A   1      39.473  36.138  38.968  1.00  0.00     0.060 A 
BRANCH  99 100
ATOM    100  S   UNL A   1      39.259  37.401  40.240  1.00  0.00     0.124 S 
ATOM    101  O   UNL A   1      38.322  38.313  39.592  1.00  0.00    -0.237 OA
ATOM    102  O   UNL A   1      38.725  36.633  41.361  1.00  0.00    -0.237 OA
ATOM    103  O   UNL A   1      40.611  37.920  40.432  1.00  0.00    -0.744 OA
ENDBRANCH  99 100
ENDBRANCH  67  92
ENDBRANCH  41  42
ENDBRANCH  33  36
ENDBRANCH  31  32
ENDBRANCH  30  31
ENDBRANCH  29  30
ENDBRANCH  28  29
ENDBRANCH   1  28
TORSDOF 21
ENDMDL
MODEL 2
REMARK VINA RESULT:     -11.1      6.457     12.205
REMARK SMILES [NH3+]C1CC[NH+](CC(=O)N2CCO[C@H](CC(=O)NCCCCCCNC(=O)c3ccc(-c4c5nc(c(-c6c(F)cc(S(=O)(=O)[O-])cc6F)c6ccc([nH]6)c(-c6c(F)cc(S(=O)(=O)[O-])cc6F)c6nc(c(-c7c(F)cc(S(=O)(=O)[O-])cc7F)c7ccc4[nH]7)C=C6)C=C5)cc3)C2)CC1
REMARK SMILES IDX 19 1 18 2 17 3 15 4 16 5 14 7 13 8 9 9 10 10 93 11 11 12
REMARK SMILES IDX 12 13 7 14 8 15 6 16 5 17 2 18 3 19 95 20 4 21 94 22 1 24
REMARK SMILES IDX 20 28 21 29 22 30 23 31 24 32 25 33 26 35 27 36 28 37 92 38
REMARK SMILES IDX 29 39 91 40 30 41 31 42 32 43 85 44 33 45 90 46 84 47 86 48
REMARK SMILES IDX 34 49 89 50 83 51 82 52 35 54 69 55 48 56 68 57 49 58 52 59
REMARK SMILES IDX 67 60 87 61 50 62 51 63 66 65 88 66 53 67 36 68 37 69 46 70
REMARK SMILES IDX 38 71 39 72 45 73 47 74 40 75 41 76 42 77 43 78 44 79 70 80
REMARK SMILES IDX 71 81 80 82 72 83 73 84 79 85 81 86 74 87 75 88 76 89 77 90
REMARK SMILES IDX 78 91 54 92 55 93 64 94 56 95 57 96 63 97 65 98 58 99 59 100
REMARK SMILES IDX 60 101 61 102 62 103
REMARK H PARENT 17 6 5 23 1 25 1 26 1 27 24 34 86 53 52 64
REMARK Flexibility Score: inf
ROOT
ATOM      1  C   UNL A   1      32.005  26.840  26.622  1.00  0.00     0.021 C 
ENDROOT
BRANCH   1   2
ATOM      2  C   UNL A   1      30.701  26.611  25.865  1.00  0.00     0.116 C 
BRANCH   2   3
ATOM      3  N   UNL A   1      30.736  27.346  24.619  1.00  0.00    -0.356 N 
ATOM      4  C   UNL A   1      30.785  26.801  23.374  1.00  0.00     0.222 C 
ATOM      5  O   UNL A   1      31.071  27.508  22.407  1.00  0.00    -0.275 OA
ATOM      6  H   UNL A   1      30.722  28.329  24.679  1.00  0.00     0.163 HD
BRANCH   4   7
ATOM      7  C   UNL A   1      30.435  25.347  23.206  1.00  0.00     0.133 C 
BRANCH   7   8
ATOM      8  C   UNL A   1      31.649  24.416  23.025  1.00  0.00     0.147 C 
ATOM      9  N   UNL A   1      32.698  22.609  24.476  1.00  0.00    -0.333 N 
ATOM     10  C   UNL A   1      33.959  23.349  24.435  1.00  0.00     0.148 C 
ATOM     11  C   UNL A   1      31.534  23.398  24.153  1.00  0.00     0.152 C 
ATOM     12  C   UNL A   1      34.017  24.289  23.224  1.00  0.00     0.182 C 
ATOM     13  O   UNL A   1      32.871  25.163  23.186  1.00  0.00    -0.374 OA
BRANCH   9  14
ATOM     14  C   UNL A   1      32.579  21.510  25.335  1.00  0.00     0.277 C 
ATOM     15  O   UNL A   1      32.656  21.641  26.560  1.00  0.00    -0.268 OA
BRANCH  14  16
ATOM     16  C   UNL A   1      32.463  20.109  24.699  1.00  0.00     0.363 C 
BRANCH  16  17
ATOM     17  N   UNL A   1      33.331  19.047  25.220  1.00  0.00    -0.327 N 
ATOM     18  C   UNL A   1      33.668  16.208  24.422  1.00  0.00     0.192 C 
ATOM     19  C   UNL A   1      32.457  16.699  25.225  1.00  0.00     0.126 C 
ATOM     20  C   UNL A   1      34.278  17.361  23.638  1.00  0.00     0.126 C 
ATOM     21  C   UNL A   1      32.719  17.987  26.009  1.00  0.00     0.268 C 
ATOM     22  C   UNL A   1      34.504  18.616  24.480  1.00  0.00     0.268 C 
ATOM     23  H   UNL A   1      33.758  19.678  25.898  1.00  0.00     0.348 HD
BRANCH  18  24
ATOM     24  N   UNL A   1      34.691  15.573  25.257  1.00  0.00    -0.355 N 
ATOM     25  H   UNL A   1      35.586  15.587  24.767  1.00  0.00     0.344 HD
ATOM     26  H   UNL A   1      34.423  14.607  25.447  1.00  0.00     0.344 HD
ATOM     27  H   UNL A   1      34.777  16.082  26.136  1.00  0.00     0.344 HD
ENDBRANCH  18  24
ENDBRANCH  16  17
ENDBRANCH  14  16
ENDBRANCH   9  14
ENDBRANCH   7   8
ENDBRANCH   4   7
ENDBRANCH   2   3
ENDBRANCH   1   2
BRANCH   1  28
ATOM     28  C   UNL A   1      32.246  28.310  26.958  1.00  0.00     0.002 C 
BRANCH  28  29
ATOM     29  C   UNL A   1      33.650  28.808  26.601  1.00  0.00     0.002 C 
BRANCH  29  30
ATOM     30  C   UNL A   1      34.152  29.977  27.455  1.00  0.00     0.021 C 
BRANCH  30  31
ATOM     31  C   UNL A   1      35.414  29.673  28.259  1.00  0.00     0.116 C 
BRANCH  31  32
ATOM     32  N   UNL A   1      35.475  30.478  29.465  1.00  0.00    -0.352 N 
ATOM     33  C   UNL A   1      36.514  30.643  30.341  1.00  0.00     0.251 C 
ATOM     34  H   UNL A   1      34.654  30.976  29.684  1.00  0.00     0.163 HD
ATOM     35  O   UNL A   1      36.310  31.118  31.452  1.00  0.00    -0.269 OA
BRANCH  33  36
ATOM     36  C   UNL A   1      37.878  30.248  29.935  1.00  0.00     0.039 A 
ATOM     37  C   UNL A   1      38.227  30.320  28.585  1.00  0.00     0.014 A 
ATOM     38  C   UNL A   1      38.791  29.765  30.879  1.00  0.00     0.014 A 
ATOM     39  C   UNL A   1      39.506  29.931  28.184  1.00  0.00     0.010 A 
ATOM     40  C   UNL A   1      40.084  29.437  30.486  1.00  0.00     0.010 A 
ATOM     41  C   UNL A   1      40.446  29.497  29.133  1.00  0.00    -0.014 A 
BRANCH  41  42
ATOM     42  C   UNL A   1      41.804  29.069  28.717  1.00  0.00     0.031 A 
ATOM     43  C   UNL A   1      42.924  30.071  28.668  1.00  0.00     0.074 A 
ATOM     44  C   UNL A   1      42.013  27.792  28.343  1.00  0.00     0.049 A 
ATOM     45  N   UNL A   1      44.167  29.901  28.298  1.00  0.00    -0.248 NA
ATOM     46  C   UNL A   1      42.599  31.452  29.059  1.00  0.00     0.031 C 
ATOM     47  C   UNL A   1      40.989  26.746  28.299  1.00  0.00     0.029 A 
ATOM     48  N   UNL A   1      43.153  27.160  27.921  1.00  0.00    -0.354 N 
ATOM     49  C   UNL A   1      44.765  31.152  28.395  1.00  0.00     0.074 A 
ATOM     50  C   UNL A   1      43.738  32.082  28.812  1.00  0.00     0.031 C 
ATOM     51  C   UNL A   1      41.553  25.597  27.890  1.00  0.00     0.029 A 
ATOM     52  C   UNL A   1      42.968  25.832  27.620  1.00  0.00     0.049 A 
ATOM     53  H   UNL A   1      44.024  27.615  27.841  1.00  0.00     0.167 HD
ATOM     54  C   UNL A   1      46.059  31.491  28.176  1.00  0.00     0.037 A 
ATOM     55  C   UNL A   1      43.842  24.909  27.176  1.00  0.00     0.037 A 
ATOM     56  C   UNL A   1      47.081  30.553  27.796  1.00  0.00     0.049 A 
ATOM     57  C   UNL A   1      45.280  25.299  26.975  1.00  0.00     0.074 A 
ATOM     58  C   UNL A   1      48.435  30.779  27.616  1.00  0.00     0.029 A 
ATOM     59  N   UNL A   1      46.864  29.207  27.537  1.00  0.00    -0.354 N 
ATOM     60  N   UNL A   1      45.844  26.473  27.137  1.00  0.00    -0.248 NA
ATOM     61  C   UNL A   1      46.202  24.241  26.544  1.00  0.00     0.031 C 
ATOM     62  C   UNL A   1      49.029  29.577  27.217  1.00  0.00     0.029 A 
ATOM     63  C   UNL A   1      48.054  28.593  27.185  1.00  0.00     0.049 A 
ATOM     64  H   UNL A   1      45.990  28.756  27.594  1.00  0.00     0.167 HD
ATOM     65  C   UNL A   1      47.192  26.289  26.849  1.00  0.00     0.074 A 
ATOM     66  C   UNL A   1      47.359  24.889  26.514  1.00  0.00     0.031 C 
ATOM     67  C   UNL A   1      48.200  27.196  26.860  1.00  0.00     0.037 A 
BRANCH  54  68
ATOM     68  C   UNL A   1      46.438  32.935  28.353  1.00  0.00     0.058 A 
ATOM     69  C   UNL A   1      46.289  33.869  27.315  1.00  0.00     0.135 A 
ATOM     70  C   UNL A   1      46.936  33.398  29.582  1.00  0.00     0.135 A 
ATOM     71  F   UNL A   1      45.831  33.479  26.114  1.00  0.00    -0.206 F 
ATOM     72  C   UNL A   1      46.652  35.202  27.477  1.00  0.00     0.059 A 
ATOM     73  C   UNL A   1      47.281  34.732  29.775  1.00  0.00     0.059 A 
ATOM     74  F   UNL A   1      47.100  32.548  30.608  1.00  0.00    -0.206 F 
ATOM     75  C   UNL A   1      47.151  35.624  28.711  1.00  0.00     0.060 A 
BRANCH  75  76
ATOM     76  S   UNL A   1      47.622  37.356  28.906  1.00  0.00     0.124 S 
ATOM     77  O   UNL A   1      49.052  37.300  28.618  1.00  0.00    -0.237 OA
ATOM     78  O   UNL A   1      46.799  38.020  27.901  1.00  0.00    -0.237 OA
ATOM     79  O   UNL A   1      47.271  37.648  30.292  1.00  0.00    -0.744 OA
ENDBRANCH  75  76
ENDBRANCH  54  68
BRANCH  55  80
ATOM     80  C   UNL A   1      43.381  23.519  26.925  1.00  0.00     0.058 A 
ATOM     81  C   UNL A   1      43.159  23.058  25.620  1.00  0.00     0.135 A 
ATOM     82  C   UNL A   1      43.183  22.616  27.982  1.00  0.00     0.135 A 
ATOM     83  F   UNL A   1      43.334  23.885  24.578  1.00  0.00    -0.206 F 
ATOM     84  C   UNL A   1      42.747  21.754  25.368  1.00  0.00     0.059 A 
ATOM     85  C   UNL A   1      42.792  21.301  27.754  1.00  0.00     0.059 A 
ATOM     86  F   UNL A   1      43.400  23.005  29.248  1.00  0.00    -0.206 F 
ATOM     87  C   UNL A   1      42.568  20.881  26.443  1.00  0.00     0.060 A 
BRANCH  87  88
ATOM     88  S   UNL A   1      42.092  19.172  26.104  1.00  0.00     0.124 S 
ATOM     89  O   UNL A   1      42.427  18.518  27.363  1.00  0.00    -0.237 OA
ATOM     90  O   UNL A   1      40.669  19.301  25.808  1.00  0.00    -0.237 OA
ATOM     91  O   UNL A   1      42.930  18.813  24.962  1.00  0.00    -0.744 OA
ENDBRANCH  87  88
ENDBRANCH  55  80
BRANCH  67  92
ATOM     92  C   UNL A   1      49.577  26.698  26.526  1.00  0.00     0.058 A 
ATOM     93  C   UNL A   1      50.387  26.076  27.487  1.00  0.00     0.135 A 
ATOM     94  C   UNL A   1      50.071  26.804  25.216  1.00  0.00     0.135 A 
ATOM     95  F   UNL A   1      49.961  25.956  28.754  1.00  0.00    -0.206 F 
ATOM     96  C   UNL A   1      51.653  25.597  27.168  1.00  0.00     0.059 A 
ATOM     97  C   UNL A   1      51.324  26.310  24.869  1.00  0.00     0.059 A 
ATOM     98  F   UNL A   1      49.330  27.381  24.257  1.00  0.00    -0.206 F 
ATOM     99  C   UNL A   1      52.114  25.719  25.855  1.00  0.00     0.060 A 
BRANCH  99 100
ATOM    100  S   UNL A   1      53.746  25.068  25.445  1.00  0.00     0.124 S 
ATOM    101  O   UNL A   1      54.548  25.563  26.560  1.00  0.00    -0.237 OA
ATOM    102  O   UNL A   1      53.515  23.627  25.420  1.00  0.00    -0.237 OA
ATOM    103  O   UNL A   1      54.035  25.672  24.147  1.00  0.00    -0.744 OA
ENDBRANCH  99 100
ENDBRANCH  67  92
ENDBRANCH  41  42
ENDBRANCH  33  36
ENDBRANCH  31  32
ENDBRANCH  30  31
ENDBRANCH  29  30
ENDBRANCH  28  29
ENDBRANCH   1  28
TORSDOF 21
ENDMDL
MODEL 3
REMARK VINA RESULT:     -11.1      6.487     12.204
REMARK SMILES [NH3+]C1CC[NH+](CC(=O)N2CCO[C@H](CC(=O)NCCCCCCNC(=O)c3ccc(-c4c5nc(c(-c6c(F)cc(S(=O)(=O)[O-])cc6F)c6ccc([nH]6)c(-c6c(F)cc(S(=O)(=O)[O-])cc6F)c6nc(c(-c7c(F)cc(S(=O)(=O)[O-])cc7F)c7ccc4[nH]7)C=C6)C=C5)cc3)C2)CC1
REMARK SMILES IDX 19 1 18 2 17 3 15 4 16 5 14 7 13 8 9 9 10 10 93 11 11 12
REMARK SMILES IDX 12 13 7 14 8 15 6 16 5 17 2 18 3 19 95 20 4 21 94 22 1 24
REMARK SMILES IDX 20 28 21 29 22 30 23 31 24 32 25 33 26 35 27 36 28 37 92 38
REMARK SMILES IDX 29 39 91 40 30 41 31 42 32 43 85 44 33 45 90 46 84 47 86 48
REMARK SMILES IDX 34 49 89 50 83 51 82 52 35 54 69 55 48 56 68 57 49 58 52 59
REMARK SMILES IDX 67 60 87 61 50 62 51 63 66 65 88 66 53 67 36 68 37 69 46 70
REMARK SMILES IDX 38 71 39 72 45 73 47 74 40 75 41 76 42 77 43 78 44 79 70 80
REMARK SMILES IDX 71 81 80 82 72 83 73 84 79 85 81 86 74 87 75 88 76 89 77 90
REMARK SMILES IDX 78 91 54 92 55 93 64 94 56 95 57 96 63 97 65 98 58 99 59 100
REMARK SMILES IDX 60 101 61 102 62 103
REMARK H PARENT 17 6 5 23 1 25 1 26 1 27 24 34 86 53 52 64
REMARK Flexibility Score: inf
ROOT
ATOM      1  C   UNL A   1      35.244  32.336  28.016  1.00  0.00     0.021 C 
ENDROOT
BRANCH   1   2
ATOM      2  C   UNL A   1      34.956  30.871  27.700  1.00  0.00     0.116 C 
BRANCH   2   3
ATOM      3  N   UNL A   1      33.525  30.660  27.674  1.00  0.00    -0.356 N 
ATOM      4  C   UNL A   1      32.879  29.668  27.006  1.00  0.00     0.222 C 
ATOM      5  O   UNL A   1      31.661  29.734  26.840  1.00  0.00    -0.275 OA
ATOM      6  H   UNL A   1      32.970  31.292  28.186  1.00  0.00     0.163 HD
BRANCH   4   7
ATOM      7  C   UNL A   1      33.671  28.481  26.529  1.00  0.00     0.133 C 
BRANCH   7   8
ATOM      8  C   UNL A   1      32.909  27.552  25.564  1.00  0.00     0.147 C 
ATOM      9  N   UNL A   1      32.476  25.045  25.525  1.00  0.00    -0.333 N 
ATOM     10  C   UNL A   1      33.105  24.987  24.205  1.00  0.00     0.148 C 
ATOM     11  C   UNL A   1      32.816  26.218  26.294  1.00  0.00     0.152 C 
ATOM     12  C   UNL A   1      33.082  26.357  23.514  1.00  0.00     0.182 C 
ATOM     13  O   UNL A   1      33.667  27.374  24.351  1.00  0.00    -0.374 OA
BRANCH   9  14
ATOM     14  C   UNL A   1      32.152  23.852  26.180  1.00  0.00     0.277 C 
ATOM     15  O   UNL A   1      31.550  23.853  27.258  1.00  0.00    -0.268 OA
BRANCH  14  16
ATOM     16  C   UNL A   1      32.671  22.533  25.569  1.00  0.00     0.363 C 
BRANCH  16  17
ATOM     17  N   UNL A   1      33.964  22.024  26.040  1.00  0.00    -0.327 N 
ATOM     18  C   UNL A   1      36.748  22.675  25.242  1.00  0.00     0.192 C 
ATOM     19  C   UNL A   1      35.826  21.805  24.379  1.00  0.00     0.126 C 
ATOM     20  C   UNL A   1      35.919  23.576  26.147  1.00  0.00     0.126 C 
ATOM     21  C   UNL A   1      34.706  21.124  25.167  1.00  0.00     0.268 C 
ATOM     22  C   UNL A   1      34.814  22.832  26.896  1.00  0.00     0.268 C 
ATOM     23  H   UNL A   1      33.517  21.423  26.733  1.00  0.00     0.348 HD
BRANCH  18  24
ATOM     24  N   UNL A   1      37.693  21.893  26.043  1.00  0.00    -0.355 N 
ATOM     25  H   UNL A   1      38.467  22.490  26.335  1.00  0.00     0.344 HD
ATOM     26  H   UNL A   1      38.053  21.119  25.484  1.00  0.00     0.344 HD
ATOM     27  H   UNL A   1      37.218  21.525  26.867  1.00  0.00     0.344 HD
ENDBRANCH  18  24
ENDBRANCH  16  17
ENDBRANCH  14  16
ENDBRANCH   9  14
ENDBRANCH   7   8
ENDBRANCH   4   7
ENDBRANCH   2   3
ENDBRANCH   1   2
BRANCH   1  28
ATOM     28  C   UNL A   1      35.044  32.675  29.491  1.00  0.00     0.002 C 
BRANCH  28  29
ATOM     29  C   UNL A   1      35.738  33.967  29.932  1.00  0.00     0.002 C 
BRANCH  29  30
ATOM     30  C   UNL A   1      37.253  33.845  30.133  1.00  0.00     0.021 C 
BRANCH  30  31
ATOM     31  C   UNL A   1      37.678  33.562  31.571  1.00  0.00     0.116 C 
BRANCH  31  32
ATOM     32  N   UNL A   1      36.970  32.416  32.112  1.00  0.00    -0.352 N 
ATOM     33  C   UNL A   1      37.171  31.084  31.865  1.00  0.00     0.251 C 
ATOM     34  H   UNL A   1      36.246  32.625  32.744  1.00  0.00     0.163 HD
ATOM     35  O   UNL A   1      36.310  30.268  32.170  1.00  0.00    -0.269 OA
BRANCH  33  36
ATOM     36  C   UNL A   1      38.431  30.643  31.234  1.00  0.00     0.039 A 
ATOM     37  C   UNL A   1      39.554  30.439  32.038  1.00  0.00     0.014 A 
ATOM     38  C   UNL A   1      38.513  30.477  29.847  1.00  0.00     0.014 A 
ATOM     39  C   UNL A   1      40.756  30.041  31.453  1.00  0.00     0.010 A 
ATOM     40  C   UNL A   1      39.695  30.020  29.273  1.00  0.00     0.010 A 
ATOM     41  C   UNL A   1      40.832  29.819  30.069  1.00  0.00    -0.014 A 
BRANCH  41  42
ATOM     42  C   UNL A   1      42.108  29.408  29.433  1.00  0.00     0.031 A 
ATOM     43  C   UNL A   1      43.224  30.406  29.280  1.00  0.00     0.074 A 
ATOM     44  C   UNL A   1      42.241  28.157  28.955  1.00  0.00     0.049 A 
ATOM     45  N   UNL A   1      44.396  30.252  28.722  1.00  0.00    -0.248 NA
ATOM     46  C   UNL A   1      42.981  31.761  29.799  1.00  0.00     0.031 C 
ATOM     47  C   UNL A   1      41.206  27.121  28.998  1.00  0.00     0.029 A 
ATOM     48  N   UNL A   1      43.297  27.545  28.332  1.00  0.00    -0.354 N 
ATOM     49  C   UNL A   1      45.021  31.490  28.807  1.00  0.00     0.074 A 
ATOM     50  C   UNL A   1      44.081  32.398  29.426  1.00  0.00     0.031 C 
ATOM     51  C   UNL A   1      41.686  25.998  28.441  1.00  0.00     0.029 A 
ATOM     52  C   UNL A   1      43.050  26.240  27.981  1.00  0.00     0.049 A 
ATOM     53  H   UNL A   1      44.153  27.999  28.152  1.00  0.00     0.167 HD
ATOM     54  C   UNL A   1      46.274  31.834  28.421  1.00  0.00     0.037 A 
ATOM     55  C   UNL A   1      43.836  25.341  27.357  1.00  0.00     0.037 A 
ATOM     56  C   UNL A   1      47.216  30.916  27.838  1.00  0.00     0.049 A 
ATOM     57  C   UNL A   1      45.235  25.735  26.972  1.00  0.00     0.074 A 
ATOM     58  C   UNL A   1      48.531  31.145  27.476  1.00  0.00     0.029 A 
ATOM     59  N   UNL A   1      46.942  29.591  27.532  1.00  0.00    -0.354 N 
ATOM     60  N   UNL A   1      45.834  26.893  27.120  1.00  0.00    -0.248 NA
ATOM     61  C   UNL A   1      46.067  24.700  26.346  1.00  0.00     0.031 C 
ATOM     62  C   UNL A   1      49.043  29.967  26.921  1.00  0.00     0.029 A 
ATOM     63  C   UNL A   1      48.059  28.993  26.973  1.00  0.00     0.049 A 
ATOM     64  H   UNL A   1      46.080  29.142  27.690  1.00  0.00     0.167 HD
ATOM     65  C   UNL A   1      47.122  26.719  26.627  1.00  0.00     0.074 A 
ATOM     66  C   UNL A   1      47.217  25.341  26.187  1.00  0.00     0.031 C 
ATOM     67  C   UNL A   1      48.134  27.618  26.545  1.00  0.00     0.037 A 
BRANCH  54  68
ATOM     68  C   UNL A   1      46.697  33.263  28.628  1.00  0.00     0.058 A 
ATOM     69  C   UNL A   1      46.511  34.237  27.635  1.00  0.00     0.135 A 
ATOM     70  C   UNL A   1      47.275  33.667  29.842  1.00  0.00     0.135 A 
ATOM     71  F   UNL A   1      45.977  33.903  26.450  1.00  0.00    -0.206 F 
ATOM     72  C   UNL A   1      46.915  35.555  27.825  1.00  0.00     0.059 A 
ATOM     73  C   UNL A   1      47.662  34.986  30.064  1.00  0.00     0.059 A 
ATOM     74  F   UNL A   1      47.476  32.776  30.826  1.00  0.00    -0.206 F 
ATOM     75  C   UNL A   1      47.493  35.919  29.042  1.00  0.00     0.060 A 
BRANCH  75  76
ATOM     76  S   UNL A   1      48.015  37.632  29.273  1.00  0.00     0.124 S 
ATOM     77  O   UNL A   1      48.428  37.623  30.672  1.00  0.00    -0.237 OA
ATOM     78  O   UNL A   1      49.091  37.766  28.296  1.00  0.00    -0.237 OA
ATOM     79  O   UNL A   1      46.808  38.397  28.979  1.00  0.00    -0.744 OA
ENDBRANCH  75  76
ENDBRANCH  54  68
BRANCH  55  80
ATOM     80  C   UNL A   1      43.322  23.973  27.093  1.00  0.00     0.058 A 
ATOM     81  C   UNL A   1      43.284  23.009  28.111  1.00  0.00     0.135 A 
ATOM     82  C   UNL A   1      42.831  23.611  25.829  1.00  0.00     0.135 A 
ATOM     83  F   UNL A   1      43.744  23.307  29.335  1.00  0.00    -0.206 F 
ATOM     84  C   UNL A   1      42.787  21.729  27.884  1.00  0.00     0.059 A 
ATOM     85  C   UNL A   1      42.310  22.345  25.583  1.00  0.00     0.059 A 
ATOM     86  F   UNL A   1      42.830  24.505  24.827  1.00  0.00    -0.206 F 
ATOM     87  C   UNL A   1      42.300  21.408  26.615  1.00  0.00     0.060 A 
BRANCH  87  88
ATOM     88  S   UNL A   1      41.599  19.765  26.346  1.00  0.00     0.124 S 
ATOM     89  O   UNL A   1      41.927  19.096  27.599  1.00  0.00    -0.237 OA
ATOM     90  O   UNL A   1      40.187  20.063  26.130  1.00  0.00    -0.237 OA
ATOM     91  O   UNL A   1      42.316  19.286  25.166  1.00  0.00    -0.744 OA
ENDBRANCH  87  88
ENDBRANCH  55  80
BRANCH  67  92
ATOM     92  C   UNL A   1      49.440  27.133  25.983  1.00  0.00     0.058 A 
ATOM     93  C   UNL A   1      49.711  27.181  24.607  1.00  0.00     0.135 A 
ATOM     94  C   UNL A   1      50.448  26.659  26.837  1.00  0.00     0.135 A 
ATOM     95  F   UNL A   1      48.776  27.620  23.750  1.00  0.00    -0.206 F 
ATOM     96  C   UNL A   1      50.929  26.750  24.093  1.00  0.00     0.059 A 
ATOM     97  C   UNL A   1      51.683  26.247  26.347  1.00  0.00     0.059 A 
ATOM     98  F   UNL A   1      50.242  26.604  28.163  1.00  0.00    -0.206 F 
ATOM     99  C   UNL A   1      51.910  26.285  24.972  1.00  0.00     0.060 A 
BRANCH  99 100
ATOM    100  S   UNL A   1      53.499  25.756  24.297  1.00  0.00     0.124 S 
ATOM    101  O   UNL A   1      53.307  25.999  22.871  1.00  0.00    -0.237 OA
ATOM    102  O   UNL A   1      54.439  26.646  24.971  1.00  0.00    -0.237 OA
ATOM    103  O   UNL A   1      53.584  24.352  24.690  1.00  0.00    -0.744 OA
ENDBRANCH  99 100
ENDBRANCH  67  92
ENDBRANCH  41  42
ENDBRANCH  33  36
ENDBRANCH  31  32
ENDBRANCH  30  31
ENDBRANCH  29  30
ENDBRANCH  28  29
ENDBRANCH   1  28
TORSDOF 21
ENDMDL
