MODEL 1
REMARK VINA RESULT:     -12.2      0.000      0.000
REMARK SMILES Cc1ccc(C)c(Oc2cccc(F)c2C(=O)NCCCCCCNC(=O)c2ccc(-c3c4nc(c(-c5c(F)cc(S(=O)(=O)[O-])cc5F)c5ccc([nH]5)c(-c5c(F)cc(S(=O)(=O)[O-])cc5F)c5nc(c(-c6c(F)cc(S(=O)(=O)[O-])cc6F)c6ccc3[nH]6)C=C5)C=C4)cc2)c1
REMARK SMILES IDX 22 1 21 2 20 3 19 4 18 5 16 6 17 7 15 9 9 10 10 11 11 12
REMARK SMILES IDX 13 13 12 14 14 15 8 16 7 17 1 18 2 19 3 20 94 21 4 22 5 23
REMARK SMILES IDX 6 24 23 25 24 26 25 27 26 28 27 30 28 31 29 32 93 33 30 34
REMARK SMILES IDX 92 35 31 36 32 37 33 38 86 39 34 40 91 41 85 42 87 43 35 44
REMARK SMILES IDX 90 45 84 46 83 47 36 49 70 50 49 51 69 52 50 53 53 54 68 55
REMARK SMILES IDX 88 56 51 57 52 58 67 60 89 61 54 62 37 63 38 64 47 65 39 66
REMARK SMILES IDX 40 67 46 68 48 69 41 70 42 71 43 72 44 73 45 74 71 75 72 76
REMARK SMILES IDX 81 77 73 78 74 79 80 80 82 81 75 82 76 83 77 84 78 85 79 86
REMARK SMILES IDX 55 87 56 88 65 89 57 90 58 91 64 92 66 93 59 94 60 95 61 96
REMARK SMILES IDX 62 97 63 98
REMARK H PARENT 18 8 25 29 87 48 53 59
REMARK Flexibility Score: inf
ROOT
ATOM      1  C   UNL A   1      40.440  22.406  27.733  1.00  0.00     0.002 C 
ENDROOT
BRANCH   1   2
ATOM      2  C   UNL A   1      39.745  23.716  27.341  1.00  0.00     0.002 C 
BRANCH   2   3
ATOM      3  C   UNL A   1      38.506  23.686  26.443  1.00  0.00     0.021 C 
BRANCH   3   4
ATOM      4  C   UNL A   1      38.157  22.381  25.731  1.00  0.00     0.116 C 
BRANCH   4   5
ATOM      5  N   UNL A   1      37.659  22.519  24.374  1.00  0.00    -0.352 N 
ATOM      6  C   UNL A   1      36.372  22.640  23.884  1.00  0.00     0.258 C 
ATOM      7  O   UNL A   1      36.262  22.938  22.693  1.00  0.00    -0.269 OA
ATOM      8  H   UNL A   1      38.361  22.528  23.682  1.00  0.00     0.163 HD
BRANCH   6   9
ATOM      9  C   UNL A   1      35.155  22.371  24.705  1.00  0.00     0.118 A 
ATOM     10  C   UNL A   1      34.335  23.430  25.138  1.00  0.00     0.143 A 
ATOM     11  C   UNL A   1      33.081  23.187  25.724  1.00  0.00     0.048 A 
ATOM     12  C   UNL A   1      32.686  21.883  26.011  1.00  0.00     0.007 A 
ATOM     13  C   UNL A   1      34.785  21.088  25.112  1.00  0.00     0.139 A 
ATOM     14  C   UNL A   1      33.562  20.837  25.741  1.00  0.00     0.040 A 
ATOM     15  F   UNL A   1      35.618  20.046  24.970  1.00  0.00    -0.206 F 
BRANCH  10  16
ATOM     16  O   UNL A   1      34.736  24.744  25.023  1.00  0.00    -0.456 OA
BRANCH  16  17
ATOM     17  C   UNL A   1      34.003  25.572  24.180  1.00  0.00     0.130 A 
ATOM     18  C   UNL A   1      32.613  25.788  20.622  1.00  0.00     0.044 C 
ATOM     19  C   UNL A   1      32.941  26.136  22.044  1.00  0.00    -0.047 A 
ATOM     20  C   UNL A   1      32.524  27.354  22.581  1.00  0.00     0.004 A 
ATOM     21  C   UNL A   1      33.668  25.249  22.851  1.00  0.00     0.050 A 
ATOM     22  C   UNL A   1      32.830  27.678  23.904  1.00  0.00     0.007 A 
ATOM     23  C   UNL A   1      33.567  26.797  24.715  1.00  0.00    -0.008 A 
ATOM     24  C   UNL A   1      33.847  27.203  26.135  1.00  0.00     0.048 C 
ENDBRANCH  16  17
ENDBRANCH  10  16
ENDBRANCH   6   9
ENDBRANCH   4   5
ENDBRANCH   3   4
ENDBRANCH   2   3
ENDBRANCH   1   2
BRANCH   1  25
ATOM     25  C   UNL A   1      41.864  22.083  27.261  1.00  0.00     0.021 C 
BRANCH  25  26
ATOM     26  C   UNL A   1      42.151  21.998  25.764  1.00  0.00     0.116 C 
BRANCH  26  27
ATOM     27  N   UNL A   1      43.371  22.693  25.326  1.00  0.00    -0.352 N 
ATOM     28  C   UNL A   1      43.721  24.041  25.229  1.00  0.00     0.251 C 
ATOM     29  H   UNL A   1      44.088  22.081  25.042  1.00  0.00     0.163 HD
ATOM     30  O   UNL A   1      44.657  24.365  24.526  1.00  0.00    -0.269 OA
BRANCH  28  31
ATOM     31  C   UNL A   1      42.973  25.083  25.977  1.00  0.00     0.039 A 
ATOM     32  C   UNL A   1      41.923  25.844  25.459  1.00  0.00     0.014 A 
ATOM     33  C   UNL A   1      43.402  25.395  27.239  1.00  0.00     0.014 A 
ATOM     34  C   UNL A   1      41.478  26.954  26.200  1.00  0.00     0.010 A 
ATOM     35  C   UNL A   1      42.595  26.065  28.091  1.00  0.00     0.010 A 
ATOM     36  C   UNL A   1      41.915  27.098  27.517  1.00  0.00    -0.014 A 
BRANCH  36  37
ATOM     37  C   UNL A   1      41.671  28.234  28.385  1.00  0.00     0.031 A 
ATOM     38  C   UNL A   1      42.657  29.318  28.252  1.00  0.00     0.074 A 
ATOM     39  C   UNL A   1      40.472  28.485  28.965  1.00  0.00     0.049 A 
ATOM     40  N   UNL A   1      43.592  29.630  29.081  1.00  0.00    -0.248 NA
ATOM     41  C   UNL A   1      42.712  30.038  26.971  1.00  0.00     0.031 C 
ATOM     42  C   UNL A   1      39.197  27.770  28.823  1.00  0.00     0.029 A 
ATOM     43  N   UNL A   1      40.128  29.548  29.741  1.00  0.00    -0.354 N 
ATOM     44  C   UNL A   1      44.228  30.724  28.514  1.00  0.00     0.074 A 
ATOM     45  C   UNL A   1      43.813  30.771  27.136  1.00  0.00     0.031 C 
ATOM     46  C   UNL A   1      38.196  28.530  29.328  1.00  0.00     0.029 A 
ATOM     47  C   UNL A   1      38.765  29.720  29.939  1.00  0.00     0.049 A 
ATOM     48  H   UNL A   1      40.799  30.152  30.135  1.00  0.00     0.167 HD
ATOM     49  C   UNL A   1      44.860  31.662  29.268  1.00  0.00     0.037 A 
ATOM     50  C   UNL A   1      38.176  30.811  30.497  1.00  0.00     0.037 A 
ATOM     51  C   UNL A   1      44.973  31.257  30.646  1.00  0.00     0.049 A 
ATOM     52  C   UNL A   1      39.238  31.523  31.272  1.00  0.00     0.074 A 
ATOM     53  C   UNL A   1      45.518  30.154  31.277  1.00  0.00     0.029 A 
ATOM     54  N   UNL A   1      44.087  31.800  31.551  1.00  0.00    -0.354 N 
ATOM     55  N   UNL A   1      39.835  31.034  32.328  1.00  0.00    -0.248 NA
ATOM     56  C   UNL A   1      39.958  32.596  30.600  1.00  0.00     0.031 C 
ATOM     57  C   UNL A   1      44.578  29.808  32.292  1.00  0.00     0.029 A 
ATOM     58  C   UNL A   1      43.552  30.756  32.267  1.00  0.00     0.049 A 
ATOM     59  H   UNL A   1      43.878  32.755  31.663  1.00  0.00     0.167 HD
ATOM     60  C   UNL A   1      41.161  31.435  32.214  1.00  0.00     0.074 A 
ATOM     61  C   UNL A   1      41.154  32.467  31.180  1.00  0.00     0.031 C 
ATOM     62  C   UNL A   1      42.185  30.705  32.751  1.00  0.00     0.037 A 
BRANCH  49  63
ATOM     63  C   UNL A   1      45.098  33.066  28.800  1.00  0.00     0.058 A 
ATOM     64  C   UNL A   1      44.062  34.007  28.610  1.00  0.00     0.135 A 
ATOM     65  C   UNL A   1      46.409  33.562  28.712  1.00  0.00     0.135 A 
ATOM     66  F   UNL A   1      42.776  33.696  28.823  1.00  0.00    -0.206 F 
ATOM     67  C   UNL A   1      44.304  35.330  28.276  1.00  0.00     0.059 A 
ATOM     68  C   UNL A   1      46.675  34.905  28.446  1.00  0.00     0.059 A 
ATOM     69  F   UNL A   1      47.458  32.755  28.930  1.00  0.00    -0.206 F 
ATOM     70  C   UNL A   1      45.615  35.778  28.216  1.00  0.00     0.060 A 
BRANCH  70  71
ATOM     71  S   UNL A   1      45.888  37.537  27.946  1.00  0.00     0.124 S 
ATOM     72  O   UNL A   1      47.300  37.668  28.288  1.00  0.00    -0.237 OA
ATOM     73  O   UNL A   1      45.559  37.681  26.531  1.00  0.00    -0.237 OA
ATOM     74  O   UNL A   1      44.952  38.167  28.872  1.00  0.00    -0.744 OA
ENDBRANCH  70  71
ENDBRANCH  49  63
BRANCH  50  75
ATOM     75  C   UNL A   1      36.889  31.459  30.108  1.00  0.00     0.058 A 
ATOM     76  C   UNL A   1      36.633  31.882  28.786  1.00  0.00     0.135 A 
ATOM     77  C   UNL A   1      35.989  31.933  31.084  1.00  0.00     0.135 A 
ATOM     78  F   UNL A   1      37.443  31.541  27.773  1.00  0.00    -0.206 F 
ATOM     79  C   UNL A   1      35.595  32.752  28.460  1.00  0.00     0.059 A 
ATOM     80  C   UNL A   1      34.947  32.820  30.783  1.00  0.00     0.059 A 
ATOM     81  F   UNL A   1      36.157  31.596  32.373  1.00  0.00    -0.206 F 
ATOM     82  C   UNL A   1      34.779  33.249  29.470  1.00  0.00     0.060 A 
BRANCH  82  83
ATOM     83  S   UNL A   1      33.585  34.531  29.029  1.00  0.00     0.124 S 
ATOM     84  O   UNL A   1      32.714  33.819  28.099  1.00  0.00    -0.237 OA
ATOM     85  O   UNL A   1      32.988  34.852  30.323  1.00  0.00    -0.237 OA
ATOM     86  O   UNL A   1      34.410  35.581  28.441  1.00  0.00    -0.744 OA
ENDBRANCH  82  83
ENDBRANCH  50  75
BRANCH  62  87
ATOM     87  C   UNL A   1      41.863  29.589  33.721  1.00  0.00     0.058 A 
ATOM     88  C   UNL A   1      41.888  29.873  35.096  1.00  0.00     0.135 A 
ATOM     89  C   UNL A   1      41.727  28.236  33.357  1.00  0.00     0.135 A 
ATOM     90  F   UNL A   1      42.066  31.137  35.519  1.00  0.00    -0.206 F 
ATOM     91  C   UNL A   1      41.799  28.874  36.062  1.00  0.00     0.059 A 
ATOM     92  C   UNL A   1      41.600  27.219  34.308  1.00  0.00     0.059 A 
ATOM     93  F   UNL A   1      41.792  27.856  32.075  1.00  0.00    -0.206 F 
ATOM     94  C   UNL A   1      41.658  27.546  35.660  1.00  0.00     0.060 A 
BRANCH  94  95
ATOM     95  S   UNL A   1      41.592  26.267  36.930  1.00  0.00     0.124 S 
ATOM     96  O   UNL A   1      41.470  25.051  36.130  1.00  0.00    -0.237 OA
ATOM     97  O   UNL A   1      42.869  26.442  37.617  1.00  0.00    -0.237 OA
ATOM     98  O   UNL A   1      40.412  26.615  37.717  1.00  0.00    -0.744 OA
ENDBRANCH  94  95
ENDBRANCH  62  87
ENDBRANCH  36  37
ENDBRANCH  28  31
ENDBRANCH  26  27
ENDBRANCH  25  26
ENDBRANCH   1  25
TORSDOF 18
ENDMDL
MODEL 2
REMARK VINA RESULT:     -12.1      2.521      3.410
REMARK SMILES Cc1ccc(C)c(Oc2cccc(F)c2C(=O)NCCCCCCNC(=O)c2ccc(-c3c4nc(c(-c5c(F)cc(S(=O)(=O)[O-])cc5F)c5ccc([nH]5)c(-c5c(F)cc(S(=O)(=O)[O-])cc5F)c5nc(c(-c6c(F)cc(S(=O)(=O)[O-])cc6F)c6ccc3[nH]6)C=C5)C=C4)cc2)c1
REMARK SMILES IDX 22 1 21 2 20 3 19 4 18 5 16 6 17 7 15 9 9 10 10 11 11 12
REMARK SMILES IDX 13 13 12 14 14 15 8 16 7 17 1 18 2 19 3 20 94 21 4 22 5 23
REMARK SMILES IDX 6 24 23 25 24 26 25 27 26 28 27 30 28 31 29 32 93 33 30 34
REMARK SMILES IDX 92 35 31 36 32 37 33 38 86 39 34 40 91 41 85 42 87 43 35 44
REMARK SMILES IDX 90 45 84 46 83 47 36 49 70 50 49 51 69 52 50 53 53 54 68 55
REMARK SMILES IDX 88 56 51 57 52 58 67 60 89 61 54 62 37 63 38 64 47 65 39 66
REMARK SMILES IDX 40 67 46 68 48 69 41 70 42 71 43 72 44 73 45 74 71 75 72 76
REMARK SMILES IDX 81 77 73 78 74 79 80 80 82 81 75 82 76 83 77 84 78 85 79 86
REMARK SMILES IDX 55 87 56 88 65 89 57 90 58 91 64 92 66 93 59 94 60 95 61 96
REMARK SMILES IDX 62 97 63 98
REMARK H PARENT 18 8 25 29 87 48 53 59
REMARK Flexibility Score: inf
ROOT
ATOM      1  C   UNL A   1      40.753  21.164  26.648  1.00  0.00     0.002 C 
ENDROOT
BRANCH   1   2
ATOM      2  C   UNL A   1      39.471  21.792  26.086  1.00  0.00     0.002 C 
BRANCH   2   3
ATOM      3  C   UNL A   1      38.945  23.107  26.667  1.00  0.00     0.021 C 
BRANCH   3   4
ATOM      4  C   UNL A   1      37.838  23.843  25.916  1.00  0.00     0.116 C 
BRANCH   4   5
ATOM      5  N   UNL A   1      37.628  23.426  24.541  1.00  0.00    -0.352 N 
ATOM      6  C   UNL A   1      36.505  22.938  23.899  1.00  0.00     0.258 C 
ATOM      7  O   UNL A   1      36.567  22.849  22.672  1.00  0.00    -0.269 OA
ATOM      8  H   UNL A   1      38.423  23.506  23.965  1.00  0.00     0.163 HD
BRANCH   6   9
ATOM      9  C   UNL A   1      35.285  22.473  24.624  1.00  0.00     0.118 A 
ATOM     10  C   UNL A   1      34.336  23.400  25.095  1.00  0.00     0.143 A 
ATOM     11  C   UNL A   1      33.088  22.978  25.585  1.00  0.00     0.048 A 
ATOM     12  C   UNL A   1      32.822  21.621  25.739  1.00  0.00     0.007 A 
ATOM     13  C   UNL A   1      35.035  21.128  24.900  1.00  0.00     0.139 A 
ATOM     14  C   UNL A   1      33.817  20.698  25.434  1.00  0.00     0.040 A 
ATOM     15  F   UNL A   1      35.981  20.194  24.720  1.00  0.00    -0.206 F 
BRANCH  10  16
ATOM     16  O   UNL A   1      34.599  24.753  25.113  1.00  0.00    -0.456 OA
BRANCH  16  17
ATOM     17  C   UNL A   1      33.920  25.555  24.201  1.00  0.00     0.130 A 
ATOM     18  C   UNL A   1      32.650  25.614  20.592  1.00  0.00     0.044 C 
ATOM     19  C   UNL A   1      32.945  26.032  22.003  1.00  0.00    -0.047 A 
ATOM     20  C   UNL A   1      32.553  27.290  22.458  1.00  0.00     0.004 A 
ATOM     21  C   UNL A   1      33.616  25.169  22.882  1.00  0.00     0.050 A 
ATOM     22  C   UNL A   1      32.828  27.679  23.770  1.00  0.00     0.007 A 
ATOM     23  C   UNL A   1      33.509  26.821  24.652  1.00  0.00    -0.008 A 
ATOM     24  C   UNL A   1      33.758  27.299  26.056  1.00  0.00     0.048 C 
ENDBRANCH  16  17
ENDBRANCH  10  16
ENDBRANCH   6   9
ENDBRANCH   4   5
ENDBRANCH   3   4
ENDBRANCH   2   3
ENDBRANCH   1   2
BRANCH   1  25
ATOM     25  C   UNL A   1      41.245  19.790  26.175  1.00  0.00     0.021 C 
BRANCH  25  26
ATOM     26  C   UNL A   1      42.713  19.418  26.367  1.00  0.00     0.116 C 
BRANCH  26  27
ATOM     27  N   UNL A   1      43.549  19.544  25.164  1.00  0.00    -0.352 N 
ATOM     28  C   UNL A   1      44.160  20.631  24.534  1.00  0.00     0.251 C 
ATOM     29  H   UNL A   1      43.711  18.687  24.710  1.00  0.00     0.163 HD
ATOM     30  O   UNL A   1      44.512  20.527  23.376  1.00  0.00    -0.269 OA
BRANCH  28  31
ATOM     31  C   UNL A   1      44.390  21.906  25.258  1.00  0.00     0.039 A 
ATOM     32  C   UNL A   1      45.461  22.160  26.117  1.00  0.00     0.014 A 
ATOM     33  C   UNL A   1      43.432  22.880  25.156  1.00  0.00     0.014 A 
ATOM     34  C   UNL A   1      45.413  23.318  26.915  1.00  0.00     0.010 A 
ATOM     35  C   UNL A   1      43.716  24.157  25.491  1.00  0.00     0.010 A 
ATOM     36  C   UNL A   1      44.445  24.283  26.637  1.00  0.00    -0.014 A 
BRANCH  36  37
ATOM     37  C   UNL A   1      44.161  25.468  27.423  1.00  0.00     0.031 A 
ATOM     38  C   UNL A   1      45.051  26.606  27.142  1.00  0.00     0.074 A 
ATOM     39  C   UNL A   1      42.981  25.679  28.053  1.00  0.00     0.049 A 
ATOM     40  N   UNL A   1      46.003  27.055  27.884  1.00  0.00    -0.248 NA
ATOM     41  C   UNL A   1      44.979  27.217  25.806  1.00  0.00     0.031 C 
ATOM     42  C   UNL A   1      41.759  24.864  28.048  1.00  0.00     0.029 A 
ATOM     43  N   UNL A   1      42.599  26.776  28.761  1.00  0.00    -0.354 N 
ATOM     44  C   UNL A   1      46.520  28.140  27.193  1.00  0.00     0.074 A 
ATOM     45  C   UNL A   1      46.026  28.039  25.843  1.00  0.00     0.031 C 
ATOM     46  C   UNL A   1      40.731  25.589  28.552  1.00  0.00     0.029 A 
ATOM     47  C   UNL A   1      41.239  26.865  29.028  1.00  0.00     0.049 A 
ATOM     48  H   UNL A   1      43.240  27.459  29.063  1.00  0.00     0.167 HD
ATOM     49  C   UNL A   1      47.117  29.183  27.828  1.00  0.00     0.037 A 
ATOM     50  C   UNL A   1      40.598  27.953  29.532  1.00  0.00     0.037 A 
ATOM     51  C   UNL A   1      47.338  28.906  29.224  1.00  0.00     0.049 A 
ATOM     52  C   UNL A   1      41.642  28.804  30.180  1.00  0.00     0.074 A 
ATOM     53  C   UNL A   1      48.001  27.904  29.908  1.00  0.00     0.029 A 
ATOM     54  N   UNL A   1      46.464  29.458  30.135  1.00  0.00    -0.354 N 
ATOM     55  N   UNL A   1      42.333  28.452  31.233  1.00  0.00    -0.248 NA
ATOM     56  C   UNL A   1      42.238  29.866  29.380  1.00  0.00     0.031 C 
ATOM     57  C   UNL A   1      47.148  27.577  31.004  1.00  0.00     0.029 A 
ATOM     58  C   UNL A   1      46.052  28.442  30.965  1.00  0.00     0.049 A 
ATOM     59  H   UNL A   1      46.187  30.401  30.183  1.00  0.00     0.167 HD
ATOM     60  C   UNL A   1      43.616  28.937  31.005  1.00  0.00     0.074 A 
ATOM     61  C   UNL A   1      43.471  29.875  29.894  1.00  0.00     0.031 C 
ATOM     62  C   UNL A   1      44.722  28.333  31.536  1.00  0.00     0.037 A 
BRANCH  49  63
ATOM     63  C   UNL A   1      47.219  30.555  27.235  1.00  0.00     0.058 A 
ATOM     64  C   UNL A   1      46.094  31.350  26.921  1.00  0.00     0.135 A 
ATOM     65  C   UNL A   1      48.470  31.187  27.141  1.00  0.00     0.135 A 
ATOM     66  F   UNL A   1      44.843  30.916  27.122  1.00  0.00    -0.206 F 
ATOM     67  C   UNL A   1      46.204  32.656  26.468  1.00  0.00     0.059 A 
ATOM     68  C   UNL A   1      48.598  32.521  26.754  1.00  0.00     0.059 A 
ATOM     69  F   UNL A   1      49.591  30.528  27.469  1.00  0.00    -0.206 F 
ATOM     70  C   UNL A   1      47.458  33.243  26.408  1.00  0.00     0.060 A 
BRANCH  70  71
ATOM     71  S   UNL A   1      47.547  34.989  25.978  1.00  0.00     0.124 S 
ATOM     72  O   UNL A   1      48.146  35.554  27.182  1.00  0.00    -0.237 OA
ATOM     73  O   UNL A   1      48.399  34.966  24.793  1.00  0.00    -0.237 OA
ATOM     74  O   UNL A   1      46.153  35.346  25.737  1.00  0.00    -0.744 OA
ENDBRANCH  70  71
ENDBRANCH  49  63
BRANCH  50  75
ATOM     75  C   UNL A   1      39.245  28.470  29.171  1.00  0.00     0.058 A 
ATOM     76  C   UNL A   1      39.006  29.169  27.969  1.00  0.00     0.135 A 
ATOM     77  C   UNL A   1      38.213  28.533  30.129  1.00  0.00     0.135 A 
ATOM     78  F   UNL A   1      39.929  29.227  26.998  1.00  0.00    -0.206 F 
ATOM     79  C   UNL A   1      37.854  29.920  27.750  1.00  0.00     0.059 A 
ATOM     80  C   UNL A   1      37.052  29.295  29.938  1.00  0.00     0.059 A 
ATOM     81  F   UNL A   1      38.352  27.911  31.310  1.00  0.00    -0.206 F 
ATOM     82  C   UNL A   1      36.897  30.011  28.754  1.00  0.00     0.060 A 
BRANCH  82  83
ATOM     83  S   UNL A   1      35.526  31.161  28.506  1.00  0.00     0.124 S 
ATOM     84  O   UNL A   1      35.200  31.534  29.879  1.00  0.00    -0.237 OA
ATOM     85  O   UNL A   1      36.148  32.211  27.704  1.00  0.00    -0.237 OA
ATOM     86  O   UNL A   1      34.523  30.357  27.818  1.00  0.00    -0.744 OA
ENDBRANCH  82  83
ENDBRANCH  50  75
BRANCH  62  87
ATOM     87  C   UNL A   1      44.542  27.283  32.610  1.00  0.00     0.058 A 
ATOM     88  C   UNL A   1      44.350  25.949  32.214  1.00  0.00     0.135 A 
ATOM     89  C   UNL A   1      44.362  27.569  33.977  1.00  0.00     0.135 A 
ATOM     90  F   UNL A   1      44.454  25.611  30.917  1.00  0.00    -0.206 F 
ATOM     91  C   UNL A   1      43.983  24.953  33.115  1.00  0.00     0.059 A 
ATOM     92  C   UNL A   1      44.029  26.580  34.906  1.00  0.00     0.059 A 
ATOM     93  F   UNL A   1      44.428  28.826  34.433  1.00  0.00    -0.206 F 
ATOM     94  C   UNL A   1      43.822  25.277  34.461  1.00  0.00     0.060 A 
BRANCH  94  95
ATOM     95  S   UNL A   1      43.301  23.977  35.600  1.00  0.00     0.124 S 
ATOM     96  O   UNL A   1      44.283  22.930  35.334  1.00  0.00    -0.237 OA
ATOM     97  O   UNL A   1      43.420  24.634  36.899  1.00  0.00    -0.237 OA
ATOM     98  O   UNL A   1      41.936  23.672  35.183  1.00  0.00    -0.744 OA
ENDBRANCH  94  95
ENDBRANCH  62  87
ENDBRANCH  36  37
ENDBRANCH  28  31
ENDBRANCH  26  27
ENDBRANCH  25  26
ENDBRANCH   1  25
TORSDOF 18
ENDMDL
MODEL 3
REMARK VINA RESULT:     -11.7      1.787      3.277
REMARK SMILES Cc1ccc(C)c(Oc2cccc(F)c2C(=O)NCCCCCCNC(=O)c2ccc(-c3c4nc(c(-c5c(F)cc(S(=O)(=O)[O-])cc5F)c5ccc([nH]5)c(-c5c(F)cc(S(=O)(=O)[O-])cc5F)c5nc(c(-c6c(F)cc(S(=O)(=O)[O-])cc6F)c6ccc3[nH]6)C=C5)C=C4)cc2)c1
REMARK SMILES IDX 22 1 21 2 20 3 19 4 18 5 16 6 17 7 15 9 9 10 10 11 11 12
REMARK SMILES IDX 13 13 12 14 14 15 8 16 7 17 1 18 2 19 3 20 94 21 4 22 5 23
REMARK SMILES IDX 6 24 23 25 24 26 25 27 26 28 27 30 28 31 29 32 93 33 30 34
REMARK SMILES IDX 92 35 31 36 32 37 33 38 86 39 34 40 91 41 85 42 87 43 35 44
REMARK SMILES IDX 90 45 84 46 83 47 36 49 70 50 49 51 69 52 50 53 53 54 68 55
REMARK SMILES IDX 88 56 51 57 52 58 67 60 89 61 54 62 37 63 38 64 47 65 39 66
REMARK SMILES IDX 40 67 46 68 48 69 41 70 42 71 43 72 44 73 45 74 71 75 72 76
REMARK SMILES IDX 81 77 73 78 74 79 80 80 82 81 75 82 76 83 77 84 78 85 79 86
REMARK SMILES IDX 55 87 56 88 65 89 57 90 58 91 64 92 66 93 59 94 60 95 61 96
REMARK SMILES IDX 62 97 63 98
REMARK H PARENT 18 8 25 29 87 48 53 59
REMARK Flexibility Score: inf
ROOT
ATOM      1  C   UNL A   1      36.958  23.613  26.127  1.00  0.00     0.002 C 
ENDROOT
BRANCH   1   2
ATOM      2  C   UNL A   1      35.843  24.089  25.187  1.00  0.00     0.002 C 
BRANCH   2   3
ATOM      3  C   UNL A   1      34.494  24.529  25.761  1.00  0.00     0.021 C 
BRANCH   3   4
ATOM      4  C   UNL A   1      34.002  25.943  25.458  1.00  0.00     0.116 C 
BRANCH   4   5
ATOM      5  N   UNL A   1      33.170  26.552  26.480  1.00  0.00    -0.352 N 
ATOM      6  C   UNL A   1      31.903  27.101  26.414  1.00  0.00     0.258 C 
ATOM      7  O   UNL A   1      31.363  27.371  27.488  1.00  0.00    -0.269 OA
ATOM      8  H   UNL A   1      33.578  26.577  27.375  1.00  0.00     0.163 HD
BRANCH   6   9
ATOM      9  C   UNL A   1      31.216  27.423  25.128  1.00  0.00     0.118 A 
ATOM     10  C   UNL A   1      30.222  26.569  24.614  1.00  0.00     0.143 A 
ATOM     11  C   UNL A   1      29.420  26.957  23.527  1.00  0.00     0.048 A 
ATOM     12  C   UNL A   1      29.688  28.144  22.852  1.00  0.00     0.007 A 
ATOM     13  C   UNL A   1      31.534  28.545  24.361  1.00  0.00     0.139 A 
ATOM     14  C   UNL A   1      30.775  28.917  23.246  1.00  0.00     0.040 A 
ATOM     15  F   UNL A   1      32.623  29.282  24.625  1.00  0.00    -0.206 F 
BRANCH  10  16
ATOM     16  O   UNL A   1      30.010  25.313  25.141  1.00  0.00    -0.456 OA
BRANCH  16  17
ATOM     17  C   UNL A   1      30.823  24.278  24.691  1.00  0.00     0.130 A 
ATOM     18  C   UNL A   1      33.052  23.248  21.756  1.00  0.00     0.044 C 
ATOM     19  C   UNL A   1      32.321  23.217  23.067  1.00  0.00    -0.047 A 
ATOM     20  C   UNL A   1      32.421  22.101  23.898  1.00  0.00     0.004 A 
ATOM     21  C   UNL A   1      31.532  24.302  23.475  1.00  0.00     0.050 A 
ATOM     22  C   UNL A   1      31.741  22.072  25.116  1.00  0.00     0.007 A 
ATOM     23  C   UNL A   1      30.940  23.153  25.526  1.00  0.00    -0.008 A 
ATOM     24  C   UNL A   1      30.249  23.061  26.858  1.00  0.00     0.048 C 
ENDBRANCH  16  17
ENDBRANCH  10  16
ENDBRANCH   6   9
ENDBRANCH   4   5
ENDBRANCH   3   4
ENDBRANCH   2   3
ENDBRANCH   1   2
BRANCH   1  25
ATOM     25  C   UNL A   1      38.288  23.074  25.585  1.00  0.00     0.021 C 
BRANCH  25  26
ATOM     26  C   UNL A   1      39.329  22.537  26.563  1.00  0.00     0.116 C 
BRANCH  26  27
ATOM     27  N   UNL A   1      40.631  22.206  25.965  1.00  0.00    -0.352 N 
ATOM     28  C   UNL A   1      41.795  22.944  25.740  1.00  0.00     0.251 C 
ATOM     29  H   UNL A   1      40.695  21.272  25.661  1.00  0.00     0.163 HD
ATOM     30  O   UNL A   1      42.608  22.543  24.931  1.00  0.00    -0.269 OA
BRANCH  28  31
ATOM     31  C   UNL A   1      42.058  24.206  26.476  1.00  0.00     0.039 A 
ATOM     32  C   UNL A   1      43.163  24.442  27.297  1.00  0.00     0.014 A 
ATOM     33  C   UNL A   1      41.099  25.183  26.430  1.00  0.00     0.014 A 
ATOM     34  C   UNL A   1      43.149  25.586  28.116  1.00  0.00     0.010 A 
ATOM     35  C   UNL A   1      41.399  26.454  26.777  1.00  0.00     0.010 A 
ATOM     36  C   UNL A   1      42.174  26.558  27.894  1.00  0.00    -0.014 A 
BRANCH  36  37
ATOM     37  C   UNL A   1      41.924  27.728  28.713  1.00  0.00     0.031 A 
ATOM     38  C   UNL A   1      42.927  28.795  28.560  1.00  0.00     0.074 A 
ATOM     39  C   UNL A   1      40.717  28.015  29.256  1.00  0.00     0.049 A 
ATOM     40  N   UNL A   1      43.847  29.128  29.397  1.00  0.00    -0.248 NA
ATOM     41  C   UNL A   1      43.017  29.466  27.254  1.00  0.00     0.031 C 
ATOM     42  C   UNL A   1      39.437  27.310  29.113  1.00  0.00     0.029 A 
ATOM     43  N   UNL A   1      40.370  29.111  29.984  1.00  0.00    -0.354 N 
ATOM     44  C   UNL A   1      44.509  30.192  28.803  1.00  0.00     0.074 A 
ATOM     45  C   UNL A   1      44.123  30.191  27.415  1.00  0.00     0.031 C 
ATOM     46  C   UNL A   1      38.434  28.100  29.568  1.00  0.00     0.029 A 
ATOM     47  C   UNL A   1      39.005  29.306  30.145  1.00  0.00     0.049 A 
ATOM     48  H   UNL A   1      41.038  29.722  30.369  1.00  0.00     0.167 HD
ATOM     49  C   UNL A   1      45.135  31.152  29.534  1.00  0.00     0.037 A 
ATOM     50  C   UNL A   1      38.417  30.423  30.648  1.00  0.00     0.037 A 
ATOM     51  C   UNL A   1      45.214  30.799  30.928  1.00  0.00     0.049 A 
ATOM     52  C   UNL A   1      39.470  31.153  31.419  1.00  0.00     0.074 A 
ATOM     53  C   UNL A   1      45.732  29.714  31.612  1.00  0.00     0.029 A 
ATOM     54  N   UNL A   1      44.316  31.386  31.792  1.00  0.00    -0.354 N 
ATOM     55  N   UNL A   1      40.039  30.698  32.505  1.00  0.00    -0.248 NA
ATOM     56  C   UNL A   1      40.217  32.191  30.722  1.00  0.00     0.031 C 
ATOM     57  C   UNL A   1      44.766  29.418  32.620  1.00  0.00     0.029 A 
ATOM     58  C   UNL A   1      43.753  30.376  32.536  1.00  0.00     0.049 A 
ATOM     59  H   UNL A   1      44.115  32.347  31.863  1.00  0.00     0.167 HD
ATOM     60  C   UNL A   1      41.372  31.079  32.405  1.00  0.00     0.074 A 
ATOM     61  C   UNL A   1      41.399  32.071  31.333  1.00  0.00     0.031 C 
ATOM     62  C   UNL A   1      42.375  30.359  32.992  1.00  0.00     0.037 A 
BRANCH  49  63
ATOM     63  C   UNL A   1      45.400  32.534  29.019  1.00  0.00     0.058 A 
ATOM     64  C   UNL A   1      46.688  33.002  28.678  1.00  0.00     0.135 A 
ATOM     65  C   UNL A   1      44.326  33.370  28.672  1.00  0.00     0.135 A 
ATOM     66  F   UNL A   1      47.778  32.234  28.811  1.00  0.00    -0.206 F 
ATOM     67  C   UNL A   1      46.906  34.247  28.107  1.00  0.00     0.059 A 
ATOM     68  C   UNL A   1      44.518  34.595  28.034  1.00  0.00     0.059 A 
ATOM     69  F   UNL A   1      43.061  32.986  28.908  1.00  0.00    -0.206 F 
ATOM     70  C   UNL A   1      45.813  35.030  27.768  1.00  0.00     0.060 A 
BRANCH  70  71
ATOM     71  S   UNL A   1      46.125  36.562  26.876  1.00  0.00     0.124 S 
ATOM     72  O   UNL A   1      46.565  36.060  25.579  1.00  0.00    -0.237 OA
ATOM     73  O   UNL A   1      44.812  37.200  26.902  1.00  0.00    -0.237 OA
ATOM     74  O   UNL A   1      47.152  37.216  27.683  1.00  0.00    -0.744 OA
ENDBRANCH  70  71
ENDBRANCH  49  63
BRANCH  50  75
ATOM     75  C   UNL A   1      37.146  31.071  30.207  1.00  0.00     0.058 A 
ATOM     76  C   UNL A   1      36.929  31.457  28.867  1.00  0.00     0.135 A 
ATOM     77  C   UNL A   1      36.226  31.580  31.145  1.00  0.00     0.135 A 
ATOM     78  F   UNL A   1      37.762  31.080  27.886  1.00  0.00    -0.206 F 
ATOM     79  C   UNL A   1      35.908  32.326  28.489  1.00  0.00     0.059 A 
ATOM     80  C   UNL A   1      35.200  32.467  30.791  1.00  0.00     0.059 A 
ATOM     81  F   UNL A   1      36.357  31.279  32.446  1.00  0.00    -0.206 F 
ATOM     82  C   UNL A   1      35.070  32.858  29.462  1.00  0.00     0.060 A 
BRANCH  82  83
ATOM     83  S   UNL A   1      33.900  34.138  28.953  1.00  0.00     0.124 S 
ATOM     84  O   UNL A   1      34.789  35.137  28.369  1.00  0.00    -0.237 OA
ATOM     85  O   UNL A   1      33.056  33.421  28.001  1.00  0.00    -0.237 OA
ATOM     86  O   UNL A   1      33.251  34.525  30.200  1.00  0.00    -0.744 OA
ENDBRANCH  82  83
ENDBRANCH  50  75
BRANCH  62  87
ATOM     87  C   UNL A   1      42.019  29.284  33.996  1.00  0.00     0.058 A 
ATOM     88  C   UNL A   1      42.279  29.529  35.355  1.00  0.00     0.135 A 
ATOM     89  C   UNL A   1      41.623  27.978  33.654  1.00  0.00     0.135 A 
ATOM     90  F   UNL A   1      42.712  30.739  35.749  1.00  0.00    -0.206 F 
ATOM     91  C   UNL A   1      42.170  28.534  36.322  1.00  0.00     0.059 A 
ATOM     92  C   UNL A   1      41.470  26.972  34.612  1.00  0.00     0.059 A 
ATOM     93  F   UNL A   1      41.447  27.623  32.375  1.00  0.00    -0.206 F 
ATOM     94  C   UNL A   1      41.766  27.255  35.942  1.00  0.00     0.060 A 
BRANCH  94  95
ATOM     95  S   UNL A   1      41.676  25.972  37.208  1.00  0.00     0.124 S 
ATOM     96  O   UNL A   1      41.938  24.762  36.433  1.00  0.00    -0.237 OA
ATOM     97  O   UNL A   1      42.735  26.369  38.131  1.00  0.00    -0.237 OA
ATOM     98  O   UNL A   1      40.319  26.093  37.733  1.00  0.00    -0.744 OA
ENDBRANCH  94  95
ENDBRANCH  62  87
ENDBRANCH  36  37
ENDBRANCH  28  31
ENDBRANCH  26  27
ENDBRANCH  25  26
ENDBRANCH   1  25
TORSDOF 18
ENDMDL
