MODEL 1
REMARK VINA RESULT:     -13.2      0.000      0.000
REMARK SMILES CC(=O)O[C@@H]1CC[C@@]23C(=O)O[C@]4(CC[C@]2(O)C1)[C@H]3CC[C@]1(C)[C@H](C(=O)NCCCCCCNC(=O)c2ccc(-c3c5nc(c(-c6c(F)cc(S(=O)(=O)[O-])cc6F)c6ccc([nH]6)c(-c6c(F)cc(S(=O)(=O)[O-])cc6F)c6nc(c(-c7c(F)cc(S(=O)(=O)[O-])cc7F)c7ccc3[nH]7)C=C6)C=C5)cc2)CC[C@@H]14
REMARK SMILES IDX 30 1 29 2 28 3 27 4 26 5 24 6 25 7 23 9 5 10 6 11 17 12 7 13
REMARK SMILES IDX 15 14 8 15 14 16 9 17 18 18 13 19 10 20 11 21 12 22 19 23
REMARK SMILES IDX 104 24 20 25 21 26 103 27 22 28 102 29 4 30 2 31 1 32 3 33
REMARK SMILES IDX 16 34 31 36 32 37 33 38 34 39 35 41 36 42 37 43 101 44 38 45
REMARK SMILES IDX 100 46 39 47 40 48 41 49 94 50 42 51 99 52 93 53 95 54 43 55
REMARK SMILES IDX 98 56 92 57 91 58 44 60 78 61 57 62 77 63 58 64 61 65 76 66
REMARK SMILES IDX 96 67 59 68 60 69 75 71 97 72 62 73 45 74 46 75 55 76 47 77
REMARK SMILES IDX 48 78 54 79 56 80 49 81 50 82 51 83 52 84 53 85 79 86 80 87
REMARK SMILES IDX 89 88 81 89 82 90 88 91 90 92 83 93 84 94 85 95 86 96 87 97
REMARK SMILES IDX 63 98 64 99 73 100 65 101 66 102 72 103 74 104 67 105 68 106
REMARK SMILES IDX 69 107 70 108 71 109
REMARK H PARENT 26 8 16 35 33 40 95 59 61 70
REMARK Flexibility Score: inf
ROOT
ATOM      1  C   UNL A   1      38.313  21.776  25.292  1.00  0.00     0.002 C 
ENDROOT
BRANCH   1   2
ATOM      2  C   UNL A   1      37.381  20.588  25.042  1.00  0.00     0.002 C 
BRANCH   2   3
ATOM      3  C   UNL A   1      35.919  20.852  25.405  1.00  0.00     0.021 C 
BRANCH   3   4
ATOM      4  C   UNL A   1      34.942  19.783  24.889  1.00  0.00     0.116 C 
BRANCH   4   5
ATOM      5  N   UNL A   1      33.586  20.262  25.062  1.00  0.00    -0.356 N 
ATOM      6  C   UNL A   1      33.053  21.502  25.134  1.00  0.00     0.223 C 
ATOM      7  O   UNL A   1      31.910  21.558  25.610  1.00  0.00    -0.275 OA
ATOM      8  H   UNL A   1      32.920  19.541  25.143  1.00  0.00     0.163 HD
BRANCH   6   9
ATOM      9  C   UNL A   1      33.681  22.790  24.592  1.00  0.00     0.085 C 
ATOM     10  C   UNL A   1      32.022  30.204  26.752  1.00  0.00     0.179 C 
ATOM     11  C   UNL A   1      31.863  28.860  27.424  1.00  0.00     0.047 C 
ATOM     12  C   UNL A   1      31.148  30.144  25.477  1.00  0.00     0.081 C 
ATOM     13  C   UNL A   1      32.397  27.807  26.477  1.00  0.00     0.026 C 
ATOM     14  C   UNL A   1      31.340  28.902  24.542  1.00  0.00     0.085 C 
ATOM     15  C   UNL A   1      31.355  27.540  25.163  1.00  0.00     0.103 C 
ATOM     16  C   UNL A   1      32.758  28.970  23.821  1.00  0.00     0.041 C 
ATOM     17  C   UNL A   1      31.106  26.224  25.698  1.00  0.00     0.316 C 
ATOM     18  C   UNL A   1      31.654  26.590  23.673  1.00  0.00     0.054 C 
ATOM     19  C   UNL A   1      33.683  27.638  23.923  1.00  0.00     0.052 C 
ATOM     20  O   UNL A   1      30.221  25.756  26.396  1.00  0.00    -0.251 OA
ATOM     21  O   UNL A   1      32.383  25.674  25.436  1.00  0.00    -0.458 OA
ATOM     22  C   UNL A   1      32.963  26.224  24.183  1.00  0.00     0.120 C 
ATOM     23  C   UNL A   1      30.892  25.322  23.177  1.00  0.00     0.009 C 
ATOM     24  C   UNL A   1      33.828  25.085  23.687  1.00  0.00     0.040 C 
ATOM     25  C   UNL A   1      31.521  23.934  23.493  1.00  0.00     0.008 C 
ATOM     26  C   UNL A   1      33.062  23.741  23.488  1.00  0.00    -0.014 C 
ATOM     27  C   UNL A   1      34.881  24.812  24.801  1.00  0.00     0.009 C 
ATOM     28  C   UNL A   1      33.470  23.148  22.118  1.00  0.00     0.012 C 
ATOM     29  C   UNL A   1      34.304  23.684  25.654  1.00  0.00     0.014 C 
BRANCH  10  30
ATOM     30  O   UNL A   1      33.386  30.597  26.392  1.00  0.00    -0.462 OA
BRANCH  30  31
ATOM     31  C   UNL A   1      34.434  30.557  27.262  1.00  0.00     0.302 C 
ATOM     32  C   UNL A   1      34.458  31.770  28.147  1.00  0.00     0.139 C 
ATOM     33  O   UNL A   1      35.280  29.680  27.356  1.00  0.00    -0.253 OA
ENDBRANCH  30  31
ENDBRANCH  10  30
BRANCH  14  34
ATOM     34  O   UNL A   1      30.290  28.948  23.571  1.00  0.00    -0.389 OA
ATOM     35  H   UNL A   1      30.453  28.278  22.888  1.00  0.00     0.211 HD
ENDBRANCH  14  34
ENDBRANCH   6   9
ENDBRANCH   4   5
ENDBRANCH   3   4
ENDBRANCH   2   3
ENDBRANCH   1   2
BRANCH   1  36
ATOM     36  C   UNL A   1      37.700  22.917  26.109  1.00  0.00     0.021 C 
BRANCH  36  37
ATOM     37  C   UNL A   1      38.707  23.741  26.908  1.00  0.00     0.116 C 
BRANCH  37  38
ATOM     38  N   UNL A   1      39.913  24.007  26.138  1.00  0.00    -0.352 N 
ATOM     39  C   UNL A   1      40.719  25.116  26.146  1.00  0.00     0.251 C 
ATOM     40  H   UNL A   1      40.190  23.289  25.526  1.00  0.00     0.163 HD
ATOM     41  O   UNL A   1      41.547  25.284  25.256  1.00  0.00    -0.269 OA
BRANCH  39  42
ATOM     42  C   UNL A   1      40.582  26.109  27.232  1.00  0.00     0.039 A 
ATOM     43  C   UNL A   1      39.602  25.920  28.208  1.00  0.00     0.014 A 
ATOM     44  C   UNL A   1      41.415  27.232  27.275  1.00  0.00     0.014 A 
ATOM     45  C   UNL A   1      39.490  26.833  29.259  1.00  0.00     0.010 A 
ATOM     46  C   UNL A   1      41.350  28.100  28.359  1.00  0.00     0.010 A 
ATOM     47  C   UNL A   1      40.382  27.914  29.357  1.00  0.00    -0.014 A 
BRANCH  47  48
ATOM     48  C   UNL A   1      40.314  28.866  30.495  1.00  0.00     0.031 A 
ATOM     49  C   UNL A   1      41.224  28.690  31.680  1.00  0.00     0.074 A 
ATOM     50  C   UNL A   1      39.392  29.849  30.485  1.00  0.00     0.049 A 
ATOM     51  N   UNL A   1      41.270  29.374  32.795  1.00  0.00    -0.248 NA
ATOM     52  C   UNL A   1      42.193  27.584  31.615  1.00  0.00     0.031 C 
ATOM     53  C   UNL A   1      38.427  30.092  29.411  1.00  0.00     0.029 A 
ATOM     54  N   UNL A   1      39.110  30.822  31.410  1.00  0.00    -0.354 N 
ATOM     55  C   UNL A   1      42.262  28.776  33.565  1.00  0.00     0.074 A 
ATOM     56  C   UNL A   1      42.751  27.641  32.815  1.00  0.00     0.031 C 
ATOM     57  C   UNL A   1      37.676  31.159  29.727  1.00  0.00     0.029 A 
ATOM     58  C   UNL A   1      38.078  31.652  31.040  1.00  0.00     0.049 A 
ATOM     59  H   UNL A   1      39.600  30.918  32.259  1.00  0.00     0.167 HD
ATOM     60  C   UNL A   1      42.737  29.156  34.775  1.00  0.00     0.037 A 
ATOM     61  C   UNL A   1      37.514  32.688  31.691  1.00  0.00     0.037 A 
ATOM     62  C   UNL A   1      42.255  30.299  35.506  1.00  0.00     0.049 A 
ATOM     63  C   UNL A   1      38.049  33.081  33.042  1.00  0.00     0.074 A 
ATOM     64  C   UNL A   1      42.700  30.797  36.717  1.00  0.00     0.029 A 
ATOM     65  N   UNL A   1      41.215  31.122  35.094  1.00  0.00    -0.354 N 
ATOM     66  N   UNL A   1      39.026  32.541  33.732  1.00  0.00    -0.248 NA
ATOM     67  C   UNL A   1      37.409  34.227  33.702  1.00  0.00     0.031 C 
ATOM     68  C   UNL A   1      41.901  31.893  37.060  1.00  0.00     0.029 A 
ATOM     69  C   UNL A   1      40.992  32.111  36.037  1.00  0.00     0.049 A 
ATOM     70  H   UNL A   1      40.711  31.017  34.255  1.00  0.00     0.167 HD
ATOM     71  C   UNL A   1      39.137  33.298  34.892  1.00  0.00     0.074 A 
ATOM     72  C   UNL A   1      38.135  34.341  34.807  1.00  0.00     0.031 C 
ATOM     73  C   UNL A   1      39.993  33.147  35.933  1.00  0.00     0.037 A 
BRANCH  60  74
ATOM     74  C   UNL A   1      43.835  28.325  35.383  1.00  0.00     0.058 A 
ATOM     75  C   UNL A   1      45.189  28.575  35.104  1.00  0.00     0.135 A 
ATOM     76  C   UNL A   1      43.536  27.284  36.276  1.00  0.00     0.135 A 
ATOM     77  F   UNL A   1      45.533  29.550  34.247  1.00  0.00    -0.206 F 
ATOM     78  C   UNL A   1      46.203  27.802  35.658  1.00  0.00     0.059 A 
ATOM     79  C   UNL A   1      44.536  26.515  36.866  1.00  0.00     0.059 A 
ATOM     80  F   UNL A   1      42.259  27.001  36.581  1.00  0.00    -0.206 F 
ATOM     81  C   UNL A   1      45.866  26.772  36.537  1.00  0.00     0.060 A 
BRANCH  81  82
ATOM     82  S   UNL A   1      47.193  25.773  37.245  1.00  0.00     0.124 S 
ATOM     83  O   UNL A   1      47.961  25.424  36.054  1.00  0.00    -0.237 OA
ATOM     84  O   UNL A   1      47.836  26.713  38.159  1.00  0.00    -0.237 OA
ATOM     85  O   UNL A   1      46.485  24.668  37.882  1.00  0.00    -0.744 OA
ENDBRANCH  81  82
ENDBRANCH  60  74
BRANCH  61  86
ATOM     86  C   UNL A   1      36.398  33.443  31.061  1.00  0.00     0.058 A 
ATOM     87  C   UNL A   1      36.624  34.271  29.952  1.00  0.00     0.135 A 
ATOM     88  C   UNL A   1      35.084  33.345  31.544  1.00  0.00     0.135 A 
ATOM     89  F   UNL A   1      37.864  34.403  29.456  1.00  0.00    -0.206 F 
ATOM     90  C   UNL A   1      35.593  34.988  29.354  1.00  0.00     0.059 A 
ATOM     91  C   UNL A   1      34.031  34.031  30.947  1.00  0.00     0.059 A 
ATOM     92  F   UNL A   1      34.811  32.555  32.595  1.00  0.00    -0.206 F 
ATOM     93  C   UNL A   1      34.299  34.860  29.859  1.00  0.00     0.060 A 
BRANCH  93  94
ATOM     94  S   UNL A   1      32.960  35.764  29.051  1.00  0.00     0.124 S 
ATOM     95  O   UNL A   1      32.361  34.725  28.224  1.00  0.00    -0.237 OA
ATOM     96  O   UNL A   1      32.164  36.214  30.189  1.00  0.00    -0.237 OA
ATOM     97  O   UNL A   1      33.660  36.822  28.327  1.00  0.00    -0.744 OA
ENDBRANCH  93  94
ENDBRANCH  61  86
BRANCH  73  98
ATOM     98  C   UNL A   1      39.910  34.152  37.049  1.00  0.00     0.058 A 
ATOM     99  C   UNL A   1      40.505  35.417  36.950  1.00  0.00     0.135 A 
ATOM    100  C   UNL A   1      39.178  33.860  38.212  1.00  0.00     0.135 A 
ATOM    101  F   UNL A   1      41.223  35.744  35.863  1.00  0.00    -0.206 F 
ATOM    102  C   UNL A   1      40.397  36.354  37.973  1.00  0.00     0.059 A 
ATOM    103  C   UNL A   1      39.032  34.791  39.236  1.00  0.00     0.059 A 
ATOM    104  F   UNL A   1      38.580  32.666  38.354  1.00  0.00    -0.206 F 
ATOM    105  C   UNL A   1      39.655  36.032  39.111  1.00  0.00     0.060 A 
BRANCH 105 106
ATOM    106  S   UNL A   1      39.490  37.270  40.415  1.00  0.00     0.124 S 
ATOM    107  O   UNL A   1      39.112  38.454  39.649  1.00  0.00    -0.237 OA
ATOM    108  O   UNL A   1      38.443  36.699  41.257  1.00  0.00    -0.237 OA
ATOM    109  O   UNL A   1      40.819  37.309  41.017  1.00  0.00    -0.744 OA
ENDBRANCH 105 106
ENDBRANCH  73  98
ENDBRANCH  47  48
ENDBRANCH  39  42
ENDBRANCH  37  38
ENDBRANCH  36  37
ENDBRANCH   1  36
TORSDOF 19
ENDMDL
MODEL 2
REMARK VINA RESULT:     -13.1      0.531      7.857
REMARK SMILES CC(=O)O[C@@H]1CC[C@@]23C(=O)O[C@]4(CC[C@]2(O)C1)[C@H]3CC[C@]1(C)[C@H](C(=O)NCCCCCCNC(=O)c2ccc(-c3c5nc(c(-c6c(F)cc(S(=O)(=O)[O-])cc6F)c6ccc([nH]6)c(-c6c(F)cc(S(=O)(=O)[O-])cc6F)c6nc(c(-c7c(F)cc(S(=O)(=O)[O-])cc7F)c7ccc3[nH]7)C=C6)C=C5)cc2)CC[C@@H]14
REMARK SMILES IDX 30 1 29 2 28 3 27 4 26 5 24 6 25 7 23 9 5 10 6 11 17 12 7 13
REMARK SMILES IDX 15 14 8 15 14 16 9 17 18 18 13 19 10 20 11 21 12 22 19 23
REMARK SMILES IDX 104 24 20 25 21 26 103 27 22 28 102 29 4 30 2 31 1 32 3 33
REMARK SMILES IDX 16 34 31 36 32 37 33 38 34 39 35 41 36 42 37 43 101 44 38 45
REMARK SMILES IDX 100 46 39 47 40 48 41 49 94 50 42 51 99 52 93 53 95 54 43 55
REMARK SMILES IDX 98 56 92 57 91 58 44 60 78 61 57 62 77 63 58 64 61 65 76 66
REMARK SMILES IDX 96 67 59 68 60 69 75 71 97 72 62 73 45 74 46 75 55 76 47 77
REMARK SMILES IDX 48 78 54 79 56 80 49 81 50 82 51 83 52 84 53 85 79 86 80 87
REMARK SMILES IDX 89 88 81 89 82 90 88 91 90 92 83 93 84 94 85 95 86 96 87 97
REMARK SMILES IDX 63 98 64 99 73 100 65 101 66 102 72 103 74 104 67 105 68 106
REMARK SMILES IDX 69 107 70 108 71 109
REMARK H PARENT 26 8 16 35 33 40 95 59 61 70
REMARK Flexibility Score: inf
ROOT
ATOM      1  C   UNL A   1      38.277  21.874  25.419  1.00  0.00     0.002 C 
ENDROOT
BRANCH   1   2
ATOM      2  C   UNL A   1      37.328  20.793  24.897  1.00  0.00     0.002 C 
BRANCH   2   3
ATOM      3  C   UNL A   1      35.845  21.134  25.050  1.00  0.00     0.021 C 
BRANCH   3   4
ATOM      4  C   UNL A   1      34.914  19.911  25.010  1.00  0.00     0.116 C 
BRANCH   4   5
ATOM      5  N   UNL A   1      33.539  20.367  25.017  1.00  0.00    -0.356 N 
ATOM      6  C   UNL A   1      32.980  21.598  25.015  1.00  0.00     0.223 C 
ATOM      7  O   UNL A   1      31.788  21.637  25.350  1.00  0.00    -0.275 OA
ATOM      8  H   UNL A   1      32.880  19.635  25.022  1.00  0.00     0.163 HD
BRANCH   6   9
ATOM      9  C   UNL A   1      33.647  22.895  24.545  1.00  0.00     0.085 C 
ATOM     10  C   UNL A   1      31.986  30.256  26.875  1.00  0.00     0.179 C 
ATOM     11  C   UNL A   1      31.781  28.894  27.495  1.00  0.00     0.047 C 
ATOM     12  C   UNL A   1      31.168  30.249  25.562  1.00  0.00     0.081 C 
ATOM     13  C   UNL A   1      32.343  27.865  26.538  1.00  0.00     0.026 C 
ATOM     14  C   UNL A   1      31.386  29.037  24.596  1.00  0.00     0.085 C 
ATOM     15  C   UNL A   1      31.357  27.655  25.171  1.00  0.00     0.103 C 
ATOM     16  C   UNL A   1      32.835  29.109  23.940  1.00  0.00     0.041 C 
ATOM     17  C   UNL A   1      31.068  26.326  25.651  1.00  0.00     0.316 C 
ATOM     18  C   UNL A   1      31.709  26.750  23.665  1.00  0.00     0.054 C 
ATOM     19  C   UNL A   1      33.738  27.762  24.038  1.00  0.00     0.052 C 
ATOM     20  O   UNL A   1      30.148  25.848  26.294  1.00  0.00    -0.251 OA
ATOM     21  O   UNL A   1      32.349  25.767  25.427  1.00  0.00    -0.458 OA
ATOM     22  C   UNL A   1      32.990  26.350  24.219  1.00  0.00     0.120 C 
ATOM     23  C   UNL A   1      30.955  25.509  23.095  1.00  0.00     0.009 C 
ATOM     24  C   UNL A   1      33.862  25.216  23.724  1.00  0.00     0.040 C 
ATOM     25  C   UNL A   1      31.552  24.103  23.391  1.00  0.00     0.008 C 
ATOM     26  C   UNL A   1      33.089  23.890  23.447  1.00  0.00    -0.014 C 
ATOM     27  C   UNL A   1      34.861  24.892  24.873  1.00  0.00     0.009 C 
ATOM     28  C   UNL A   1      33.550  23.336  22.077  1.00  0.00     0.012 C 
ATOM     29  C   UNL A   1      34.234  23.745  25.662  1.00  0.00     0.014 C 
BRANCH  10  30
ATOM     30  O   UNL A   1      33.369  30.642  26.588  1.00  0.00    -0.462 OA
BRANCH  30  31
ATOM     31  C   UNL A   1      34.331  30.757  27.547  1.00  0.00     0.302 C 
ATOM     32  C   UNL A   1      35.397  29.712  27.383  1.00  0.00     0.139 C 
ATOM     33  O   UNL A   1      34.375  31.579  28.450  1.00  0.00    -0.253 OA
ENDBRANCH  30  31
ENDBRANCH  10  30
BRANCH  14  34
ATOM     34  O   UNL A   1      30.380  29.129  23.582  1.00  0.00    -0.389 OA
ATOM     35  H   UNL A   1      30.212  28.247  23.214  1.00  0.00     0.211 HD
ENDBRANCH  14  34
ENDBRANCH   6   9
ENDBRANCH   4   5
ENDBRANCH   3   4
ENDBRANCH   2   3
ENDBRANCH   1   2
BRANCH   1  36
ATOM     36  C   UNL A   1      37.592  23.049  26.125  1.00  0.00     0.021 C 
BRANCH  36  37
ATOM     37  C   UNL A   1      38.542  23.997  26.853  1.00  0.00     0.116 C 
BRANCH  37  38
ATOM     38  N   UNL A   1      39.677  24.364  26.018  1.00  0.00    -0.352 N 
ATOM     39  C   UNL A   1      40.506  25.451  26.113  1.00  0.00     0.251 C 
ATOM     40  H   UNL A   1      39.877  23.743  25.282  1.00  0.00     0.163 HD
ATOM     41  O   UNL A   1      41.250  25.743  25.182  1.00  0.00    -0.269 OA
BRANCH  39  42
ATOM     42  C   UNL A   1      40.496  26.271  27.342  1.00  0.00     0.039 A 
ATOM     43  C   UNL A   1      41.359  27.365  27.439  1.00  0.00     0.014 A 
ATOM     44  C   UNL A   1      39.641  25.949  28.402  1.00  0.00     0.014 A 
ATOM     45  C   UNL A   1      41.329  28.167  28.582  1.00  0.00     0.010 A 
ATOM     46  C   UNL A   1      39.562  26.789  29.507  1.00  0.00     0.010 A 
ATOM     47  C   UNL A   1      40.410  27.902  29.612  1.00  0.00    -0.014 A 
BRANCH  47  48
ATOM     48  C   UNL A   1      40.326  28.773  30.810  1.00  0.00     0.031 A 
ATOM     49  C   UNL A   1      39.327  29.898  30.857  1.00  0.00     0.074 A 
ATOM     50  C   UNL A   1      41.191  28.590  31.828  1.00  0.00     0.049 A 
ATOM     51  N   UNL A   1      39.146  30.805  31.782  1.00  0.00    -0.248 NA
ATOM     52  C   UNL A   1      38.430  30.036  29.698  1.00  0.00     0.031 C 
ATOM     53  C   UNL A   1      42.232  27.561  31.878  1.00  0.00     0.029 A 
ATOM     54  N   UNL A   1      41.337  29.267  33.013  1.00  0.00    -0.354 N 
ATOM     55  C   UNL A   1      38.125  31.625  31.314  1.00  0.00     0.074 A 
ATOM     56  C   UNL A   1      37.766  31.142  29.999  1.00  0.00     0.031 C 
ATOM     57  C   UNL A   1      42.892  27.659  33.042  1.00  0.00     0.029 A 
ATOM     58  C   UNL A   1      42.351  28.780  33.804  1.00  0.00     0.049 A 
ATOM     59  H   UNL A   1      40.770  30.028  33.272  1.00  0.00     0.167 HD
ATOM     60  C   UNL A   1      37.526  32.668  31.936  1.00  0.00     0.037 A 
ATOM     61  C   UNL A   1      42.798  29.196  35.005  1.00  0.00     0.037 A 
ATOM     62  C   UNL A   1      37.879  33.129  33.253  1.00  0.00     0.049 A 
ATOM     63  C   UNL A   1      42.126  30.368  35.669  1.00  0.00     0.074 A 
ATOM     64  C   UNL A   1      37.303  34.147  33.992  1.00  0.00     0.029 A 
ATOM     65  N   UNL A   1      38.904  32.605  34.029  1.00  0.00    -0.354 N 
ATOM     66  N   UNL A   1      41.124  31.097  35.238  1.00  0.00    -0.248 NA
ATOM     67  C   UNL A   1      42.642  30.772  36.984  1.00  0.00     0.031 C 
ATOM     68  C   UNL A   1      38.007  34.268  35.195  1.00  0.00     0.029 A 
ATOM     69  C   UNL A   1      38.989  33.290  35.228  1.00  0.00     0.049 A 
ATOM     70  H   UNL A   1      39.484  31.855  33.764  1.00  0.00     0.167 HD
ATOM     71  C   UNL A   1      40.870  32.025  36.241  1.00  0.00     0.074 A 
ATOM     72  C   UNL A   1      41.817  31.760  37.304  1.00  0.00     0.031 C 
ATOM     73  C   UNL A   1      39.936  33.008  36.280  1.00  0.00     0.037 A 
BRANCH  60  74
ATOM     74  C   UNL A   1      36.425  33.380  31.196  1.00  0.00     0.058 A 
ATOM     75  C   UNL A   1      35.090  33.320  31.625  1.00  0.00     0.135 A 
ATOM     76  C   UNL A   1      36.710  34.154  30.059  1.00  0.00     0.135 A 
ATOM     77  F   UNL A   1      34.757  32.584  32.699  1.00  0.00    -0.206 F 
ATOM     78  C   UNL A   1      34.072  33.970  30.936  1.00  0.00     0.059 A 
ATOM     79  C   UNL A   1      35.712  34.837  29.370  1.00  0.00     0.059 A 
ATOM     80  F   UNL A   1      37.969  34.248  29.604  1.00  0.00    -0.206 F 
ATOM     81  C   UNL A   1      34.393  34.725  29.807  1.00  0.00     0.060 A 
BRANCH  81  82
ATOM     82  S   UNL A   1      33.060  35.560  28.920  1.00  0.00     0.124 S 
ATOM     83  O   UNL A   1      32.486  34.458  28.154  1.00  0.00    -0.237 OA
ATOM     84  O   UNL A   1      32.233  36.072  30.009  1.00  0.00    -0.237 OA
ATOM     85  O   UNL A   1      33.756  36.574  28.135  1.00  0.00    -0.744 OA
ENDBRANCH  81  82
ENDBRANCH  60  74
BRANCH  61  86
ATOM     86  C   UNL A   1      43.922  28.482  35.667  1.00  0.00     0.058 A 
ATOM     87  C   UNL A   1      43.679  27.442  36.575  1.00  0.00     0.135 A 
ATOM     88  C   UNL A   1      45.259  28.816  35.401  1.00  0.00     0.135 A 
ATOM     89  F   UNL A   1      42.418  27.089  36.868  1.00  0.00    -0.206 F 
ATOM     90  C   UNL A   1      44.718  26.767  37.209  1.00  0.00     0.059 A 
ATOM     91  C   UNL A   1      46.316  28.139  36.001  1.00  0.00     0.059 A 
ATOM     92  F   UNL A   1      45.547  29.796  34.528  1.00  0.00    -0.206 F 
ATOM     93  C   UNL A   1      46.035  27.123  36.912  1.00  0.00     0.060 A 
BRANCH  93  94
ATOM     94  S   UNL A   1      47.377  26.215  37.709  1.00  0.00     0.124 S 
ATOM     95  O   UNL A   1      46.687  25.604  38.839  1.00  0.00    -0.237 OA
ATOM     96  O   UNL A   1      47.801  25.303  36.651  1.00  0.00    -0.237 OA
ATOM     97  O   UNL A   1      48.336  27.263  38.046  1.00  0.00    -0.744 OA
ENDBRANCH  93  94
ENDBRANCH  61  86
BRANCH  73  98
ATOM     98  C   UNL A   1      39.865  33.847  37.526  1.00  0.00     0.058 A 
ATOM     99  C   UNL A   1      39.062  33.485  38.617  1.00  0.00     0.135 A 
ATOM    100  C   UNL A   1      40.656  35.003  37.648  1.00  0.00     0.135 A 
ATOM    101  F   UNL A   1      38.282  32.395  38.550  1.00  0.00    -0.206 F 
ATOM    102  C   UNL A   1      39.027  34.249  39.779  1.00  0.00     0.059 A 
ATOM    103  C   UNL A   1      40.659  35.766  38.811  1.00  0.00     0.059 A 
ATOM    104  F   UNL A   1      41.450  35.388  36.637  1.00  0.00    -0.206 F 
ATOM    105  C   UNL A   1      39.832  35.387  39.868  1.00  0.00     0.060 A 
BRANCH 105 106
ATOM    106  S   UNL A   1      39.806  36.348  41.396  1.00  0.00     0.124 S 
ATOM    107  O   UNL A   1      39.035  35.477  42.277  1.00  0.00    -0.237 OA
ATOM    108  O   UNL A   1      41.226  36.472  41.710  1.00  0.00    -0.237 OA
ATOM    109  O   UNL A   1      39.146  37.590  41.006  1.00  0.00    -0.744 OA
ENDBRANCH 105 106
ENDBRANCH  73  98
ENDBRANCH  47  48
ENDBRANCH  39  42
ENDBRANCH  37  38
ENDBRANCH  36  37
ENDBRANCH   1  36
TORSDOF 19
ENDMDL
MODEL 3
REMARK VINA RESULT:     -12.9      5.032     12.331
REMARK SMILES CC(=O)O[C@@H]1CC[C@@]23C(=O)O[C@]4(CC[C@]2(O)C1)[C@H]3CC[C@]1(C)[C@H](C(=O)NCCCCCCNC(=O)c2ccc(-c3c5nc(c(-c6c(F)cc(S(=O)(=O)[O-])cc6F)c6ccc([nH]6)c(-c6c(F)cc(S(=O)(=O)[O-])cc6F)c6nc(c(-c7c(F)cc(S(=O)(=O)[O-])cc7F)c7ccc3[nH]7)C=C6)C=C5)cc2)CC[C@@H]14
REMARK SMILES IDX 30 1 29 2 28 3 27 4 26 5 24 6 25 7 23 9 5 10 6 11 17 12 7 13
REMARK SMILES IDX 15 14 8 15 14 16 9 17 18 18 13 19 10 20 11 21 12 22 19 23
REMARK SMILES IDX 104 24 20 25 21 26 103 27 22 28 102 29 4 30 2 31 1 32 3 33
REMARK SMILES IDX 16 34 31 36 32 37 33 38 34 39 35 41 36 42 37 43 101 44 38 45
REMARK SMILES IDX 100 46 39 47 40 48 41 49 94 50 42 51 99 52 93 53 95 54 43 55
REMARK SMILES IDX 98 56 92 57 91 58 44 60 78 61 57 62 77 63 58 64 61 65 76 66
REMARK SMILES IDX 96 67 59 68 60 69 75 71 97 72 62 73 45 74 46 75 55 76 47 77
REMARK SMILES IDX 48 78 54 79 56 80 49 81 50 82 51 83 52 84 53 85 79 86 80 87
REMARK SMILES IDX 89 88 81 89 82 90 88 91 90 92 83 93 84 94 85 95 86 96 87 97
REMARK SMILES IDX 63 98 64 99 73 100 65 101 66 102 72 103 74 104 67 105 68 106
REMARK SMILES IDX 69 107 70 108 71 109
REMARK H PARENT 26 8 16 35 33 40 95 59 61 70
REMARK Flexibility Score: inf
ROOT
ATOM      1  C   UNL A   1      35.613  33.302  30.878  1.00  0.00     0.002 C 
ENDROOT
BRANCH   1   2
ATOM      2  C   UNL A   1      36.244  32.231  31.769  1.00  0.00     0.002 C 
BRANCH   2   3
ATOM      3  C   UNL A   1      37.636  32.591  32.292  1.00  0.00     0.021 C 
BRANCH   3   4
ATOM      4  C   UNL A   1      37.892  32.156  33.744  1.00  0.00     0.116 C 
BRANCH   4   5
ATOM      5  N   UNL A   1      37.532  30.760  33.887  1.00  0.00    -0.356 N 
ATOM      6  C   UNL A   1      38.117  29.614  33.472  1.00  0.00     0.223 C 
ATOM      7  O   UNL A   1      37.384  28.615  33.477  1.00  0.00    -0.275 OA
ATOM      8  H   UNL A   1      36.696  30.617  34.386  1.00  0.00     0.163 HD
BRANCH   6   9
ATOM      9  C   UNL A   1      39.595  29.432  33.110  1.00  0.00     0.085 C 
ATOM     10  C   UNL A   1      44.612  24.063  36.005  1.00  0.00     0.179 C 
ATOM     11  C   UNL A   1      43.107  24.132  35.892  1.00  0.00     0.047 C 
ATOM     12  C   UNL A   1      45.021  25.256  36.902  1.00  0.00     0.081 C 
ATOM     13  C   UNL A   1      42.756  25.437  35.212  1.00  0.00     0.026 C 
ATOM     14  C   UNL A   1      44.444  26.660  36.523  1.00  0.00     0.085 C 
ATOM     15  C   UNL A   1      42.978  26.773  36.237  1.00  0.00     0.103 C 
ATOM     16  C   UNL A   1      45.101  27.180  35.169  1.00  0.00     0.041 C 
ATOM     17  C   UNL A   1      41.547  26.953  36.222  1.00  0.00     0.316 C 
ATOM     18  C   UNL A   1      42.937  28.517  35.827  1.00  0.00     0.054 C 
ATOM     19  C   UNL A   1      44.075  27.681  34.014  1.00  0.00     0.052 C 
ATOM     20  O   UNL A   1      40.652  26.617  36.980  1.00  0.00    -0.251 OA
ATOM     21  O   UNL A   1      41.429  27.376  34.877  1.00  0.00    -0.458 OA
ATOM     22  C   UNL A   1      42.609  28.175  34.454  1.00  0.00     0.120 C 
ATOM     23  C   UNL A   1      41.955  29.604  36.363  1.00  0.00     0.009 C 
ATOM     24  C   UNL A   1      42.026  29.109  33.416  1.00  0.00     0.040 C 
ATOM     25  C   UNL A   1      40.724  29.962  35.481  1.00  0.00     0.008 C 
ATOM     26  C   UNL A   1      40.834  29.974  33.932  1.00  0.00    -0.014 C 
ATOM     27  C   UNL A   1      41.439  28.208  32.290  1.00  0.00     0.009 C 
ATOM     28  C   UNL A   1      41.061  31.434  33.475  1.00  0.00     0.012 C 
ATOM     29  C   UNL A   1      39.958  28.038  32.620  1.00  0.00     0.014 C 
BRANCH  10  30
ATOM     30  O   UNL A   1      45.364  24.113  34.751  1.00  0.00    -0.462 OA
BRANCH  30  31
ATOM     31  C   UNL A   1      45.303  23.140  33.798  1.00  0.00     0.302 C 
ATOM     32  C   UNL A   1      44.630  23.635  32.550  1.00  0.00     0.139 C 
ATOM     33  O   UNL A   1      45.718  21.994  33.890  1.00  0.00    -0.253 OA
ENDBRANCH  30  31
ENDBRANCH  10  30
BRANCH  14  34
ATOM     34  O   UNL A   1      44.766  27.546  37.599  1.00  0.00    -0.389 OA
ATOM     35  H   UNL A   1      44.013  27.602  38.208  1.00  0.00     0.211 HD
ENDBRANCH  14  34
ENDBRANCH   6   9
ENDBRANCH   4   5
ENDBRANCH   3   4
ENDBRANCH   2   3
ENDBRANCH   1   2
BRANCH   1  36
ATOM     36  C   UNL A   1      34.433  32.821  30.026  1.00  0.00     0.021 C 
BRANCH  36  37
ATOM     37  C   UNL A   1      34.814  32.318  28.636  1.00  0.00     0.116 C 
BRANCH  37  38
ATOM     38  N   UNL A   1      34.204  31.029  28.346  1.00  0.00    -0.352 N 
ATOM     39  C   UNL A   1      34.805  29.836  28.038  1.00  0.00     0.251 C 
ATOM     40  H   UNL A   1      33.221  31.011  28.375  1.00  0.00     0.163 HD
ATOM     41  O   UNL A   1      34.143  28.913  27.573  1.00  0.00    -0.269 OA
BRANCH  39  42
ATOM     42  C   UNL A   1      36.255  29.670  28.268  1.00  0.00     0.039 A 
ATOM     43  C   UNL A   1      36.705  29.278  29.531  1.00  0.00     0.014 A 
ATOM     44  C   UNL A   1      37.168  29.915  27.237  1.00  0.00     0.014 A 
ATOM     45  C   UNL A   1      38.070  29.082  29.746  1.00  0.00     0.010 A 
ATOM     46  C   UNL A   1      38.520  29.650  27.433  1.00  0.00     0.010 A 
ATOM     47  C   UNL A   1      38.985  29.239  28.691  1.00  0.00    -0.014 A 
BRANCH  47  48
ATOM     48  C   UNL A   1      40.435  28.984  28.886  1.00  0.00     0.031 A 
ATOM     49  C   UNL A   1      41.016  27.638  28.547  1.00  0.00     0.074 A 
ATOM     50  C   UNL A   1      41.212  29.944  29.424  1.00  0.00     0.049 A 
ATOM     51  N   UNL A   1      42.239  27.202  28.708  1.00  0.00    -0.248 NA
ATOM     52  C   UNL A   1      40.095  26.643  27.975  1.00  0.00     0.031 C 
ATOM     53  C   UNL A   1      40.753  31.274  29.833  1.00  0.00     0.029 A 
ATOM     54  N   UNL A   1      42.550  29.948  29.728  1.00  0.00    -0.354 N 
ATOM     55  C   UNL A   1      42.231  25.883  28.268  1.00  0.00     0.074 A 
ATOM     56  C   UNL A   1      40.871  25.573  27.888  1.00  0.00     0.031 C 
ATOM     57  C   UNL A   1      41.795  31.972  30.311  1.00  0.00     0.029 A 
ATOM     58  C   UNL A   1      42.987  31.129  30.280  1.00  0.00     0.049 A 
ATOM     59  H   UNL A   1      43.142  29.178  29.566  1.00  0.00     0.167 HD
ATOM     60  C   UNL A   1      43.269  25.018  28.168  1.00  0.00     0.037 A 
ATOM     61  C   UNL A   1      44.208  31.490  30.720  1.00  0.00     0.037 A 
ATOM     62  C   UNL A   1      44.623  25.343  28.532  1.00  0.00     0.049 A 
ATOM     63  C   UNL A   1      45.343  30.506  30.612  1.00  0.00     0.074 A 
ATOM     64  C   UNL A   1      45.756  24.556  28.425  1.00  0.00     0.029 A 
ATOM     65  N   UNL A   1      45.030  26.553  29.078  1.00  0.00    -0.354 N 
ATOM     66  N   UNL A   1      45.331  29.281  30.141  1.00  0.00    -0.248 NA
ATOM     67  C   UNL A   1      46.658  30.954  31.091  1.00  0.00     0.031 C 
ATOM     68  C   UNL A   1      46.838  25.273  28.947  1.00  0.00     0.029 A 
ATOM     69  C   UNL A   1      46.390  26.527  29.331  1.00  0.00     0.049 A 
ATOM     70  H   UNL A   1      44.436  27.318  29.258  1.00  0.00     0.167 HD
ATOM     71  C   UNL A   1      46.640  28.824  30.239  1.00  0.00     0.074 A 
ATOM     72  C   UNL A   1      47.419  29.906  30.805  1.00  0.00     0.031 C 
ATOM     73  C   UNL A   1      47.152  27.617  29.890  1.00  0.00     0.037 A 
BRANCH  60  74
ATOM     74  C   UNL A   1      42.977  23.639  27.641  1.00  0.00     0.058 A 
ATOM     75  C   UNL A   1      43.112  23.326  26.279  1.00  0.00     0.135 A 
ATOM     76  C   UNL A   1      42.584  22.608  28.510  1.00  0.00     0.135 A 
ATOM     77  F   UNL A   1      43.472  24.276  25.399  1.00  0.00    -0.206 F 
ATOM     78  C   UNL A   1      42.833  22.054  25.791  1.00  0.00     0.059 A 
ATOM     79  C   UNL A   1      42.329  21.320  28.050  1.00  0.00     0.059 A 
ATOM     80  F   UNL A   1      42.441  22.849  29.823  1.00  0.00    -0.206 F 
ATOM     81  C   UNL A   1      42.439  21.057  26.685  1.00  0.00     0.060 A 
BRANCH  81  82
ATOM     82  S   UNL A   1      42.077  19.411  26.037  1.00  0.00     0.124 S 
ATOM     83  O   UNL A   1      42.874  19.399  24.814  1.00  0.00    -0.237 OA
ATOM     84  O   UNL A   1      42.550  18.542  27.110  1.00  0.00    -0.237 OA
ATOM     85  O   UNL A   1      40.631  19.433  25.842  1.00  0.00    -0.744 OA
ENDBRANCH  81  82
ENDBRANCH  60  74
BRANCH  61  86
ATOM     86  C   UNL A   1      44.427  32.852  31.275  1.00  0.00     0.058 A 
ATOM     87  C   UNL A   1      44.454  33.068  32.661  1.00  0.00     0.135 A 
ATOM     88  C   UNL A   1      44.623  33.961  30.438  1.00  0.00     0.135 A 
ATOM     89  F   UNL A   1      44.265  32.041  33.503  1.00  0.00    -0.206 F 
ATOM     90  C   UNL A   1      44.651  34.336  33.198  1.00  0.00     0.059 A 
ATOM     91  C   UNL A   1      44.849  35.234  30.951  1.00  0.00     0.059 A 
ATOM     92  F   UNL A   1      44.620  33.805  29.104  1.00  0.00    -0.206 F 
ATOM     93  C   UNL A   1      44.850  35.413  32.333  1.00  0.00     0.060 A 
BRANCH  93  94
ATOM     94  S   UNL A   1      45.145  37.049  33.041  1.00  0.00     0.124 S 
ATOM     95  O   UNL A   1      44.450  37.909  32.091  1.00  0.00    -0.237 OA
ATOM     96  O   UNL A   1      44.530  36.927  34.359  1.00  0.00    -0.237 OA
ATOM     97  O   UNL A   1      46.601  37.156  33.043  1.00  0.00    -0.744 OA
ENDBRANCH  93  94
ENDBRANCH  61  86
BRANCH  73  98
ATOM     98  C   UNL A   1      48.631  27.413  30.075  1.00  0.00     0.058 A 
ATOM     99  C   UNL A   1      49.168  26.959  31.288  1.00  0.00     0.135 A 
ATOM    100  C   UNL A   1      49.515  27.624  29.003  1.00  0.00     0.135 A 
ATOM    101  F   UNL A   1      48.368  26.749  32.346  1.00  0.00    -0.206 F 
ATOM    102  C   UNL A   1      50.534  26.740  31.442  1.00  0.00     0.059 A 
ATOM    103  C   UNL A   1      50.880  27.385  29.125  1.00  0.00     0.059 A 
ATOM    104  F   UNL A   1      49.051  28.049  27.817  1.00  0.00    -0.206 F 
ATOM    105  C   UNL A   1      51.381  26.954  30.352  1.00  0.00     0.060 A 
BRANCH 105 106
ATOM    106  S   UNL A   1      53.146  26.629  30.554  1.00  0.00     0.124 S 
ATOM    107  O   UNL A   1      53.132  25.462  31.430  1.00  0.00    -0.237 OA
ATOM    108  O   UNL A   1      53.577  26.386  29.181  1.00  0.00    -0.237 OA
ATOM    109  O   UNL A   1      53.652  27.860  31.154  1.00  0.00    -0.744 OA
ENDBRANCH 105 106
ENDBRANCH  73  98
ENDBRANCH  47  48
ENDBRANCH  39  42
ENDBRANCH  37  38
ENDBRANCH  36  37
ENDBRANCH   1  36
TORSDOF 19
ENDMDL
