MODEL 1
REMARK VINA RESULT:     -11.2      0.000      0.000
REMARK SMILES C[C@H]1OCC[C@H]1C(=O)Nc1ccsc1C(=O)NCCCCCCNC(=O)c1ccc(-c2c3nc(c(-c4c(F)cc(S(=O)(=O)[O-])cc4F)c4ccc([nH]4)c(-c4c(F)cc(S(=O)(=O)[O-])cc4F)c4nc(c(-c5c(F)cc(S(=O)(=O)[O-])cc5F)c5ccc2[nH]5)C=C4)C=C3)cc1
REMARK SMILES IDX 21 1 20 2 19 3 18 4 17 5 15 6 16 7 14 9 10 10 11 11 12 12
REMARK SMILES IDX 13 13 9 14 7 15 8 16 6 18 1 19 2 20 3 21 4 22 5 23 22 24
REMARK SMILES IDX 23 25 24 26 25 27 26 29 27 30 28 31 92 32 29 33 91 34 30 35
REMARK SMILES IDX 31 36 32 37 85 38 33 39 90 40 84 41 86 42 34 43 89 44 83 45
REMARK SMILES IDX 82 46 35 48 69 49 48 50 68 51 49 52 52 53 67 54 87 55 50 56
REMARK SMILES IDX 51 57 66 59 88 60 53 61 36 62 37 63 46 64 38 65 39 66 45 67
REMARK SMILES IDX 47 68 40 69 41 70 42 71 43 72 44 73 70 74 71 75 80 76 72 77
REMARK SMILES IDX 73 78 79 79 81 80 74 81 75 82 76 83 77 84 78 85 54 86 55 87
REMARK SMILES IDX 64 88 56 89 57 90 63 91 65 92 58 93 59 94 60 95 61 96 62 97
REMARK H PARENT 17 8 9 17 24 28 86 47 52 58
REMARK Flexibility Score: inf
ROOT
ATOM      1  C   UNL A   1      39.838  21.495  26.490  1.00  0.00     0.002 C 
ENDROOT
BRANCH   1   2
ATOM      2  C   UNL A   1      38.613  22.021  25.737  1.00  0.00     0.002 C 
BRANCH   2   3
ATOM      3  C   UNL A   1      38.120  23.416  26.116  1.00  0.00     0.021 C 
BRANCH   3   4
ATOM      4  C   UNL A   1      36.628  23.662  25.958  1.00  0.00     0.116 C 
BRANCH   4   5
ATOM      5  N   UNL A   1      35.772  22.943  26.861  1.00  0.00    -0.351 N 
ATOM      6  C   UNL A   1      34.456  22.551  26.739  1.00  0.00     0.263 C 
ATOM      7  O   UNL A   1      34.033  21.937  27.726  1.00  0.00    -0.268 OA
ATOM      8  H   UNL A   1      36.197  22.688  27.712  1.00  0.00     0.163 HD
BRANCH   6   9
ATOM      9  C   UNL A   1      33.609  22.847  25.574  1.00  0.00     0.115 A 
ATOM     10  C   UNL A   1      32.524  23.681  25.300  1.00  0.00     0.065 A 
ATOM     11  C   UNL A   1      32.163  23.649  23.916  1.00  0.00     0.038 A 
ATOM     12  C   UNL A   1      32.872  22.729  23.188  1.00  0.00     0.068 A 
ATOM     13  S   UNL A   1      34.016  21.929  24.147  1.00  0.00    -0.137 S 
BRANCH  10  14
ATOM     14  N   UNL A   1      31.994  24.610  26.175  1.00  0.00    -0.324 N 
ATOM     15  C   UNL A   1      32.153  25.959  26.271  1.00  0.00     0.230 C 
ATOM     16  O   UNL A   1      31.450  26.507  27.134  1.00  0.00    -0.274 OA
ATOM     17  H   UNL A   1      31.391  24.226  26.851  1.00  0.00     0.169 HD
BRANCH  15  18
ATOM     18  C   UNL A   1      33.005  26.859  25.371  1.00  0.00     0.110 C 
ATOM     19  C   UNL A   1      30.946  27.181  23.859  1.00  0.00     0.039 C 
ATOM     20  C   UNL A   1      32.283  27.706  24.346  1.00  0.00     0.127 C 
ATOM     21  O   UNL A   1      32.180  29.018  24.914  1.00  0.00    -0.378 OA
ATOM     22  C   UNL A   1      33.293  29.206  25.802  1.00  0.00     0.161 C 
ATOM     23  C   UNL A   1      33.939  27.854  26.030  1.00  0.00     0.044 C 
ENDBRANCH  15  18
ENDBRANCH  10  14
ENDBRANCH   6   9
ENDBRANCH   4   5
ENDBRANCH   3   4
ENDBRANCH   2   3
ENDBRANCH   1   2
BRANCH   1  24
ATOM     24  C   UNL A   1      40.412  22.385  27.596  1.00  0.00     0.021 C 
BRANCH  24  25
ATOM     25  C   UNL A   1      41.774  23.017  27.324  1.00  0.00     0.116 C 
BRANCH  25  26
ATOM     26  N   UNL A   1      41.772  23.893  26.167  1.00  0.00    -0.352 N 
ATOM     27  C   UNL A   1      41.535  25.242  26.075  1.00  0.00     0.251 C 
ATOM     28  H   UNL A   1      41.974  23.450  25.311  1.00  0.00     0.163 HD
ATOM     29  O   UNL A   1      41.462  25.762  24.964  1.00  0.00    -0.269 OA
BRANCH  27  30
ATOM     30  C   UNL A   1      41.339  26.069  27.289  1.00  0.00     0.039 A 
ATOM     31  C   UNL A   1      42.345  26.973  27.641  1.00  0.00     0.014 A 
ATOM     32  C   UNL A   1      40.206  25.942  28.096  1.00  0.00     0.014 A 
ATOM     33  C   UNL A   1      42.189  27.784  28.768  1.00  0.00     0.010 A 
ATOM     34  C   UNL A   1      40.018  26.804  29.179  1.00  0.00     0.010 A 
ATOM     35  C   UNL A   1      41.010  27.731  29.530  1.00  0.00    -0.014 A 
BRANCH  35  36
ATOM     36  C   UNL A   1      40.808  28.659  30.673  1.00  0.00     0.031 A 
ATOM     37  C   UNL A   1      41.646  28.546  31.919  1.00  0.00     0.074 A 
ATOM     38  C   UNL A   1      39.838  29.592  30.600  1.00  0.00     0.049 A 
ATOM     39  N   UNL A   1      41.618  29.280  33.002  1.00  0.00    -0.248 NA
ATOM     40  C   UNL A   1      42.627  27.450  31.965  1.00  0.00     0.031 C 
ATOM     41  C   UNL A   1      38.915  29.762  29.474  1.00  0.00     0.029 A 
ATOM     42  N   UNL A   1      39.462  30.573  31.484  1.00  0.00    -0.354 N 
ATOM     43  C   UNL A   1      42.567  28.734  33.859  1.00  0.00     0.074 A 
ATOM     44  C   UNL A   1      43.116  27.573  33.191  1.00  0.00     0.031 C 
ATOM     45  C   UNL A   1      38.105  30.803  29.722  1.00  0.00     0.029 A 
ATOM     46  C   UNL A   1      38.423  31.352  31.035  1.00  0.00     0.049 A 
ATOM     47  H   UNL A   1      39.897  30.704  32.358  1.00  0.00     0.167 HD
ATOM     48  C   UNL A   1      42.961  29.172  35.080  1.00  0.00     0.037 A 
ATOM     49  C   UNL A   1      37.795  32.394  31.614  1.00  0.00     0.037 A 
ATOM     50  C   UNL A   1      42.420  30.338  35.732  1.00  0.00     0.049 A 
ATOM     51  C   UNL A   1      38.259  32.873  32.962  1.00  0.00     0.074 A 
ATOM     52  C   UNL A   1      42.799  30.905  36.937  1.00  0.00     0.029 A 
ATOM     53  N   UNL A   1      41.377  31.111  35.241  1.00  0.00    -0.354 N 
ATOM     54  N   UNL A   1      39.218  32.395  33.721  1.00  0.00    -0.248 NA
ATOM     55  C   UNL A   1      37.568  34.039  33.526  1.00  0.00     0.031 C 
ATOM     56  C   UNL A   1      41.950  31.985  37.200  1.00  0.00     0.029 A 
ATOM     57  C   UNL A   1      41.080  32.132  36.132  1.00  0.00     0.049 A 
ATOM     58  H   UNL A   1      40.915  30.958  34.385  1.00  0.00     0.167 HD
ATOM     59  C   UNL A   1      39.256  33.213  34.845  1.00  0.00     0.074 A 
ATOM     60  C   UNL A   1      38.241  34.230  34.653  1.00  0.00     0.031 C 
ATOM     61  C   UNL A   1      40.056  33.129  35.936  1.00  0.00     0.037 A 
BRANCH  48  62
ATOM     62  C   UNL A   1      44.029  28.385  35.794  1.00  0.00     0.058 A 
ATOM     63  C   UNL A   1      45.396  28.646  35.599  1.00  0.00     0.135 A 
ATOM     64  C   UNL A   1      43.683  27.377  36.708  1.00  0.00     0.135 A 
ATOM     65  F   UNL A   1      45.788  29.590  34.729  1.00  0.00    -0.206 F 
ATOM     66  C   UNL A   1      46.379  27.914  36.258  1.00  0.00     0.059 A 
ATOM     67  C   UNL A   1      44.649  26.652  37.402  1.00  0.00     0.059 A 
ATOM     68  F   UNL A   1      42.393  27.084  36.936  1.00  0.00    -0.206 F 
ATOM     69  C   UNL A   1      45.996  26.916  37.156  1.00  0.00     0.060 A 
BRANCH  69  70
ATOM     70  S   UNL A   1      47.283  25.973  37.999  1.00  0.00     0.124 S 
ATOM     71  O   UNL A   1      48.044  27.038  38.648  1.00  0.00    -0.237 OA
ATOM     72  O   UNL A   1      46.510  25.116  38.891  1.00  0.00    -0.237 OA
ATOM     73  O   UNL A   1      47.972  25.287  36.912  1.00  0.00    -0.744 OA
ENDBRANCH  69  70
ENDBRANCH  48  62
BRANCH  49  74
ATOM     74  C   UNL A   1      36.675  33.069  30.903  1.00  0.00     0.058 A 
ATOM     75  C   UNL A   1      35.344  32.879  31.301  1.00  0.00     0.135 A 
ATOM     76  C   UNL A   1      36.919  33.940  29.829  1.00  0.00     0.135 A 
ATOM     77  F   UNL A   1      35.060  32.050  32.317  1.00  0.00    -0.206 F 
ATOM     78  C   UNL A   1      34.292  33.519  30.654  1.00  0.00     0.059 A 
ATOM     79  C   UNL A   1      35.885  34.613  29.185  1.00  0.00     0.059 A 
ATOM     80  F   UNL A   1      38.176  34.169  29.420  1.00  0.00    -0.206 F 
ATOM     81  C   UNL A   1      34.574  34.389  29.600  1.00  0.00     0.060 A 
BRANCH  81  82
ATOM     82  S   UNL A   1      33.205  35.264  28.808  1.00  0.00     0.124 S 
ATOM     83  O   UNL A   1      33.908  36.314  28.082  1.00  0.00    -0.237 OA
ATOM     84  O   UNL A   1      32.603  34.215  27.992  1.00  0.00    -0.237 OA
ATOM     85  O   UNL A   1      32.395  35.710  29.938  1.00  0.00    -0.744 OA
ENDBRANCH  81  82
ENDBRANCH  49  74
BRANCH  61  86
ATOM     86  C   UNL A   1      39.875  34.178  37.002  1.00  0.00     0.058 A 
ATOM     87  C   UNL A   1      40.539  35.413  36.944  1.00  0.00     0.135 A 
ATOM     88  C   UNL A   1      39.016  33.949  38.089  1.00  0.00     0.135 A 
ATOM     89  F   UNL A   1      41.376  35.684  35.929  1.00  0.00    -0.206 F 
ATOM     90  C   UNL A   1      40.391  36.368  37.945  1.00  0.00     0.059 A 
ATOM     91  C   UNL A   1      38.827  34.901  39.086  1.00  0.00     0.059 A 
ATOM     92  F   UNL A   1      38.346  32.790  38.190  1.00  0.00    -0.206 F 
ATOM     93  C   UNL A   1      39.534  36.101  39.015  1.00  0.00     0.060 A 
BRANCH  93  94
ATOM     94  S   UNL A   1      39.351  37.346  40.309  1.00  0.00     0.124 S 
ATOM     95  O   UNL A   1      38.652  36.593  41.345  1.00  0.00    -0.237 OA
ATOM     96  O   UNL A   1      40.736  37.696  40.605  1.00  0.00    -0.237 OA
ATOM     97  O   UNL A   1      38.570  38.397  39.661  1.00  0.00    -0.744 OA
ENDBRANCH  93  94
ENDBRANCH  61  86
ENDBRANCH  35  36
ENDBRANCH  27  30
ENDBRANCH  25  26
ENDBRANCH  24  25
ENDBRANCH   1  24
TORSDOF 18
ENDMDL
MODEL 2
REMARK VINA RESULT:     -10.9      1.657      3.179
REMARK SMILES C[C@H]1OCC[C@H]1C(=O)Nc1ccsc1C(=O)NCCCCCCNC(=O)c1ccc(-c2c3nc(c(-c4c(F)cc(S(=O)(=O)[O-])cc4F)c4ccc([nH]4)c(-c4c(F)cc(S(=O)(=O)[O-])cc4F)c4nc(c(-c5c(F)cc(S(=O)(=O)[O-])cc5F)c5ccc2[nH]5)C=C4)C=C3)cc1
REMARK SMILES IDX 21 1 20 2 19 3 18 4 17 5 15 6 16 7 14 9 10 10 11 11 12 12
REMARK SMILES IDX 13 13 9 14 7 15 8 16 6 18 1 19 2 20 3 21 4 22 5 23 22 24
REMARK SMILES IDX 23 25 24 26 25 27 26 29 27 30 28 31 92 32 29 33 91 34 30 35
REMARK SMILES IDX 31 36 32 37 85 38 33 39 90 40 84 41 86 42 34 43 89 44 83 45
REMARK SMILES IDX 82 46 35 48 69 49 48 50 68 51 49 52 52 53 67 54 87 55 50 56
REMARK SMILES IDX 51 57 66 59 88 60 53 61 36 62 37 63 46 64 38 65 39 66 45 67
REMARK SMILES IDX 47 68 40 69 41 70 42 71 43 72 44 73 70 74 71 75 80 76 72 77
REMARK SMILES IDX 73 78 79 79 81 80 74 81 75 82 76 83 77 84 78 85 54 86 55 87
REMARK SMILES IDX 64 88 56 89 57 90 63 91 65 92 58 93 59 94 60 95 61 96 62 97
REMARK H PARENT 17 8 9 17 24 28 86 47 52 58
REMARK Flexibility Score: inf
ROOT
ATOM      1  C   UNL A   1      40.170  21.539  27.183  1.00  0.00     0.002 C 
ENDROOT
BRANCH   1   2
ATOM      2  C   UNL A   1      39.153  21.909  26.100  1.00  0.00     0.002 C 
BRANCH   2   3
ATOM      3  C   UNL A   1      38.453  23.258  26.247  1.00  0.00     0.021 C 
BRANCH   3   4
ATOM      4  C   UNL A   1      37.001  23.309  25.796  1.00  0.00     0.116 C 
BRANCH   4   5
ATOM      5  N   UNL A   1      36.015  23.173  26.832  1.00  0.00    -0.351 N 
ATOM      6  C   UNL A   1      34.675  22.854  26.769  1.00  0.00     0.263 C 
ATOM      7  O   UNL A   1      34.125  22.824  27.876  1.00  0.00    -0.268 OA
ATOM      8  H   UNL A   1      36.353  23.337  27.743  1.00  0.00     0.163 HD
BRANCH   6   9
ATOM      9  C   UNL A   1      33.944  22.600  25.519  1.00  0.00     0.115 A 
ATOM     10  C   UNL A   1      33.967  21.630  24.515  1.00  0.00     0.065 A 
ATOM     11  C   UNL A   1      32.917  21.824  23.563  1.00  0.00     0.038 A 
ATOM     12  C   UNL A   1      32.196  22.972  23.770  1.00  0.00     0.068 A 
ATOM     13  S   UNL A   1      32.740  23.805  25.142  1.00  0.00    -0.137 S 
BRANCH  10  14
ATOM     14  N   UNL A   1      34.738  20.484  24.534  1.00  0.00    -0.324 N 
ATOM     15  C   UNL A   1      34.407  19.171  24.678  1.00  0.00     0.230 C 
ATOM     16  O   UNL A   1      35.353  18.378  24.559  1.00  0.00    -0.274 OA
ATOM     17  H   UNL A   1      35.702  20.646  24.422  1.00  0.00     0.169 HD
BRANCH  15  18
ATOM     18  C   UNL A   1      33.004  18.582  24.856  1.00  0.00     0.110 C 
ATOM     19  C   UNL A   1      33.042  17.916  22.369  1.00  0.00     0.039 C 
ATOM     20  C   UNL A   1      32.480  17.682  23.759  1.00  0.00     0.127 C 
ATOM     21  O   UNL A   1      32.686  16.338  24.213  1.00  0.00    -0.378 OA
ATOM     22  C   UNL A   1      32.640  16.343  25.648  1.00  0.00     0.161 C 
ATOM     23  C   UNL A   1      32.715  17.784  26.111  1.00  0.00     0.044 C 
ENDBRANCH  15  18
ENDBRANCH  10  14
ENDBRANCH   6   9
ENDBRANCH   4   5
ENDBRANCH   3   4
ENDBRANCH   2   3
ENDBRANCH   1   2
BRANCH   1  24
ATOM     24  C   UNL A   1      40.830  22.694  27.943  1.00  0.00     0.021 C 
BRANCH  24  25
ATOM     25  C   UNL A   1      42.169  23.189  27.401  1.00  0.00     0.116 C 
BRANCH  25  26
ATOM     26  N   UNL A   1      42.028  24.047  26.239  1.00  0.00    -0.352 N 
ATOM     27  C   UNL A   1      41.661  25.366  26.149  1.00  0.00     0.251 C 
ATOM     28  H   UNL A   1      42.228  23.613  25.378  1.00  0.00     0.163 HD
ATOM     29  O   UNL A   1      41.486  25.863  25.039  1.00  0.00    -0.269 OA
BRANCH  27  30
ATOM     30  C   UNL A   1      41.447  26.186  27.365  1.00  0.00     0.039 A 
ATOM     31  C   UNL A   1      42.453  27.078  27.744  1.00  0.00     0.014 A 
ATOM     32  C   UNL A   1      40.297  26.063  28.148  1.00  0.00     0.014 A 
ATOM     33  C   UNL A   1      42.282  27.882  28.874  1.00  0.00     0.010 A 
ATOM     34  C   UNL A   1      40.095  26.918  29.234  1.00  0.00     0.010 A 
ATOM     35  C   UNL A   1      41.087  27.834  29.611  1.00  0.00    -0.014 A 
BRANCH  35  36
ATOM     36  C   UNL A   1      40.870  28.755  30.758  1.00  0.00     0.031 A 
ATOM     37  C   UNL A   1      41.700  28.643  32.008  1.00  0.00     0.074 A 
ATOM     38  C   UNL A   1      39.894  29.681  30.681  1.00  0.00     0.049 A 
ATOM     39  N   UNL A   1      41.658  29.371  33.095  1.00  0.00    -0.248 NA
ATOM     40  C   UNL A   1      42.688  27.554  32.057  1.00  0.00     0.031 C 
ATOM     41  C   UNL A   1      38.978  29.850  29.549  1.00  0.00     0.029 A 
ATOM     42  N   UNL A   1      39.504  30.655  31.567  1.00  0.00    -0.354 N 
ATOM     43  C   UNL A   1      42.605  28.829  33.956  1.00  0.00     0.074 A 
ATOM     44  C   UNL A   1      43.167  27.675  33.287  1.00  0.00     0.031 C 
ATOM     45  C   UNL A   1      38.158  30.883  29.796  1.00  0.00     0.029 A 
ATOM     46  C   UNL A   1      38.463  31.429  31.114  1.00  0.00     0.049 A 
ATOM     47  H   UNL A   1      39.932  30.786  32.445  1.00  0.00     0.167 HD
ATOM     48  C   UNL A   1      42.987  29.263  35.182  1.00  0.00     0.037 A 
ATOM     49  C   UNL A   1      37.823  32.464  31.693  1.00  0.00     0.037 A 
ATOM     50  C   UNL A   1      42.432  30.422  35.835  1.00  0.00     0.049 A 
ATOM     51  C   UNL A   1      38.274  32.940  33.046  1.00  0.00     0.074 A 
ATOM     52  C   UNL A   1      42.798  30.987  37.046  1.00  0.00     0.029 A 
ATOM     53  N   UNL A   1      41.388  31.191  35.341  1.00  0.00    -0.354 N 
ATOM     54  N   UNL A   1      39.230  32.465  33.810  1.00  0.00    -0.248 NA
ATOM     55  C   UNL A   1      37.570  34.098  33.611  1.00  0.00     0.031 C 
ATOM     56  C   UNL A   1      41.940  32.060  37.307  1.00  0.00     0.029 A 
ATOM     57  C   UNL A   1      41.077  32.205  36.234  1.00  0.00     0.049 A 
ATOM     58  H   UNL A   1      40.933  31.038  34.480  1.00  0.00     0.167 HD
ATOM     59  C   UNL A   1      39.254  33.279  34.938  1.00  0.00     0.074 A 
ATOM     60  C   UNL A   1      38.233  34.289  34.743  1.00  0.00     0.031 C 
ATOM     61  C   UNL A   1      40.047  33.196  36.035  1.00  0.00     0.037 A 
BRANCH  48  62
ATOM     62  C   UNL A   1      44.055  28.481  35.900  1.00  0.00     0.058 A 
ATOM     63  C   UNL A   1      45.421  28.762  35.727  1.00  0.00     0.135 A 
ATOM     64  C   UNL A   1      43.710  27.458  36.797  1.00  0.00     0.135 A 
ATOM     65  F   UNL A   1      45.812  29.722  34.874  1.00  0.00    -0.206 F 
ATOM     66  C   UNL A   1      46.405  28.034  36.390  1.00  0.00     0.059 A 
ATOM     67  C   UNL A   1      44.676  26.736  37.495  1.00  0.00     0.059 A 
ATOM     68  F   UNL A   1      42.421  27.145  37.004  1.00  0.00    -0.206 F 
ATOM     69  C   UNL A   1      46.022  27.020  37.270  1.00  0.00     0.060 A 
BRANCH  69  70
ATOM     70  S   UNL A   1      47.311  26.083  38.119  1.00  0.00     0.124 S 
ATOM     71  O   UNL A   1      46.637  25.727  39.365  1.00  0.00    -0.237 OA
ATOM     72  O   UNL A   1      47.555  24.980  37.195  1.00  0.00    -0.237 OA
ATOM     73  O   UNL A   1      48.402  27.043  38.250  1.00  0.00    -0.744 OA
ENDBRANCH  69  70
ENDBRANCH  48  62
BRANCH  49  74
ATOM     74  C   UNL A   1      36.704  33.134  30.977  1.00  0.00     0.058 A 
ATOM     75  C   UNL A   1      35.368  32.823  31.267  1.00  0.00     0.135 A 
ATOM     76  C   UNL A   1      36.950  34.120  30.007  1.00  0.00     0.135 A 
ATOM     77  F   UNL A   1      35.081  31.883  32.180  1.00  0.00    -0.206 F 
ATOM     78  C   UNL A   1      34.314  33.456  30.616  1.00  0.00     0.059 A 
ATOM     79  C   UNL A   1      35.913  34.787  29.363  1.00  0.00     0.059 A 
ATOM     80  F   UNL A   1      38.211  34.465  29.705  1.00  0.00    -0.206 F 
ATOM     81  C   UNL A   1      34.598  34.441  29.669  1.00  0.00     0.060 A 
BRANCH  81  82
ATOM     82  S   UNL A   1      33.221  35.302  28.875  1.00  0.00     0.124 S 
ATOM     83  O   UNL A   1      32.511  35.846  30.027  1.00  0.00    -0.237 OA
ATOM     84  O   UNL A   1      33.912  36.273  28.034  1.00  0.00    -0.237 OA
ATOM     85  O   UNL A   1      32.532  34.236  28.153  1.00  0.00    -0.744 OA
ENDBRANCH  81  82
ENDBRANCH  49  74
BRANCH  61  86
ATOM     86  C   UNL A   1      39.851  34.238  37.104  1.00  0.00     0.058 A 
ATOM     87  C   UNL A   1      40.494  35.484  37.048  1.00  0.00     0.135 A 
ATOM     88  C   UNL A   1      38.997  33.991  38.192  1.00  0.00     0.135 A 
ATOM     89  F   UNL A   1      41.325  35.771  36.033  1.00  0.00    -0.206 F 
ATOM     90  C   UNL A   1      40.332  36.433  38.053  1.00  0.00     0.059 A 
ATOM     91  C   UNL A   1      38.794  34.937  39.192  1.00  0.00     0.059 A 
ATOM     92  F   UNL A   1      38.346  32.822  38.290  1.00  0.00    -0.206 F 
ATOM     93  C   UNL A   1      39.481  36.149  39.124  1.00  0.00     0.060 A 
BRANCH  93  94
ATOM     94  S   UNL A   1      39.280  37.387  40.421  1.00  0.00     0.124 S 
ATOM     95  O   UNL A   1      38.179  38.188  39.895  1.00  0.00    -0.237 OA
ATOM     96  O   UNL A   1      38.967  36.570  41.589  1.00  0.00    -0.237 OA
ATOM     97  O   UNL A   1      40.579  38.054  40.459  1.00  0.00    -0.744 OA
ENDBRANCH  93  94
ENDBRANCH  61  86
ENDBRANCH  35  36
ENDBRANCH  27  30
ENDBRANCH  25  26
ENDBRANCH  24  25
ENDBRANCH   1  24
TORSDOF 18
ENDMDL
MODEL 3
REMARK VINA RESULT:     -10.7      1.183      2.155
REMARK SMILES C[C@H]1OCC[C@H]1C(=O)Nc1ccsc1C(=O)NCCCCCCNC(=O)c1ccc(-c2c3nc(c(-c4c(F)cc(S(=O)(=O)[O-])cc4F)c4ccc([nH]4)c(-c4c(F)cc(S(=O)(=O)[O-])cc4F)c4nc(c(-c5c(F)cc(S(=O)(=O)[O-])cc5F)c5ccc2[nH]5)C=C4)C=C3)cc1
REMARK SMILES IDX 21 1 20 2 19 3 18 4 17 5 15 6 16 7 14 9 10 10 11 11 12 12
REMARK SMILES IDX 13 13 9 14 7 15 8 16 6 18 1 19 2 20 3 21 4 22 5 23 22 24
REMARK SMILES IDX 23 25 24 26 25 27 26 29 27 30 28 31 92 32 29 33 91 34 30 35
REMARK SMILES IDX 31 36 32 37 85 38 33 39 90 40 84 41 86 42 34 43 89 44 83 45
REMARK SMILES IDX 82 46 35 48 69 49 48 50 68 51 49 52 52 53 67 54 87 55 50 56
REMARK SMILES IDX 51 57 66 59 88 60 53 61 36 62 37 63 46 64 38 65 39 66 45 67
REMARK SMILES IDX 47 68 40 69 41 70 42 71 43 72 44 73 70 74 71 75 80 76 72 77
REMARK SMILES IDX 73 78 79 79 81 80 74 81 75 82 76 83 77 84 78 85 54 86 55 87
REMARK SMILES IDX 64 88 56 89 57 90 63 91 65 92 58 93 59 94 60 95 61 96 62 97
REMARK H PARENT 17 8 9 17 24 28 86 47 52 58
REMARK Flexibility Score: inf
ROOT
ATOM      1  C   UNL A   1      40.842  21.594  27.636  1.00  0.00     0.002 C 
ENDROOT
BRANCH   1   2
ATOM      2  C   UNL A   1      39.887  21.883  26.476  1.00  0.00     0.002 C 
BRANCH   2   3
ATOM      3  C   UNL A   1      39.192  23.243  26.480  1.00  0.00     0.021 C 
BRANCH   3   4
ATOM      4  C   UNL A   1      37.730  23.247  26.064  1.00  0.00     0.116 C 
BRANCH   4   5
ATOM      5  N   UNL A   1      37.478  23.182  24.650  1.00  0.00    -0.351 N 
ATOM      6  C   UNL A   1      36.298  23.057  23.947  1.00  0.00     0.263 C 
ATOM      7  O   UNL A   1      36.457  23.037  22.721  1.00  0.00    -0.268 OA
ATOM      8  H   UNL A   1      38.285  23.235  24.088  1.00  0.00     0.163 HD
BRANCH   6   9
ATOM      9  C   UNL A   1      34.973  22.930  24.572  1.00  0.00     0.115 A 
ATOM     10  C   UNL A   1      34.005  23.802  25.075  1.00  0.00     0.065 A 
ATOM     11  C   UNL A   1      32.817  23.109  25.468  1.00  0.00     0.038 A 
ATOM     12  C   UNL A   1      32.925  21.745  25.381  1.00  0.00     0.068 A 
ATOM     13  S   UNL A   1      34.439  21.282  24.776  1.00  0.00    -0.137 S 
BRANCH  10  14
ATOM     14  N   UNL A   1      34.060  25.180  24.997  1.00  0.00    -0.324 N 
ATOM     15  C   UNL A   1      33.256  26.085  24.374  1.00  0.00     0.230 C 
ATOM     16  O   UNL A   1      33.548  27.273  24.583  1.00  0.00    -0.274 OA
ATOM     17  H   UNL A   1      34.817  25.580  25.482  1.00  0.00     0.169 HD
BRANCH  15  18
ATOM     18  C   UNL A   1      31.995  25.797  23.554  1.00  0.00     0.110 C 
ATOM     19  C   UNL A   1      30.615  26.045  25.714  1.00  0.00     0.039 C 
ATOM     20  C   UNL A   1      30.659  26.095  24.199  1.00  0.00     0.127 C 
ATOM     21  O   UNL A   1      30.242  27.366  23.682  1.00  0.00    -0.378 OA
ATOM     22  C   UNL A   1      30.808  27.519  22.372  1.00  0.00     0.161 C 
ATOM     23  C   UNL A   1      31.862  26.445  22.192  1.00  0.00     0.044 C 
ENDBRANCH  15  18
ENDBRANCH  10  14
ENDBRANCH   6   9
ENDBRANCH   4   5
ENDBRANCH   3   4
ENDBRANCH   2   3
ENDBRANCH   1   2
BRANCH   1  24
ATOM     24  C   UNL A   1      41.620  22.782  28.212  1.00  0.00     0.021 C 
BRANCH  24  25
ATOM     25  C   UNL A   1      42.935  23.134  27.522  1.00  0.00     0.116 C 
BRANCH  25  26
ATOM     26  N   UNL A   1      42.755  23.967  26.348  1.00  0.00    -0.352 N 
ATOM     27  C   UNL A   1      42.304  25.259  26.236  1.00  0.00     0.251 C 
ATOM     28  H   UNL A   1      42.993  23.537  25.494  1.00  0.00     0.163 HD
ATOM     29  O   UNL A   1      42.112  25.730  25.118  1.00  0.00    -0.269 OA
BRANCH  27  30
ATOM     30  C   UNL A   1      42.023  26.077  27.439  1.00  0.00     0.039 A 
ATOM     31  C   UNL A   1      43.078  26.792  28.012  1.00  0.00     0.014 A 
ATOM     32  C   UNL A   1      40.755  26.122  28.024  1.00  0.00     0.014 A 
ATOM     33  C   UNL A   1      42.850  27.591  29.136  1.00  0.00     0.010 A 
ATOM     34  C   UNL A   1      40.511  26.976  29.102  1.00  0.00     0.010 A 
ATOM     35  C   UNL A   1      41.557  27.717  29.672  1.00  0.00    -0.014 A 
BRANCH  35  36
ATOM     36  C   UNL A   1      41.299  28.638  30.810  1.00  0.00     0.031 A 
ATOM     37  C   UNL A   1      42.126  28.566  32.066  1.00  0.00     0.074 A 
ATOM     38  C   UNL A   1      40.289  29.526  30.722  1.00  0.00     0.049 A 
ATOM     39  N   UNL A   1      42.051  29.300  33.147  1.00  0.00    -0.248 NA
ATOM     40  C   UNL A   1      43.154  27.515  32.128  1.00  0.00     0.031 C 
ATOM     41  C   UNL A   1      39.374  29.651  29.584  1.00  0.00     0.029 A 
ATOM     42  N   UNL A   1      39.859  30.491  31.598  1.00  0.00    -0.354 N 
ATOM     43  C   UNL A   1      43.013  28.800  34.017  1.00  0.00     0.074 A 
ATOM     44  C   UNL A   1      43.622  27.664  33.359  1.00  0.00     0.031 C 
ATOM     45  C   UNL A   1      38.515  30.655  29.819  1.00  0.00     0.029 A 
ATOM     46  C   UNL A   1      38.791  31.222  31.134  1.00  0.00     0.049 A 
ATOM     47  H   UNL A   1      40.276  30.644  32.477  1.00  0.00     0.167 HD
ATOM     48  C   UNL A   1      43.371  29.258  35.242  1.00  0.00     0.037 A 
ATOM     49  C   UNL A   1      38.109  32.236  31.702  1.00  0.00     0.037 A 
ATOM     50  C   UNL A   1      42.770  30.400  35.883  1.00  0.00     0.049 A 
ATOM     51  C   UNL A   1      38.535  32.738  33.054  1.00  0.00     0.074 A 
ATOM     52  C   UNL A   1      43.108  30.987  37.092  1.00  0.00     0.029 A 
ATOM     53  N   UNL A   1      41.700  31.125  35.377  1.00  0.00    -0.354 N 
ATOM     54  N   UNL A   1      39.504  32.306  33.826  1.00  0.00    -0.248 NA
ATOM     55  C   UNL A   1      37.785  33.873  33.606  1.00  0.00     0.031 C 
ATOM     56  C   UNL A   1      42.209  32.029  37.340  1.00  0.00     0.029 A 
ATOM     57  C   UNL A   1      41.346  32.133  36.261  1.00  0.00     0.049 A 
ATOM     58  H   UNL A   1      41.256  30.949  34.516  1.00  0.00     0.167 HD
ATOM     59  C   UNL A   1      39.491  33.128  34.948  1.00  0.00     0.074 A 
ATOM     60  C   UNL A   1      38.434  34.097  34.740  1.00  0.00     0.031 C 
ATOM     61  C   UNL A   1      40.281  33.083  36.050  1.00  0.00     0.037 A 
BRANCH  48  62
ATOM     62  C   UNL A   1      44.465  28.522  35.971  1.00  0.00     0.058 A 
ATOM     63  C   UNL A   1      44.184  27.468  36.857  1.00  0.00     0.135 A 
ATOM     64  C   UNL A   1      45.813  28.854  35.761  1.00  0.00     0.135 A 
ATOM     65  F   UNL A   1      42.914  27.114  37.107  1.00  0.00    -0.206 F 
ATOM     66  C   UNL A   1      45.197  26.794  37.532  1.00  0.00     0.059 A 
ATOM     67  C   UNL A   1      46.845  28.173  36.402  1.00  0.00     0.059 A 
ATOM     68  F   UNL A   1      46.142  29.852  34.925  1.00  0.00    -0.206 F 
ATOM     69  C   UNL A   1      46.526  27.156  37.300  1.00  0.00     0.060 A 
BRANCH  69  70
ATOM     70  S   UNL A   1      47.828  26.274  38.187  1.00  0.00     0.124 S 
ATOM     71  O   UNL A   1      47.140  25.040  38.560  1.00  0.00    -0.237 OA
ATOM     72  O   UNL A   1      48.862  26.137  37.167  1.00  0.00    -0.237 OA
ATOM     73  O   UNL A   1      48.153  27.167  39.293  1.00  0.00    -0.744 OA
ENDBRANCH  69  70
ENDBRANCH  48  62
BRANCH  49  74
ATOM     74  C   UNL A   1      36.970  32.857  30.975  1.00  0.00     0.058 A 
ATOM     75  C   UNL A   1      37.184  33.807  29.966  1.00  0.00     0.135 A 
ATOM     76  C   UNL A   1      35.643  32.491  31.256  1.00  0.00     0.135 A 
ATOM     77  F   UNL A   1      38.433  34.195  29.666  1.00  0.00    -0.206 F 
ATOM     78  C   UNL A   1      36.127  34.381  29.268  1.00  0.00     0.059 A 
ATOM     79  C   UNL A   1      34.571  33.029  30.552  1.00  0.00     0.059 A 
ATOM     80  F   UNL A   1      35.385  31.574  32.201  1.00  0.00    -0.206 F 
ATOM     81  C   UNL A   1      34.823  33.981  29.565  1.00  0.00     0.060 A 
BRANCH  81  82
ATOM     82  S   UNL A   1      33.461  34.685  28.609  1.00  0.00     0.124 S 
ATOM     83  O   UNL A   1      34.109  35.823  27.968  1.00  0.00    -0.237 OA
ATOM     84  O   UNL A   1      33.099  33.577  27.731  1.00  0.00    -0.237 OA
ATOM     85  O   UNL A   1      32.471  35.015  29.630  1.00  0.00    -0.744 OA
ENDBRANCH  81  82
ENDBRANCH  49  74
BRANCH  61  86
ATOM     86  C   UNL A   1      40.040  34.125  37.110  1.00  0.00     0.058 A 
ATOM     87  C   UNL A   1      39.212  33.875  38.216  1.00  0.00     0.135 A 
ATOM     88  C   UNL A   1      40.655  35.385  37.025  1.00  0.00     0.135 A 
ATOM     89  F   UNL A   1      38.596  32.689  38.345  1.00  0.00    -0.206 F 
ATOM     90  C   UNL A   1      38.970  34.850  39.179  1.00  0.00     0.059 A 
ATOM     91  C   UNL A   1      40.453  36.364  37.992  1.00  0.00     0.059 A 
ATOM     92  F   UNL A   1      41.466  35.674  35.996  1.00  0.00    -0.206 F 
ATOM     93  C   UNL A   1      39.592  36.094  39.056  1.00  0.00     0.060 A 
BRANCH  93  94
ATOM     94  S   UNL A   1      39.268  37.351  40.310  1.00  0.00     0.124 S 
ATOM     95  O   UNL A   1      38.484  38.323  39.556  1.00  0.00    -0.237 OA
ATOM     96  O   UNL A   1      38.539  36.600  41.326  1.00  0.00    -0.237 OA
ATOM     97  O   UNL A   1      40.604  37.791  40.704  1.00  0.00    -0.744 OA
ENDBRANCH  93  94
ENDBRANCH  61  86
ENDBRANCH  35  36
ENDBRANCH  27  30
ENDBRANCH  25  26
ENDBRANCH  24  25
ENDBRANCH   1  24
TORSDOF 18
ENDMDL
