MODEL 1
REMARK VINA RESULT:     -12.6      0.000      0.000
REMARK SMILES C[N@@H+]1CC[C@H]2CN(C(=O)c3csc(-c4ccncc4)n3)C[C@@]2(C(=O)NCCCCCCNC(=O)c2ccc(-c3c4nc(c(-c5c(F)cc(S(=O)(=O)[O-])cc5F)c5ccc([nH]5)c(-c5c(F)cc(S(=O)(=O)[O-])cc5F)c5nc(c(-c6c(F)cc(S(=O)(=O)[O-])cc6F)c6ccc3[nH]6)C=C5)C=C4)cc2)C1
REMARK SMILES IDX 28 1 27 2 26 3 25 4 23 5 24 6 22 8 1 9 2 10 3 11 101 12 4 14
REMARK SMILES IDX 5 15 21 16 6 17 7 18 8 19 9 20 10 21 11 22 20 23 12 24 13 25
REMARK SMILES IDX 14 26 15 27 19 28 16 29 18 30 17 31 29 32 30 33 31 34 32 35
REMARK SMILES IDX 33 36 34 38 35 39 36 40 100 41 37 42 99 43 38 44 39 45 40 46
REMARK SMILES IDX 93 47 41 48 98 49 92 50 94 51 42 52 97 53 91 54 90 55 43 57
REMARK SMILES IDX 77 58 56 59 76 60 57 61 60 62 75 63 95 64 58 65 59 66 74 68
REMARK SMILES IDX 96 69 61 70 44 71 45 72 54 73 46 74 47 75 53 76 55 77 48 78
REMARK SMILES IDX 49 79 50 80 51 81 52 82 78 83 79 84 88 85 80 86 81 87 87 88
REMARK SMILES IDX 89 89 82 90 83 91 84 92 85 93 86 94 62 95 63 96 72 97 64 98
REMARK SMILES IDX 65 99 71 100 73 101 66 102 67 103 68 104 69 105 70 106
REMARK H PARENT 25 7 2 13 32 37 94 56 60 67
REMARK Flexibility Score: inf
ROOT
ATOM      1  C   UNL A   1      39.511  21.840  26.200  1.00  0.00     0.002 C 
ENDROOT
BRANCH   1   2
ATOM      2  C   UNL A   1      38.850  23.122  26.707  1.00  0.00     0.021 C 
BRANCH   2   3
ATOM      3  C   UNL A   1      37.788  23.727  25.788  1.00  0.00     0.116 C 
BRANCH   3   4
ATOM      4  N   UNL A   1      37.516  23.072  24.495  1.00  0.00    -0.355 N 
ATOM      5  C   UNL A   1      36.414  22.990  23.659  1.00  0.00     0.234 C 
ATOM      6  O   UNL A   1      36.635  22.743  22.470  1.00  0.00    -0.274 OA
ATOM      7  H   UNL A   1      38.295  22.582  24.146  1.00  0.00     0.163 HD
BRANCH   5   8
ATOM      8  C   UNL A   1      34.974  23.043  24.212  1.00  0.00     0.120 C 
ATOM      9  C   UNL A   1      36.104  19.954  25.010  1.00  0.00     0.332 C 
ATOM     10  N   UNL A   1      34.873  20.688  25.313  1.00  0.00    -0.336 N 
ATOM     11  C   UNL A   1      33.829  20.279  24.371  1.00  0.00     0.262 C 
ATOM     12  C   UNL A   1      35.038  22.157  25.489  1.00  0.00     0.281 C 
ATOM     13  H   UNL A   1      34.568  20.422  26.248  1.00  0.00     0.347 HD
ATOM     14  C   UNL A   1      32.943  21.430  23.963  1.00  0.00     0.068 C 
ATOM     15  C   UNL A   1      33.783  22.539  23.314  1.00  0.00     0.037 C 
ATOM     16  C   UNL A   1      34.657  24.541  24.335  1.00  0.00     0.143 C 
ATOM     17  C   UNL A   1      32.836  23.723  23.087  1.00  0.00     0.125 C 
ATOM     18  N   UNL A   1      33.631  24.866  23.371  1.00  0.00    -0.336 N 
BRANCH  18  19
ATOM     19  C   UNL A   1      33.378  26.100  22.786  1.00  0.00     0.273 C 
ATOM     20  O   UNL A   1      33.576  26.298  21.589  1.00  0.00    -0.267 OA
BRANCH  19  21
ATOM     21  C   UNL A   1      32.896  27.181  23.664  1.00  0.00     0.139 A 
ATOM     22  C   UNL A   1      31.736  27.896  23.437  1.00  0.00     0.101 A 
ATOM     23  N   UNL A   1      33.643  27.640  24.761  1.00  0.00    -0.231 NA
ATOM     24  S   UNL A   1      31.547  29.123  24.618  1.00  0.00    -0.122 S 
ATOM     25  C   UNL A   1      33.063  28.688  25.311  1.00  0.00     0.124 A 
BRANCH  25  26
ATOM     26  C   UNL A   1      33.643  29.512  26.377  1.00  0.00     0.013 A 
ATOM     27  C   UNL A   1      34.808  29.086  27.021  1.00  0.00     0.031 A 
ATOM     28  C   UNL A   1      33.075  30.730  26.764  1.00  0.00     0.031 A 
ATOM     29  C   UNL A   1      35.357  29.891  28.006  1.00  0.00     0.111 A 
ATOM     30  C   UNL A   1      33.694  31.460  27.767  1.00  0.00     0.111 A 
ATOM     31  N   UNL A   1      34.818  31.062  28.401  1.00  0.00    -0.265 NA
ENDBRANCH  25  26
ENDBRANCH  19  21
ENDBRANCH  18  19
ENDBRANCH   5   8
ENDBRANCH   3   4
ENDBRANCH   2   3
ENDBRANCH   1   2
BRANCH   1  32
ATOM     32  C   UNL A   1      40.924  21.564  26.728  1.00  0.00     0.002 C 
BRANCH  32  33
ATOM     33  C   UNL A   1      41.341  22.337  27.985  1.00  0.00     0.021 C 
BRANCH  33  34
ATOM     34  C   UNL A   1      42.438  23.374  27.775  1.00  0.00     0.116 C 
BRANCH  34  35
ATOM     35  N   UNL A   1      42.300  24.055  26.500  1.00  0.00    -0.352 N 
ATOM     36  C   UNL A   1      41.794  25.302  26.224  1.00  0.00     0.251 C 
ATOM     37  H   UNL A   1      42.614  23.547  25.717  1.00  0.00     0.163 HD
ATOM     38  O   UNL A   1      41.545  25.614  25.066  1.00  0.00    -0.269 OA
BRANCH  36  39
ATOM     39  C   UNL A   1      41.541  26.261  27.324  1.00  0.00     0.039 A 
ATOM     40  C   UNL A   1      40.457  26.040  28.178  1.00  0.00     0.014 A 
ATOM     41  C   UNL A   1      42.349  27.388  27.497  1.00  0.00     0.014 A 
ATOM     42  C   UNL A   1      40.217  26.921  29.235  1.00  0.00     0.010 A 
ATOM     43  C   UNL A   1      42.154  28.223  28.594  1.00  0.00     0.010 A 
ATOM     44  C   UNL A   1      41.079  28.006  29.469  1.00  0.00    -0.014 A 
BRANCH  44  45
ATOM     45  C   UNL A   1      40.864  28.926  30.616  1.00  0.00     0.031 A 
ATOM     46  C   UNL A   1      41.691  28.781  31.867  1.00  0.00     0.074 A 
ATOM     47  C   UNL A   1      39.888  29.852  30.555  1.00  0.00     0.049 A 
ATOM     48  N   UNL A   1      41.615  29.447  32.989  1.00  0.00    -0.248 NA
ATOM     49  C   UNL A   1      42.721  27.728  31.863  1.00  0.00     0.031 C 
ATOM     50  C   UNL A   1      38.987  30.057  29.419  1.00  0.00     0.029 A 
ATOM     51  N   UNL A   1      39.481  30.787  31.473  1.00  0.00    -0.354 N 
ATOM     52  C   UNL A   1      42.572  28.889  33.829  1.00  0.00     0.074 A 
ATOM     53  C   UNL A   1      43.177  27.792  33.106  1.00  0.00     0.031 C 
ATOM     54  C   UNL A   1      38.150  31.069  29.698  1.00  0.00     0.029 A 
ATOM     55  C   UNL A   1      38.428  31.561  31.044  1.00  0.00     0.049 A 
ATOM     56  H   UNL A   1      39.903  30.895  32.356  1.00  0.00     0.167 HD
ATOM     57  C   UNL A   1      42.931  29.269  35.078  1.00  0.00     0.037 A 
ATOM     58  C   UNL A   1      37.757  32.550  31.666  1.00  0.00     0.037 A 
ATOM     59  C   UNL A   1      42.340  30.378  35.782  1.00  0.00     0.049 A 
ATOM     60  C   UNL A   1      38.174  32.960  33.053  1.00  0.00     0.074 A 
ATOM     61  C   UNL A   1      42.674  30.885  37.026  1.00  0.00     0.029 A 
ATOM     62  N   UNL A   1      41.290  31.151  35.306  1.00  0.00    -0.354 N 
ATOM     63  N   UNL A   1      39.127  32.464  33.805  1.00  0.00    -0.248 NA
ATOM     64  C   UNL A   1      37.434  34.067  33.671  1.00  0.00     0.031 C 
ATOM     65  C   UNL A   1      41.795  31.933  37.322  1.00  0.00     0.029 A 
ATOM     66  C   UNL A   1      40.949  32.115  36.240  1.00  0.00     0.049 A 
ATOM     67  H   UNL A   1      40.852  31.032  34.431  1.00  0.00     0.167 HD
ATOM     68  C   UNL A   1      39.118  33.216  34.975  1.00  0.00     0.074 A 
ATOM     69  C   UNL A   1      38.072  34.207  34.824  1.00  0.00     0.031 C 
ATOM     70  C   UNL A   1      39.905  33.098  36.073  1.00  0.00     0.037 A 
BRANCH  57  71
ATOM     71  C   UNL A   1      44.012  28.478  35.764  1.00  0.00     0.058 A 
ATOM     72  C   UNL A   1      43.715  27.390  36.601  1.00  0.00     0.135 A 
ATOM     73  C   UNL A   1      45.366  28.798  35.569  1.00  0.00     0.135 A 
ATOM     74  F   UNL A   1      42.437  27.048  36.836  1.00  0.00    -0.206 F 
ATOM     75  C   UNL A   1      44.714  26.673  37.249  1.00  0.00     0.059 A 
ATOM     76  C   UNL A   1      46.386  28.075  36.182  1.00  0.00     0.059 A 
ATOM     77  F   UNL A   1      45.711  29.827  34.779  1.00  0.00    -0.206 F 
ATOM     78  C   UNL A   1      46.049  27.026  37.036  1.00  0.00     0.060 A 
BRANCH  78  79
ATOM     79  S   UNL A   1      47.334  26.093  37.894  1.00  0.00     0.124 S 
ATOM     80  O   UNL A   1      47.522  26.898  39.097  1.00  0.00    -0.237 OA
ATOM     81  O   UNL A   1      46.698  24.795  38.093  1.00  0.00    -0.237 OA
ATOM     82  O   UNL A   1      48.449  26.105  36.951  1.00  0.00    -0.744 OA
ENDBRANCH  78  79
ENDBRANCH  57  71
BRANCH  58  83
ATOM     83  C   UNL A   1      36.638  33.236  30.968  1.00  0.00     0.058 A 
ATOM     84  C   UNL A   1      35.310  33.053  31.381  1.00  0.00     0.135 A 
ATOM     85  C   UNL A   1      36.873  34.109  29.896  1.00  0.00     0.135 A 
ATOM     86  F   UNL A   1      35.032  32.224  32.399  1.00  0.00    -0.206 F 
ATOM     87  C   UNL A   1      34.253  33.701  30.750  1.00  0.00     0.059 A 
ATOM     88  C   UNL A   1      35.836  34.789  29.263  1.00  0.00     0.059 A 
ATOM     89  F   UNL A   1      38.128  34.333  29.473  1.00  0.00    -0.206 F 
ATOM     90  C   UNL A   1      34.527  34.572  29.693  1.00  0.00     0.060 A 
BRANCH  90  91
ATOM     91  S   UNL A   1      33.155  35.454  28.920  1.00  0.00     0.124 S 
ATOM     92  O   UNL A   1      33.858  36.477  28.156  1.00  0.00    -0.237 OA
ATOM     93  O   UNL A   1      32.515  34.399  28.140  1.00  0.00    -0.237 OA
ATOM     94  O   UNL A   1      32.382  35.936  30.061  1.00  0.00    -0.744 OA
ENDBRANCH  90  91
ENDBRANCH  58  83
BRANCH  70  95
ATOM     95  C   UNL A   1      39.691  34.084  37.189  1.00  0.00     0.058 A 
ATOM     96  C   UNL A   1      38.985  33.742  38.352  1.00  0.00     0.135 A 
ATOM     97  C   UNL A   1      40.246  35.372  37.113  1.00  0.00     0.135 A 
ATOM     98  F   UNL A   1      38.430  32.526  38.473  1.00  0.00    -0.206 F 
ATOM     99  C   UNL A   1      38.817  34.650  39.393  1.00  0.00     0.059 A 
ATOM    100  C   UNL A   1      40.115  36.286  38.153  1.00  0.00     0.059 A 
ATOM    101  F   UNL A   1      40.940  35.748  36.026  1.00  0.00    -0.206 F 
ATOM    102  C   UNL A   1      39.388  35.920  39.284  1.00  0.00     0.060 A 
BRANCH 102 103
ATOM    103  S   UNL A   1      39.191  37.077  40.656  1.00  0.00     0.124 S 
ATOM    104  O   UNL A   1      40.578  37.426  40.948  1.00  0.00    -0.237 OA
ATOM    105  O   UNL A   1      38.384  38.136  40.058  1.00  0.00    -0.237 OA
ATOM    106  O   UNL A   1      38.515  36.283  41.677  1.00  0.00    -0.744 OA
ENDBRANCH 102 103
ENDBRANCH  70  95
ENDBRANCH  44  45
ENDBRANCH  36  39
ENDBRANCH  34  35
ENDBRANCH  33  34
ENDBRANCH  32  33
ENDBRANCH   1  32
TORSDOF 19
ENDMDL
MODEL 2
REMARK VINA RESULT:     -12.6      1.243      2.148
REMARK SMILES C[N@@H+]1CC[C@H]2CN(C(=O)c3csc(-c4ccncc4)n3)C[C@@]2(C(=O)NCCCCCCNC(=O)c2ccc(-c3c4nc(c(-c5c(F)cc(S(=O)(=O)[O-])cc5F)c5ccc([nH]5)c(-c5c(F)cc(S(=O)(=O)[O-])cc5F)c5nc(c(-c6c(F)cc(S(=O)(=O)[O-])cc6F)c6ccc3[nH]6)C=C5)C=C4)cc2)C1
REMARK SMILES IDX 28 1 27 2 26 3 25 4 23 5 24 6 22 8 1 9 2 10 3 11 101 12 4 14
REMARK SMILES IDX 5 15 21 16 6 17 7 18 8 19 9 20 10 21 11 22 20 23 12 24 13 25
REMARK SMILES IDX 14 26 15 27 19 28 16 29 18 30 17 31 29 32 30 33 31 34 32 35
REMARK SMILES IDX 33 36 34 38 35 39 36 40 100 41 37 42 99 43 38 44 39 45 40 46
REMARK SMILES IDX 93 47 41 48 98 49 92 50 94 51 42 52 97 53 91 54 90 55 43 57
REMARK SMILES IDX 77 58 56 59 76 60 57 61 60 62 75 63 95 64 58 65 59 66 74 68
REMARK SMILES IDX 96 69 61 70 44 71 45 72 54 73 46 74 47 75 53 76 55 77 48 78
REMARK SMILES IDX 49 79 50 80 51 81 52 82 78 83 79 84 88 85 80 86 81 87 87 88
REMARK SMILES IDX 89 89 82 90 83 91 84 92 85 93 86 94 62 95 63 96 72 97 64 98
REMARK SMILES IDX 65 99 71 100 73 101 66 102 67 103 68 104 69 105 70 106
REMARK H PARENT 25 7 2 13 32 37 94 56 60 67
REMARK Flexibility Score: inf
ROOT
ATOM      1  C   UNL A   1      39.289  21.817  26.123  1.00  0.00     0.002 C 
ENDROOT
BRANCH   1   2
ATOM      2  C   UNL A   1      38.757  23.203  26.487  1.00  0.00     0.021 C 
BRANCH   2   3
ATOM      3  C   UNL A   1      37.499  23.646  25.738  1.00  0.00     0.116 C 
BRANCH   3   4
ATOM      4  N   UNL A   1      37.237  23.083  24.401  1.00  0.00    -0.355 N 
ATOM      5  C   UNL A   1      36.169  23.126  23.520  1.00  0.00     0.234 C 
ATOM      6  O   UNL A   1      36.422  22.927  22.328  1.00  0.00    -0.274 OA
ATOM      7  H   UNL A   1      37.994  22.556  24.056  1.00  0.00     0.163 HD
BRANCH   5   8
ATOM      8  C   UNL A   1      34.714  23.254  24.019  1.00  0.00     0.120 C 
ATOM      9  C   UNL A   1      35.714  20.180  25.022  1.00  0.00     0.332 C 
ATOM     10  N   UNL A   1      34.499  20.968  25.241  1.00  0.00    -0.336 N 
ATOM     11  C   UNL A   1      33.473  20.541  24.287  1.00  0.00     0.262 C 
ATOM     12  C   UNL A   1      34.706  22.439  25.344  1.00  0.00     0.281 C 
ATOM     13  H   UNL A   1      34.155  20.764  26.179  1.00  0.00     0.347 HD
ATOM     14  C   UNL A   1      32.639  21.695  23.787  1.00  0.00     0.068 C 
ATOM     15  C   UNL A   1      33.536  22.739  23.108  1.00  0.00     0.037 C 
ATOM     16  C   UNL A   1      34.442  24.766  24.049  1.00  0.00     0.143 C 
ATOM     17  C   UNL A   1      32.637  23.938  22.785  1.00  0.00     0.125 C 
ATOM     18  N   UNL A   1      33.461  25.069  23.034  1.00  0.00    -0.336 N 
BRANCH  18  19
ATOM     19  C   UNL A   1      33.268  26.276  22.375  1.00  0.00     0.273 C 
ATOM     20  O   UNL A   1      33.679  26.458  21.231  1.00  0.00    -0.267 OA
BRANCH  19  21
ATOM     21  C   UNL A   1      32.581  27.351  23.113  1.00  0.00     0.139 A 
ATOM     22  C   UNL A   1      32.956  27.783  24.370  1.00  0.00     0.101 A 
ATOM     23  N   UNL A   1      31.411  27.958  22.627  1.00  0.00    -0.231 NA
ATOM     24  S   UNL A   1      31.875  28.983  24.939  1.00  0.00    -0.122 S 
ATOM     25  C   UNL A   1      30.920  28.796  23.519  1.00  0.00     0.124 A 
BRANCH  25  26
ATOM     26  C   UNL A   1      29.630  29.486  23.409  1.00  0.00     0.013 A 
ATOM     27  C   UNL A   1      29.533  30.830  23.781  1.00  0.00     0.031 A 
ATOM     28  C   UNL A   1      28.486  28.844  22.926  1.00  0.00     0.031 A 
ATOM     29  C   UNL A   1      28.313  31.472  23.644  1.00  0.00     0.111 A 
ATOM     30  C   UNL A   1      27.308  29.570  22.834  1.00  0.00     0.111 A 
ATOM     31  N   UNL A   1      27.196  30.868  23.192  1.00  0.00    -0.265 NA
ENDBRANCH  25  26
ENDBRANCH  19  21
ENDBRANCH  18  19
ENDBRANCH   5   8
ENDBRANCH   3   4
ENDBRANCH   2   3
ENDBRANCH   1   2
BRANCH   1  32
ATOM     32  C   UNL A   1      40.620  21.421  26.774  1.00  0.00     0.002 C 
BRANCH  32  33
ATOM     33  C   UNL A   1      41.141  22.355  27.874  1.00  0.00     0.021 C 
BRANCH  33  34
ATOM     34  C   UNL A   1      42.419  23.111  27.531  1.00  0.00     0.116 C 
BRANCH  34  35
ATOM     35  N   UNL A   1      42.274  23.893  26.316  1.00  0.00    -0.352 N 
ATOM     36  C   UNL A   1      41.811  25.176  26.151  1.00  0.00     0.251 C 
ATOM     37  H   UNL A   1      42.548  23.436  25.488  1.00  0.00     0.163 HD
ATOM     38  O   UNL A   1      41.544  25.585  25.028  1.00  0.00    -0.269 OA
BRANCH  36  39
ATOM     39  C   UNL A   1      41.624  26.055  27.328  1.00  0.00     0.039 A 
ATOM     40  C   UNL A   1      42.586  27.029  27.605  1.00  0.00     0.014 A 
ATOM     41  C   UNL A   1      40.519  25.904  28.171  1.00  0.00     0.014 A 
ATOM     42  C   UNL A   1      42.414  27.884  28.697  1.00  0.00     0.010 A 
ATOM     43  C   UNL A   1      40.311  26.802  29.214  1.00  0.00     0.010 A 
ATOM     44  C   UNL A   1      41.262  27.796  29.496  1.00  0.00    -0.014 A 
BRANCH  44  45
ATOM     45  C   UNL A   1      41.041  28.726  30.633  1.00  0.00     0.031 A 
ATOM     46  C   UNL A   1      41.878  28.609  31.879  1.00  0.00     0.074 A 
ATOM     47  C   UNL A   1      40.049  29.635  30.569  1.00  0.00     0.049 A 
ATOM     48  N   UNL A   1      41.798  29.286  32.995  1.00  0.00    -0.248 NA
ATOM     49  C   UNL A   1      42.924  27.572  31.881  1.00  0.00     0.031 C 
ATOM     50  C   UNL A   1      39.138  29.813  29.436  1.00  0.00     0.029 A 
ATOM     51  N   UNL A   1      39.634  30.575  31.478  1.00  0.00    -0.354 N 
ATOM     52  C   UNL A   1      42.770  28.753  33.835  1.00  0.00     0.074 A 
ATOM     53  C   UNL A   1      43.387  27.657  33.120  1.00  0.00     0.031 C 
ATOM     54  C   UNL A   1      38.287  30.815  29.709  1.00  0.00     0.029 A 
ATOM     55  C   UNL A   1      38.565  31.327  31.048  1.00  0.00     0.049 A 
ATOM     56  H   UNL A   1      40.060  30.699  32.357  1.00  0.00     0.167 HD
ATOM     57  C   UNL A   1      43.132  29.154  35.077  1.00  0.00     0.037 A 
ATOM     58  C   UNL A   1      37.884  32.312  31.663  1.00  0.00     0.037 A 
ATOM     59  C   UNL A   1      42.528  30.261  35.771  1.00  0.00     0.049 A 
ATOM     60  C   UNL A   1      38.303  32.745  33.042  1.00  0.00     0.074 A 
ATOM     61  C   UNL A   1      42.863  30.788  37.007  1.00  0.00     0.029 A 
ATOM     62  N   UNL A   1      41.462  31.012  35.294  1.00  0.00    -0.354 N 
ATOM     63  N   UNL A   1      39.270  32.273  33.793  1.00  0.00    -0.248 NA
ATOM     64  C   UNL A   1      37.550  33.847  33.652  1.00  0.00     0.031 C 
ATOM     65  C   UNL A   1      41.969  31.825  37.297  1.00  0.00     0.029 A 
ATOM     66  C   UNL A   1      41.113  31.981  36.219  1.00  0.00     0.049 A 
ATOM     67  H   UNL A   1      41.021  30.875  34.424  1.00  0.00     0.167 HD
ATOM     68  C   UNL A   1      39.256  33.038  34.955  1.00  0.00     0.074 A 
ATOM     69  C   UNL A   1      38.194  34.011  34.799  1.00  0.00     0.031 C 
ATOM     70  C   UNL A   1      40.053  32.946  36.048  1.00  0.00     0.037 A 
BRANCH  57  71
ATOM     71  C   UNL A   1      44.230  28.388  35.764  1.00  0.00     0.058 A 
ATOM     72  C   UNL A   1      45.582  28.734  35.610  1.00  0.00     0.135 A 
ATOM     73  C   UNL A   1      43.928  27.304  36.606  1.00  0.00     0.135 A 
ATOM     74  F   UNL A   1      45.931  29.752  34.806  1.00  0.00    -0.206 F 
ATOM     75  C   UNL A   1      46.596  28.012  36.230  1.00  0.00     0.059 A 
ATOM     76  C   UNL A   1      44.923  26.586  37.262  1.00  0.00     0.059 A 
ATOM     77  F   UNL A   1      42.652  26.928  36.793  1.00  0.00    -0.206 F 
ATOM     78  C   UNL A   1      46.256  26.936  37.053  1.00  0.00     0.060 A 
BRANCH  78  79
ATOM     79  S   UNL A   1      47.585  26.002  37.842  1.00  0.00     0.124 S 
ATOM     80  O   UNL A   1      46.841  24.912  38.466  1.00  0.00    -0.237 OA
ATOM     81  O   UNL A   1      48.422  25.629  36.706  1.00  0.00    -0.237 OA
ATOM     82  O   UNL A   1      48.176  26.966  38.765  1.00  0.00    -0.744 OA
ENDBRANCH  78  79
ENDBRANCH  57  71
BRANCH  58  83
ATOM     83  C   UNL A   1      36.749  32.973  30.965  1.00  0.00     0.058 A 
ATOM     84  C   UNL A   1      35.423  32.731  31.355  1.00  0.00     0.135 A 
ATOM     85  C   UNL A   1      36.966  33.878  29.916  1.00  0.00     0.135 A 
ATOM     86  F   UNL A   1      35.163  31.869  32.350  1.00  0.00    -0.206 F 
ATOM     87  C   UNL A   1      34.352  33.355  30.724  1.00  0.00     0.059 A 
ATOM     88  C   UNL A   1      35.912  34.534  29.284  1.00  0.00     0.059 A 
ATOM     89  F   UNL A   1      38.217  34.158  29.516  1.00  0.00    -0.206 F 
ATOM     90  C   UNL A   1      34.607  34.259  29.691  1.00  0.00     0.060 A 
BRANCH  90  91
ATOM     91  S   UNL A   1      33.213  35.107  28.919  1.00  0.00     0.124 S 
ATOM     92  O   UNL A   1      33.866  36.272  28.334  1.00  0.00    -0.237 OA
ATOM     93  O   UNL A   1      32.730  34.104  27.975  1.00  0.00    -0.237 OA
ATOM     94  O   UNL A   1      32.323  35.379  30.043  1.00  0.00    -0.744 OA
ENDBRANCH  90  91
ENDBRANCH  58  83
BRANCH  70  95
ATOM     95  C   UNL A   1      39.831  33.941  37.154  1.00  0.00     0.058 A 
ATOM     96  C   UNL A   1      38.960  33.677  38.222  1.00  0.00     0.135 A 
ATOM     97  C   UNL A   1      40.540  35.153  37.170  1.00  0.00     0.135 A 
ATOM     98  F   UNL A   1      38.254  32.536  38.252  1.00  0.00    -0.206 F 
ATOM     99  C   UNL A   1      38.783  34.590  39.257  1.00  0.00     0.059 A 
ATOM    100  C   UNL A   1      40.399  36.068  38.208  1.00  0.00     0.059 A 
ATOM    101  F   UNL A   1      41.394  35.452  36.177  1.00  0.00    -0.206 F 
ATOM    102  C   UNL A   1      39.509  35.783  39.242  1.00  0.00     0.060 A 
BRANCH 102 103
ATOM    103  S   UNL A   1      39.295  36.944  40.607  1.00  0.00     0.124 S 
ATOM    104  O   UNL A   1      40.644  36.997  41.163  1.00  0.00    -0.237 OA
ATOM    105  O   UNL A   1      38.844  38.151  39.923  1.00  0.00    -0.237 OA
ATOM    106  O   UNL A   1      38.293  36.298  41.449  1.00  0.00    -0.744 OA
ENDBRANCH 102 103
ENDBRANCH  70  95
ENDBRANCH  44  45
ENDBRANCH  36  39
ENDBRANCH  34  35
ENDBRANCH  33  34
ENDBRANCH  32  33
ENDBRANCH   1  32
TORSDOF 19
ENDMDL
MODEL 3
REMARK VINA RESULT:     -12.3      4.615     10.113
REMARK SMILES C[N@@H+]1CC[C@H]2CN(C(=O)c3csc(-c4ccncc4)n3)C[C@@]2(C(=O)NCCCCCCNC(=O)c2ccc(-c3c4nc(c(-c5c(F)cc(S(=O)(=O)[O-])cc5F)c5ccc([nH]5)c(-c5c(F)cc(S(=O)(=O)[O-])cc5F)c5nc(c(-c6c(F)cc(S(=O)(=O)[O-])cc6F)c6ccc3[nH]6)C=C5)C=C4)cc2)C1
REMARK SMILES IDX 28 1 27 2 26 3 25 4 23 5 24 6 22 8 1 9 2 10 3 11 101 12 4 14
REMARK SMILES IDX 5 15 21 16 6 17 7 18 8 19 9 20 10 21 11 22 20 23 12 24 13 25
REMARK SMILES IDX 14 26 15 27 19 28 16 29 18 30 17 31 29 32 30 33 31 34 32 35
REMARK SMILES IDX 33 36 34 38 35 39 36 40 100 41 37 42 99 43 38 44 39 45 40 46
REMARK SMILES IDX 93 47 41 48 98 49 92 50 94 51 42 52 97 53 91 54 90 55 43 57
REMARK SMILES IDX 77 58 56 59 76 60 57 61 60 62 75 63 95 64 58 65 59 66 74 68
REMARK SMILES IDX 96 69 61 70 44 71 45 72 54 73 46 74 47 75 53 76 55 77 48 78
REMARK SMILES IDX 49 79 50 80 51 81 52 82 78 83 79 84 88 85 80 86 81 87 87 88
REMARK SMILES IDX 89 89 82 90 83 91 84 92 85 93 86 94 62 95 63 96 72 97 64 98
REMARK SMILES IDX 65 99 71 100 73 101 66 102 67 103 68 104 69 105 70 106
REMARK H PARENT 25 7 2 13 32 37 94 56 60 67
REMARK Flexibility Score: inf
ROOT
ATOM      1  C   UNL A   1      30.528  26.658  26.169  1.00  0.00     0.002 C 
ENDROOT
BRANCH   1   2
ATOM      2  C   UNL A   1      30.668  25.515  25.164  1.00  0.00     0.021 C 
BRANCH   2   3
ATOM      3  C   UNL A   1      30.963  24.139  25.764  1.00  0.00     0.116 C 
BRANCH   3   4
ATOM      4  N   UNL A   1      31.061  22.979  24.860  1.00  0.00    -0.355 N 
ATOM      5  C   UNL A   1      32.109  22.233  24.346  1.00  0.00     0.234 C 
ATOM      6  O   UNL A   1      31.847  21.084  23.979  1.00  0.00    -0.274 OA
ATOM      7  H   UNL A   1      30.182  22.663  24.551  1.00  0.00     0.163 HD
BRANCH   5   8
ATOM      8  C   UNL A   1      33.498  22.856  24.094  1.00  0.00     0.120 C 
ATOM      9  C   UNL A   1      33.899  20.903  26.829  1.00  0.00     0.332 C 
ATOM     10  N   UNL A   1      34.821  21.692  26.008  1.00  0.00    -0.336 N 
ATOM     11  C   UNL A   1      35.050  22.987  26.653  1.00  0.00     0.262 C 
ATOM     12  C   UNL A   1      34.488  21.749  24.558  1.00  0.00     0.281 C 
ATOM     13  H   UNL A   1      35.713  21.201  25.973  1.00  0.00     0.347 HD
ATOM     14  C   UNL A   1      35.163  24.113  25.656  1.00  0.00     0.068 C 
ATOM     15  C   UNL A   1      33.882  24.203  24.814  1.00  0.00     0.037 C 
ATOM     16  C   UNL A   1      33.471  23.290  22.620  1.00  0.00     0.143 C 
ATOM     17  C   UNL A   1      34.151  25.253  23.729  1.00  0.00     0.125 C 
ATOM     18  N   UNL A   1      33.506  24.733  22.574  1.00  0.00    -0.336 N 
BRANCH  18  19
ATOM     19  C   UNL A   1      33.028  25.561  21.566  1.00  0.00     0.273 C 
ATOM     20  O   UNL A   1      33.082  25.231  20.383  1.00  0.00    -0.267 OA
BRANCH  19  21
ATOM     21  C   UNL A   1      32.484  26.871  21.963  1.00  0.00     0.139 A 
ATOM     22  C   UNL A   1      33.254  27.906  22.458  1.00  0.00     0.101 A 
ATOM     23  N   UNL A   1      31.105  27.136  21.962  1.00  0.00    -0.231 NA
ATOM     24  S   UNL A   1      32.264  29.237  22.887  1.00  0.00    -0.122 S 
ATOM     25  C   UNL A   1      30.862  28.327  22.473  1.00  0.00     0.124 A 
BRANCH  25  26
ATOM     26  C   UNL A   1      29.529  28.865  22.766  1.00  0.00     0.013 A 
ATOM     27  C   UNL A   1      28.477  27.986  23.043  1.00  0.00     0.031 A 
ATOM     28  C   UNL A   1      29.274  30.239  22.796  1.00  0.00     0.031 A 
ATOM     29  C   UNL A   1      27.232  28.512  23.345  1.00  0.00     0.111 A 
ATOM     30  C   UNL A   1      27.991  30.668  23.100  1.00  0.00     0.111 A 
ATOM     31  N   UNL A   1      26.964  29.834  23.366  1.00  0.00    -0.265 NA
ENDBRANCH  25  26
ENDBRANCH  19  21
ENDBRANCH  18  19
ENDBRANCH   5   8
ENDBRANCH   3   4
ENDBRANCH   2   3
ENDBRANCH   1   2
BRANCH   1  32
ATOM     32  C   UNL A   1      31.604  27.749  26.093  1.00  0.00     0.002 C 
BRANCH  32  33
ATOM     33  C   UNL A   1      32.996  27.366  26.610  1.00  0.00     0.021 C 
BRANCH  33  34
ATOM     34  C   UNL A   1      34.097  28.376  26.316  1.00  0.00     0.116 C 
BRANCH  34  35
ATOM     35  N   UNL A   1      33.835  29.660  26.943  1.00  0.00    -0.352 N 
ATOM     36  C   UNL A   1      34.585  30.357  27.859  1.00  0.00     0.251 C 
ATOM     37  H   UNL A   1      32.994  30.094  26.671  1.00  0.00     0.163 HD
ATOM     38  O   UNL A   1      34.091  31.311  28.447  1.00  0.00    -0.269 OA
BRANCH  36  39
ATOM     39  C   UNL A   1      35.979  29.948  28.142  1.00  0.00     0.039 A 
ATOM     40  C   UNL A   1      36.939  30.073  27.135  1.00  0.00     0.014 A 
ATOM     41  C   UNL A   1      36.335  29.416  29.385  1.00  0.00     0.014 A 
ATOM     42  C   UNL A   1      38.265  29.715  27.392  1.00  0.00     0.010 A 
ATOM     43  C   UNL A   1      37.669  29.129  29.664  1.00  0.00     0.010 A 
ATOM     44  C   UNL A   1      38.647  29.265  28.667  1.00  0.00    -0.014 A 
BRANCH  44  45
ATOM     45  C   UNL A   1      40.061  28.923  28.971  1.00  0.00     0.031 A 
ATOM     46  C   UNL A   1      40.974  29.953  29.582  1.00  0.00     0.074 A 
ATOM     47  C   UNL A   1      40.538  27.706  28.644  1.00  0.00     0.049 A 
ATOM     48  N   UNL A   1      42.247  29.864  29.866  1.00  0.00    -0.248 NA
ATOM     49  C   UNL A   1      40.382  31.267  29.886  1.00  0.00     0.031 C 
ATOM     50  C   UNL A   1      39.766  26.640  28.003  1.00  0.00     0.029 A 
ATOM     51  N   UNL A   1      41.789  27.164  28.796  1.00  0.00    -0.354 N 
ATOM     52  C   UNL A   1      42.613  31.108  30.368  1.00  0.00     0.074 A 
ATOM     53  C   UNL A   1      41.440  31.952  30.295  1.00  0.00     0.031 C 
ATOM     54  C   UNL A   1      40.554  25.564  27.838  1.00  0.00     0.029 A 
ATOM     55  C   UNL A   1      41.894  25.875  28.325  1.00  0.00     0.049 A 
ATOM     56  H   UNL A   1      42.542  27.650  29.203  1.00  0.00     0.167 HD
ATOM     57  C   UNL A   1      43.809  31.504  30.865  1.00  0.00     0.037 A 
ATOM     58  C   UNL A   1      42.951  25.041  28.285  1.00  0.00     0.037 A 
ATOM     59  C   UNL A   1      44.964  30.650  30.956  1.00  0.00     0.049 A 
ATOM     60  C   UNL A   1      44.269  25.499  28.846  1.00  0.00     0.074 A 
ATOM     61  C   UNL A   1      46.205  30.935  31.501  1.00  0.00     0.029 A 
ATOM     62  N   UNL A   1      45.025  29.345  30.488  1.00  0.00    -0.354 N 
ATOM     63  N   UNL A   1      44.579  26.657  29.379  1.00  0.00    -0.248 NA
ATOM     64  C   UNL A   1      45.379  24.538  28.811  1.00  0.00     0.031 C 
ATOM     65  C   UNL A   1      47.030  29.819  31.319  1.00  0.00     0.029 A 
ATOM     66  C   UNL A   1      46.287  28.819  30.710  1.00  0.00     0.049 A 
ATOM     67  H   UNL A   1      44.280  28.863  30.062  1.00  0.00     0.167 HD
ATOM     68  C   UNL A   1      45.910  26.555  29.766  1.00  0.00     0.074 A 
ATOM     69  C   UNL A   1      46.343  25.217  29.416  1.00  0.00     0.031 C 
ATOM     70  C   UNL A   1      46.702  27.483  30.359  1.00  0.00     0.037 A 
BRANCH  57  71
ATOM     71  C   UNL A   1      43.927  32.925  31.348  1.00  0.00     0.058 A 
ATOM     72  C   UNL A   1      44.320  33.967  30.492  1.00  0.00     0.135 A 
ATOM     73  C   UNL A   1      43.624  33.256  32.679  1.00  0.00     0.135 A 
ATOM     74  F   UNL A   1      44.635  33.708  29.212  1.00  0.00    -0.206 F 
ATOM     75  C   UNL A   1      44.447  35.275  30.945  1.00  0.00     0.059 A 
ATOM     76  C   UNL A   1      43.713  34.564  33.148  1.00  0.00     0.059 A 
ATOM     77  F   UNL A   1      43.241  32.302  33.543  1.00  0.00    -0.206 F 
ATOM     78  C   UNL A   1      44.144  35.564  32.278  1.00  0.00     0.060 A 
BRANCH  78  79
ATOM     79  S   UNL A   1      44.326  37.265  32.854  1.00  0.00     0.124 S 
ATOM     80  O   UNL A   1      44.324  37.999  31.592  1.00  0.00    -0.237 OA
ATOM     81  O   UNL A   1      43.143  37.439  33.690  1.00  0.00    -0.237 OA
ATOM     82  O   UNL A   1      45.599  37.248  33.567  1.00  0.00    -0.744 OA
ENDBRANCH  78  79
ENDBRANCH  57  71
BRANCH  58  83
ATOM     83  C   UNL A   1      42.793  23.677  27.714  1.00  0.00     0.058 A 
ATOM     84  C   UNL A   1      42.508  22.578  28.539  1.00  0.00     0.135 A 
ATOM     85  C   UNL A   1      42.896  23.447  26.334  1.00  0.00     0.135 A 
ATOM     86  F   UNL A   1      42.405  22.745  29.867  1.00  0.00    -0.206 F 
ATOM     87  C   UNL A   1      42.340  21.299  28.019  1.00  0.00     0.059 A 
ATOM     88  C   UNL A   1      42.708  22.181  25.786  1.00  0.00     0.059 A 
ATOM     89  F   UNL A   1      43.150  24.468  25.499  1.00  0.00    -0.206 F 
ATOM     90  C   UNL A   1      42.438  21.112  26.639  1.00  0.00     0.060 A 
BRANCH  90  91
ATOM     91  S   UNL A   1      42.159  19.458  25.969  1.00  0.00     0.124 S 
ATOM     92  O   UNL A   1      42.643  18.616  27.056  1.00  0.00    -0.237 OA
ATOM     93  O   UNL A   1      40.716  19.457  25.752  1.00  0.00    -0.237 OA
ATOM     94  O   UNL A   1      42.968  19.450  24.754  1.00  0.00    -0.744 OA
ENDBRANCH  90  91
ENDBRANCH  58  83
BRANCH  70  95
ATOM     95  C   UNL A   1      48.110  27.077  30.698  1.00  0.00     0.058 A 
ATOM     96  C   UNL A   1      49.186  27.352  29.840  1.00  0.00     0.135 A 
ATOM     97  C   UNL A   1      48.392  26.452  31.924  1.00  0.00     0.135 A 
ATOM     98  F   UNL A   1      48.971  27.944  28.654  1.00  0.00    -0.206 F 
ATOM     99  C   UNL A   1      50.490  27.002  30.175  1.00  0.00     0.059 A 
ATOM    100  C   UNL A   1      49.691  26.117  32.291  1.00  0.00     0.059 A 
ATOM    101  F   UNL A   1      47.401  26.174  32.786  1.00  0.00    -0.206 F 
ATOM    102  C   UNL A   1      50.733  26.385  31.405  1.00  0.00     0.060 A 
BRANCH 102 103
ATOM    103  S   UNL A   1      52.433  25.965  31.842  1.00  0.00     0.124 S 
ATOM    104  O   UNL A   1      53.104  26.075  30.550  1.00  0.00    -0.237 OA
ATOM    105  O   UNL A   1      52.768  26.995  32.819  1.00  0.00    -0.237 OA
ATOM    106  O   UNL A   1      52.322  24.613  32.378  1.00  0.00    -0.744 OA
ENDBRANCH 102 103
ENDBRANCH  70  95
ENDBRANCH  44  45
ENDBRANCH  36  39
ENDBRANCH  34  35
ENDBRANCH  33  34
ENDBRANCH  32  33
ENDBRANCH   1  32
TORSDOF 19
ENDMDL
