MODEL 1
REMARK VINA RESULT:     -11.2      0.000      0.000
REMARK SMILES Cc1ccc(-c2ncccc2C(=O)NCCCCCCNC(=O)c2ccc(-c3c4nc(c(-c5c(F)cc(S(=O)(=O)[O-])cc5F)c5ccc([nH]5)c(-c5c(F)cc(S(=O)(=O)[O-])cc5F)c5nc(c(-c6c(F)cc(S(=O)(=O)[O-])cc6F)c6ccc3[nH]6)C=C5)C=C4)cc2)c(C)c1
REMARK SMILES IDX 18 1 17 2 16 3 15 4 14 5 12 6 13 7 11 9 6 10 7 11 8 12 10 13
REMARK SMILES IDX 9 14 5 15 1 16 2 17 3 18 92 19 4 20 90 21 91 22 19 23 20 24
REMARK SMILES IDX 21 25 22 26 23 28 24 29 25 30 89 31 26 32 88 33 27 34 28 35
REMARK SMILES IDX 29 36 82 37 30 38 87 39 81 40 83 41 31 42 86 43 80 44 79 45
REMARK SMILES IDX 32 47 66 48 45 49 65 50 46 51 49 52 64 53 84 54 47 55 48 56
REMARK SMILES IDX 63 58 85 59 50 60 33 61 34 62 43 63 35 64 36 65 42 66 44 67
REMARK SMILES IDX 37 68 38 69 39 70 40 71 41 72 67 73 68 74 77 75 69 76 70 77
REMARK SMILES IDX 76 78 78 79 71 80 72 81 73 82 74 83 75 84 51 85 52 86 61 87
REMARK SMILES IDX 53 88 54 89 60 90 62 91 55 92 56 93 57 94 58 95 59 96
REMARK H PARENT 14 8 21 27 83 46 49 57
REMARK Flexibility Score: inf
ROOT
ATOM      1  C   UNL A   1      33.645  26.824  24.482  1.00  0.00     0.002 C 
ENDROOT
BRANCH   1   2
ATOM      2  C   UNL A   1      34.120  25.365  24.438  1.00  0.00     0.002 C 
BRANCH   2   3
ATOM      3  C   UNL A   1      33.984  24.676  23.071  1.00  0.00     0.021 C 
BRANCH   3   4
ATOM      4  C   UNL A   1      34.795  23.386  22.959  1.00  0.00     0.116 C 
BRANCH   4   5
ATOM      5  N   UNL A   1      35.340  23.014  24.247  1.00  0.00    -0.352 N 
ATOM      6  C   UNL A   1      35.208  21.991  25.145  1.00  0.00     0.253 C 
ATOM      7  O   UNL A   1      35.916  22.149  26.142  1.00  0.00    -0.269 OA
ATOM      8  H   UNL A   1      35.987  23.685  24.565  1.00  0.00     0.163 HD
BRANCH   6   9
ATOM      9  C   UNL A   1      34.356  20.761  24.990  1.00  0.00     0.066 A 
ATOM     10  C   UNL A   1      32.962  20.820  25.217  1.00  0.00     0.083 A 
ATOM     11  N   UNL A   1      32.158  19.709  25.223  1.00  0.00    -0.255 NA
ATOM     12  C   UNL A   1      32.719  18.511  24.989  1.00  0.00     0.112 A 
ATOM     13  C   UNL A   1      34.863  19.495  24.671  1.00  0.00     0.018 A 
ATOM     14  C   UNL A   1      34.053  18.359  24.692  1.00  0.00     0.021 A 
BRANCH  10  15
ATOM     15  C   UNL A   1      32.182  22.055  25.430  1.00  0.00     0.004 A 
ATOM     16  C   UNL A   1      29.947  25.741  25.864  1.00  0.00     0.044 C 
ATOM     17  C   UNL A   1      30.696  24.453  25.709  1.00  0.00    -0.051 A 
ATOM     18  C   UNL A   1      30.701  23.767  24.496  1.00  0.00     0.004 A 
ATOM     19  C   UNL A   1      31.405  23.918  26.793  1.00  0.00     0.007 A 
ATOM     20  C   UNL A   1      31.421  22.579  24.364  1.00  0.00     0.011 A 
ATOM     21  C   UNL A   1      32.156  22.735  26.667  1.00  0.00    -0.041 A 
ATOM     22  C   UNL A   1      32.882  22.230  27.887  1.00  0.00     0.045 C 
ENDBRANCH  10  15
ENDBRANCH   6   9
ENDBRANCH   4   5
ENDBRANCH   3   4
ENDBRANCH   2   3
ENDBRANCH   1   2
BRANCH   1  23
ATOM     23  C   UNL A   1      33.053  27.270  25.822  1.00  0.00     0.021 C 
BRANCH  23  24
ATOM     24  C   UNL A   1      34.063  27.914  26.763  1.00  0.00     0.116 C 
BRANCH  24  25
ATOM     25  N   UNL A   1      33.727  29.302  27.037  1.00  0.00    -0.352 N 
ATOM     26  C   UNL A   1      34.436  30.238  27.748  1.00  0.00     0.251 C 
ATOM     27  H   UNL A   1      32.872  29.613  26.660  1.00  0.00     0.163 HD
ATOM     28  O   UNL A   1      33.899  31.285  28.092  1.00  0.00    -0.269 OA
BRANCH  26  29
ATOM     29  C   UNL A   1      35.845  29.967  28.103  1.00  0.00     0.039 A 
ATOM     30  C   UNL A   1      36.149  29.538  29.397  1.00  0.00     0.014 A 
ATOM     31  C   UNL A   1      36.863  30.142  27.161  1.00  0.00     0.014 A 
ATOM     32  C   UNL A   1      37.471  29.240  29.732  1.00  0.00     0.010 A 
ATOM     33  C   UNL A   1      38.167  29.773  27.474  1.00  0.00     0.010 A 
ATOM     34  C   UNL A   1      38.486  29.327  28.764  1.00  0.00    -0.014 A 
BRANCH  34  35
ATOM     35  C   UNL A   1      39.891  28.970  29.088  1.00  0.00     0.031 A 
ATOM     36  C   UNL A   1      40.790  29.981  29.749  1.00  0.00     0.074 A 
ATOM     37  C   UNL A   1      40.369  27.759  28.740  1.00  0.00     0.049 A 
ATOM     38  N   UNL A   1      42.060  29.886  30.047  1.00  0.00    -0.248 NA
ATOM     39  C   UNL A   1      40.188  31.278  30.098  1.00  0.00     0.031 C 
ATOM     40  C   UNL A   1      39.605  26.710  28.062  1.00  0.00     0.029 A 
ATOM     41  N   UNL A   1      41.615  27.207  28.900  1.00  0.00    -0.354 N 
ATOM     42  C   UNL A   1      42.408  31.107  30.613  1.00  0.00     0.074 A 
ATOM     43  C   UNL A   1      41.234  31.949  30.557  1.00  0.00     0.031 C 
ATOM     44  C   UNL A   1      40.389  25.633  27.890  1.00  0.00     0.029 A 
ATOM     45  C   UNL A   1      41.722  25.929  28.404  1.00  0.00     0.049 A 
ATOM     46  H   UNL A   1      42.362  27.681  29.332  1.00  0.00     0.167 HD
ATOM     47  C   UNL A   1      43.590  31.483  31.157  1.00  0.00     0.037 A 
ATOM     48  C   UNL A   1      42.779  25.094  28.362  1.00  0.00     0.037 A 
ATOM     49  C   UNL A   1      44.750  30.633  31.223  1.00  0.00     0.049 A 
ATOM     50  C   UNL A   1      44.092  25.547  28.945  1.00  0.00     0.074 A 
ATOM     51  C   UNL A   1      45.987  30.905  31.781  1.00  0.00     0.029 A 
ATOM     52  N   UNL A   1      44.818  29.343  30.715  1.00  0.00    -0.354 N 
ATOM     53  N   UNL A   1      44.389  26.688  29.520  1.00  0.00    -0.248 NA
ATOM     54  C   UNL A   1      45.210  24.597  28.878  1.00  0.00     0.031 C 
ATOM     55  C   UNL A   1      46.815  29.798  31.573  1.00  0.00     0.029 A 
ATOM     56  C   UNL A   1      46.079  28.814  30.931  1.00  0.00     0.049 A 
ATOM     57  H   UNL A   1      44.078  28.873  30.267  1.00  0.00     0.167 HD
ATOM     58  C   UNL A   1      45.719  26.579  29.916  1.00  0.00     0.074 A 
ATOM     59  C   UNL A   1      46.163  25.258  29.522  1.00  0.00     0.031 C 
ATOM     60  C   UNL A   1      46.500  27.490  30.547  1.00  0.00     0.037 A 
BRANCH  47  61
ATOM     61  C   UNL A   1      43.684  32.869  31.734  1.00  0.00     0.058 A 
ATOM     62  C   UNL A   1      44.070  33.968  30.948  1.00  0.00     0.135 A 
ATOM     63  C   UNL A   1      43.349  33.113  33.077  1.00  0.00     0.135 A 
ATOM     64  F   UNL A   1      44.416  33.792  29.663  1.00  0.00    -0.206 F 
ATOM     65  C   UNL A   1      44.150  35.250  31.478  1.00  0.00     0.059 A 
ATOM     66  C   UNL A   1      43.392  34.394  33.621  1.00  0.00     0.059 A 
ATOM     67  F   UNL A   1      42.974  32.101  33.874  1.00  0.00    -0.206 F 
ATOM     68  C   UNL A   1      43.808  35.455  32.816  1.00  0.00     0.060 A 
BRANCH  68  69
ATOM     69  S   UNL A   1      43.909  37.127  33.484  1.00  0.00     0.124 S 
ATOM     70  O   UNL A   1      42.649  37.226  34.214  1.00  0.00    -0.237 OA
ATOM     71  O   UNL A   1      45.113  37.062  34.307  1.00  0.00    -0.237 OA
ATOM     72  O   UNL A   1      44.011  37.965  32.293  1.00  0.00    -0.744 OA
ENDBRANCH  68  69
ENDBRANCH  47  61
BRANCH  48  73
ATOM     73  C   UNL A   1      42.640  23.738  27.764  1.00  0.00     0.058 A 
ATOM     74  C   UNL A   1      42.452  22.608  28.575  1.00  0.00     0.135 A 
ATOM     75  C   UNL A   1      42.704  23.541  26.376  1.00  0.00     0.135 A 
ATOM     76  F   UNL A   1      42.390  22.744  29.909  1.00  0.00    -0.206 F 
ATOM     77  C   UNL A   1      42.363  21.330  28.036  1.00  0.00     0.059 A 
ATOM     78  C   UNL A   1      42.588  22.275  25.811  1.00  0.00     0.059 A 
ATOM     79  F   UNL A   1      42.863  24.589  25.553  1.00  0.00    -0.206 F 
ATOM     80  C   UNL A   1      42.433  21.173  26.651  1.00  0.00     0.060 A 
BRANCH  80  81
ATOM     81  S   UNL A   1      42.295  19.511  25.959  1.00  0.00     0.124 S 
ATOM     82  O   UNL A   1      40.866  19.427  25.680  1.00  0.00    -0.237 OA
ATOM     83  O   UNL A   1      43.170  19.591  24.794  1.00  0.00    -0.237 OA
ATOM     84  O   UNL A   1      42.779  18.657  27.040  1.00  0.00    -0.744 OA
ENDBRANCH  80  81
ENDBRANCH  48  73
BRANCH  60  85
ATOM     85  C   UNL A   1      47.903  27.074  30.897  1.00  0.00     0.058 A 
ATOM     86  C   UNL A   1      48.190  26.339  32.057  1.00  0.00     0.135 A 
ATOM     87  C   UNL A   1      48.966  27.372  30.028  1.00  0.00     0.135 A 
ATOM     88  F   UNL A   1      47.212  26.033  32.924  1.00  0.00    -0.206 F 
ATOM     89  C   UNL A   1      49.488  25.933  32.356  1.00  0.00     0.059 A 
ATOM     90  C   UNL A   1      50.266  26.952  30.293  1.00  0.00     0.059 A 
ATOM     91  F   UNL A   1      48.744  28.065  28.900  1.00  0.00    -0.206 F 
ATOM     92  C   UNL A   1      50.518  26.242  31.466  1.00  0.00     0.060 A 
BRANCH  92  93
ATOM     93  S   UNL A   1      52.189  25.679  31.850  1.00  0.00     0.124 S 
ATOM     94  O   UNL A   1      52.530  26.522  32.990  1.00  0.00    -0.237 OA
ATOM     95  O   UNL A   1      51.981  24.265  32.146  1.00  0.00    -0.237 OA
ATOM     96  O   UNL A   1      52.931  25.952  30.623  1.00  0.00    -0.744 OA
ENDBRANCH  92  93
ENDBRANCH  60  85
ENDBRANCH  34  35
ENDBRANCH  26  29
ENDBRANCH  24  25
ENDBRANCH  23  24
ENDBRANCH   1  23
TORSDOF 17
ENDMDL
MODEL 2
REMARK VINA RESULT:     -11.1      1.150      2.551
REMARK SMILES Cc1ccc(-c2ncccc2C(=O)NCCCCCCNC(=O)c2ccc(-c3c4nc(c(-c5c(F)cc(S(=O)(=O)[O-])cc5F)c5ccc([nH]5)c(-c5c(F)cc(S(=O)(=O)[O-])cc5F)c5nc(c(-c6c(F)cc(S(=O)(=O)[O-])cc6F)c6ccc3[nH]6)C=C5)C=C4)cc2)c(C)c1
REMARK SMILES IDX 18 1 17 2 16 3 15 4 14 5 12 6 13 7 11 9 6 10 7 11 8 12 10 13
REMARK SMILES IDX 9 14 5 15 1 16 2 17 3 18 92 19 4 20 90 21 91 22 19 23 20 24
REMARK SMILES IDX 21 25 22 26 23 28 24 29 25 30 89 31 26 32 88 33 27 34 28 35
REMARK SMILES IDX 29 36 82 37 30 38 87 39 81 40 83 41 31 42 86 43 80 44 79 45
REMARK SMILES IDX 32 47 66 48 45 49 65 50 46 51 49 52 64 53 84 54 47 55 48 56
REMARK SMILES IDX 63 58 85 59 50 60 33 61 34 62 43 63 35 64 36 65 42 66 44 67
REMARK SMILES IDX 37 68 38 69 39 70 40 71 41 72 67 73 68 74 77 75 69 76 70 77
REMARK SMILES IDX 76 78 78 79 71 80 72 81 73 82 74 83 75 84 51 85 52 86 61 87
REMARK SMILES IDX 53 88 54 89 60 90 62 91 55 92 56 93 57 94 58 95 59 96
REMARK H PARENT 14 8 21 27 83 46 49 57
REMARK Flexibility Score: inf
ROOT
ATOM      1  C   UNL A   1      33.650  28.262  24.107  1.00  0.00     0.002 C 
ENDROOT
BRANCH   1   2
ATOM      2  C   UNL A   1      32.964  27.652  22.877  1.00  0.00     0.002 C 
BRANCH   2   3
ATOM      3  C   UNL A   1      33.705  26.466  22.239  1.00  0.00     0.021 C 
BRANCH   3   4
ATOM      4  C   UNL A   1      32.823  25.624  21.319  1.00  0.00     0.116 C 
BRANCH   4   5
ATOM      5  N   UNL A   1      32.824  24.240  21.738  1.00  0.00    -0.352 N 
ATOM      6  C   UNL A   1      32.536  23.524  22.868  1.00  0.00     0.253 C 
ATOM      7  O   UNL A   1      32.713  22.314  22.712  1.00  0.00    -0.269 OA
ATOM      8  H   UNL A   1      33.113  23.648  21.007  1.00  0.00     0.163 HD
BRANCH   6   9
ATOM      9  C   UNL A   1      32.017  24.067  24.171  1.00  0.00     0.066 A 
ATOM     10  C   UNL A   1      32.756  23.899  25.364  1.00  0.00     0.083 A 
ATOM     11  N   UNL A   1      32.274  24.252  26.599  1.00  0.00    -0.255 NA
ATOM     12  C   UNL A   1      31.048  24.795  26.675  1.00  0.00     0.112 A 
ATOM     13  C   UNL A   1      30.783  24.714  24.311  1.00  0.00     0.018 A 
ATOM     14  C   UNL A   1      30.280  25.060  25.566  1.00  0.00     0.021 A 
BRANCH  10  15
ATOM     15  C   UNL A   1      34.134  23.375  25.450  1.00  0.00     0.004 A 
ATOM     16  C   UNL A   1      38.229  21.965  25.546  1.00  0.00     0.044 C 
ATOM     17  C   UNL A   1      36.818  22.469  25.535  1.00  0.00    -0.051 A 
ATOM     18  C   UNL A   1      36.539  23.818  25.323  1.00  0.00     0.004 A 
ATOM     19  C   UNL A   1      35.755  21.581  25.743  1.00  0.00     0.007 A 
ATOM     20  C   UNL A   1      35.218  24.265  25.296  1.00  0.00     0.011 A 
ATOM     21  C   UNL A   1      34.416  22.013  25.692  1.00  0.00    -0.041 A 
ATOM     22  C   UNL A   1      33.338  20.990  25.933  1.00  0.00     0.045 C 
ENDBRANCH  10  15
ENDBRANCH   6   9
ENDBRANCH   4   5
ENDBRANCH   3   4
ENDBRANCH   2   3
ENDBRANCH   1   2
BRANCH   1  23
ATOM     23  C   UNL A   1      33.324  27.574  25.436  1.00  0.00     0.021 C 
BRANCH  23  24
ATOM     24  C   UNL A   1      34.175  28.050  26.607  1.00  0.00     0.116 C 
BRANCH  24  25
ATOM     25  N   UNL A   1      33.843  29.413  26.989  1.00  0.00    -0.352 N 
ATOM     26  C   UNL A   1      34.548  30.283  27.781  1.00  0.00     0.251 C 
ATOM     27  H   UNL A   1      32.994  29.758  26.628  1.00  0.00     0.163 HD
ATOM     28  O   UNL A   1      34.011  31.302  28.203  1.00  0.00    -0.269 OA
BRANCH  26  29
ATOM     29  C   UNL A   1      35.951  29.976  28.130  1.00  0.00     0.039 A 
ATOM     30  C   UNL A   1      36.247  29.521  29.416  1.00  0.00     0.014 A 
ATOM     31  C   UNL A   1      36.971  30.145  27.188  1.00  0.00     0.014 A 
ATOM     32  C   UNL A   1      37.563  29.188  29.744  1.00  0.00     0.010 A 
ATOM     33  C   UNL A   1      38.268  29.742  27.493  1.00  0.00     0.010 A 
ATOM     34  C   UNL A   1      38.578  29.269  28.776  1.00  0.00    -0.014 A 
BRANCH  34  35
ATOM     35  C   UNL A   1      39.976  28.877  29.091  1.00  0.00     0.031 A 
ATOM     36  C   UNL A   1      40.902  29.863  29.752  1.00  0.00     0.074 A 
ATOM     37  C   UNL A   1      40.423  27.656  28.736  1.00  0.00     0.049 A 
ATOM     38  N   UNL A   1      42.171  29.736  30.043  1.00  0.00    -0.248 NA
ATOM     39  C   UNL A   1      40.333  31.173  30.109  1.00  0.00     0.031 C 
ATOM     40  C   UNL A   1      39.630  26.629  28.057  1.00  0.00     0.029 A 
ATOM     41  N   UNL A   1      41.656  27.073  28.888  1.00  0.00    -0.354 N 
ATOM     42  C   UNL A   1      42.551  30.946  30.612  1.00  0.00     0.074 A 
ATOM     43  C   UNL A   1      41.397  31.816  30.566  1.00  0.00     0.031 C 
ATOM     44  C   UNL A   1      40.387  25.534  27.877  1.00  0.00     0.029 A 
ATOM     45  C   UNL A   1      41.729  25.795  28.386  1.00  0.00     0.049 A 
ATOM     46  H   UNL A   1      42.416  27.528  29.318  1.00  0.00     0.167 HD
ATOM     47  C   UNL A   1      43.745  31.290  31.152  1.00  0.00     0.037 A 
ATOM     48  C   UNL A   1      42.765  24.935  28.336  1.00  0.00     0.037 A 
ATOM     49  C   UNL A   1      44.884  30.412  31.210  1.00  0.00     0.049 A 
ATOM     50  C   UNL A   1      44.091  25.353  28.914  1.00  0.00     0.074 A 
ATOM     51  C   UNL A   1      46.130  30.652  31.763  1.00  0.00     0.029 A 
ATOM     52  N   UNL A   1      44.918  29.123  30.696  1.00  0.00    -0.354 N 
ATOM     53  N   UNL A   1      44.419  26.484  29.493  1.00  0.00    -0.248 NA
ATOM     54  C   UNL A   1      45.186  24.377  28.838  1.00  0.00     0.031 C 
ATOM     55  C   UNL A   1      46.930  29.526  31.546  1.00  0.00     0.029 A 
ATOM     56  C   UNL A   1      46.167  28.563  30.904  1.00  0.00     0.049 A 
ATOM     57  H   UNL A   1      44.164  28.673  30.250  1.00  0.00     0.167 HD
ATOM     58  C   UNL A   1      45.747  26.341  29.881  1.00  0.00     0.074 A 
ATOM     59  C   UNL A   1      46.157  25.012  29.480  1.00  0.00     0.031 C 
ATOM     60  C   UNL A   1      46.554  27.230  30.513  1.00  0.00     0.037 A 
BRANCH  47  61
ATOM     61  C   UNL A   1      43.875  32.672  31.735  1.00  0.00     0.058 A 
ATOM     62  C   UNL A   1      44.193  33.780  30.932  1.00  0.00     0.135 A 
ATOM     63  C   UNL A   1      43.644  32.900  33.101  1.00  0.00     0.135 A 
ATOM     64  F   UNL A   1      44.439  33.619  29.623  1.00  0.00    -0.206 F 
ATOM     65  C   UNL A   1      44.306  35.058  31.468  1.00  0.00     0.059 A 
ATOM     66  C   UNL A   1      43.721  34.176  33.654  1.00  0.00     0.059 A 
ATOM     67  F   UNL A   1      43.337  31.878  33.915  1.00  0.00    -0.206 F 
ATOM     68  C   UNL A   1      44.067  35.247  32.830  1.00  0.00     0.060 A 
BRANCH  68  69
ATOM     69  S   UNL A   1      44.211  36.914  33.506  1.00  0.00     0.124 S 
ATOM     70  O   UNL A   1      44.805  36.648  34.812  1.00  0.00    -0.237 OA
ATOM     71  O   UNL A   1      45.081  37.570  32.535  1.00  0.00    -0.237 OA
ATOM     72  O   UNL A   1      42.831  37.392  33.531  1.00  0.00    -0.744 OA
ENDBRANCH  68  69
ENDBRANCH  47  61
BRANCH  48  73
ATOM     73  C   UNL A   1      42.590  23.585  27.733  1.00  0.00     0.058 A 
ATOM     74  C   UNL A   1      42.380  22.457  28.541  1.00  0.00     0.135 A 
ATOM     75  C   UNL A   1      42.642  23.392  26.344  1.00  0.00     0.135 A 
ATOM     76  F   UNL A   1      42.328  22.588  29.875  1.00  0.00    -0.206 F 
ATOM     77  C   UNL A   1      42.258  21.183  27.997  1.00  0.00     0.059 A 
ATOM     78  C   UNL A   1      42.492  22.132  25.774  1.00  0.00     0.059 A 
ATOM     79  F   UNL A   1      42.821  24.440  25.524  1.00  0.00    -0.206 F 
ATOM     80  C   UNL A   1      42.316  21.030  26.611  1.00  0.00     0.060 A 
BRANCH  80  81
ATOM     81  S   UNL A   1      42.134  19.375  25.913  1.00  0.00     0.124 S 
ATOM     82  O   UNL A   1      42.971  19.465  24.721  1.00  0.00    -0.237 OA
ATOM     83  O   UNL A   1      42.643  18.531  26.989  1.00  0.00    -0.237 OA
ATOM     84  O   UNL A   1      40.698  19.271  25.669  1.00  0.00    -0.744 OA
ENDBRANCH  80  81
ENDBRANCH  48  73
BRANCH  60  85
ATOM     85  C   UNL A   1      47.948  26.779  30.854  1.00  0.00     0.058 A 
ATOM     86  C   UNL A   1      49.038  27.038  30.009  1.00  0.00     0.135 A 
ATOM     87  C   UNL A   1      48.201  26.124  32.071  1.00  0.00     0.135 A 
ATOM     88  F   UNL A   1      48.850  27.654  28.832  1.00  0.00    -0.206 F 
ATOM     89  C   UNL A   1      50.328  26.641  30.348  1.00  0.00     0.059 A 
ATOM     90  C   UNL A   1      49.487  25.746  32.443  1.00  0.00     0.059 A 
ATOM     91  F   UNL A   1      47.195  25.861  32.920  1.00  0.00    -0.206 F 
ATOM     92  C   UNL A   1      50.543  25.999  31.569  1.00  0.00     0.060 A 
BRANCH  92  93
ATOM     93  S   UNL A   1      52.227  25.524  32.011  1.00  0.00     0.124 S 
ATOM     94  O   UNL A   1      52.484  26.384  33.161  1.00  0.00    -0.237 OA
ATOM     95  O   UNL A   1      52.082  24.101  32.302  1.00  0.00    -0.237 OA
ATOM     96  O   UNL A   1      52.995  25.836  30.810  1.00  0.00    -0.744 OA
ENDBRANCH  92  93
ENDBRANCH  60  85
ENDBRANCH  34  35
ENDBRANCH  26  29
ENDBRANCH  24  25
ENDBRANCH  23  24
ENDBRANCH   1  23
TORSDOF 17
ENDMDL
MODEL 3
REMARK VINA RESULT:     -10.8      4.473     10.010
REMARK SMILES Cc1ccc(-c2ncccc2C(=O)NCCCCCCNC(=O)c2ccc(-c3c4nc(c(-c5c(F)cc(S(=O)(=O)[O-])cc5F)c5ccc([nH]5)c(-c5c(F)cc(S(=O)(=O)[O-])cc5F)c5nc(c(-c6c(F)cc(S(=O)(=O)[O-])cc6F)c6ccc3[nH]6)C=C5)C=C4)cc2)c(C)c1
REMARK SMILES IDX 18 1 17 2 16 3 15 4 14 5 12 6 13 7 11 9 6 10 7 11 8 12 10 13
REMARK SMILES IDX 9 14 5 15 1 16 2 17 3 18 92 19 4 20 90 21 91 22 19 23 20 24
REMARK SMILES IDX 21 25 22 26 23 28 24 29 25 30 89 31 26 32 88 33 27 34 28 35
REMARK SMILES IDX 29 36 82 37 30 38 87 39 81 40 83 41 31 42 86 43 80 44 79 45
REMARK SMILES IDX 32 47 66 48 45 49 65 50 46 51 49 52 64 53 84 54 47 55 48 56
REMARK SMILES IDX 63 58 85 59 50 60 33 61 34 62 43 63 35 64 36 65 42 66 44 67
REMARK SMILES IDX 37 68 38 69 39 70 40 71 41 72 67 73 68 74 77 75 69 76 70 77
REMARK SMILES IDX 76 78 78 79 71 80 72 81 73 82 74 83 75 84 51 85 52 86 61 87
REMARK SMILES IDX 53 88 54 89 60 90 62 91 55 92 56 93 57 94 58 95 59 96
REMARK H PARENT 14 8 21 27 83 46 49 57
REMARK Flexibility Score: inf
ROOT
ATOM      1  C   UNL A   1      39.523  22.383  26.536  1.00  0.00     0.002 C 
ENDROOT
BRANCH   1   2
ATOM      2  C   UNL A   1      38.826  21.260  25.757  1.00  0.00     0.002 C 
BRANCH   2   3
ATOM      3  C   UNL A   1      37.527  21.670  25.044  1.00  0.00     0.021 C 
BRANCH   3   4
ATOM      4  C   UNL A   1      36.788  22.811  25.741  1.00  0.00     0.116 C 
BRANCH   4   5
ATOM      5  N   UNL A   1      35.789  22.291  26.649  1.00  0.00    -0.352 N 
ATOM      6  C   UNL A   1      34.541  21.736  26.572  1.00  0.00     0.253 C 
ATOM      7  O   UNL A   1      34.084  21.455  27.682  1.00  0.00    -0.269 OA
ATOM      8  H   UNL A   1      36.092  22.354  27.584  1.00  0.00     0.163 HD
BRANCH   6   9
ATOM      9  C   UNL A   1      33.767  21.430  25.319  1.00  0.00     0.066 A 
ATOM     10  C   UNL A   1      33.026  22.442  24.667  1.00  0.00     0.083 A 
ATOM     11  N   UNL A   1      32.197  22.194  23.603  1.00  0.00    -0.255 NA
ATOM     12  C   UNL A   1      32.096  20.933  23.151  1.00  0.00     0.112 A 
ATOM     13  C   UNL A   1      33.681  20.155  24.746  1.00  0.00     0.018 A 
ATOM     14  C   UNL A   1      32.826  19.893  23.674  1.00  0.00     0.021 A 
BRANCH  10  15
ATOM     15  C   UNL A   1      33.069  23.881  24.998  1.00  0.00     0.004 A 
ATOM     16  C   UNL A   1      33.399  28.094  25.948  1.00  0.00     0.044 C 
ATOM     17  C   UNL A   1      33.277  26.644  25.594  1.00  0.00    -0.051 A 
ATOM     18  C   UNL A   1      34.078  26.076  24.604  1.00  0.00     0.004 A 
ATOM     19  C   UNL A   1      32.345  25.835  26.258  1.00  0.00     0.007 A 
ATOM     20  C   UNL A   1      33.964  24.719  24.302  1.00  0.00     0.011 A 
ATOM     21  C   UNL A   1      32.237  24.459  25.981  1.00  0.00    -0.041 A 
ATOM     22  C   UNL A   1      31.204  23.669  26.740  1.00  0.00     0.045 C 
ENDBRANCH  10  15
ENDBRANCH   6   9
ENDBRANCH   4   5
ENDBRANCH   3   4
ENDBRANCH   2   3
ENDBRANCH   1   2
BRANCH   1  23
ATOM     23  C   UNL A   1      40.693  21.929  27.415  1.00  0.00     0.021 C 
BRANCH  23  24
ATOM     24  C   UNL A   1      41.741  23.008  27.659  1.00  0.00     0.116 C 
BRANCH  24  25
ATOM     25  N   UNL A   1      42.088  23.702  26.429  1.00  0.00    -0.352 N 
ATOM     26  C   UNL A   1      41.973  25.036  26.129  1.00  0.00     0.251 C 
ATOM     27  H   UNL A   1      42.458  23.136  25.713  1.00  0.00     0.163 HD
ATOM     28  O   UNL A   1      42.079  25.416  24.968  1.00  0.00    -0.269 OA
BRANCH  26  29
ATOM     29  C   UNL A   1      41.709  26.005  27.213  1.00  0.00     0.039 A 
ATOM     30  C   UNL A   1      40.628  25.787  28.071  1.00  0.00     0.014 A 
ATOM     31  C   UNL A   1      42.524  27.129  27.377  1.00  0.00     0.014 A 
ATOM     32  C   UNL A   1      40.394  26.674  29.124  1.00  0.00     0.010 A 
ATOM     33  C   UNL A   1      42.335  27.969  28.470  1.00  0.00     0.010 A 
ATOM     34  C   UNL A   1      41.263  27.755  29.349  1.00  0.00    -0.014 A 
BRANCH  34  35
ATOM     35  C   UNL A   1      41.058  28.684  30.490  1.00  0.00     0.031 A 
ATOM     36  C   UNL A   1      41.915  28.561  31.722  1.00  0.00     0.074 A 
ATOM     37  C   UNL A   1      40.070  29.599  30.437  1.00  0.00     0.049 A 
ATOM     38  N   UNL A   1      41.845  29.226  32.846  1.00  0.00    -0.248 NA
ATOM     39  C   UNL A   1      42.973  27.537  31.697  1.00  0.00     0.031 C 
ATOM     40  C   UNL A   1      39.152  29.788  29.312  1.00  0.00     0.029 A 
ATOM     41  N   UNL A   1      39.667  30.537  31.353  1.00  0.00    -0.354 N 
ATOM     42  C   UNL A   1      42.843  28.702  33.659  1.00  0.00     0.074 A 
ATOM     43  C   UNL A   1      43.461  27.620  32.925  1.00  0.00     0.031 C 
ATOM     44  C   UNL A   1      38.312  30.798  29.593  1.00  0.00     0.029 A 
ATOM     45  C   UNL A   1      38.602  31.299  30.933  1.00  0.00     0.049 A 
ATOM     46  H   UNL A   1      40.102  30.655  32.229  1.00  0.00     0.167 HD
ATOM     47  C   UNL A   1      43.230  29.105  34.893  1.00  0.00     0.037 A 
ATOM     48  C   UNL A   1      37.930  32.283  31.562  1.00  0.00     0.037 A 
ATOM     49  C   UNL A   1      42.620  30.194  35.610  1.00  0.00     0.049 A 
ATOM     50  C   UNL A   1      38.359  32.692  32.946  1.00  0.00     0.074 A 
ATOM     51  C   UNL A   1      42.957  30.704  36.853  1.00  0.00     0.029 A 
ATOM     52  N   UNL A   1      41.548  30.945  35.149  1.00  0.00    -0.354 N 
ATOM     53  N   UNL A   1      39.337  32.217  33.681  1.00  0.00    -0.248 NA
ATOM     54  C   UNL A   1      37.597  33.773  33.585  1.00  0.00     0.031 C 
ATOM     55  C   UNL A   1      42.061  31.731  37.162  1.00  0.00     0.029 A 
ATOM     56  C   UNL A   1      41.199  31.900  36.090  1.00  0.00     0.049 A 
ATOM     57  H   UNL A   1      41.100  30.817  34.282  1.00  0.00     0.167 HD
ATOM     58  C   UNL A   1      39.330  32.966  34.853  1.00  0.00     0.074 A 
ATOM     59  C   UNL A   1      38.257  33.930  34.725  1.00  0.00     0.031 C 
ATOM     60  C   UNL A   1      40.138  32.864  35.938  1.00  0.00     0.037 A 
BRANCH  47  61
ATOM     61  C   UNL A   1      44.373  28.371  35.541  1.00  0.00     0.058 A 
ATOM     62  C   UNL A   1      45.705  28.783  35.361  1.00  0.00     0.135 A 
ATOM     63  C   UNL A   1      44.138  27.269  36.379  1.00  0.00     0.135 A 
ATOM     64  F   UNL A   1      45.990  29.819  34.558  1.00  0.00    -0.206 F 
ATOM     65  C   UNL A   1      46.762  28.111  35.965  1.00  0.00     0.059 A 
ATOM     66  C   UNL A   1      45.178  26.601  37.019  1.00  0.00     0.059 A 
ATOM     67  F   UNL A   1      42.886  26.833  36.586  1.00  0.00    -0.206 F 
ATOM     68  C   UNL A   1      46.489  27.021  36.794  1.00  0.00     0.060 A 
BRANCH  68  69
ATOM     69  S   UNL A   1      47.873  26.167  37.576  1.00  0.00     0.124 S 
ATOM     70  O   UNL A   1      47.619  26.434  38.988  1.00  0.00    -0.237 OA
ATOM     71  O   UNL A   1      47.671  24.787  37.146  1.00  0.00    -0.237 OA
ATOM     72  O   UNL A   1      49.045  26.831  37.014  1.00  0.00    -0.744 OA
ENDBRANCH  68  69
ENDBRANCH  47  61
BRANCH  48  73
ATOM     73  C   UNL A   1      36.794  32.966  30.885  1.00  0.00     0.058 A 
ATOM     74  C   UNL A   1      37.021  33.894  29.856  1.00  0.00     0.135 A 
ATOM     75  C   UNL A   1      35.464  32.719  31.258  1.00  0.00     0.135 A 
ATOM     76  F   UNL A   1      38.275  34.170  29.466  1.00  0.00    -0.206 F 
ATOM     77  C   UNL A   1      35.974  34.573  29.242  1.00  0.00     0.059 A 
ATOM     78  C   UNL A   1      34.398  33.363  30.639  1.00  0.00     0.059 A 
ATOM     79  F   UNL A   1      35.191  31.827  32.223  1.00  0.00    -0.206 F 
ATOM     80  C   UNL A   1      34.665  34.301  29.642  1.00  0.00     0.060 A 
BRANCH  80  81
ATOM     81  S   UNL A   1      33.310  35.171  28.825  1.00  0.00     0.124 S 
ATOM     82  O   UNL A   1      34.030  36.193  28.073  1.00  0.00    -0.237 OA
ATOM     83  O   UNL A   1      32.697  34.110  28.034  1.00  0.00    -0.237 OA
ATOM     84  O   UNL A   1      32.504  35.658  29.940  1.00  0.00    -0.744 OA
ENDBRANCH  80  81
ENDBRANCH  48  73
BRANCH  60  85
ATOM     85  C   UNL A   1      39.927  33.852  37.053  1.00  0.00     0.058 A 
ATOM     86  C   UNL A   1      40.513  35.126  37.035  1.00  0.00     0.135 A 
ATOM     87  C   UNL A   1      39.081  33.533  38.129  1.00  0.00     0.135 A 
ATOM     88  F   UNL A   1      41.335  35.479  36.033  1.00  0.00    -0.206 F 
ATOM     89  C   UNL A   1      40.288  36.043  38.058  1.00  0.00     0.059 A 
ATOM     90  C   UNL A   1      38.819  34.445  39.147  1.00  0.00     0.059 A 
ATOM     91  F   UNL A   1      38.487  32.330  38.190  1.00  0.00    -0.206 F 
ATOM     92  C   UNL A   1      39.436  35.694  39.107  1.00  0.00     0.060 A 
BRANCH  92  93
ATOM     93  S   UNL A   1      39.125  36.906  40.407  1.00  0.00     0.124 S 
ATOM     94  O   UNL A   1      38.454  37.968  39.666  1.00  0.00    -0.237 OA
ATOM     95  O   UNL A   1      38.288  36.155  41.339  1.00  0.00    -0.237 OA
ATOM     96  O   UNL A   1      40.461  37.230  40.898  1.00  0.00    -0.744 OA
ENDBRANCH  92  93
ENDBRANCH  60  85
ENDBRANCH  34  35
ENDBRANCH  26  29
ENDBRANCH  24  25
ENDBRANCH  23  24
ENDBRANCH   1  23
TORSDOF 17
ENDMDL
