MODEL 1
REMARK VINA RESULT:     -12.3      0.000      0.000
REMARK SMILES NS(=O)(=O)c1ccc(-n2ccnc2-c2ccc(O)c(C(=O)NCCCCCCNC(=O)c3ccc(-c4c5nc(c(-c6c(F)cc(S(=O)(=O)[O-])cc6F)c6ccc([nH]6)c(-c6c(F)cc(S(=O)(=O)[O-])cc6F)c6nc(c(-c7c(F)cc(S(=O)(=O)[O-])cc7F)c7ccc4[nH]7)C=C6)C=C5)cc3)c2)cc1
REMARK SMILES IDX 25 1 24 2 23 3 22 4 20 5 21 6 19 8 14 9 15 10 98 11 16 12
REMARK SMILES IDX 17 13 13 14 9 15 10 16 11 17 12 18 8 19 5 20 6 21 100 22
REMARK SMILES IDX 7 23 99 24 2 25 3 26 4 27 1 28 18 31 26 33 27 34 28 35 29 36
REMARK SMILES IDX 30 37 31 39 32 40 33 41 97 42 34 43 96 44 35 45 36 46 37 47
REMARK SMILES IDX 90 48 38 49 95 50 89 51 91 52 39 53 94 54 88 55 87 56 40 58
REMARK SMILES IDX 74 59 53 60 73 61 54 62 57 63 72 64 92 65 55 66 56 67 71 69
REMARK SMILES IDX 93 70 58 71 41 72 42 73 51 74 43 75 44 76 50 77 52 78 45 79
REMARK SMILES IDX 46 80 47 81 48 82 49 83 75 84 76 85 85 86 77 87 78 88 84 89
REMARK SMILES IDX 86 90 79 91 80 92 81 93 82 94 83 95 59 96 60 97 69 98 61 99
REMARK SMILES IDX 62 100 68 101 70 102 63 103 64 104 65 105 66 106 67 107
REMARK H PARENT 22 7 1 29 1 30 18 32 29 38 91 57 57 68
REMARK Flexibility Score: inf
ROOT
ATOM      1  C   UNL A   1      39.157  23.121  26.414  1.00  0.00     0.002 C 
ENDROOT
BRANCH   1   2
ATOM      2  C   UNL A   1      37.953  24.057  26.416  1.00  0.00     0.021 C 
BRANCH   2   3
ATOM      3  C   UNL A   1      36.614  23.475  25.982  1.00  0.00     0.116 C 
BRANCH   3   4
ATOM      4  N   UNL A   1      36.590  22.033  25.785  1.00  0.00    -0.352 N 
ATOM      5  C   UNL A   1      35.645  21.197  25.221  1.00  0.00     0.255 C 
ATOM      6  O   UNL A   1      35.873  19.984  25.198  1.00  0.00    -0.269 OA
ATOM      7  H   UNL A   1      37.393  21.567  26.115  1.00  0.00     0.163 HD
BRANCH   5   8
ATOM      8  C   UNL A   1      34.332  21.667  24.687  1.00  0.00     0.082 A 
ATOM      9  C   UNL A   1      33.060  23.086  23.144  1.00  0.00     0.019 A 
ATOM     10  C   UNL A   1      31.896  22.816  23.866  1.00  0.00     0.016 A 
ATOM     11  C   UNL A   1      34.246  22.442  23.534  1.00  0.00     0.029 A 
ATOM     12  C   UNL A   1      31.928  21.915  24.937  1.00  0.00     0.048 A 
ATOM     13  C   UNL A   1      33.139  21.355  25.350  1.00  0.00     0.128 A 
BRANCH   9  14
ATOM     14  C   UNL A   1      33.100  24.143  22.114  1.00  0.00     0.144 A 
ATOM     15  N   UNL A   1      32.702  25.472  22.288  1.00  0.00    -0.300 N 
ATOM     16  C   UNL A   1      32.392  25.958  21.040  1.00  0.00     0.113 A 
ATOM     17  C   UNL A   1      32.806  24.990  20.157  1.00  0.00     0.132 A 
ATOM     18  N   UNL A   1      33.286  23.898  20.827  1.00  0.00    -0.236 NA
BRANCH  15  19
ATOM     19  C   UNL A   1      32.572  26.176  23.513  1.00  0.00     0.047 A 
ATOM     20  C   UNL A   1      32.300  27.775  25.769  1.00  0.00     0.082 A 
ATOM     21  C   UNL A   1      31.160  27.373  25.071  1.00  0.00     0.024 A 
ATOM     22  C   UNL A   1      33.576  27.365  25.362  1.00  0.00     0.024 A 
ATOM     23  C   UNL A   1      31.296  26.578  23.937  1.00  0.00     0.028 A 
ATOM     24  C   UNL A   1      33.713  26.543  24.239  1.00  0.00     0.028 A 
BRANCH  20  25
ATOM     25  S   UNL A   1      32.098  28.763  27.220  1.00  0.00     0.238 S 
ATOM     26  O   UNL A   1      31.359  27.991  28.208  1.00  0.00    -0.207 OA
ATOM     27  O   UNL A   1      31.724  30.089  26.830  1.00  0.00    -0.207 OA
BRANCH  25  28
ATOM     28  N   UNL A   1      33.655  28.865  27.841  1.00  0.00    -0.225 NA
ATOM     29  H   UNL A   1      34.323  28.563  27.133  1.00  0.00     0.137 HD
ATOM     30  H   UNL A   1      33.734  28.264  28.661  1.00  0.00     0.137 HD
ENDBRANCH  25  28
ENDBRANCH  20  25
ENDBRANCH  15  19
ENDBRANCH   9  14
BRANCH  13  31
ATOM     31  O   UNL A   1      33.082  20.508  26.425  1.00  0.00    -0.507 OA
ATOM     32  H   UNL A   1      33.859  20.079  26.727  1.00  0.00     0.293 HD
ENDBRANCH  13  31
ENDBRANCH   5   8
ENDBRANCH   3   4
ENDBRANCH   2   3
ENDBRANCH   1   2
BRANCH   1  33
ATOM     33  C   UNL A   1      40.003  23.046  27.693  1.00  0.00     0.002 C 
BRANCH  33  34
ATOM     34  C   UNL A   1      40.963  21.860  27.862  1.00  0.00     0.021 C 
BRANCH  34  35
ATOM     35  C   UNL A   1      42.437  22.228  27.894  1.00  0.00     0.116 C 
BRANCH  35  36
ATOM     36  N   UNL A   1      43.064  22.286  26.571  1.00  0.00    -0.352 N 
ATOM     37  C   UNL A   1      43.068  23.347  25.676  1.00  0.00     0.251 C 
ATOM     38  H   UNL A   1      43.541  21.475  26.282  1.00  0.00     0.163 HD
ATOM     39  O   UNL A   1      43.292  23.167  24.484  1.00  0.00    -0.269 OA
BRANCH  37  40
ATOM     40  C   UNL A   1      42.805  24.701  26.198  1.00  0.00     0.039 A 
ATOM     41  C   UNL A   1      41.759  25.510  25.746  1.00  0.00     0.014 A 
ATOM     42  C   UNL A   1      43.637  25.132  27.222  1.00  0.00     0.014 A 
ATOM     43  C   UNL A   1      41.528  26.723  26.394  1.00  0.00     0.010 A 
ATOM     44  C   UNL A   1      43.246  26.169  28.013  1.00  0.00     0.010 A 
ATOM     45  C   UNL A   1      42.276  27.036  27.540  1.00  0.00    -0.014 A 
BRANCH  45  46
ATOM     46  C   UNL A   1      42.058  28.241  28.323  1.00  0.00     0.031 A 
ATOM     47  C   UNL A   1      43.097  29.286  28.151  1.00  0.00     0.074 A 
ATOM     48  C   UNL A   1      40.878  28.487  28.940  1.00  0.00     0.049 A 
ATOM     49  N   UNL A   1      43.992  29.654  29.005  1.00  0.00    -0.248 NA
ATOM     50  C   UNL A   1      43.273  29.880  26.815  1.00  0.00     0.031 C 
ATOM     51  C   UNL A   1      39.639  27.694  28.921  1.00  0.00     0.029 A 
ATOM     52  N   UNL A   1      40.502  29.587  29.641  1.00  0.00    -0.354 N 
ATOM     53  C   UNL A   1      44.678  30.704  28.404  1.00  0.00     0.074 A 
ATOM     54  C   UNL A   1      44.351  30.644  27.004  1.00  0.00     0.031 C 
ATOM     55  C   UNL A   1      38.606  28.444  29.362  1.00  0.00     0.029 A 
ATOM     56  C   UNL A   1      39.133  29.697  29.868  1.00  0.00     0.049 A 
ATOM     57  H   UNL A   1      41.148  30.254  29.964  1.00  0.00     0.167 HD
ATOM     58  C   UNL A   1      45.250  31.691  29.151  1.00  0.00     0.037 A 
ATOM     59  C   UNL A   1      38.491  30.758  30.417  1.00  0.00     0.037 A 
ATOM     60  C   UNL A   1      45.317  31.315  30.544  1.00  0.00     0.049 A 
ATOM     61  C   UNL A   1      39.519  31.528  31.170  1.00  0.00     0.074 A 
ATOM     62  C   UNL A   1      45.895  30.267  31.236  1.00  0.00     0.029 A 
ATOM     63  N   UNL A   1      44.371  31.841  31.394  1.00  0.00    -0.354 N 
ATOM     64  N   UNL A   1      40.142  31.058  32.220  1.00  0.00    -0.248 NA
ATOM     65  C   UNL A   1      40.215  32.590  30.460  1.00  0.00     0.031 C 
ATOM     66  C   UNL A   1      44.931  29.905  32.224  1.00  0.00     0.029 A 
ATOM     67  C   UNL A   1      43.865  30.802  32.135  1.00  0.00     0.049 A 
ATOM     68  H   UNL A   1      44.107  32.787  31.458  1.00  0.00     0.167 HD
ATOM     69  C   UNL A   1      41.464  31.453  32.063  1.00  0.00     0.074 A 
ATOM     70  C   UNL A   1      41.433  32.452  30.993  1.00  0.00     0.031 C 
ATOM     71  C   UNL A   1      42.494  30.730  32.598  1.00  0.00     0.037 A 
BRANCH  58  72
ATOM     72  C   UNL A   1      45.406  33.124  28.703  1.00  0.00     0.058 A 
ATOM     73  C   UNL A   1      46.678  33.730  28.767  1.00  0.00     0.135 A 
ATOM     74  C   UNL A   1      44.324  34.003  28.474  1.00  0.00     0.135 A 
ATOM     75  F   UNL A   1      47.777  32.990  28.986  1.00  0.00    -0.206 F 
ATOM     76  C   UNL A   1      46.852  35.111  28.687  1.00  0.00     0.059 A 
ATOM     77  C   UNL A   1      44.482  35.376  28.333  1.00  0.00     0.059 A 
ATOM     78  F   UNL A   1      43.052  33.589  28.473  1.00  0.00    -0.206 F 
ATOM     79  C   UNL A   1      45.743  35.927  28.485  1.00  0.00     0.060 A 
BRANCH  79  80
ATOM     80  S   UNL A   1      45.948  37.715  28.485  1.00  0.00     0.124 S 
ATOM     81  O   UNL A   1      47.070  37.878  27.567  1.00  0.00    -0.237 OA
ATOM     82  O   UNL A   1      44.650  38.168  27.998  1.00  0.00    -0.237 OA
ATOM     83  O   UNL A   1      46.227  38.019  29.885  1.00  0.00    -0.744 OA
ENDBRANCH  79  80
ENDBRANCH  58  72
BRANCH  59  84
ATOM     84  C   UNL A   1      37.175  31.329  30.017  1.00  0.00     0.058 A 
ATOM     85  C   UNL A   1      36.344  31.978  30.949  1.00  0.00     0.135 A 
ATOM     86  C   UNL A   1      36.831  31.500  28.660  1.00  0.00     0.135 A 
ATOM     87  F   UNL A   1      36.606  31.887  32.261  1.00  0.00    -0.206 F 
ATOM     88  C   UNL A   1      35.269  32.786  30.557  1.00  0.00     0.059 A 
ATOM     89  C   UNL A   1      35.762  32.294  28.246  1.00  0.00     0.059 A 
ATOM     90  F   UNL A   1      37.586  30.971  27.683  1.00  0.00    -0.206 F 
ATOM     91  C   UNL A   1      34.998  32.957  29.199  1.00  0.00     0.060 A 
BRANCH  91  92
ATOM     92  S   UNL A   1      33.728  34.137  28.681  1.00  0.00     0.124 S 
ATOM     93  O   UNL A   1      33.132  34.518  29.957  1.00  0.00    -0.237 OA
ATOM     94  O   UNL A   1      34.518  35.167  28.013  1.00  0.00    -0.237 OA
ATOM     95  O   UNL A   1      32.870  33.347  27.803  1.00  0.00    -0.744 OA
ENDBRANCH  91  92
ENDBRANCH  59  84
BRANCH  71  96
ATOM     96  C   UNL A   1      42.169  29.625  33.576  1.00  0.00     0.058 A 
ATOM     97  C   UNL A   1      42.030  28.268  33.233  1.00  0.00     0.135 A 
ATOM     98  C   UNL A   1      42.164  29.934  34.944  1.00  0.00     0.135 A 
ATOM     99  F   UNL A   1      42.128  27.865  31.959  1.00  0.00    -0.206 F 
ATOM    100  C   UNL A   1      41.852  27.272  34.197  1.00  0.00     0.059 A 
ATOM    101  C   UNL A   1      42.018  28.957  35.926  1.00  0.00     0.059 A 
ATOM    102  F   UNL A   1      42.357  31.201  35.347  1.00  0.00    -0.206 F 
ATOM    103  C   UNL A   1      41.849  27.627  35.545  1.00  0.00     0.060 A 
BRANCH 103 104
ATOM    104  S   UNL A   1      41.686  26.335  36.796  1.00  0.00     0.124 S 
ATOM    105  O   UNL A   1      41.581  25.130  35.982  1.00  0.00    -0.237 OA
ATOM    106  O   UNL A   1      42.923  26.476  37.561  1.00  0.00    -0.237 OA
ATOM    107  O   UNL A   1      40.472  26.710  37.518  1.00  0.00    -0.744 OA
ENDBRANCH 103 104
ENDBRANCH  71  96
ENDBRANCH  45  46
ENDBRANCH  37  40
ENDBRANCH  35  36
ENDBRANCH  34  35
ENDBRANCH  33  34
ENDBRANCH   1  33
TORSDOF 21
ENDMDL
MODEL 2
REMARK VINA RESULT:     -11.6      2.743      9.013
REMARK SMILES NS(=O)(=O)c1ccc(-n2ccnc2-c2ccc(O)c(C(=O)NCCCCCCNC(=O)c3ccc(-c4c5nc(c(-c6c(F)cc(S(=O)(=O)[O-])cc6F)c6ccc([nH]6)c(-c6c(F)cc(S(=O)(=O)[O-])cc6F)c6nc(c(-c7c(F)cc(S(=O)(=O)[O-])cc7F)c7ccc4[nH]7)C=C6)C=C5)cc3)c2)cc1
REMARK SMILES IDX 25 1 24 2 23 3 22 4 20 5 21 6 19 8 14 9 15 10 98 11 16 12
REMARK SMILES IDX 17 13 13 14 9 15 10 16 11 17 12 18 8 19 5 20 6 21 100 22
REMARK SMILES IDX 7 23 99 24 2 25 3 26 4 27 1 28 18 31 26 33 27 34 28 35 29 36
REMARK SMILES IDX 30 37 31 39 32 40 33 41 97 42 34 43 96 44 35 45 36 46 37 47
REMARK SMILES IDX 90 48 38 49 95 50 89 51 91 52 39 53 94 54 88 55 87 56 40 58
REMARK SMILES IDX 74 59 53 60 73 61 54 62 57 63 72 64 92 65 55 66 56 67 71 69
REMARK SMILES IDX 93 70 58 71 41 72 42 73 51 74 43 75 44 76 50 77 52 78 45 79
REMARK SMILES IDX 46 80 47 81 48 82 49 83 75 84 76 85 85 86 77 87 78 88 84 89
REMARK SMILES IDX 86 90 79 91 80 92 81 93 82 94 83 95 59 96 60 97 69 98 61 99
REMARK SMILES IDX 62 100 68 101 70 102 63 103 64 104 65 105 66 106 67 107
REMARK H PARENT 22 7 1 29 1 30 18 32 29 38 91 57 57 68
REMARK Flexibility Score: inf
ROOT
ATOM      1  C   UNL A   1      35.632  31.036  28.577  1.00  0.00     0.002 C 
ENDROOT
BRANCH   1   2
ATOM      2  C   UNL A   1      35.943  29.859  27.658  1.00  0.00     0.021 C 
BRANCH   2   3
ATOM      3  C   UNL A   1      34.761  29.133  27.027  1.00  0.00     0.116 C 
BRANCH   3   4
ATOM      4  N   UNL A   1      33.665  29.983  26.584  1.00  0.00    -0.352 N 
ATOM      5  C   UNL A   1      32.435  29.684  26.030  1.00  0.00     0.255 C 
ATOM      6  O   UNL A   1      31.687  30.616  25.723  1.00  0.00    -0.269 OA
ATOM      7  H   UNL A   1      33.831  30.947  26.699  1.00  0.00     0.163 HD
BRANCH   5   8
ATOM      8  C   UNL A   1      31.975  28.297  25.727  1.00  0.00     0.082 A 
ATOM      9  C   UNL A   1      31.638  26.484  24.110  1.00  0.00     0.019 A 
ATOM     10  C   UNL A   1      30.838  25.814  25.037  1.00  0.00     0.016 A 
ATOM     11  C   UNL A   1      32.249  27.684  24.507  1.00  0.00     0.029 A 
ATOM     12  C   UNL A   1      30.674  26.334  26.326  1.00  0.00     0.048 A 
ATOM     13  C   UNL A   1      31.229  27.571  26.663  1.00  0.00     0.128 A 
BRANCH   9  14
ATOM     14  C   UNL A   1      31.708  26.053  22.699  1.00  0.00     0.144 A 
ATOM     15  N   UNL A   1      32.493  25.009  22.198  1.00  0.00    -0.300 N 
ATOM     16  C   UNL A   1      32.687  25.268  20.863  1.00  0.00     0.113 A 
ATOM     17  C   UNL A   1      31.857  26.323  20.569  1.00  0.00     0.132 A 
ATOM     18  N   UNL A   1      31.221  26.765  21.696  1.00  0.00    -0.236 NA
BRANCH  15  19
ATOM     19  C   UNL A   1      33.046  23.925  22.928  1.00  0.00     0.047 A 
ATOM     20  C   UNL A   1      33.996  21.892  24.565  1.00  0.00     0.082 A 
ATOM     21  C   UNL A   1      32.739  21.764  23.972  1.00  0.00     0.024 A 
ATOM     22  C   UNL A   1      34.793  23.018  24.328  1.00  0.00     0.024 A 
ATOM     23  C   UNL A   1      32.260  22.785  23.157  1.00  0.00     0.028 A 
ATOM     24  C   UNL A   1      34.326  24.033  23.487  1.00  0.00     0.028 A 
BRANCH  20  25
ATOM     25  S   UNL A   1      34.592  20.569  25.575  1.00  0.00     0.238 S 
ATOM     26  O   UNL A   1      34.951  19.452  24.713  1.00  0.00    -0.207 OA
ATOM     27  O   UNL A   1      33.733  20.430  26.711  1.00  0.00    -0.207 OA
BRANCH  25  28
ATOM     28  N   UNL A   1      36.060  21.149  26.148  1.00  0.00    -0.225 NA
ATOM     29  H   UNL A   1      36.484  20.453  26.761  1.00  0.00     0.137 HD
ATOM     30  H   UNL A   1      35.905  22.012  26.669  1.00  0.00     0.137 HD
ENDBRANCH  25  28
ENDBRANCH  20  25
ENDBRANCH  15  19
ENDBRANCH   9  14
BRANCH  13  31
ATOM     31  O   UNL A   1      30.994  28.017  27.937  1.00  0.00    -0.507 OA
ATOM     32  H   UNL A   1      31.624  28.558  28.369  1.00  0.00     0.293 HD
ENDBRANCH  13  31
ENDBRANCH   5   8
ENDBRANCH   3   4
ENDBRANCH   2   3
ENDBRANCH   1   2
BRANCH   1  33
ATOM     33  C   UNL A   1      36.306  32.380  28.266  1.00  0.00     0.002 C 
BRANCH  33  34
ATOM     34  C   UNL A   1      35.501  33.667  28.492  1.00  0.00     0.021 C 
BRANCH  34  35
ATOM     35  C   UNL A   1      34.488  33.600  29.623  1.00  0.00     0.116 C 
BRANCH  35  36
ATOM     36  N   UNL A   1      34.679  34.627  30.652  1.00  0.00    -0.352 N 
ATOM     37  C   UNL A   1      35.437  34.543  31.811  1.00  0.00     0.251 C 
ATOM     38  H   UNL A   1      34.212  35.481  30.502  1.00  0.00     0.163 HD
ATOM     39  O   UNL A   1      35.233  35.297  32.755  1.00  0.00    -0.269 OA
BRANCH  37  40
ATOM     40  C   UNL A   1      36.504  33.527  31.874  1.00  0.00     0.039 A 
ATOM     41  C   UNL A   1      36.260  32.166  32.080  1.00  0.00     0.014 A 
ATOM     42  C   UNL A   1      37.797  33.986  31.665  1.00  0.00     0.014 A 
ATOM     43  C   UNL A   1      37.332  31.278  31.999  1.00  0.00     0.010 A 
ATOM     44  C   UNL A   1      38.776  33.104  31.323  1.00  0.00     0.010 A 
ATOM     45  C   UNL A   1      38.589  31.762  31.606  1.00  0.00    -0.014 A 
BRANCH  45  46
ATOM     46  C   UNL A   1      39.748  30.902  31.424  1.00  0.00     0.031 A 
ATOM     47  C   UNL A   1      40.467  30.562  32.677  1.00  0.00     0.074 A 
ATOM     48  C   UNL A   1      39.982  30.259  30.256  1.00  0.00     0.049 A 
ATOM     49  N   UNL A   1      41.628  30.979  33.056  1.00  0.00    -0.248 NA
ATOM     50  C   UNL A   1      39.744  29.800  33.710  1.00  0.00     0.031 C 
ATOM     51  C   UNL A   1      39.169  30.239  29.030  1.00  0.00     0.029 A 
ATOM     52  N   UNL A   1      40.970  29.378  29.959  1.00  0.00    -0.354 N 
ATOM     53  C   UNL A   1      41.890  30.328  34.256  1.00  0.00     0.074 A 
ATOM     54  C   UNL A   1      40.627  29.807  34.711  1.00  0.00     0.031 C 
ATOM     55  C   UNL A   1      39.561  29.218  28.236  1.00  0.00     0.029 A 
ATOM     56  C   UNL A   1      40.762  28.634  28.800  1.00  0.00     0.049 A 
ATOM     57  H   UNL A   1      41.772  29.273  30.518  1.00  0.00     0.167 HD
ATOM     58  C   UNL A   1      43.167  30.048  34.642  1.00  0.00     0.037 A 
ATOM     59  C   UNL A   1      41.522  27.600  28.360  1.00  0.00     0.037 A 
ATOM     60  C   UNL A   1      44.122  30.779  33.842  1.00  0.00     0.049 A 
ATOM     61  C   UNL A   1      42.845  27.736  29.029  1.00  0.00     0.074 A 
ATOM     62  C   UNL A   1      44.346  32.119  33.588  1.00  0.00     0.029 A 
ATOM     63  N   UNL A   1      44.760  30.099  32.829  1.00  0.00    -0.354 N 
ATOM     64  N   UNL A   1      43.659  28.738  28.815  1.00  0.00    -0.248 NA
ATOM     65  C   UNL A   1      43.028  27.049  30.298  1.00  0.00     0.031 C 
ATOM     66  C   UNL A   1      44.647  32.182  32.194  1.00  0.00     0.029 A 
ATOM     67  C   UNL A   1      44.675  30.877  31.700  1.00  0.00     0.049 A 
ATOM     68  H   UNL A   1      45.196  29.220  32.901  1.00  0.00     0.167 HD
ATOM     69  C   UNL A   1      44.159  29.071  30.066  1.00  0.00     0.074 A 
ATOM     70  C   UNL A   1      43.785  27.951  30.931  1.00  0.00     0.031 C 
ATOM     71  C   UNL A   1      44.565  30.344  30.357  1.00  0.00     0.037 A 
BRANCH  58  72
ATOM     72  C   UNL A   1      43.570  28.853  35.472  1.00  0.00     0.058 A 
ATOM     73  C   UNL A   1      44.382  29.049  36.609  1.00  0.00     0.135 A 
ATOM     74  C   UNL A   1      43.422  27.513  35.053  1.00  0.00     0.135 A 
ATOM     75  F   UNL A   1      44.596  30.283  37.092  1.00  0.00    -0.206 F 
ATOM     76  C   UNL A   1      45.058  28.000  37.233  1.00  0.00     0.059 A 
ATOM     77  C   UNL A   1      44.040  26.446  35.695  1.00  0.00     0.059 A 
ATOM     78  F   UNL A   1      42.755  27.177  33.943  1.00  0.00    -0.206 F 
ATOM     79  C   UNL A   1      44.891  26.703  36.757  1.00  0.00     0.060 A 
BRANCH  79  80
ATOM     80  S   UNL A   1      45.840  25.362  37.492  1.00  0.00     0.124 S 
ATOM     81  O   UNL A   1      46.412  26.020  38.662  1.00  0.00    -0.237 OA
ATOM     82  O   UNL A   1      44.804  24.370  37.758  1.00  0.00    -0.237 OA
ATOM     83  O   UNL A   1      46.786  25.007  36.440  1.00  0.00    -0.744 OA
ENDBRANCH  79  80
ENDBRANCH  58  72
BRANCH  59  84
ATOM     84  C   UNL A   1      41.056  26.337  27.723  1.00  0.00     0.058 A 
ATOM     85  C   UNL A   1      41.793  25.717  26.699  1.00  0.00     0.135 A 
ATOM     86  C   UNL A   1      40.026  25.563  28.298  1.00  0.00     0.135 A 
ATOM     87  F   UNL A   1      42.803  26.371  26.107  1.00  0.00    -0.206 F 
ATOM     88  C   UNL A   1      41.558  24.394  26.302  1.00  0.00     0.059 A 
ATOM     89  C   UNL A   1      39.769  24.246  27.916  1.00  0.00     0.059 A 
ATOM     90  F   UNL A   1      39.294  26.033  29.320  1.00  0.00    -0.206 F 
ATOM     91  C   UNL A   1      40.556  23.657  26.933  1.00  0.00     0.060 A 
BRANCH  91  92
ATOM     92  S   UNL A   1      40.364  21.898  26.553  1.00  0.00     0.124 S 
ATOM     93  O   UNL A   1      39.014  21.853  26.005  1.00  0.00    -0.237 OA
ATOM     94  O   UNL A   1      41.446  21.669  25.600  1.00  0.00    -0.237 OA
ATOM     95  O   UNL A   1      40.533  21.251  27.851  1.00  0.00    -0.744 OA
ENDBRANCH  91  92
ENDBRANCH  59  84
BRANCH  71  96
ATOM     96  C   UNL A   1      44.697  31.337  29.225  1.00  0.00     0.058 A 
ATOM     97  C   UNL A   1      45.779  31.387  28.327  1.00  0.00     0.135 A 
ATOM     98  C   UNL A   1      43.600  32.162  28.939  1.00  0.00     0.135 A 
ATOM     99  F   UNL A   1      46.823  30.560  28.460  1.00  0.00    -0.206 F 
ATOM    100  C   UNL A   1      45.789  32.244  27.224  1.00  0.00     0.059 A 
ATOM    101  C   UNL A   1      43.574  33.004  27.829  1.00  0.00     0.059 A 
ATOM    102  F   UNL A   1      42.506  32.118  29.716  1.00  0.00    -0.206 F 
ATOM    103  C   UNL A   1      44.679  33.050  26.981  1.00  0.00     0.060 A 
BRANCH 103 104
ATOM    104  S   UNL A   1      44.661  34.110  25.519  1.00  0.00     0.124 S 
ATOM    105  O   UNL A   1      45.941  34.801  25.625  1.00  0.00    -0.237 OA
ATOM    106  O   UNL A   1      44.551  33.145  24.428  1.00  0.00    -0.237 OA
ATOM    107  O   UNL A   1      43.481  34.948  25.720  1.00  0.00    -0.744 OA
ENDBRANCH 103 104
ENDBRANCH  71  96
ENDBRANCH  45  46
ENDBRANCH  37  40
ENDBRANCH  35  36
ENDBRANCH  34  35
ENDBRANCH  33  34
ENDBRANCH   1  33
TORSDOF 21
ENDMDL
MODEL 3
REMARK VINA RESULT:     -10.8      4.149      9.721
REMARK SMILES NS(=O)(=O)c1ccc(-n2ccnc2-c2ccc(O)c(C(=O)NCCCCCCNC(=O)c3ccc(-c4c5nc(c(-c6c(F)cc(S(=O)(=O)[O-])cc6F)c6ccc([nH]6)c(-c6c(F)cc(S(=O)(=O)[O-])cc6F)c6nc(c(-c7c(F)cc(S(=O)(=O)[O-])cc7F)c7ccc4[nH]7)C=C6)C=C5)cc3)c2)cc1
REMARK SMILES IDX 25 1 24 2 23 3 22 4 20 5 21 6 19 8 14 9 15 10 98 11 16 12
REMARK SMILES IDX 17 13 13 14 9 15 10 16 11 17 12 18 8 19 5 20 6 21 100 22
REMARK SMILES IDX 7 23 99 24 2 25 3 26 4 27 1 28 18 31 26 33 27 34 28 35 29 36
REMARK SMILES IDX 30 37 31 39 32 40 33 41 97 42 34 43 96 44 35 45 36 46 37 47
REMARK SMILES IDX 90 48 38 49 95 50 89 51 91 52 39 53 94 54 88 55 87 56 40 58
REMARK SMILES IDX 74 59 53 60 73 61 54 62 57 63 72 64 92 65 55 66 56 67 71 69
REMARK SMILES IDX 93 70 58 71 41 72 42 73 51 74 43 75 44 76 50 77 52 78 45 79
REMARK SMILES IDX 46 80 47 81 48 82 49 83 75 84 76 85 85 86 77 87 78 88 84 89
REMARK SMILES IDX 86 90 79 91 80 92 81 93 82 94 83 95 59 96 60 97 69 98 61 99
REMARK SMILES IDX 62 100 68 101 70 102 63 103 64 104 65 105 66 106 67 107
REMARK H PARENT 22 7 1 29 1 30 18 32 29 38 91 57 57 68
REMARK Flexibility Score: inf
ROOT
ATOM      1  C   UNL A   1      43.503  25.775  25.143  1.00  0.00     0.002 C 
ENDROOT
BRANCH   1   2
ATOM      2  C   UNL A   1      44.328  27.018  25.459  1.00  0.00     0.021 C 
BRANCH   2   3
ATOM      3  C   UNL A   1      45.379  26.900  26.556  1.00  0.00     0.116 C 
BRANCH   3   4
ATOM      4  N   UNL A   1      44.937  26.250  27.781  1.00  0.00    -0.352 N 
ATOM      5  C   UNL A   1      45.640  25.669  28.819  1.00  0.00     0.255 C 
ATOM      6  O   UNL A   1      45.004  25.163  29.748  1.00  0.00    -0.269 OA
ATOM      7  H   UNL A   1      43.959  26.218  27.891  1.00  0.00     0.163 HD
BRANCH   5   8
ATOM      8  C   UNL A   1      47.129  25.563  28.859  1.00  0.00     0.082 A 
ATOM      9  C   UNL A   1      49.277  26.270  29.808  1.00  0.00     0.019 A 
ATOM     10  C   UNL A   1      49.942  25.637  28.756  1.00  0.00     0.016 A 
ATOM     11  C   UNL A   1      47.878  26.155  29.871  1.00  0.00     0.029 A 
ATOM     12  C   UNL A   1      49.219  24.902  27.810  1.00  0.00     0.048 A 
ATOM     13  C   UNL A   1      47.822  24.876  27.856  1.00  0.00     0.128 A 
BRANCH   9  14
ATOM     14  C   UNL A   1      49.985  27.180  30.730  1.00  0.00     0.144 A 
ATOM     15  N   UNL A   1      50.515  26.834  31.977  1.00  0.00    -0.300 N 
ATOM     16  C   UNL A   1      50.591  27.995  32.709  1.00  0.00     0.113 A 
ATOM     17  C   UNL A   1      50.308  29.006  31.822  1.00  0.00     0.132 A 
ATOM     18  N   UNL A   1      49.986  28.496  30.595  1.00  0.00    -0.236 NA
BRANCH  15  19
ATOM     19  C   UNL A   1      50.848  25.534  32.438  1.00  0.00     0.047 A 
ATOM     20  C   UNL A   1      51.462  22.904  33.092  1.00  0.00     0.082 A 
ATOM     21  C   UNL A   1      52.449  23.723  32.540  1.00  0.00     0.024 A 
ATOM     22  C   UNL A   1      50.175  23.396  33.341  1.00  0.00     0.024 A 
ATOM     23  C   UNL A   1      52.140  25.038  32.206  1.00  0.00     0.028 A 
ATOM     24  C   UNL A   1      49.870  24.725  33.032  1.00  0.00     0.028 A 
BRANCH  20  25
ATOM     25  S   UNL A   1      51.888  21.246  33.531  1.00  0.00     0.238 S 
ATOM     26  O   UNL A   1      53.245  20.980  33.076  1.00  0.00    -0.207 OA
ATOM     27  O   UNL A   1      50.783  20.388  33.228  1.00  0.00    -0.207 OA
BRANCH  25  28
ATOM     28  N   UNL A   1      52.007  21.306  35.205  1.00  0.00    -0.225 NA
ATOM     29  H   UNL A   1      51.109  21.057  35.618  1.00  0.00     0.137 HD
ATOM     30  H   UNL A   1      52.265  22.250  35.494  1.00  0.00     0.137 HD
ENDBRANCH  25  28
ENDBRANCH  20  25
ENDBRANCH  15  19
ENDBRANCH   9  14
BRANCH  13  31
ATOM     31  O   UNL A   1      47.195  24.157  26.873  1.00  0.00    -0.507 OA
ATOM     32  H   UNL A   1      46.780  24.600  26.159  1.00  0.00     0.293 HD
ENDBRANCH  13  31
ENDBRANCH   5   8
ENDBRANCH   3   4
ENDBRANCH   2   3
ENDBRANCH   1   2
BRANCH   1  33
ATOM     33  C   UNL A   1      44.260  24.461  24.900  1.00  0.00     0.002 C 
BRANCH  33  34
ATOM     34  C   UNL A   1      43.443  23.191  24.622  1.00  0.00     0.021 C 
BRANCH  34  35
ATOM     35  C   UNL A   1      42.964  22.453  25.860  1.00  0.00     0.116 C 
BRANCH  35  36
ATOM     36  N   UNL A   1      41.541  22.104  25.830  1.00  0.00    -0.352 N 
ATOM     37  C   UNL A   1      40.500  22.710  26.518  1.00  0.00     0.251 C 
ATOM     38  H   UNL A   1      41.293  21.347  25.250  1.00  0.00     0.163 HD
ATOM     39  O   UNL A   1      39.440  22.122  26.706  1.00  0.00    -0.269 OA
BRANCH  37  40
ATOM     40  C   UNL A   1      40.696  24.086  27.010  1.00  0.00     0.039 A 
ATOM     41  C   UNL A   1      40.016  25.192  26.494  1.00  0.00     0.014 A 
ATOM     42  C   UNL A   1      41.578  24.235  28.072  1.00  0.00     0.014 A 
ATOM     43  C   UNL A   1      40.188  26.429  27.116  1.00  0.00     0.010 A 
ATOM     44  C   UNL A   1      41.532  25.365  28.830  1.00  0.00     0.010 A 
ATOM     45  C   UNL A   1      40.944  26.498  28.296  1.00  0.00    -0.014 A 
BRANCH  45  46
ATOM     46  C   UNL A   1      41.119  27.727  29.054  1.00  0.00     0.031 A 
ATOM     47  C   UNL A   1      42.179  28.627  28.535  1.00  0.00     0.074 A 
ATOM     48  C   UNL A   1      40.217  28.128  29.979  1.00  0.00     0.049 A 
ATOM     49  N   UNL A   1      43.326  28.881  29.068  1.00  0.00    -0.248 NA
ATOM     50  C   UNL A   1      42.018  29.183  27.180  1.00  0.00     0.031 C 
ATOM     51  C   UNL A   1      38.942  27.503  30.363  1.00  0.00     0.029 A 
ATOM     52  N   UNL A   1      40.205  29.273  30.709  1.00  0.00    -0.354 N 
ATOM     53  C   UNL A   1      43.924  29.829  28.244  1.00  0.00     0.074 A 
ATOM     54  C   UNL A   1      43.188  29.802  27.007  1.00  0.00     0.031 C 
ATOM     55  C   UNL A   1      38.187  28.385  31.056  1.00  0.00     0.029 A 
ATOM     56  C   UNL A   1      38.990  29.561  31.326  1.00  0.00     0.049 A 
ATOM     57  H   UNL A   1      40.994  29.853  30.796  1.00  0.00     0.167 HD
ATOM     58  C   UNL A   1      44.809  30.738  28.743  1.00  0.00     0.037 A 
ATOM     59  C   UNL A   1      38.676  30.701  31.991  1.00  0.00     0.037 A 
ATOM     60  C   UNL A   1      45.243  30.366  30.069  1.00  0.00     0.049 A 
ATOM     61  C   UNL A   1      39.969  31.336  32.371  1.00  0.00     0.074 A 
ATOM     62  C   UNL A   1      45.868  29.257  30.607  1.00  0.00     0.029 A 
ATOM     63  N   UNL A   1      44.666  31.017  31.136  1.00  0.00    -0.354 N 
ATOM     64  N   UNL A   1      40.815  30.797  33.211  1.00  0.00    -0.248 NA
ATOM     65  C   UNL A   1      40.544  32.294  31.440  1.00  0.00     0.031 C 
ATOM     66  C   UNL A   1      45.207  29.030  31.850  1.00  0.00     0.029 A 
ATOM     67  C   UNL A   1      44.282  30.058  32.040  1.00  0.00     0.049 A 
ATOM     68  H   UNL A   1      44.550  31.990  31.233  1.00  0.00     0.167 HD
ATOM     69  C   UNL A   1      42.067  31.015  32.652  1.00  0.00     0.074 A 
ATOM     70  C   UNL A   1      41.840  32.002  31.595  1.00  0.00     0.031 C 
ATOM     71  C   UNL A   1      43.113  30.168  32.890  1.00  0.00     0.037 A 
BRANCH  58  72
ATOM     72  C   UNL A   1      44.997  32.136  28.204  1.00  0.00     0.058 A 
ATOM     73  C   UNL A   1      46.284  32.550  27.803  1.00  0.00     0.135 A 
ATOM     74  C   UNL A   1      44.035  33.163  28.318  1.00  0.00     0.135 A 
ATOM     75  F   UNL A   1      47.278  31.657  27.668  1.00  0.00    -0.206 F 
ATOM     76  C   UNL A   1      46.609  33.892  27.606  1.00  0.00     0.059 A 
ATOM     77  C   UNL A   1      44.322  34.500  28.070  1.00  0.00     0.059 A 
ATOM     78  F   UNL A   1      42.796  32.939  28.771  1.00  0.00    -0.206 F 
ATOM     79  C   UNL A   1      45.622  34.862  27.758  1.00  0.00     0.060 A 
BRANCH  79  80
ATOM     80  S   UNL A   1      46.060  36.600  27.607  1.00  0.00     0.124 S 
ATOM     81  O   UNL A   1      47.439  36.594  28.081  1.00  0.00    -0.237 OA
ATOM     82  O   UNL A   1      45.873  36.836  26.179  1.00  0.00    -0.237 OA
ATOM     83  O   UNL A   1      45.095  37.264  28.478  1.00  0.00    -0.744 OA
ENDBRANCH  79  80
ENDBRANCH  58  72
BRANCH  59  84
ATOM     84  C   UNL A   1      37.381  31.436  31.973  1.00  0.00     0.058 A 
ATOM     85  C   UNL A   1      36.753  31.845  33.163  1.00  0.00     0.135 A 
ATOM     86  C   UNL A   1      36.874  31.998  30.783  1.00  0.00     0.135 A 
ATOM     87  F   UNL A   1      37.182  31.377  34.345  1.00  0.00    -0.206 F 
ATOM     88  C   UNL A   1      35.720  32.791  33.178  1.00  0.00     0.059 A 
ATOM     89  C   UNL A   1      35.842  32.937  30.771  1.00  0.00     0.059 A 
ATOM     90  F   UNL A   1      37.431  31.721  29.594  1.00  0.00    -0.206 F 
ATOM     91  C   UNL A   1      35.285  33.349  31.976  1.00  0.00     0.060 A 
BRANCH  91  92
ATOM     92  S   UNL A   1      34.078  34.698  32.001  1.00  0.00     0.124 S 
ATOM     93  O   UNL A   1      33.682  34.775  30.600  1.00  0.00    -0.237 OA
ATOM     94  O   UNL A   1      33.066  34.189  32.923  1.00  0.00    -0.237 OA
ATOM     95  O   UNL A   1      34.851  35.834  32.495  1.00  0.00    -0.744 OA
ENDBRANCH  91  92
ENDBRANCH  59  84
BRANCH  71  96
ATOM     96  C   UNL A   1      42.964  29.121  33.970  1.00  0.00     0.058 A 
ATOM     97  C   UNL A   1      43.175  29.352  35.342  1.00  0.00     0.135 A 
ATOM     98  C   UNL A   1      42.422  27.878  33.614  1.00  0.00     0.135 A 
ATOM     99  F   UNL A   1      43.590  30.545  35.784  1.00  0.00    -0.206 F 
ATOM    100  C   UNL A   1      42.901  28.380  36.309  1.00  0.00     0.059 A 
ATOM    101  C   UNL A   1      42.112  26.904  34.562  1.00  0.00     0.059 A 
ATOM    102  F   UNL A   1      42.133  27.614  32.330  1.00  0.00    -0.206 F 
ATOM    103  C   UNL A   1      42.367  27.157  35.908  1.00  0.00     0.060 A 
BRANCH 103 104
ATOM    104  S   UNL A   1      41.950  25.925  37.161  1.00  0.00     0.124 S 
ATOM    105  O   UNL A   1      40.552  26.233  37.442  1.00  0.00    -0.237 OA
ATOM    106  O   UNL A   1      42.192  24.666  36.461  1.00  0.00    -0.237 OA
ATOM    107  O   UNL A   1      42.883  26.213  38.247  1.00  0.00    -0.744 OA
ENDBRANCH 103 104
ENDBRANCH  71  96
ENDBRANCH  45  46
ENDBRANCH  37  40
ENDBRANCH  35  36
ENDBRANCH  34  35
ENDBRANCH  33  34
ENDBRANCH   1  33
TORSDOF 21
ENDMDL
