MODEL 1
REMARK VINA RESULT:     -11.8      0.000      0.000
REMARK SMILES O=C(CCc1nc(-c2ccccc2)c(-c2ccccc2)o1)NCCCCCCNC(=O)c1ccc(-c2c3nc(c(-c4c(F)cc(S(=O)(=O)[O-])cc4F)c4ccc([nH]4)c(-c4c(F)cc(S(=O)(=O)[O-])cc4F)c4nc(c(-c5c(F)cc(S(=O)(=O)[O-])cc5F)c5ccc2[nH]5)C=C4)C=C3)cc1
REMARK SMILES IDX 25 1 24 2 23 3 22 4 1 5 2 6 3 8 4 9 5 10 6 11 21 12 7 13
REMARK SMILES IDX 14 14 8 15 9 16 13 17 10 18 12 19 11 20 15 21 16 22 20 23
REMARK SMILES IDX 17 24 19 25 18 26 26 27 27 28 28 29 29 30 30 31 31 33 32 34
REMARK SMILES IDX 33 35 97 36 34 37 96 38 35 39 36 40 37 41 90 42 38 43 95 44
REMARK SMILES IDX 89 45 91 46 39 47 94 48 88 49 87 50 40 52 74 53 53 54 73 55
REMARK SMILES IDX 54 56 57 57 72 58 92 59 55 60 56 61 71 63 93 64 58 65 41 66
REMARK SMILES IDX 42 67 51 68 43 69 44 70 50 71 52 72 45 73 46 74 47 75 48 76
REMARK SMILES IDX 49 77 75 78 76 79 85 80 77 81 78 82 84 83 86 84 79 85 80 86
REMARK SMILES IDX 81 87 82 88 83 89 59 90 60 91 69 92 61 93 62 94 68 95 70 96
REMARK SMILES IDX 63 97 64 98 65 99 66 100 67 101
REMARK H PARENT 22 7 29 32 91 51 57 62
REMARK Flexibility Score: inf
ROOT
ATOM      1  C   UNL A   1      32.268  28.495  26.659  1.00  0.00     0.002 C 
ENDROOT
BRANCH   1   2
ATOM      2  C   UNL A   1      31.790  29.629  25.747  1.00  0.00     0.021 C 
BRANCH   2   3
ATOM      3  C   UNL A   1      31.387  29.186  24.341  1.00  0.00     0.116 C 
BRANCH   3   4
ATOM      4  N   UNL A   1      30.947  27.807  24.321  1.00  0.00    -0.356 N 
ATOM      5  O   UNL A   1      28.999  28.139  23.153  1.00  0.00    -0.275 OA
ATOM      6  C   UNL A   1      29.787  27.391  23.722  1.00  0.00     0.220 C 
ATOM      7  H   UNL A   1      31.512  27.132  24.762  1.00  0.00     0.163 HD
BRANCH   6   8
ATOM      8  C   UNL A   1      29.540  25.901  23.825  1.00  0.00     0.110 C 
BRANCH   8   9
ATOM      9  C   UNL A   1      30.053  25.325  25.141  1.00  0.00     0.107 C 
BRANCH   9  10
ATOM     10  C   UNL A   1      31.285  24.499  24.990  1.00  0.00     0.196 A 
ATOM     11  N   UNL A   1      32.552  24.860  25.094  1.00  0.00    -0.213 NA
ATOM     12  O   UNL A   1      31.093  23.178  24.676  1.00  0.00    -0.440 OA
ATOM     13  C   UNL A   1      33.250  23.699  24.823  1.00  0.00     0.117 A 
ATOM     14  C   UNL A   1      32.359  22.668  24.587  1.00  0.00     0.162 A 
BRANCH  13  15
ATOM     15  C   UNL A   1      34.701  23.613  24.756  1.00  0.00     0.004 A 
ATOM     16  C   UNL A   1      35.498  23.794  25.901  1.00  0.00     0.010 A 
ATOM     17  C   UNL A   1      35.331  23.302  23.546  1.00  0.00     0.010 A 
ATOM     18  C   UNL A   1      36.887  23.675  25.840  1.00  0.00     0.001 A 
ATOM     19  C   UNL A   1      36.725  23.185  23.484  1.00  0.00     0.001 A 
ATOM     20  C   UNL A   1      37.500  23.369  24.630  1.00  0.00     0.000 A 
ENDBRANCH  13  15
BRANCH  14  21
ATOM     21  C   UNL A   1      32.496  21.261  24.263  1.00  0.00     0.020 A 
ATOM     22  C   UNL A   1      32.712  20.315  25.271  1.00  0.00     0.012 A 
ATOM     23  C   UNL A   1      32.238  20.820  22.956  1.00  0.00     0.012 A 
ATOM     24  C   UNL A   1      32.614  18.951  24.986  1.00  0.00     0.001 A 
ATOM     25  C   UNL A   1      32.137  19.458  22.673  1.00  0.00     0.001 A 
ATOM     26  C   UNL A   1      32.312  18.526  23.692  1.00  0.00     0.000 A 
ENDBRANCH  14  21
ENDBRANCH   9  10
ENDBRANCH   8   9
ENDBRANCH   6   8
ENDBRANCH   3   4
ENDBRANCH   2   3
ENDBRANCH   1   2
BRANCH   1  27
ATOM     27  C   UNL A   1      33.734  28.587  27.074  1.00  0.00     0.002 C 
BRANCH  27  28
ATOM     28  C   UNL A   1      34.247  29.988  27.379  1.00  0.00     0.021 C 
BRANCH  28  29
ATOM     29  C   UNL A   1      35.584  30.018  28.110  1.00  0.00     0.116 C 
BRANCH  29  30
ATOM     30  N   UNL A   1      35.469  30.424  29.506  1.00  0.00    -0.352 N 
ATOM     31  C   UNL A   1      36.444  30.484  30.479  1.00  0.00     0.251 C 
ATOM     32  H   UNL A   1      34.568  30.694  29.794  1.00  0.00     0.163 HD
ATOM     33  O   UNL A   1      36.148  30.713  31.640  1.00  0.00    -0.269 OA
BRANCH  31  34
ATOM     34  C   UNL A   1      37.853  30.235  30.094  1.00  0.00     0.039 A 
ATOM     35  C   UNL A   1      38.778  29.883  31.079  1.00  0.00     0.014 A 
ATOM     36  C   UNL A   1      38.245  30.311  28.756  1.00  0.00     0.014 A 
ATOM     37  C   UNL A   1      40.079  29.532  30.708  1.00  0.00     0.010 A 
ATOM     38  C   UNL A   1      39.508  29.872  28.381  1.00  0.00     0.010 A 
ATOM     39  C   UNL A   1      40.442  29.483  29.352  1.00  0.00    -0.014 A 
BRANCH  39  40
ATOM     40  C   UNL A   1      41.796  29.047  28.922  1.00  0.00     0.031 A 
ATOM     41  C   UNL A   1      42.916  30.052  28.853  1.00  0.00     0.074 A 
ATOM     42  C   UNL A   1      41.997  27.776  28.522  1.00  0.00     0.049 A 
ATOM     43  N   UNL A   1      44.136  29.900  28.407  1.00  0.00    -0.248 NA
ATOM     44  C   UNL A   1      42.613  31.417  29.313  1.00  0.00     0.031 C 
ATOM     45  C   UNL A   1      40.975  26.725  28.483  1.00  0.00     0.029 A 
ATOM     46  N   UNL A   1      43.128  27.152  28.057  1.00  0.00    -0.354 N 
ATOM     47  C   UNL A   1      44.739  31.147  28.523  1.00  0.00     0.074 A 
ATOM     48  C   UNL A   1      43.730  32.060  29.014  1.00  0.00     0.031 C 
ATOM     49  C   UNL A   1      41.532  25.586  28.040  1.00  0.00     0.029 A 
ATOM     50  C   UNL A   1      42.936  25.829  27.729  1.00  0.00     0.049 A 
ATOM     51  H   UNL A   1      43.996  27.608  27.968  1.00  0.00     0.167 HD
ATOM     52  C   UNL A   1      46.025  31.495  28.278  1.00  0.00     0.037 A 
ATOM     53  C   UNL A   1      43.795  24.920  27.228  1.00  0.00     0.037 A 
ATOM     54  C   UNL A   1      47.030  30.576  27.815  1.00  0.00     0.049 A 
ATOM     55  C   UNL A   1      45.223  25.327  26.979  1.00  0.00     0.074 A 
ATOM     56  C   UNL A   1      48.370  30.818  27.563  1.00  0.00     0.029 A 
ATOM     57  N   UNL A   1      46.809  29.233  27.547  1.00  0.00    -0.354 N 
ATOM     58  N   UNL A   1      45.788  26.501  27.139  1.00  0.00    -0.248 NA
ATOM     59  C   UNL A   1      46.136  24.283  26.494  1.00  0.00     0.031 C 
ATOM     60  C   UNL A   1      48.952  29.627  27.116  1.00  0.00     0.029 A 
ATOM     61  C   UNL A   1      47.987  28.633  27.132  1.00  0.00     0.049 A 
ATOM     62  H   UNL A   1      45.943  28.774  27.637  1.00  0.00     0.167 HD
ATOM     63  C   UNL A   1      47.127  26.327  26.808  1.00  0.00     0.074 A 
ATOM     64  C   UNL A   1      47.291  24.933  26.451  1.00  0.00     0.031 C 
ATOM     65  C   UNL A   1      48.132  27.238  26.801  1.00  0.00     0.037 A 
BRANCH  52  66
ATOM     66  C   UNL A   1      46.417  32.925  28.533  1.00  0.00     0.058 A 
ATOM     67  C   UNL A   1      46.891  33.340  29.789  1.00  0.00     0.135 A 
ATOM     68  C   UNL A   1      46.345  33.887  27.512  1.00  0.00     0.135 A 
ATOM     69  F   UNL A   1      46.963  32.467  30.806  1.00  0.00    -0.206 F 
ATOM     70  C   UNL A   1      47.249  34.661  30.032  1.00  0.00     0.059 A 
ATOM     71  C   UNL A   1      46.727  35.208  27.726  1.00  0.00     0.059 A 
ATOM     72  F   UNL A   1      45.899  33.547  26.292  1.00  0.00    -0.206 F 
ATOM     73  C   UNL A   1      47.164  35.588  28.994  1.00  0.00     0.060 A 
BRANCH  73  74
ATOM     74  S   UNL A   1      47.641  37.298  29.326  1.00  0.00     0.124 S 
ATOM     75  O   UNL A   1      47.826  37.272  30.773  1.00  0.00    -0.237 OA
ATOM     76  O   UNL A   1      48.859  37.441  28.535  1.00  0.00    -0.237 OA
ATOM     77  O   UNL A   1      46.497  38.069  28.853  1.00  0.00    -0.744 OA
ENDBRANCH  73  74
ENDBRANCH  52  66
BRANCH  53  78
ATOM     78  C   UNL A   1      43.340  23.531  26.952  1.00  0.00     0.058 A 
ATOM     79  C   UNL A   1      43.133  22.617  27.996  1.00  0.00     0.135 A 
ATOM     80  C   UNL A   1      43.117  23.083  25.641  1.00  0.00     0.135 A 
ATOM     81  F   UNL A   1      43.336  22.996  29.268  1.00  0.00    -0.206 F 
ATOM     82  C   UNL A   1      42.752  21.301  27.752  1.00  0.00     0.059 A 
ATOM     83  C   UNL A   1      42.708  21.781  25.372  1.00  0.00     0.059 A 
ATOM     84  F   UNL A   1      43.279  23.923  24.607  1.00  0.00    -0.206 F 
ATOM     85  C   UNL A   1      42.544  20.892  26.434  1.00  0.00     0.060 A 
BRANCH  85  86
ATOM     86  S   UNL A   1      42.030  19.188  26.126  1.00  0.00     0.124 S 
ATOM     87  O   UNL A   1      42.857  18.835  24.978  1.00  0.00    -0.237 OA
ATOM     88  O   UNL A   1      42.369  18.532  27.385  1.00  0.00    -0.237 OA
ATOM     89  O   UNL A   1      40.600  19.314  25.861  1.00  0.00    -0.744 OA
ENDBRANCH  85  86
ENDBRANCH  53  78
BRANCH  65  90
ATOM     90  C   UNL A   1      49.507  26.745  26.446  1.00  0.00     0.058 A 
ATOM     91  C   UNL A   1      50.340  26.129  27.393  1.00  0.00     0.135 A 
ATOM     92  C   UNL A   1      49.980  26.859  25.129  1.00  0.00     0.135 A 
ATOM     93  F   UNL A   1      49.937  25.999  28.666  1.00  0.00    -0.206 F 
ATOM     94  C   UNL A   1      51.609  25.672  27.052  1.00  0.00     0.059 A 
ATOM     95  C   UNL A   1      51.234  26.384  24.761  1.00  0.00     0.059 A 
ATOM     96  F   UNL A   1      49.216  27.429  24.183  1.00  0.00    -0.206 F 
ATOM     97  C   UNL A   1      52.048  25.806  25.733  1.00  0.00     0.060 A 
BRANCH  97  98
ATOM     98  S   UNL A   1      53.688  25.192  25.299  1.00  0.00     0.124 S 
ATOM     99  O   UNL A   1      54.516  25.816  26.326  1.00  0.00    -0.237 OA
ATOM    100  O   UNL A   1      53.522  23.746  25.410  1.00  0.00    -0.237 OA
ATOM    101  O   UNL A   1      53.890  25.691  23.942  1.00  0.00    -0.744 OA
ENDBRANCH  97  98
ENDBRANCH  65  90
ENDBRANCH  39  40
ENDBRANCH  31  34
ENDBRANCH  29  30
ENDBRANCH  28  29
ENDBRANCH  27  28
ENDBRANCH   1  27
TORSDOF 20
ENDMDL
MODEL 2
REMARK VINA RESULT:     -11.7      6.174     11.808
REMARK SMILES O=C(CCc1nc(-c2ccccc2)c(-c2ccccc2)o1)NCCCCCCNC(=O)c1ccc(-c2c3nc(c(-c4c(F)cc(S(=O)(=O)[O-])cc4F)c4ccc([nH]4)c(-c4c(F)cc(S(=O)(=O)[O-])cc4F)c4nc(c(-c5c(F)cc(S(=O)(=O)[O-])cc5F)c5ccc2[nH]5)C=C4)C=C3)cc1
REMARK SMILES IDX 25 1 24 2 23 3 22 4 1 5 2 6 3 8 4 9 5 10 6 11 21 12 7 13
REMARK SMILES IDX 14 14 8 15 9 16 13 17 10 18 12 19 11 20 15 21 16 22 20 23
REMARK SMILES IDX 17 24 19 25 18 26 26 27 27 28 28 29 29 30 30 31 31 33 32 34
REMARK SMILES IDX 33 35 97 36 34 37 96 38 35 39 36 40 37 41 90 42 38 43 95 44
REMARK SMILES IDX 89 45 91 46 39 47 94 48 88 49 87 50 40 52 74 53 53 54 73 55
REMARK SMILES IDX 54 56 57 57 72 58 92 59 55 60 56 61 71 63 93 64 58 65 41 66
REMARK SMILES IDX 42 67 51 68 43 69 44 70 50 71 52 72 45 73 46 74 47 75 48 76
REMARK SMILES IDX 49 77 75 78 76 79 85 80 77 81 78 82 84 83 86 84 79 85 80 86
REMARK SMILES IDX 81 87 82 88 83 89 59 90 60 91 69 92 61 93 62 94 68 95 70 96
REMARK SMILES IDX 63 97 64 98 65 99 66 100 67 101
REMARK H PARENT 22 7 29 32 91 51 57 62
REMARK Flexibility Score: inf
ROOT
ATOM      1  C   UNL A   1      37.441  23.297  25.602  1.00  0.00     0.002 C 
ENDROOT
BRANCH   1   2
ATOM      2  C   UNL A   1      35.978  23.149  26.030  1.00  0.00     0.021 C 
BRANCH   2   3
ATOM      3  C   UNL A   1      35.259  21.942  25.429  1.00  0.00     0.116 C 
BRANCH   3   4
ATOM      4  N   UNL A   1      34.408  22.323  24.322  1.00  0.00    -0.356 N 
ATOM      5  O   UNL A   1      32.799  20.714  24.623  1.00  0.00    -0.275 OA
ATOM      6  C   UNL A   1      33.239  21.681  24.009  1.00  0.00     0.220 C 
ATOM      7  H   UNL A   1      34.684  23.085  23.763  1.00  0.00     0.163 HD
BRANCH   6   8
ATOM      8  C   UNL A   1      32.517  22.262  22.813  1.00  0.00     0.110 C 
BRANCH   8   9
ATOM      9  C   UNL A   1      31.175  22.877  23.199  1.00  0.00     0.107 C 
BRANCH   9  10
ATOM     10  C   UNL A   1      31.281  24.282  23.687  1.00  0.00     0.196 A 
ATOM     11  N   UNL A   1      32.083  24.789  24.607  1.00  0.00    -0.213 NA
ATOM     12  O   UNL A   1      30.416  25.184  23.126  1.00  0.00    -0.440 OA
ATOM     13  C   UNL A   1      31.718  26.119  24.666  1.00  0.00     0.117 A 
ATOM     14  C   UNL A   1      30.713  26.365  23.748  1.00  0.00     0.162 A 
BRANCH  13  15
ATOM     15  C   UNL A   1      32.287  27.084  25.596  1.00  0.00     0.004 A 
ATOM     16  C   UNL A   1      31.571  27.522  26.725  1.00  0.00     0.010 A 
ATOM     17  C   UNL A   1      33.587  27.563  25.402  1.00  0.00     0.010 A 
ATOM     18  C   UNL A   1      32.135  28.419  27.633  1.00  0.00     0.001 A 
ATOM     19  C   UNL A   1      34.151  28.464  26.312  1.00  0.00     0.001 A 
ATOM     20  C   UNL A   1      33.426  28.889  27.426  1.00  0.00     0.000 A 
ENDBRANCH  13  15
BRANCH  14  21
ATOM     21  C   UNL A   1      29.953  27.539  23.363  1.00  0.00     0.020 A 
ATOM     22  C   UNL A   1      30.574  28.604  22.701  1.00  0.00     0.012 A 
ATOM     23  C   UNL A   1      28.557  27.538  23.497  1.00  0.00     0.012 A 
ATOM     24  C   UNL A   1      29.802  29.620  22.132  1.00  0.00     0.001 A 
ATOM     25  C   UNL A   1      27.787  28.552  22.926  1.00  0.00     0.001 A 
ATOM     26  C   UNL A   1      28.411  29.585  22.233  1.00  0.00     0.000 A 
ENDBRANCH  14  21
ENDBRANCH   9  10
ENDBRANCH   8   9
ENDBRANCH   6   8
ENDBRANCH   3   4
ENDBRANCH   2   3
ENDBRANCH   1   2
BRANCH   1  27
ATOM     27  C   UNL A   1      38.266  22.016  25.703  1.00  0.00     0.002 C 
BRANCH  27  28
ATOM     28  C   UNL A   1      39.486  22.088  26.612  1.00  0.00     0.021 C 
BRANCH  28  29
ATOM     29  C   UNL A   1      39.941  23.507  26.933  1.00  0.00     0.116 C 
BRANCH  29  30
ATOM     30  N   UNL A   1      40.901  24.036  25.970  1.00  0.00    -0.352 N 
ATOM     31  C   UNL A   1      41.613  25.216  26.009  1.00  0.00     0.251 C 
ATOM     32  H   UNL A   1      41.062  23.471  25.182  1.00  0.00     0.163 HD
ATOM     33  O   UNL A   1      42.272  25.573  25.047  1.00  0.00    -0.269 OA
BRANCH  31  34
ATOM     34  C   UNL A   1      41.539  26.055  27.228  1.00  0.00     0.039 A 
ATOM     35  C   UNL A   1      42.469  27.080  27.408  1.00  0.00     0.014 A 
ATOM     36  C   UNL A   1      40.527  25.849  28.168  1.00  0.00     0.014 A 
ATOM     37  C   UNL A   1      42.335  27.949  28.494  1.00  0.00     0.010 A 
ATOM     38  C   UNL A   1      40.340  26.769  29.192  1.00  0.00     0.010 A 
ATOM     39  C   UNL A   1      41.244  27.826  29.371  1.00  0.00    -0.014 A 
BRANCH  39  40
ATOM     40  C   UNL A   1      41.034  28.776  30.494  1.00  0.00     0.031 A 
ATOM     41  C   UNL A   1      41.875  28.658  31.738  1.00  0.00     0.074 A 
ATOM     42  C   UNL A   1      40.044  29.687  30.428  1.00  0.00     0.049 A 
ATOM     43  N   UNL A   1      41.783  29.316  32.865  1.00  0.00    -0.248 NA
ATOM     44  C   UNL A   1      42.940  27.640  31.726  1.00  0.00     0.031 C 
ATOM     45  C   UNL A   1      39.121  29.858  29.302  1.00  0.00     0.029 A 
ATOM     46  N   UNL A   1      39.637  30.635  31.333  1.00  0.00    -0.354 N 
ATOM     47  C   UNL A   1      42.764  28.786  33.694  1.00  0.00     0.074 A 
ATOM     48  C   UNL A   1      43.393  27.705  32.968  1.00  0.00     0.031 C 
ATOM     49  C   UNL A   1      38.271  30.862  29.578  1.00  0.00     0.029 A 
ATOM     50  C   UNL A   1      38.562  31.383  30.909  1.00  0.00     0.049 A 
ATOM     51  H   UNL A   1      40.073  30.768  32.206  1.00  0.00     0.167 HD
ATOM     52  C   UNL A   1      43.134  29.184  34.935  1.00  0.00     0.037 A 
ATOM     53  C   UNL A   1      37.887  32.371  31.527  1.00  0.00     0.037 A 
ATOM     54  C   UNL A   1      42.522  30.278  35.642  1.00  0.00     0.049 A 
ATOM     55  C   UNL A   1      38.327  32.807  32.899  1.00  0.00     0.074 A 
ATOM     56  C   UNL A   1      42.839  30.783  36.891  1.00  0.00     0.029 A 
ATOM     57  N   UNL A   1      41.474  31.045  35.155  1.00  0.00    -0.354 N 
ATOM     58  N   UNL A   1      39.288  32.325  33.650  1.00  0.00    -0.248 NA
ATOM     59  C   UNL A   1      37.600  33.932  33.503  1.00  0.00     0.031 C 
ATOM     60  C   UNL A   1      41.964  31.839  37.170  1.00  0.00     0.029 A 
ATOM     61  C   UNL A   1      41.132  32.019  36.078  1.00  0.00     0.049 A 
ATOM     62  H   UNL A   1      41.036  30.915  34.282  1.00  0.00     0.167 HD
ATOM     63  C   UNL A   1      39.304  33.107  34.799  1.00  0.00     0.074 A 
ATOM     64  C   UNL A   1      38.263  34.103  34.638  1.00  0.00     0.031 C 
ATOM     65  C   UNL A   1      40.105  33.014  35.888  1.00  0.00     0.037 A 
BRANCH  52  66
ATOM     66  C   UNL A   1      44.270  28.448  35.591  1.00  0.00     0.058 A 
ATOM     67  C   UNL A   1      45.603  28.852  35.411  1.00  0.00     0.135 A 
ATOM     68  C   UNL A   1      44.029  27.344  36.426  1.00  0.00     0.135 A 
ATOM     69  F   UNL A   1      45.894  29.888  34.609  1.00  0.00    -0.206 F 
ATOM     70  C   UNL A   1      46.658  28.171  36.010  1.00  0.00     0.059 A 
ATOM     71  C   UNL A   1      45.067  26.667  37.058  1.00  0.00     0.059 A 
ATOM     72  F   UNL A   1      42.774  26.913  36.632  1.00  0.00    -0.206 F 
ATOM     73  C   UNL A   1      46.380  27.080  36.832  1.00  0.00     0.060 A 
BRANCH  73  74
ATOM     74  S   UNL A   1      47.761  26.213  37.607  1.00  0.00     0.124 S 
ATOM     75  O   UNL A   1      48.059  27.090  38.734  1.00  0.00    -0.237 OA
ATOM     76  O   UNL A   1      47.169  24.924  37.947  1.00  0.00    -0.237 OA
ATOM     77  O   UNL A   1      48.773  26.176  36.556  1.00  0.00    -0.744 OA
ENDBRANCH  73  74
ENDBRANCH  52  66
BRANCH  53  78
ATOM     78  C   UNL A   1      36.741  33.034  30.848  1.00  0.00     0.058 A 
ATOM     79  C   UNL A   1      36.949  33.947  29.804  1.00  0.00     0.135 A 
ATOM     80  C   UNL A   1      35.417  32.781  31.237  1.00  0.00     0.135 A 
ATOM     81  F   UNL A   1      38.198  34.226  29.397  1.00  0.00    -0.206 F 
ATOM     82  C   UNL A   1      35.892  34.611  29.190  1.00  0.00     0.059 A 
ATOM     83  C   UNL A   1      34.339  33.410  30.620  1.00  0.00     0.059 A 
ATOM     84  F   UNL A   1      35.160  31.899  32.216  1.00  0.00    -0.206 F 
ATOM     85  C   UNL A   1      34.588  34.336  29.608  1.00  0.00     0.060 A 
BRANCH  85  86
ATOM     86  S   UNL A   1      33.219  35.186  28.792  1.00  0.00     0.124 S 
ATOM     87  O   UNL A   1      33.922  36.222  28.044  1.00  0.00    -0.237 OA
ATOM     88  O   UNL A   1      32.623  34.117  27.998  1.00  0.00    -0.237 OA
ATOM     89  O   UNL A   1      32.404  35.655  29.909  1.00  0.00    -0.744 OA
ENDBRANCH  85  86
ENDBRANCH  53  78
BRANCH  65  90
ATOM     90  C   UNL A   1      39.926  34.045  36.968  1.00  0.00     0.058 A 
ATOM     91  C   UNL A   1      40.456  35.339  36.851  1.00  0.00     0.135 A 
ATOM     92  C   UNL A   1      39.180  33.740  38.118  1.00  0.00     0.135 A 
ATOM     93  F   UNL A   1      41.179  35.679  35.773  1.00  0.00    -0.206 F 
ATOM     94  C   UNL A   1      40.280  36.287  37.854  1.00  0.00     0.059 A 
ATOM     95  C   UNL A   1      38.968  34.682  39.120  1.00  0.00     0.059 A 
ATOM     96  F   UNL A   1      38.641  32.520  38.272  1.00  0.00    -0.206 F 
ATOM     97  C   UNL A   1      39.535  35.948  38.986  1.00  0.00     0.060 A 
BRANCH  97  98
ATOM     98  S   UNL A   1      39.297  37.192  40.271  1.00  0.00     0.124 S 
ATOM     99  O   UNL A   1      38.369  36.512  41.169  1.00  0.00    -0.237 OA
ATOM    100  O   UNL A   1      40.652  37.379  40.782  1.00  0.00    -0.237 OA
ATOM    101  O   UNL A   1      38.746  38.331  39.543  1.00  0.00    -0.744 OA
ENDBRANCH  97  98
ENDBRANCH  65  90
ENDBRANCH  39  40
ENDBRANCH  31  34
ENDBRANCH  29  30
ENDBRANCH  28  29
ENDBRANCH  27  28
ENDBRANCH   1  27
TORSDOF 20
ENDMDL
MODEL 3
REMARK VINA RESULT:     -11.7      0.788      8.264
REMARK SMILES O=C(CCc1nc(-c2ccccc2)c(-c2ccccc2)o1)NCCCCCCNC(=O)c1ccc(-c2c3nc(c(-c4c(F)cc(S(=O)(=O)[O-])cc4F)c4ccc([nH]4)c(-c4c(F)cc(S(=O)(=O)[O-])cc4F)c4nc(c(-c5c(F)cc(S(=O)(=O)[O-])cc5F)c5ccc2[nH]5)C=C4)C=C3)cc1
REMARK SMILES IDX 25 1 24 2 23 3 22 4 1 5 2 6 3 8 4 9 5 10 6 11 21 12 7 13
REMARK SMILES IDX 14 14 8 15 9 16 13 17 10 18 12 19 11 20 15 21 16 22 20 23
REMARK SMILES IDX 17 24 19 25 18 26 26 27 27 28 28 29 29 30 30 31 31 33 32 34
REMARK SMILES IDX 33 35 97 36 34 37 96 38 35 39 36 40 37 41 90 42 38 43 95 44
REMARK SMILES IDX 89 45 91 46 39 47 94 48 88 49 87 50 40 52 74 53 53 54 73 55
REMARK SMILES IDX 54 56 57 57 72 58 92 59 55 60 56 61 71 63 93 64 58 65 41 66
REMARK SMILES IDX 42 67 51 68 43 69 44 70 50 71 52 72 45 73 46 74 47 75 48 76
REMARK SMILES IDX 49 77 75 78 76 79 85 80 77 81 78 82 84 83 86 84 79 85 80 86
REMARK SMILES IDX 81 87 82 88 83 89 59 90 60 91 69 92 61 93 62 94 68 95 70 96
REMARK SMILES IDX 63 97 64 98 65 99 66 100 67 101
REMARK H PARENT 22 7 29 32 91 51 57 62
REMARK Flexibility Score: inf
ROOT
ATOM      1  C   UNL A   1      32.152  28.251  26.667  1.00  0.00     0.002 C 
ENDROOT
BRANCH   1   2
ATOM      2  C   UNL A   1      31.586  29.606  26.232  1.00  0.00     0.021 C 
BRANCH   2   3
ATOM      3  C   UNL A   1      31.142  29.668  24.771  1.00  0.00     0.116 C 
BRANCH   3   4
ATOM      4  N   UNL A   1      31.276  28.383  24.116  1.00  0.00    -0.356 N 
ATOM      5  O   UNL A   1      30.329  28.977  22.111  1.00  0.00    -0.275 OA
ATOM      6  C   UNL A   1      30.863  28.141  22.833  1.00  0.00     0.220 C 
ATOM      7  H   UNL A   1      31.686  27.644  24.621  1.00  0.00     0.163 HD
BRANCH   6   8
ATOM      8  C   UNL A   1      31.112  26.724  22.361  1.00  0.00     0.110 C 
BRANCH   8   9
ATOM      9  C   UNL A   1      30.498  25.692  23.302  1.00  0.00     0.107 C 
BRANCH   9  10
ATOM     10  C   UNL A   1      31.371  24.505  23.537  1.00  0.00     0.196 A 
ATOM     11  N   UNL A   1      31.058  23.221  23.519  1.00  0.00    -0.213 NA
ATOM     12  O   UNL A   1      32.682  24.769  23.836  1.00  0.00    -0.440 OA
ATOM     13  C   UNL A   1      32.244  22.589  23.837  1.00  0.00     0.117 A 
ATOM     14  C   UNL A   1      33.240  23.532  24.011  1.00  0.00     0.162 A 
BRANCH  13  15
ATOM     15  C   UNL A   1      32.385  21.149  24.002  1.00  0.00     0.004 A 
ATOM     16  C   UNL A   1      32.645  20.581  25.263  1.00  0.00     0.010 A 
ATOM     17  C   UNL A   1      32.220  20.297  22.906  1.00  0.00     0.010 A 
ATOM     18  C   UNL A   1      32.743  19.198  25.423  1.00  0.00     0.001 A 
ATOM     19  C   UNL A   1      32.321  18.910  23.067  1.00  0.00     0.001 A 
ATOM     20  C   UNL A   1      32.580  18.363  24.324  1.00  0.00     0.000 A 
ENDBRANCH  13  15
BRANCH  14  21
ATOM     21  C   UNL A   1      34.650  23.471  24.344  1.00  0.00     0.020 A 
ATOM     22  C   UNL A   1      35.069  23.489  25.678  1.00  0.00     0.012 A 
ATOM     23  C   UNL A   1      35.592  23.218  23.335  1.00  0.00     0.012 A 
ATOM     24  C   UNL A   1      36.398  23.200  26.000  1.00  0.00     0.001 A 
ATOM     25  C   UNL A   1      36.918  22.926  23.658  1.00  0.00     0.001 A 
ATOM     26  C   UNL A   1      37.316  22.905  24.991  1.00  0.00     0.000 A 
ENDBRANCH  14  21
ENDBRANCH   9  10
ENDBRANCH   8   9
ENDBRANCH   6   8
ENDBRANCH   3   4
ENDBRANCH   2   3
ENDBRANCH   1   2
BRANCH   1  27
ATOM     27  C   UNL A   1      33.675  28.198  26.763  1.00  0.00     0.002 C 
BRANCH  27  28
ATOM     28  C   UNL A   1      34.359  29.514  27.108  1.00  0.00     0.021 C 
BRANCH  28  29
ATOM     29  C   UNL A   1      35.661  29.355  27.884  1.00  0.00     0.116 C 
BRANCH  29  30
ATOM     30  N   UNL A   1      35.529  29.669  29.302  1.00  0.00    -0.352 N 
ATOM     31  C   UNL A   1      36.506  29.751  30.271  1.00  0.00     0.251 C 
ATOM     32  H   UNL A   1      34.613  29.848  29.611  1.00  0.00     0.163 HD
ATOM     33  O   UNL A   1      36.205  29.887  31.445  1.00  0.00    -0.269 OA
BRANCH  31  34
ATOM     34  C   UNL A   1      37.927  29.640  29.864  1.00  0.00     0.039 A 
ATOM     35  C   UNL A   1      38.870  29.195  30.791  1.00  0.00     0.014 A 
ATOM     36  C   UNL A   1      38.313  29.939  28.555  1.00  0.00     0.014 A 
ATOM     37  C   UNL A   1      40.188  28.975  30.382  1.00  0.00     0.010 A 
ATOM     38  C   UNL A   1      39.598  29.631  28.128  1.00  0.00     0.010 A 
ATOM     39  C   UNL A   1      40.552  29.152  29.036  1.00  0.00    -0.014 A 
BRANCH  39  40
ATOM     40  C   UNL A   1      41.928  28.860  28.555  1.00  0.00     0.031 A 
ATOM     41  C   UNL A   1      42.292  27.459  28.140  1.00  0.00     0.074 A 
ATOM     42  C   UNL A   1      42.863  29.831  28.566  1.00  0.00     0.049 A 
ATOM     43  N   UNL A   1      43.457  26.976  27.791  1.00  0.00    -0.248 NA
ATOM     44  C   UNL A   1      41.210  26.460  28.151  1.00  0.00     0.031 C 
ATOM     45  C   UNL A   1      42.649  31.213  29.007  1.00  0.00     0.029 A 
ATOM     46  N   UNL A   1      44.188  29.802  28.210  1.00  0.00    -0.354 N 
ATOM     47  C   UNL A   1      43.249  25.622  27.554  1.00  0.00     0.074 A 
ATOM     48  C   UNL A   1      41.865  25.346  27.867  1.00  0.00     0.031 C 
ATOM     49  C   UNL A   1      43.795  31.900  28.874  1.00  0.00     0.029 A 
ATOM     50  C   UNL A   1      44.834  31.005  28.376  1.00  0.00     0.049 A 
ATOM     51  H   UNL A   1      44.635  28.994  27.866  1.00  0.00     0.167 HD
ATOM     52  C   UNL A   1      44.122  24.699  27.086  1.00  0.00     0.037 A 
ATOM     53  C   UNL A   1      46.119  31.345  28.156  1.00  0.00     0.037 A 
ATOM     54  C   UNL A   1      45.492  24.986  26.751  1.00  0.00     0.049 A 
ATOM     55  C   UNL A   1      47.066  30.305  27.619  1.00  0.00     0.074 A 
ATOM     56  C   UNL A   1      46.453  24.131  26.241  1.00  0.00     0.029 A 
ATOM     57  N   UNL A   1      46.092  26.230  26.882  1.00  0.00    -0.354 N 
ATOM     58  N   UNL A   1      46.840  29.039  27.357  1.00  0.00    -0.248 NA
ATOM     59  C   UNL A   1      48.440  30.741  27.335  1.00  0.00     0.031 C 
ATOM     60  C   UNL A   1      47.642  24.852  26.089  1.00  0.00     0.029 A 
ATOM     61  C   UNL A   1      47.410  26.165  26.462  1.00  0.00     0.049 A 
ATOM     62  H   UNL A   1      45.648  27.039  27.223  1.00  0.00     0.167 HD
ATOM     63  C   UNL A   1      48.032  28.538  26.846  1.00  0.00     0.074 A 
ATOM     64  C   UNL A   1      48.972  29.640  26.824  1.00  0.00     0.031 C 
ATOM     65  C   UNL A   1      48.324  27.280  26.430  1.00  0.00     0.037 A 
BRANCH  52  66
ATOM     66  C   UNL A   1      43.609  23.299  26.883  1.00  0.00     0.058 A 
ATOM     67  C   UNL A   1      43.375  22.786  25.597  1.00  0.00     0.135 A 
ATOM     68  C   UNL A   1      43.371  22.452  27.978  1.00  0.00     0.135 A 
ATOM     69  F   UNL A   1      43.566  23.558  24.515  1.00  0.00    -0.206 F 
ATOM     70  C   UNL A   1      42.894  21.495  25.403  1.00  0.00     0.059 A 
ATOM     71  C   UNL A   1      42.919  21.147  27.805  1.00  0.00     0.059 A 
ATOM     72  F   UNL A   1      43.576  22.890  29.230  1.00  0.00    -0.206 F 
ATOM     73  C   UNL A   1      42.669  20.683  26.514  1.00  0.00     0.060 A 
BRANCH  73  74
ATOM     74  S   UNL A   1      42.053  19.007  26.244  1.00  0.00     0.124 S 
ATOM     75  O   UNL A   1      42.224  18.418  27.567  1.00  0.00    -0.237 OA
ATOM     76  O   UNL A   1      40.675  19.245  25.830  1.00  0.00    -0.237 OA
ATOM     77  O   UNL A   1      42.935  18.484  25.205  1.00  0.00    -0.744 OA
ENDBRANCH  73  74
ENDBRANCH  52  66
BRANCH  53  78
ATOM     78  C   UNL A   1      46.583  32.735  28.417  1.00  0.00     0.058 A 
ATOM     79  C   UNL A   1      47.066  33.110  29.680  1.00  0.00     0.135 A 
ATOM     80  C   UNL A   1      46.540  33.718  27.418  1.00  0.00     0.135 A 
ATOM     81  F   UNL A   1      47.123  32.207  30.671  1.00  0.00    -0.206 F 
ATOM     82  C   UNL A   1      47.460  34.416  29.953  1.00  0.00     0.059 A 
ATOM     83  C   UNL A   1      46.955  35.024  27.657  1.00  0.00     0.059 A 
ATOM     84  F   UNL A   1      46.107  33.407  26.185  1.00  0.00    -0.206 F 
ATOM     85  C   UNL A   1      47.397  35.368  28.934  1.00  0.00     0.060 A 
BRANCH  85  86
ATOM     86  S   UNL A   1      47.931  37.056  29.291  1.00  0.00     0.124 S 
ATOM     87  O   UNL A   1      46.666  37.781  29.237  1.00  0.00    -0.237 OA
ATOM     88  O   UNL A   1      48.531  36.916  30.614  1.00  0.00    -0.237 OA
ATOM     89  O   UNL A   1      48.871  37.345  28.212  1.00  0.00    -0.744 OA
ENDBRANCH  85  86
ENDBRANCH  53  78
BRANCH  65  90
ATOM     90  C   UNL A   1      49.697  27.041  25.867  1.00  0.00     0.058 A 
ATOM     91  C   UNL A   1      50.772  26.647  26.678  1.00  0.00     0.135 A 
ATOM     92  C   UNL A   1      49.928  27.175  24.488  1.00  0.00     0.135 A 
ATOM     93  F   UNL A   1      50.605  26.509  28.003  1.00  0.00    -0.206 F 
ATOM     94  C   UNL A   1      52.038  26.424  26.146  1.00  0.00     0.059 A 
ATOM     95  C   UNL A   1      51.178  26.930  23.932  1.00  0.00     0.059 A 
ATOM     96  F   UNL A   1      48.930  27.538  23.667  1.00  0.00    -0.206 F 
ATOM     97  C   UNL A   1      52.231  26.570  24.771  1.00  0.00     0.060 A 
BRANCH  97  98
ATOM     98  S   UNL A   1      53.873  26.260  24.089  1.00  0.00     0.124 S 
ATOM     99  O   UNL A   1      54.219  24.992  24.723  1.00  0.00    -0.237 OA
ATOM    100  O   UNL A   1      53.612  26.202  22.654  1.00  0.00    -0.237 OA
ATOM    101  O   UNL A   1      54.649  27.415  24.532  1.00  0.00    -0.744 OA
ENDBRANCH  97  98
ENDBRANCH  65  90
ENDBRANCH  39  40
ENDBRANCH  31  34
ENDBRANCH  29  30
ENDBRANCH  28  29
ENDBRANCH  27  28
ENDBRANCH   1  27
TORSDOF 20
ENDMDL
