MODEL 1
REMARK VINA RESULT:     -11.5      0.000      0.000
REMARK SMILES CCOc1ccc(N2C[C@H](C(=O)NCCCCCCNC(=O)c3ccc(-c4c5nc(c(-c6c(F)cc(S(=O)(=O)[O-])cc6F)c6ccc([nH]6)c(-c6c(F)cc(S(=O)(=O)[O-])cc6F)c6nc(c(-c7c(F)cc(S(=O)(=O)[O-])cc7F)c7ccc4[nH]7)C=C6)C=C5)cc3)CC2=O)cc1C(F)(F)F
REMARK SMILES IDX 16 1 15 2 14 3 13 4 11 5 12 6 10 8 8 9 9 10 90 11 89 12
REMARK SMILES IDX 91 13 7 14 4 15 5 16 93 17 6 18 92 19 3 20 2 21 1 22 94 23
REMARK SMILES IDX 95 24 96 25 97 26 17 27 18 28 19 29 20 30 21 31 22 33 23 34
REMARK SMILES IDX 24 35 88 36 25 37 87 38 26 39 27 40 28 41 81 42 29 43 86 44
REMARK SMILES IDX 80 45 82 46 30 47 85 48 79 49 78 50 31 52 65 53 44 54 64 55
REMARK SMILES IDX 45 56 48 57 63 58 83 59 46 60 47 61 62 63 84 64 49 65 32 66
REMARK SMILES IDX 33 67 42 68 34 69 35 70 41 71 43 72 36 73 37 74 38 75 39 76
REMARK SMILES IDX 40 77 66 78 67 79 76 80 68 81 69 82 75 83 77 84 70 85 71 86
REMARK SMILES IDX 72 87 73 88 74 89 50 90 51 91 60 92 52 93 53 94 59 95 61 96
REMARK SMILES IDX 54 97 55 98 56 99 57 100 58 101
REMARK H PARENT 13 7 20 32 82 51 48 62
REMARK Flexibility Score: inf
ROOT
ATOM      1  C   UNL A   1      32.257  29.700  26.927  1.00  0.00     0.002 C 
ENDROOT
BRANCH   1   2
ATOM      2  C   UNL A   1      31.522  30.819  26.183  1.00  0.00     0.021 C 
BRANCH   2   3
ATOM      3  C   UNL A   1      30.907  30.369  24.858  1.00  0.00     0.116 C 
BRANCH   3   4
ATOM      4  N   UNL A   1      29.945  31.336  24.365  1.00  0.00    -0.356 N 
ATOM      5  C   UNL A   1      29.079  31.310  23.322  1.00  0.00     0.225 C 
ATOM      6  O   UNL A   1      28.391  32.321  23.141  1.00  0.00    -0.275 OA
ATOM      7  H   UNL A   1      29.915  32.171  24.887  1.00  0.00     0.163 HD
BRANCH   5   8
ATOM      8  C   UNL A   1      28.898  30.115  22.398  1.00  0.00     0.107 C 
ATOM      9  N   UNL A   1      29.963  28.033  22.747  1.00  0.00    -0.312 N 
ATOM     10  C   UNL A   1      30.159  29.323  22.124  1.00  0.00     0.139 C 
ATOM     11  C   UNL A   1      28.635  27.861  23.160  1.00  0.00     0.227 C 
ATOM     12  C   UNL A   1      27.863  29.119  22.880  1.00  0.00     0.116 C 
ATOM     13  O   UNL A   1      28.119  26.903  23.725  1.00  0.00    -0.274 OA
BRANCH   9  14
ATOM     14  C   UNL A   1      31.025  27.116  22.998  1.00  0.00     0.044 A 
ATOM     15  C   UNL A   1      33.275  25.502  23.574  1.00  0.00     0.131 A 
ATOM     16  C   UNL A   1      33.023  25.923  22.268  1.00  0.00     0.049 A 
ATOM     17  C   UNL A   1      32.413  25.868  24.607  1.00  0.00     0.100 A 
ATOM     18  C   UNL A   1      31.895  26.703  21.980  1.00  0.00     0.030 A 
ATOM     19  C   UNL A   1      31.285  26.652  24.293  1.00  0.00     0.043 A 
BRANCH  15  20
ATOM     20  O   UNL A   1      34.444  24.860  23.856  1.00  0.00    -0.493 OA
BRANCH  20  21
ATOM     21  C   UNL A   1      34.442  23.470  23.505  1.00  0.00     0.226 C 
ATOM     22  C   UNL A   1      35.864  23.005  23.245  1.00  0.00     0.049 C 
ENDBRANCH  20  21
ENDBRANCH  15  20
BRANCH  17  23
ATOM     23  C   UNL A   1      32.606  25.421  26.034  1.00  0.00     0.420 C 
ATOM     24  F   UNL A   1      33.871  25.656  26.487  1.00  0.00    -0.166 F 
ATOM     25  F   UNL A   1      31.787  26.103  26.887  1.00  0.00    -0.166 F 
ATOM     26  F   UNL A   1      32.379  24.102  26.263  1.00  0.00    -0.166 F 
ENDBRANCH  17  23
ENDBRANCH   9  14
ENDBRANCH   5   8
ENDBRANCH   3   4
ENDBRANCH   2   3
ENDBRANCH   1   2
BRANCH   1  27
ATOM     27  C   UNL A   1      33.391  29.036  26.135  1.00  0.00     0.002 C 
BRANCH  27  28
ATOM     28  C   UNL A   1      34.642  28.694  26.949  1.00  0.00     0.021 C 
BRANCH  28  29
ATOM     29  C   UNL A   1      35.436  29.903  27.434  1.00  0.00     0.116 C 
BRANCH  29  30
ATOM     30  N   UNL A   1      35.358  30.049  28.879  1.00  0.00    -0.352 N 
ATOM     31  C   UNL A   1      36.293  29.756  29.838  1.00  0.00     0.251 C 
ATOM     32  H   UNL A   1      34.509  30.414  29.218  1.00  0.00     0.163 HD
ATOM     33  O   UNL A   1      35.956  29.708  31.017  1.00  0.00    -0.269 OA
BRANCH  31  34
ATOM     34  C   UNL A   1      37.698  29.499  29.455  1.00  0.00     0.039 A 
ATOM     35  C   UNL A   1      38.081  29.683  28.124  1.00  0.00     0.014 A 
ATOM     36  C   UNL A   1      38.624  29.031  30.393  1.00  0.00     0.014 A 
ATOM     37  C   UNL A   1      39.398  29.424  27.740  1.00  0.00     0.010 A 
ATOM     38  C   UNL A   1      39.954  28.848  30.026  1.00  0.00     0.010 A 
ATOM     39  C   UNL A   1      40.349  29.019  28.691  1.00  0.00    -0.014 A 
BRANCH  39  40
ATOM     40  C   UNL A   1      41.751  28.726  28.297  1.00  0.00     0.031 A 
ATOM     41  C   UNL A   1      42.144  27.325  27.908  1.00  0.00     0.074 A 
ATOM     42  C   UNL A   1      42.675  29.705  28.334  1.00  0.00     0.049 A 
ATOM     43  N   UNL A   1      43.321  26.856  27.581  1.00  0.00    -0.248 NA
ATOM     44  C   UNL A   1      41.077  26.310  27.912  1.00  0.00     0.031 C 
ATOM     45  C   UNL A   1      42.425  31.090  28.740  1.00  0.00     0.029 A 
ATOM     46  N   UNL A   1      44.013  29.685  28.032  1.00  0.00    -0.354 N 
ATOM     47  C   UNL A   1      43.140  25.496  27.358  1.00  0.00     0.074 A 
ATOM     48  C   UNL A   1      41.752  25.203  27.641  1.00  0.00     0.031 C 
ATOM     49  C   UNL A   1      43.566  31.790  28.641  1.00  0.00     0.029 A 
ATOM     50  C   UNL A   1      44.636  30.900  28.199  1.00  0.00     0.049 A 
ATOM     51  H   UNL A   1      44.484  28.876  27.725  1.00  0.00     0.167 HD
ATOM     52  C   UNL A   1      44.041  24.579  26.932  1.00  0.00     0.037 A 
ATOM     53  C   UNL A   1      45.923  31.254  28.019  1.00  0.00     0.037 A 
ATOM     54  C   UNL A   1      45.415  24.885  26.628  1.00  0.00     0.049 A 
ATOM     55  C   UNL A   1      46.903  30.221  27.530  1.00  0.00     0.074 A 
ATOM     56  C   UNL A   1      46.399  24.041  26.143  1.00  0.00     0.029 A 
ATOM     57  N   UNL A   1      45.999  26.136  26.775  1.00  0.00    -0.354 N 
ATOM     58  N   UNL A   1      46.702  28.950  27.271  1.00  0.00    -0.248 NA
ATOM     59  C   UNL A   1      48.280  30.673  27.295  1.00  0.00     0.031 C 
ATOM     60  C   UNL A   1      47.587  24.770  26.039  1.00  0.00     0.029 A 
ATOM     61  C   UNL A   1      47.332  26.083  26.403  1.00  0.00     0.049 A 
ATOM     62  H   UNL A   1      45.534  26.942  27.098  1.00  0.00     0.167 HD
ATOM     63  C   UNL A   1      47.918  28.461  26.805  1.00  0.00     0.074 A 
ATOM     64  C   UNL A   1      48.845  29.574  26.811  1.00  0.00     0.031 C 
ATOM     65  C   UNL A   1      48.237  27.206  26.400  1.00  0.00     0.037 A 
BRANCH  52  66
ATOM     66  C   UNL A   1      43.569  23.159  26.767  1.00  0.00     0.058 A 
ATOM     67  C   UNL A   1      43.274  22.344  27.873  1.00  0.00     0.135 A 
ATOM     68  C   UNL A   1      43.383  22.612  25.487  1.00  0.00     0.135 A 
ATOM     69  F   UNL A   1      43.448  22.808  29.120  1.00  0.00    -0.206 F 
ATOM     70  C   UNL A   1      42.841  21.031  27.716  1.00  0.00     0.059 A 
ATOM     71  C   UNL A   1      42.922  21.311  25.306  1.00  0.00     0.059 A 
ATOM     72  F   UNL A   1      43.651  23.342  24.393  1.00  0.00    -0.206 F 
ATOM     73  C   UNL A   1      42.669  20.523  26.428  1.00  0.00     0.060 A 
BRANCH  73  74
ATOM     74  S   UNL A   1      42.107  18.817  26.242  1.00  0.00     0.124 S 
ATOM     75  O   UNL A   1      40.727  19.011  25.809  1.00  0.00    -0.237 OA
ATOM     76  O   UNL A   1      43.021  18.295  25.231  1.00  0.00    -0.237 OA
ATOM     77  O   UNL A   1      42.270  18.258  27.580  1.00  0.00    -0.744 OA
ENDBRANCH  73  74
ENDBRANCH  52  66
BRANCH  53  78
ATOM     78  C   UNL A   1      46.349  32.657  28.267  1.00  0.00     0.058 A 
ATOM     79  C   UNL A   1      46.260  33.629  27.260  1.00  0.00     0.135 A 
ATOM     80  C   UNL A   1      46.844  33.058  29.518  1.00  0.00     0.135 A 
ATOM     81  F   UNL A   1      45.797  33.294  26.045  1.00  0.00    -0.206 F 
ATOM     82  C   UNL A   1      46.666  34.942  27.473  1.00  0.00     0.059 A 
ATOM     83  C   UNL A   1      47.231  34.373  29.765  1.00  0.00     0.059 A 
ATOM     84  F   UNL A   1      46.933  32.172  30.522  1.00  0.00    -0.206 F 
ATOM     85  C   UNL A   1      47.148  35.305  28.731  1.00  0.00     0.060 A 
BRANCH  85  86
ATOM     86  S   UNL A   1      47.634  37.022  29.009  1.00  0.00     0.124 S 
ATOM     87  O   UNL A   1      47.874  37.031  30.447  1.00  0.00    -0.237 OA
ATOM     88  O   UNL A   1      48.817  37.146  28.163  1.00  0.00    -0.237 OA
ATOM     89  O   UNL A   1      46.469  37.778  28.558  1.00  0.00    -0.744 OA
ENDBRANCH  85  86
ENDBRANCH  53  78
BRANCH  65  90
ATOM     90  C   UNL A   1      49.629  26.981  25.874  1.00  0.00     0.058 A 
ATOM     91  C   UNL A   1      50.668  26.508  26.689  1.00  0.00     0.135 A 
ATOM     92  C   UNL A   1      49.913  27.213  24.518  1.00  0.00     0.135 A 
ATOM     93  F   UNL A   1      50.451  26.272  27.993  1.00  0.00    -0.206 F 
ATOM     94  C   UNL A   1      51.950  26.308  26.188  1.00  0.00     0.059 A 
ATOM     95  C   UNL A   1      51.180  26.990  23.988  1.00  0.00     0.059 A 
ATOM     96  F   UNL A   1      48.952  27.653  23.690  1.00  0.00    -0.206 F 
ATOM     97  C   UNL A   1      52.197  26.553  24.836  1.00  0.00     0.060 A 
BRANCH  97  98
ATOM     98  S   UNL A   1      53.861  26.278  24.193  1.00  0.00     0.124 S 
ATOM     99  O   UNL A   1      54.560  27.467  24.669  1.00  0.00    -0.237 OA
ATOM    100  O   UNL A   1      54.239  25.022  24.832  1.00  0.00    -0.237 OA
ATOM    101  O   UNL A   1      53.660  26.204  22.749  1.00  0.00    -0.744 OA
ENDBRANCH  97  98
ENDBRANCH  65  90
ENDBRANCH  39  40
ENDBRANCH  31  34
ENDBRANCH  29  30
ENDBRANCH  28  29
ENDBRANCH  27  28
ENDBRANCH   1  27
TORSDOF 20
ENDMDL
MODEL 2
REMARK VINA RESULT:     -11.3      1.442      8.263
REMARK SMILES CCOc1ccc(N2C[C@H](C(=O)NCCCCCCNC(=O)c3ccc(-c4c5nc(c(-c6c(F)cc(S(=O)(=O)[O-])cc6F)c6ccc([nH]6)c(-c6c(F)cc(S(=O)(=O)[O-])cc6F)c6nc(c(-c7c(F)cc(S(=O)(=O)[O-])cc7F)c7ccc4[nH]7)C=C6)C=C5)cc3)CC2=O)cc1C(F)(F)F
REMARK SMILES IDX 16 1 15 2 14 3 13 4 11 5 12 6 10 8 8 9 9 10 90 11 89 12
REMARK SMILES IDX 91 13 7 14 4 15 5 16 93 17 6 18 92 19 3 20 2 21 1 22 94 23
REMARK SMILES IDX 95 24 96 25 97 26 17 27 18 28 19 29 20 30 21 31 22 33 23 34
REMARK SMILES IDX 24 35 88 36 25 37 87 38 26 39 27 40 28 41 81 42 29 43 86 44
REMARK SMILES IDX 80 45 82 46 30 47 85 48 79 49 78 50 31 52 65 53 44 54 64 55
REMARK SMILES IDX 45 56 48 57 63 58 83 59 46 60 47 61 62 63 84 64 49 65 32 66
REMARK SMILES IDX 33 67 42 68 34 69 35 70 41 71 43 72 36 73 37 74 38 75 39 76
REMARK SMILES IDX 40 77 66 78 67 79 76 80 68 81 69 82 75 83 77 84 70 85 71 86
REMARK SMILES IDX 72 87 73 88 74 89 50 90 51 91 60 92 52 93 53 94 59 95 61 96
REMARK SMILES IDX 54 97 55 98 56 99 57 100 58 101
REMARK H PARENT 13 7 20 32 82 51 48 62
REMARK Flexibility Score: inf
ROOT
ATOM      1  C   UNL A   1      32.950  29.602  26.810  1.00  0.00     0.002 C 
ENDROOT
BRANCH   1   2
ATOM      2  C   UNL A   1      31.950  29.053  25.788  1.00  0.00     0.021 C 
BRANCH   2   3
ATOM      3  C   UNL A   1      32.546  28.861  24.394  1.00  0.00     0.116 C 
BRANCH   3   4
ATOM      4  N   UNL A   1      31.712  29.466  23.373  1.00  0.00    -0.356 N 
ATOM      5  C   UNL A   1      30.781  28.950  22.533  1.00  0.00     0.225 C 
ATOM      6  O   UNL A   1      30.246  29.735  21.742  1.00  0.00    -0.275 OA
ATOM      7  H   UNL A   1      31.847  30.436  23.270  1.00  0.00     0.163 HD
BRANCH   5   8
ATOM      8  C   UNL A   1      30.354  27.490  22.531  1.00  0.00     0.107 C 
ATOM      9  N   UNL A   1      31.417  25.827  23.834  1.00  0.00    -0.312 N 
ATOM     10  C   UNL A   1      31.492  26.492  22.552  1.00  0.00     0.139 C 
ATOM     11  C   UNL A   1      30.222  26.131  24.498  1.00  0.00     0.227 C 
ATOM     12  C   UNL A   1      29.438  27.118  23.680  1.00  0.00     0.116 C 
ATOM     13  O   UNL A   1      29.831  25.754  25.597  1.00  0.00    -0.274 OA
BRANCH   9  14
ATOM     14  C   UNL A   1      32.484  25.054  24.378  1.00  0.00     0.044 A 
ATOM     15  C   UNL A   1      34.464  23.513  25.683  1.00  0.00     0.131 A 
ATOM     16  C   UNL A   1      34.604  24.897  25.573  1.00  0.00     0.049 A 
ATOM     17  C   UNL A   1      33.349  22.876  25.142  1.00  0.00     0.100 A 
ATOM     18  C   UNL A   1      33.634  25.656  24.905  1.00  0.00     0.030 A 
ATOM     19  C   UNL A   1      32.386  23.660  24.475  1.00  0.00     0.043 A 
BRANCH  15  20
ATOM     20  O   UNL A   1      35.347  22.810  26.449  1.00  0.00    -0.493 OA
BRANCH  20  21
ATOM     21  C   UNL A   1      36.463  22.289  25.717  1.00  0.00     0.226 C 
ATOM     22  C   UNL A   1      37.647  23.230  25.850  1.00  0.00     0.049 C 
ENDBRANCH  20  21
ENDBRANCH  15  20
BRANCH  17  23
ATOM     23  C   UNL A   1      33.151  21.382  25.194  1.00  0.00     0.420 C 
ATOM     24  F   UNL A   1      33.485  20.854  26.408  1.00  0.00    -0.166 F 
ATOM     25  F   UNL A   1      31.843  21.044  25.004  1.00  0.00    -0.166 F 
ATOM     26  F   UNL A   1      33.864  20.671  24.283  1.00  0.00    -0.166 F 
ENDBRANCH  17  23
ENDBRANCH   9  14
ENDBRANCH   5   8
ENDBRANCH   3   4
ENDBRANCH   2   3
ENDBRANCH   1   2
BRANCH   1  27
ATOM     27  C   UNL A   1      34.319  28.910  26.809  1.00  0.00     0.002 C 
BRANCH  27  28
ATOM     28  C   UNL A   1      35.221  29.246  28.001  1.00  0.00     0.021 C 
BRANCH  28  29
ATOM     29  C   UNL A   1      35.428  30.738  28.240  1.00  0.00     0.116 C 
BRANCH  29  30
ATOM     30  N   UNL A   1      35.494  31.049  29.659  1.00  0.00    -0.352 N 
ATOM     31  C   UNL A   1      36.477  30.762  30.571  1.00  0.00     0.251 C 
ATOM     32  H   UNL A   1      34.719  31.538  30.018  1.00  0.00     0.163 HD
ATOM     33  O   UNL A   1      36.244  30.880  31.770  1.00  0.00    -0.269 OA
BRANCH  31  34
ATOM     34  C   UNL A   1      37.811  30.315  30.113  1.00  0.00     0.039 A 
ATOM     35  C   UNL A   1      38.617  29.586  30.990  1.00  0.00     0.014 A 
ATOM     36  C   UNL A   1      38.285  30.657  28.842  1.00  0.00     0.014 A 
ATOM     37  C   UNL A   1      39.888  29.176  30.582  1.00  0.00     0.010 A 
ATOM     38  C   UNL A   1      39.519  30.181  28.410  1.00  0.00     0.010 A 
ATOM     39  C   UNL A   1      40.343  29.457  29.283  1.00  0.00    -0.014 A 
BRANCH  39  40
ATOM     40  C   UNL A   1      41.697  29.039  28.838  1.00  0.00     0.031 A 
ATOM     41  C   UNL A   1      42.814  30.049  28.784  1.00  0.00     0.074 A 
ATOM     42  C   UNL A   1      41.910  27.770  28.442  1.00  0.00     0.049 A 
ATOM     43  N   UNL A   1      44.049  29.896  28.379  1.00  0.00    -0.248 NA
ATOM     44  C   UNL A   1      42.492  31.419  29.217  1.00  0.00     0.031 C 
ATOM     45  C   UNL A   1      40.896  26.713  28.405  1.00  0.00     0.029 A 
ATOM     46  N   UNL A   1      43.048  27.152  27.987  1.00  0.00    -0.354 N 
ATOM     47  C   UNL A   1      44.644  31.148  28.493  1.00  0.00     0.074 A 
ATOM     48  C   UNL A   1      43.620  32.062  28.950  1.00  0.00     0.031 C 
ATOM     49  C   UNL A   1      41.462  25.575  27.973  1.00  0.00     0.029 A 
ATOM     50  C   UNL A   1      42.868  25.827  27.670  1.00  0.00     0.049 A 
ATOM     51  H   UNL A   1      43.912  27.615  27.896  1.00  0.00     0.167 HD
ATOM     52  C   UNL A   1      45.931  31.499  28.262  1.00  0.00     0.037 A 
ATOM     53  C   UNL A   1      43.737  24.918  27.186  1.00  0.00     0.037 A 
ATOM     54  C   UNL A   1      46.950  30.577  27.831  1.00  0.00     0.049 A 
ATOM     55  C   UNL A   1      45.166  25.328  26.951  1.00  0.00     0.074 A 
ATOM     56  C   UNL A   1      48.294  30.819  27.614  1.00  0.00     0.029 A 
ATOM     57  N   UNL A   1      46.736  29.234  27.554  1.00  0.00    -0.354 N 
ATOM     58  N   UNL A   1      45.726  26.504  27.117  1.00  0.00    -0.248 NA
ATOM     59  C   UNL A   1      46.086  24.286  26.479  1.00  0.00     0.031 C 
ATOM     60  C   UNL A   1      48.885  29.633  27.165  1.00  0.00     0.029 A 
ATOM     61  C   UNL A   1      47.921  28.637  27.157  1.00  0.00     0.049 A 
ATOM     62  H   UNL A   1      45.868  28.773  27.628  1.00  0.00     0.167 HD
ATOM     63  C   UNL A   1      47.071  26.331  26.806  1.00  0.00     0.074 A 
ATOM     64  C   UNL A   1      47.241  24.938  26.451  1.00  0.00     0.031 C 
ATOM     65  C   UNL A   1      48.076  27.243  26.822  1.00  0.00     0.037 A 
BRANCH  52  66
ATOM     66  C   UNL A   1      46.311  32.941  28.472  1.00  0.00     0.058 A 
ATOM     67  C   UNL A   1      46.249  33.882  27.432  1.00  0.00     0.135 A 
ATOM     68  C   UNL A   1      46.717  33.395  29.738  1.00  0.00     0.135 A 
ATOM     69  F   UNL A   1      45.883  33.502  26.197  1.00  0.00    -0.206 F 
ATOM     70  C   UNL A   1      46.604  35.213  27.630  1.00  0.00     0.059 A 
ATOM     71  C   UNL A   1      47.048  34.728  29.966  1.00  0.00     0.059 A 
ATOM     72  F   UNL A   1      46.797  32.541  30.770  1.00  0.00    -0.206 F 
ATOM     73  C   UNL A   1      47.004  35.626  28.902  1.00  0.00     0.060 A 
BRANCH  73  74
ATOM     74  S   UNL A   1      47.462  37.356  29.141  1.00  0.00     0.124 S 
ATOM     75  O   UNL A   1      46.780  37.995  28.020  1.00  0.00    -0.237 OA
ATOM     76  O   UNL A   1      46.914  37.644  30.463  1.00  0.00    -0.237 OA
ATOM     77  O   UNL A   1      48.918  37.337  29.059  1.00  0.00    -0.744 OA
ENDBRANCH  73  74
ENDBRANCH  52  66
BRANCH  53  78
ATOM     78  C   UNL A   1      43.288  23.524  26.928  1.00  0.00     0.058 A 
ATOM     79  C   UNL A   1      43.071  22.626  27.983  1.00  0.00     0.135 A 
ATOM     80  C   UNL A   1      43.056  23.063  25.622  1.00  0.00     0.135 A 
ATOM     81  F   UNL A   1      43.284  23.017  29.249  1.00  0.00    -0.206 F 
ATOM     82  C   UNL A   1      42.664  21.316  27.756  1.00  0.00     0.059 A 
ATOM     83  C   UNL A   1      42.620  21.765  25.370  1.00  0.00     0.059 A 
ATOM     84  F   UNL A   1      43.231  23.887  24.577  1.00  0.00    -0.206 F 
ATOM     85  C   UNL A   1      42.438  20.895  26.444  1.00  0.00     0.060 A 
BRANCH  85  86
ATOM     86  S   UNL A   1      41.868  19.205  26.164  1.00  0.00     0.124 S 
ATOM     87  O   UNL A   1      42.666  18.814  25.008  1.00  0.00    -0.237 OA
ATOM     88  O   UNL A   1      42.210  18.554  27.426  1.00  0.00    -0.237 OA
ATOM     89  O   UNL A   1      40.438  19.368  25.920  1.00  0.00    -0.744 OA
ENDBRANCH  85  86
ENDBRANCH  53  78
BRANCH  65  90
ATOM     90  C   UNL A   1      49.461  26.750  26.502  1.00  0.00     0.058 A 
ATOM     91  C   UNL A   1      50.276  26.136  27.464  1.00  0.00     0.135 A 
ATOM     92  C   UNL A   1      49.965  26.868  25.195  1.00  0.00     0.135 A 
ATOM     93  F   UNL A   1      49.844  25.999  28.729  1.00  0.00    -0.206 F 
ATOM     94  C   UNL A   1      51.555  25.687  27.153  1.00  0.00     0.059 A 
ATOM     95  C   UNL A   1      51.230  26.398  24.855  1.00  0.00     0.059 A 
ATOM     96  F   UNL A   1      49.222  27.435  24.232  1.00  0.00    -0.206 F 
ATOM     97  C   UNL A   1      52.024  25.825  25.846  1.00  0.00     0.060 A 
BRANCH  97  98
ATOM     98  S   UNL A   1      53.682  25.228  25.450  1.00  0.00     0.124 S 
ATOM     99  O   UNL A   1      54.471  25.820  26.525  1.00  0.00    -0.237 OA
ATOM    100  O   UNL A   1      53.515  23.780  25.510  1.00  0.00    -0.237 OA
ATOM    101  O   UNL A   1      53.929  25.770  24.118  1.00  0.00    -0.744 OA
ENDBRANCH  97  98
ENDBRANCH  65  90
ENDBRANCH  39  40
ENDBRANCH  31  34
ENDBRANCH  29  30
ENDBRANCH  28  29
ENDBRANCH  27  28
ENDBRANCH   1  27
TORSDOF 20
ENDMDL
MODEL 3
REMARK VINA RESULT:     -11.3      1.349      2.381
REMARK SMILES CCOc1ccc(N2C[C@H](C(=O)NCCCCCCNC(=O)c3ccc(-c4c5nc(c(-c6c(F)cc(S(=O)(=O)[O-])cc6F)c6ccc([nH]6)c(-c6c(F)cc(S(=O)(=O)[O-])cc6F)c6nc(c(-c7c(F)cc(S(=O)(=O)[O-])cc7F)c7ccc4[nH]7)C=C6)C=C5)cc3)CC2=O)cc1C(F)(F)F
REMARK SMILES IDX 16 1 15 2 14 3 13 4 11 5 12 6 10 8 8 9 9 10 90 11 89 12
REMARK SMILES IDX 91 13 7 14 4 15 5 16 93 17 6 18 92 19 3 20 2 21 1 22 94 23
REMARK SMILES IDX 95 24 96 25 97 26 17 27 18 28 19 29 20 30 21 31 22 33 23 34
REMARK SMILES IDX 24 35 88 36 25 37 87 38 26 39 27 40 28 41 81 42 29 43 86 44
REMARK SMILES IDX 80 45 82 46 30 47 85 48 79 49 78 50 31 52 65 53 44 54 64 55
REMARK SMILES IDX 45 56 48 57 63 58 83 59 46 60 47 61 62 63 84 64 49 65 32 66
REMARK SMILES IDX 33 67 42 68 34 69 35 70 41 71 43 72 36 73 37 74 38 75 39 76
REMARK SMILES IDX 40 77 66 78 67 79 76 80 68 81 69 82 75 83 77 84 70 85 71 86
REMARK SMILES IDX 72 87 73 88 74 89 50 90 51 91 60 92 52 93 53 94 59 95 61 96
REMARK SMILES IDX 54 97 55 98 56 99 57 100 58 101
REMARK H PARENT 13 7 20 32 82 51 48 62
REMARK Flexibility Score: inf
ROOT
ATOM      1  C   UNL A   1      32.958  29.756  26.733  1.00  0.00     0.002 C 
ENDROOT
BRANCH   1   2
ATOM      2  C   UNL A   1      31.876  29.380  25.718  1.00  0.00     0.021 C 
BRANCH   2   3
ATOM      3  C   UNL A   1      32.431  29.009  24.343  1.00  0.00     0.116 C 
BRANCH   3   4
ATOM      4  N   UNL A   1      31.600  29.535  23.277  1.00  0.00    -0.356 N 
ATOM      5  C   UNL A   1      30.680  28.953  22.467  1.00  0.00     0.225 C 
ATOM      6  O   UNL A   1      30.144  29.677  21.621  1.00  0.00    -0.275 OA
ATOM      7  H   UNL A   1      31.726  30.497  23.108  1.00  0.00     0.163 HD
BRANCH   5   8
ATOM      8  C   UNL A   1      30.265  27.492  22.564  1.00  0.00     0.107 C 
ATOM      9  N   UNL A   1      31.443  25.893  23.847  1.00  0.00    -0.312 N 
ATOM     10  C   UNL A   1      31.410  26.502  22.536  1.00  0.00     0.139 C 
ATOM     11  C   UNL A   1      30.302  26.221  24.592  1.00  0.00     0.227 C 
ATOM     12  C   UNL A   1      29.448  27.167  23.797  1.00  0.00     0.116 C 
ATOM     13  O   UNL A   1      30.003  25.890  25.734  1.00  0.00    -0.274 OA
BRANCH   9  14
ATOM     14  C   UNL A   1      32.556  25.150  24.337  1.00  0.00     0.044 A 
ATOM     15  C   UNL A   1      34.638  23.661  25.539  1.00  0.00     0.131 A 
ATOM     16  C   UNL A   1      34.729  25.049  25.439  1.00  0.00     0.049 A 
ATOM     17  C   UNL A   1      33.522  22.993  25.039  1.00  0.00     0.100 A 
ATOM     18  C   UNL A   1      33.708  25.784  24.821  1.00  0.00     0.030 A 
ATOM     19  C   UNL A   1      32.507  23.752  24.422  1.00  0.00     0.043 A 
BRANCH  15  20
ATOM     20  O   UNL A   1      35.575  22.979  26.259  1.00  0.00    -0.493 OA
BRANCH  20  21
ATOM     21  C   UNL A   1      36.900  23.071  25.721  1.00  0.00     0.226 C 
ATOM     22  C   UNL A   1      37.317  21.723  25.157  1.00  0.00     0.049 C 
ENDBRANCH  20  21
ENDBRANCH  15  20
BRANCH  17  23
ATOM     23  C   UNL A   1      33.373  21.494  25.083  1.00  0.00     0.420 C 
ATOM     24  F   UNL A   1      33.495  20.995  26.348  1.00  0.00    -0.166 F 
ATOM     25  F   UNL A   1      32.137  21.100  24.661  1.00  0.00    -0.166 F 
ATOM     26  F   UNL A   1      34.269  20.801  24.334  1.00  0.00    -0.166 F 
ENDBRANCH  17  23
ENDBRANCH   9  14
ENDBRANCH   5   8
ENDBRANCH   3   4
ENDBRANCH   2   3
ENDBRANCH   1   2
BRANCH   1  27
ATOM     27  C   UNL A   1      34.311  29.063  26.521  1.00  0.00     0.002 C 
BRANCH  27  28
ATOM     28  C   UNL A   1      35.244  29.067  27.736  1.00  0.00     0.021 C 
BRANCH  28  29
ATOM     29  C   UNL A   1      35.633  30.455  28.234  1.00  0.00     0.116 C 
BRANCH  29  30
ATOM     30  N   UNL A   1      35.629  30.523  29.686  1.00  0.00    -0.352 N 
ATOM     31  C   UNL A   1      36.596  30.145  30.581  1.00  0.00     0.251 C 
ATOM     32  H   UNL A   1      34.811  30.897  30.086  1.00  0.00     0.163 HD
ATOM     33  O   UNL A   1      36.314  30.043  31.771  1.00  0.00    -0.269 OA
BRANCH  31  34
ATOM     34  C   UNL A   1      37.972  29.863  30.116  1.00  0.00     0.039 A 
ATOM     35  C   UNL A   1      38.318  30.173  28.799  1.00  0.00     0.014 A 
ATOM     36  C   UNL A   1      38.902  29.248  30.960  1.00  0.00     0.014 A 
ATOM     37  C   UNL A   1      39.604  29.892  28.337  1.00  0.00     0.010 A 
ATOM     38  C   UNL A   1      40.207  29.040  30.522  1.00  0.00     0.010 A 
ATOM     39  C   UNL A   1      40.565  29.337  29.199  1.00  0.00    -0.014 A 
BRANCH  39  40
ATOM     40  C   UNL A   1      41.934  29.020  28.720  1.00  0.00     0.031 A 
ATOM     41  C   UNL A   1      42.258  27.629  28.241  1.00  0.00     0.074 A 
ATOM     42  C   UNL A   1      42.892  29.966  28.758  1.00  0.00     0.049 A 
ATOM     43  N   UNL A   1      43.401  27.140  27.832  1.00  0.00    -0.248 NA
ATOM     44  C   UNL A   1      41.158  26.651  28.249  1.00  0.00     0.031 C 
ATOM     45  C   UNL A   1      42.712  31.335  29.245  1.00  0.00     0.029 A 
ATOM     46  N   UNL A   1      44.213  29.918  28.387  1.00  0.00    -0.354 N 
ATOM     47  C   UNL A   1      43.161  25.800  27.549  1.00  0.00     0.074 A 
ATOM     48  C   UNL A   1      41.779  25.538  27.889  1.00  0.00     0.031 C 
ATOM     49  C   UNL A   1      43.870  32.002  29.123  1.00  0.00     0.029 A 
ATOM     50  C   UNL A   1      44.885  31.101  28.583  1.00  0.00     0.049 A 
ATOM     51  H   UNL A   1      44.639  29.111  28.017  1.00  0.00     0.167 HD
ATOM     52  C   UNL A   1      44.007  24.877  27.033  1.00  0.00     0.037 A 
ATOM     53  C   UNL A   1      46.173  31.423  28.355  1.00  0.00     0.037 A 
ATOM     54  C   UNL A   1      45.374  25.154  26.674  1.00  0.00     0.049 A 
ATOM     55  C   UNL A   1      47.091  30.386  27.766  1.00  0.00     0.074 A 
ATOM     56  C   UNL A   1      46.303  24.305  26.098  1.00  0.00     0.029 A 
ATOM     57  N   UNL A   1      46.008  26.376  26.854  1.00  0.00    -0.354 N 
ATOM     58  N   UNL A   1      46.834  29.136  27.453  1.00  0.00    -0.248 NA
ATOM     59  C   UNL A   1      48.470  30.804  27.483  1.00  0.00     0.031 C 
ATOM     60  C   UNL A   1      47.510  24.999  25.969  1.00  0.00     0.029 A 
ATOM     61  C   UNL A   1      47.319  26.299  26.412  1.00  0.00     0.049 A 
ATOM     62  H   UNL A   1      45.588  27.178  27.241  1.00  0.00     0.167 HD
ATOM     63  C   UNL A   1      48.007  28.633  26.902  1.00  0.00     0.074 A 
ATOM     64  C   UNL A   1      48.971  29.714  26.916  1.00  0.00     0.031 C 
ATOM     65  C   UNL A   1      48.261  27.391  26.419  1.00  0.00     0.037 A 
BRANCH  52  66
ATOM     66  C   UNL A   1      43.478  23.483  26.821  1.00  0.00     0.058 A 
ATOM     67  C   UNL A   1      43.179  22.991  25.540  1.00  0.00     0.135 A 
ATOM     68  C   UNL A   1      43.293  22.617  27.912  1.00  0.00     0.135 A 
ATOM     69  F   UNL A   1      43.321  23.780  24.463  1.00  0.00    -0.206 F 
ATOM     70  C   UNL A   1      42.687  21.704  25.350  1.00  0.00     0.059 A 
ATOM     71  C   UNL A   1      42.831  21.315  27.742  1.00  0.00     0.059 A 
ATOM     72  F   UNL A   1      43.560  23.033  29.159  1.00  0.00    -0.206 F 
ATOM     73  C   UNL A   1      42.515  20.873  26.458  1.00  0.00     0.060 A 
BRANCH  73  74
ATOM     74  S   UNL A   1      41.876  19.205  26.194  1.00  0.00     0.124 S 
ATOM     75  O   UNL A   1      42.670  18.768  25.049  1.00  0.00    -0.237 OA
ATOM     76  O   UNL A   1      42.179  18.550  27.462  1.00  0.00    -0.237 OA
ATOM     77  O   UNL A   1      40.459  19.423  25.926  1.00  0.00    -0.744 OA
ENDBRANCH  73  74
ENDBRANCH  52  66
BRANCH  53  78
ATOM     78  C   UNL A   1      46.660  32.796  28.651  1.00  0.00     0.058 A 
ATOM     79  C   UNL A   1      47.179  33.124  29.911  1.00  0.00     0.135 A 
ATOM     80  C   UNL A   1      46.627  33.807  27.676  1.00  0.00     0.135 A 
ATOM     81  F   UNL A   1      47.228  32.194  30.878  1.00  0.00    -0.206 F 
ATOM     82  C   UNL A   1      47.628  34.407  30.206  1.00  0.00     0.059 A 
ATOM     83  C   UNL A   1      47.096  35.092  27.937  1.00  0.00     0.059 A 
ATOM     84  F   UNL A   1      46.158  33.542  26.448  1.00  0.00    -0.206 F 
ATOM     85  C   UNL A   1      47.585  35.385  29.210  1.00  0.00     0.060 A 
BRANCH  85  86
ATOM     86  S   UNL A   1      48.208  37.036  29.592  1.00  0.00     0.124 S 
ATOM     87  O   UNL A   1      48.963  37.351  28.385  1.00  0.00    -0.237 OA
ATOM     88  O   UNL A   1      46.974  37.790  29.789  1.00  0.00    -0.237 OA
ATOM     89  O   UNL A   1      49.003  36.824  30.798  1.00  0.00    -0.744 OA
ENDBRANCH  85  86
ENDBRANCH  53  78
BRANCH  65  90
ATOM     90  C   UNL A   1      49.616  27.149  25.812  1.00  0.00     0.058 A 
ATOM     91  C   UNL A   1      49.868  27.346  24.446  1.00  0.00     0.135 A 
ATOM     92  C   UNL A   1      50.689  26.745  26.624  1.00  0.00     0.135 A 
ATOM     93  F   UNL A   1      48.879  27.730  23.624  1.00  0.00    -0.206 F 
ATOM     94  C   UNL A   1      51.127  27.116  23.899  1.00  0.00     0.059 A 
ATOM     95  C   UNL A   1      51.963  26.538  26.104  1.00  0.00     0.059 A 
ATOM     96  F   UNL A   1      50.507  26.555  27.941  1.00  0.00    -0.206 F 
ATOM     97  C   UNL A   1      52.168  26.710  24.736  1.00  0.00     0.060 A 
BRANCH  97  98
ATOM     98  S   UNL A   1      53.799  26.426  24.018  1.00  0.00     0.124 S 
ATOM     99  O   UNL A   1      53.459  26.089  22.640  1.00  0.00    -0.237 OA
ATOM    100  O   UNL A   1      54.454  27.716  24.211  1.00  0.00    -0.237 OA
ATOM    101  O   UNL A   1      54.337  25.331  24.818  1.00  0.00    -0.744 OA
ENDBRANCH  97  98
ENDBRANCH  65  90
ENDBRANCH  39  40
ENDBRANCH  31  34
ENDBRANCH  29  30
ENDBRANCH  28  29
ENDBRANCH  27  28
ENDBRANCH   1  27
TORSDOF 20
ENDMDL
