MODEL 1
REMARK VINA RESULT:     -10.0      0.000      0.000
REMARK SMILES Cc1cc(NS(=O)(=O)c2ccc3c(c2)[C@H]2[C@H]4CC[C@H](C4)[C@@H]2[C@H](c2cccc(C(=O)NCCCCCCNC(=O)c4ccc(-c5c6nc(c(-c7c(F)cc(S(=O)(=O)[O-])cc7F)c7ccc([nH]7)c(-c7c(F)cc(S(=O)(=O)[O-])cc7F)c7nc(c(-c8c(F)cc(S(=O)(=O)[O-])cc8F)c8ccc5[nH]8)C=C7)C=C6)cc4)c2)N3)no1
REMARK SMILES IDX 33 1 32 2 31 3 30 4 28 5 29 6 27 8 23 9 24 10 106 11 25 12
REMARK SMILES IDX 26 13 22 14 9 15 10 16 14 17 11 18 13 19 12 20 15 21 107 22
REMARK SMILES IDX 16 23 21 24 17 26 20 27 19 28 18 29 6 30 7 31 8 32 5 33 4 35
REMARK SMILES IDX 1 36 2 37 3 38 109 39 108 40 34 41 35 42 36 43 37 44 38 45
REMARK SMILES IDX 39 47 40 48 41 49 105 50 42 51 104 52 43 53 44 54 45 55
REMARK SMILES IDX 98 56 46 57 103 58 97 59 99 60 47 61 102 62 96 63 95 64
REMARK SMILES IDX 48 66 82 67 61 68 81 69 62 70 65 71 80 72 100 73 63 74 64 75
REMARK SMILES IDX 79 77 101 78 66 79 49 80 50 81 59 82 51 83 52 84 58 85 60 86
REMARK SMILES IDX 53 87 54 88 55 89 56 90 57 91 83 92 84 93 93 94 85 95 86 96
REMARK SMILES IDX 92 97 94 98 87 99 88 100 89 101 90 102 91 103 67 104 68 105
REMARK SMILES IDX 77 106 69 107 70 108 76 109 78 110 71 111 72 112 73 113
REMARK SMILES IDX 74 114 75 115
REMARK H PARENT 30 7 107 25 5 34 37 46 99 65 65 76
REMARK Flexibility Score: inf
ROOT
ATOM      1  C   UNL A   1      47.735  24.813  39.547  1.00  0.00     0.002 C 
ENDROOT
BRANCH   1   2
ATOM      2  C   UNL A   1      46.600  24.963  38.536  1.00  0.00     0.021 C 
BRANCH   2   3
ATOM      3  C   UNL A   1      45.377  24.076  38.724  1.00  0.00     0.116 C 
BRANCH   3   4
ATOM      4  N   UNL A   1      44.121  24.653  38.280  1.00  0.00    -0.352 N 
ATOM      5  C   UNL A   1      43.595  24.760  37.010  1.00  0.00     0.251 C 
ATOM      6  O   UNL A   1      42.494  25.296  36.875  1.00  0.00    -0.269 OA
ATOM      7  H   UNL A   1      43.559  25.025  38.996  1.00  0.00     0.163 HD
BRANCH   5   8
ATOM      8  C   UNL A   1      44.339  24.314  35.797  1.00  0.00     0.040 A 
ATOM      9  C   UNL A   1      45.593  22.626  34.549  1.00  0.00    -0.025 A 
ATOM     10  C   UNL A   1      45.925  23.607  33.605  1.00  0.00     0.006 A 
ATOM     11  C   UNL A   1      44.688  22.983  35.562  1.00  0.00     0.019 A 
ATOM     12  C   UNL A   1      45.496  24.927  33.760  1.00  0.00     0.001 A 
ATOM     13  C   UNL A   1      44.736  25.286  34.872  1.00  0.00     0.014 A 
BRANCH   9  14
ATOM     14  C   UNL A   1      46.263  21.253  34.533  1.00  0.00     0.113 C 
ATOM     15  C   UNL A   1      46.204  18.361  38.824  1.00  0.00     0.088 A 
ATOM     16  C   UNL A   1      45.263  17.800  37.951  1.00  0.00     0.024 A 
ATOM     17  C   UNL A   1      46.787  19.582  38.508  1.00  0.00     0.028 A 
ATOM     18  C   UNL A   1      44.948  18.436  36.738  1.00  0.00     0.027 A 
ATOM     19  C   UNL A   1      46.538  20.165  37.265  1.00  0.00    -0.020 A 
ATOM     20  C   UNL A   1      45.605  19.609  36.356  1.00  0.00     0.038 A 
ATOM     21  C   UNL A   1      47.268  21.385  36.810  1.00  0.00     0.030 C 
ATOM     22  N   UNL A   1      45.381  20.192  35.104  1.00  0.00    -0.378 N 
ATOM     23  C   UNL A   1      48.621  21.885  37.352  1.00  0.00    -0.003 C 
ATOM     24  C   UNL A   1      47.586  21.165  35.315  1.00  0.00     0.027 C 
ATOM     25  H   UNL A   1      44.608  19.888  34.576  1.00  0.00     0.161 HD
ATOM     26  C   UNL A   1      49.784  20.918  37.052  1.00  0.00     0.004 C 
ATOM     27  C   UNL A   1      48.870  22.992  36.313  1.00  0.00     0.008 C 
ATOM     28  C   UNL A   1      48.857  22.024  35.120  1.00  0.00    -0.005 C 
ATOM     29  C   UNL A   1      50.043  21.123  35.546  1.00  0.00     0.004 C 
BRANCH  15  30
ATOM     30  S   UNL A   1      46.653  17.432  40.282  1.00  0.00     0.263 S 
ATOM     31  O   UNL A   1      47.951  17.894  40.717  1.00  0.00    -0.201 OA
ATOM     32  O   UNL A   1      46.429  16.043  39.927  1.00  0.00    -0.201 OA
BRANCH  30  33
ATOM     33  N   UNL A   1      45.514  17.734  41.465  1.00  0.00    -0.261 N 
ATOM     34  H   UNL A   1      44.763  17.100  41.530  1.00  0.00     0.182 HD
BRANCH  33  35
ATOM     35  C   UNL A   1      45.519  18.786  42.365  1.00  0.00     0.183 A 
ATOM     36  C   UNL A   1      44.860  20.362  45.604  1.00  0.00     0.091 C 
ATOM     37  C   UNL A   1      45.206  19.850  44.266  1.00  0.00     0.135 A 
ATOM     38  C   UNL A   1      45.519  18.610  43.767  1.00  0.00     0.096 A 
ATOM     39  O   UNL A   1      45.169  20.742  43.240  1.00  0.00    -0.360 OA
ATOM     40  N   UNL A   1      45.371  20.074  42.047  1.00  0.00    -0.061 NA
ENDBRANCH  33  35
ENDBRANCH  30  33
ENDBRANCH  15  30
ENDBRANCH   9  14
ENDBRANCH   5   8
ENDBRANCH   3   4
ENDBRANCH   2   3
ENDBRANCH   1   2
BRANCH   1  41
ATOM     41  C   UNL A   1      47.889  25.905  40.605  1.00  0.00     0.002 C 
BRANCH  41  42
ATOM     42  C   UNL A   1      46.803  26.979  40.670  1.00  0.00     0.021 C 
BRANCH  42  43
ATOM     43  C   UNL A   1      47.176  28.368  40.166  1.00  0.00     0.116 C 
BRANCH  43  44
ATOM     44  N   UNL A   1      48.425  28.406  39.426  1.00  0.00    -0.352 N 
ATOM     45  C   UNL A   1      48.642  28.662  38.091  1.00  0.00     0.251 C 
ATOM     46  H   UNL A   1      49.234  28.223  39.956  1.00  0.00     0.163 HD
ATOM     47  O   UNL A   1      49.780  28.583  37.635  1.00  0.00    -0.269 OA
BRANCH  45  48
ATOM     48  C   UNL A   1      47.505  28.977  37.194  1.00  0.00     0.039 A 
ATOM     49  C   UNL A   1      47.519  30.101  36.364  1.00  0.00     0.014 A 
ATOM     50  C   UNL A   1      46.391  28.131  37.201  1.00  0.00     0.014 A 
ATOM     51  C   UNL A   1      46.364  30.465  35.675  1.00  0.00     0.010 A 
ATOM     52  C   UNL A   1      45.259  28.459  36.447  1.00  0.00     0.010 A 
ATOM     53  C   UNL A   1      45.217  29.656  35.717  1.00  0.00    -0.014 A 
BRANCH  53  54
ATOM     54  C   UNL A   1      43.983  30.085  35.005  1.00  0.00     0.031 A 
ATOM     55  C   UNL A   1      43.029  31.065  35.640  1.00  0.00     0.074 A 
ATOM     56  C   UNL A   1      43.748  29.634  33.757  1.00  0.00     0.049 A 
ATOM     57  N   UNL A   1      41.922  31.570  35.155  1.00  0.00    -0.248 NA
ATOM     58  C   UNL A   1      43.358  31.540  36.992  1.00  0.00     0.031 C 
ATOM     59  C   UNL A   1      44.602  28.695  33.028  1.00  0.00     0.029 A 
ATOM     60  N   UNL A   1      42.744  29.928  32.869  1.00  0.00    -0.354 N 
ATOM     61  C   UNL A   1      41.420  32.412  36.142  1.00  0.00     0.074 A 
ATOM     62  C   UNL A   1      42.325  32.325  37.268  1.00  0.00     0.031 C 
ATOM     63  C   UNL A   1      44.121  28.537  31.785  1.00  0.00     0.029 A 
ATOM     64  C   UNL A   1      42.896  29.319  31.646  1.00  0.00     0.049 A 
ATOM     65  H   UNL A   1      41.987  30.518  33.087  1.00  0.00     0.167 HD
ATOM     66  C   UNL A   1      40.318  33.199  36.107  1.00  0.00     0.037 A 
ATOM     67  C   UNL A   1      42.137  29.380  30.535  1.00  0.00     0.037 A 
ATOM     68  C   UNL A   1      39.426  33.299  34.980  1.00  0.00     0.049 A 
ATOM     69  C   UNL A   1      40.895  30.224  30.538  1.00  0.00     0.074 A 
ATOM     70  C   UNL A   1      38.283  34.069  34.852  1.00  0.00     0.029 A 
ATOM     71  N   UNL A   1      39.580  32.613  33.785  1.00  0.00    -0.354 N 
ATOM     72  N   UNL A   1      40.428  30.996  31.489  1.00  0.00    -0.248 NA
ATOM     73  C   UNL A   1      40.068  30.193  29.324  1.00  0.00     0.031 C 
ATOM     74  C   UNL A   1      37.729  33.827  33.590  1.00  0.00     0.029 A 
ATOM     75  C   UNL A   1      38.546  32.931  32.920  1.00  0.00     0.049 A 
ATOM     76  H   UNL A   1      40.315  31.990  33.581  1.00  0.00     0.167 HD
ATOM     77  C   UNL A   1      39.257  31.549  30.986  1.00  0.00     0.074 A 
ATOM     78  C   UNL A   1      39.093  31.035  29.642  1.00  0.00     0.031 C 
ATOM     79  C   UNL A   1      38.392  32.403  31.588  1.00  0.00     0.037 A 
BRANCH  66  80
ATOM     80  C   UNL A   1      40.009  34.020  37.329  1.00  0.00     0.058 A 
ATOM     81  C   UNL A   1      40.428  35.354  37.440  1.00  0.00     0.135 A 
ATOM     82  C   UNL A   1      39.250  33.482  38.382  1.00  0.00     0.135 A 
ATOM     83  F   UNL A   1      41.169  35.914  36.470  1.00  0.00    -0.206 F 
ATOM     84  C   UNL A   1      40.125  36.121  38.561  1.00  0.00     0.059 A 
ATOM     85  C   UNL A   1      38.918  34.238  39.503  1.00  0.00     0.059 A 
ATOM     86  F   UNL A   1      38.824  32.210  38.327  1.00  0.00    -0.206 F 
ATOM     87  C   UNL A   1      39.372  35.553  39.589  1.00  0.00     0.060 A 
BRANCH  87  88
ATOM     88  S   UNL A   1      38.989  36.562  41.037  1.00  0.00     0.124 S 
ATOM     89  O   UNL A   1      40.258  36.524  41.760  1.00  0.00    -0.237 OA
ATOM     90  O   UNL A   1      38.642  37.847  40.440  1.00  0.00    -0.237 OA
ATOM     91  O   UNL A   1      37.885  35.847  41.669  1.00  0.00    -0.744 OA
ENDBRANCH  87  88
ENDBRANCH  66  80
BRANCH  67  92
ATOM     92  C   UNL A   1      42.547  28.623  29.324  1.00  0.00     0.058 A 
ATOM     93  C   UNL A   1      41.913  27.420  28.981  1.00  0.00     0.135 A 
ATOM     94  C   UNL A   1      43.545  29.108  28.465  1.00  0.00     0.135 A 
ATOM     95  F   UNL A   1      40.962  26.911  29.778  1.00  0.00    -0.206 F 
ATOM     96  C   UNL A   1      42.251  26.725  27.823  1.00  0.00     0.059 A 
ATOM     97  C   UNL A   1      43.886  28.441  27.292  1.00  0.00     0.059 A 
ATOM     98  F   UNL A   1      44.173  30.260  28.747  1.00  0.00    -0.206 F 
ATOM     99  C   UNL A   1      43.236  27.248  26.982  1.00  0.00     0.060 A 
BRANCH  99 100
ATOM    100  S   UNL A   1      43.619  26.376  25.448  1.00  0.00     0.124 S 
ATOM    101  O   UNL A   1      44.238  27.432  24.657  1.00  0.00    -0.237 OA
ATOM    102  O   UNL A   1      44.511  25.317  25.909  1.00  0.00    -0.237 OA
ATOM    103  O   UNL A   1      42.311  25.922  24.983  1.00  0.00    -0.744 OA
ENDBRANCH  99 100
ENDBRANCH  67  92
BRANCH  79 104
ATOM    104  C   UNL A   1      37.189  32.836  30.798  1.00  0.00     0.058 A 
ATOM    105  C   UNL A   1      35.943  32.219  30.973  1.00  0.00     0.135 A 
ATOM    106  C   UNL A   1      37.270  33.919  29.907  1.00  0.00     0.135 A 
ATOM    107  F   UNL A   1      35.816  31.175  31.808  1.00  0.00    -0.206 F 
ATOM    108  C   UNL A   1      34.816  32.652  30.282  1.00  0.00     0.059 A 
ATOM    109  C   UNL A   1      36.152  34.381  29.221  1.00  0.00     0.059 A 
ATOM    110  F   UNL A   1      38.440  34.547  29.712  1.00  0.00    -0.206 F 
ATOM    111  C   UNL A   1      34.930  33.737  29.410  1.00  0.00     0.060 A 
BRANCH 111 112
ATOM    112  S   UNL A   1      33.450  34.318  28.555  1.00  0.00     0.124 S 
ATOM    113  O   UNL A   1      33.992  35.384  27.718  1.00  0.00    -0.237 OA
ATOM    114  O   UNL A   1      33.006  33.121  27.847  1.00  0.00    -0.237 OA
ATOM    115  O   UNL A   1      32.578  34.754  29.641  1.00  0.00    -0.744 OA
ENDBRANCH 111 112
ENDBRANCH  79 104
ENDBRANCH  53  54
ENDBRANCH  45  48
ENDBRANCH  43  44
ENDBRANCH  42  43
ENDBRANCH  41  42
ENDBRANCH   1  41
TORSDOF 20
ENDMDL
MODEL 2
REMARK VINA RESULT:      -9.9      3.876     10.993
REMARK SMILES Cc1cc(NS(=O)(=O)c2ccc3c(c2)[C@H]2[C@H]4CC[C@H](C4)[C@@H]2[C@H](c2cccc(C(=O)NCCCCCCNC(=O)c4ccc(-c5c6nc(c(-c7c(F)cc(S(=O)(=O)[O-])cc7F)c7ccc([nH]7)c(-c7c(F)cc(S(=O)(=O)[O-])cc7F)c7nc(c(-c8c(F)cc(S(=O)(=O)[O-])cc8F)c8ccc5[nH]8)C=C7)C=C6)cc4)c2)N3)no1
REMARK SMILES IDX 33 1 32 2 31 3 30 4 28 5 29 6 27 8 23 9 24 10 106 11 25 12
REMARK SMILES IDX 26 13 22 14 9 15 10 16 14 17 11 18 13 19 12 20 15 21 107 22
REMARK SMILES IDX 16 23 21 24 17 26 20 27 19 28 18 29 6 30 7 31 8 32 5 33 4 35
REMARK SMILES IDX 1 36 2 37 3 38 109 39 108 40 34 41 35 42 36 43 37 44 38 45
REMARK SMILES IDX 39 47 40 48 41 49 105 50 42 51 104 52 43 53 44 54 45 55
REMARK SMILES IDX 98 56 46 57 103 58 97 59 99 60 47 61 102 62 96 63 95 64
REMARK SMILES IDX 48 66 82 67 61 68 81 69 62 70 65 71 80 72 100 73 63 74 64 75
REMARK SMILES IDX 79 77 101 78 66 79 49 80 50 81 59 82 51 83 52 84 58 85 60 86
REMARK SMILES IDX 53 87 54 88 55 89 56 90 57 91 83 92 84 93 93 94 85 95 86 96
REMARK SMILES IDX 92 97 94 98 87 99 88 100 89 101 90 102 91 103 67 104 68 105
REMARK SMILES IDX 77 106 69 107 70 108 76 109 78 110 71 111 72 112 73 113
REMARK SMILES IDX 74 114 75 115
REMARK H PARENT 30 7 107 25 5 34 37 46 99 65 65 76
REMARK Flexibility Score: inf
ROOT
ATOM      1  C   UNL A   1      46.004  23.986  34.957  1.00  0.00     0.002 C 
ENDROOT
BRANCH   1   2
ATOM      2  C   UNL A   1      44.877  24.309  33.978  1.00  0.00     0.021 C 
BRANCH   2   3
ATOM      3  C   UNL A   1      45.272  24.631  32.544  1.00  0.00     0.116 C 
BRANCH   3   4
ATOM      4  N   UNL A   1      44.275  24.303  31.540  1.00  0.00    -0.352 N 
ATOM      5  C   UNL A   1      44.366  24.313  30.165  1.00  0.00     0.251 C 
ATOM      6  O   UNL A   1      43.375  23.991  29.509  1.00  0.00    -0.269 OA
ATOM      7  H   UNL A   1      43.400  24.032  31.897  1.00  0.00     0.163 HD
BRANCH   5   8
ATOM      8  C   UNL A   1      45.595  24.765  29.449  1.00  0.00     0.040 A 
ATOM      9  C   UNL A   1      47.438  26.340  29.136  1.00  0.00    -0.025 A 
ATOM     10  C   UNL A   1      47.752  25.694  27.932  1.00  0.00     0.006 A 
ATOM     11  C   UNL A   1      46.437  25.767  29.935  1.00  0.00     0.019 A 
ATOM     12  C   UNL A   1      46.990  24.617  27.475  1.00  0.00     0.001 A 
ATOM     13  C   UNL A   1      45.892  24.177  28.215  1.00  0.00     0.014 A 
BRANCH   9  14
ATOM     14  C   UNL A   1      48.092  27.668  29.515  1.00  0.00     0.113 C 
ATOM     15  C   UNL A   1      45.201  31.390  31.651  1.00  0.00     0.088 A 
ATOM     16  C   UNL A   1      45.965  30.833  32.685  1.00  0.00     0.024 A 
ATOM     17  C   UNL A   1      45.199  30.784  30.401  1.00  0.00     0.028 A 
ATOM     18  C   UNL A   1      46.767  29.703  32.451  1.00  0.00     0.027 A 
ATOM     19  C   UNL A   1      46.063  29.717  30.149  1.00  0.00    -0.020 A 
ATOM     20  C   UNL A   1      46.859  29.147  31.173  1.00  0.00     0.038 A 
ATOM     21  C   UNL A   1      46.222  29.142  28.781  1.00  0.00     0.030 C 
ATOM     22  N   UNL A   1      47.737  28.091  30.902  1.00  0.00    -0.378 N 
ATOM     23  C   UNL A   1      45.877  29.849  27.456  1.00  0.00    -0.003 C 
ATOM     24  C   UNL A   1      47.729  28.855  28.606  1.00  0.00     0.027 C 
ATOM     25  H   UNL A   1      48.138  27.607  31.659  1.00  0.00     0.161 HD
ATOM     26  C   UNL A   1      46.764  31.081  27.184  1.00  0.00     0.004 C 
ATOM     27  C   UNL A   1      46.492  28.815  26.496  1.00  0.00     0.008 C 
ATOM     28  C   UNL A   1      47.908  28.961  27.073  1.00  0.00    -0.005 C 
ATOM     29  C   UNL A   1      48.119  30.466  26.778  1.00  0.00     0.004 C 
BRANCH  15  30
ATOM     30  S   UNL A   1      44.312  32.902  31.986  1.00  0.00     0.263 S 
ATOM     31  O   UNL A   1      45.275  33.979  32.027  1.00  0.00    -0.201 OA
ATOM     32  O   UNL A   1      43.472  32.600  33.129  1.00  0.00    -0.201 OA
BRANCH  30  33
ATOM     33  N   UNL A   1      43.226  33.156  30.743  1.00  0.00    -0.261 N 
ATOM     34  H   UNL A   1      42.413  32.601  30.745  1.00  0.00     0.182 HD
BRANCH  33  35
ATOM     35  C   UNL A   1      43.354  34.068  29.710  1.00  0.00     0.183 A 
ATOM     36  C   UNL A   1      42.124  36.053  26.889  1.00  0.00     0.091 C 
ATOM     37  C   UNL A   1      42.745  35.338  28.018  1.00  0.00     0.135 A 
ATOM     38  C   UNL A   1      42.272  34.821  29.199  1.00  0.00     0.096 A 
ATOM     39  O   UNL A   1      44.065  35.038  27.902  1.00  0.00    -0.360 OA
ATOM     40  N   UNL A   1      44.449  34.246  28.968  1.00  0.00    -0.061 NA
ENDBRANCH  33  35
ENDBRANCH  30  33
ENDBRANCH  15  30
ENDBRANCH   9  14
ENDBRANCH   5   8
ENDBRANCH   3   4
ENDBRANCH   2   3
ENDBRANCH   1   2
BRANCH   1  41
ATOM     41  C   UNL A   1      47.432  24.323  34.528  1.00  0.00     0.002 C 
BRANCH  41  42
ATOM     42  C   UNL A   1      48.466  24.536  35.633  1.00  0.00     0.021 C 
BRANCH  42  43
ATOM     43  C   UNL A   1      48.703  25.972  36.087  1.00  0.00     0.116 C 
BRANCH  43  44
ATOM     44  N   UNL A   1      48.337  26.216  37.471  1.00  0.00    -0.352 N 
ATOM     45  C   UNL A   1      47.254  26.895  37.981  1.00  0.00     0.251 C 
ATOM     46  H   UNL A   1      48.951  25.840  38.142  1.00  0.00     0.163 HD
ATOM     47  O   UNL A   1      47.152  27.051  39.195  1.00  0.00    -0.269 OA
BRANCH  45  48
ATOM     48  C   UNL A   1      46.244  27.485  37.072  1.00  0.00     0.039 A 
ATOM     49  C   UNL A   1      46.519  28.630  36.319  1.00  0.00     0.014 A 
ATOM     50  C   UNL A   1      44.985  26.883  36.986  1.00  0.00     0.014 A 
ATOM     51  C   UNL A   1      45.491  29.260  35.620  1.00  0.00     0.010 A 
ATOM     52  C   UNL A   1      43.975  27.476  36.221  1.00  0.00     0.010 A 
ATOM     53  C   UNL A   1      44.205  28.699  35.572  1.00  0.00    -0.014 A 
BRANCH  53  54
ATOM     54  C   UNL A   1      43.113  29.409  34.852  1.00  0.00     0.031 A 
ATOM     55  C   UNL A   1      42.734  29.015  33.447  1.00  0.00     0.074 A 
ATOM     56  C   UNL A   1      42.422  30.376  35.486  1.00  0.00     0.049 A 
ATOM     57  N   UNL A   1      41.793  29.503  32.679  1.00  0.00    -0.248 NA
ATOM     58  C   UNL A   1      43.509  27.932  32.822  1.00  0.00     0.031 C 
ATOM     59  C   UNL A   1      42.682  30.839  36.850  1.00  0.00     0.029 A 
ATOM     60  N   UNL A   1      41.341  31.120  35.083  1.00  0.00    -0.354 N 
ATOM     61  C   UNL A   1      41.868  28.798  31.483  1.00  0.00     0.074 A 
ATOM     62  C   UNL A   1      42.970  27.869  31.613  1.00  0.00     0.031 C 
ATOM     63  C   UNL A   1      41.750  31.742  37.193  1.00  0.00     0.029 A 
ATOM     64  C   UNL A   1      40.860  31.963  36.058  1.00  0.00     0.049 A 
ATOM     65  H   UNL A   1      40.948  31.056  34.183  1.00  0.00     0.167 HD
ATOM     66  C   UNL A   1      41.081  28.901  30.384  1.00  0.00     0.037 A 
ATOM     67  C   UNL A   1      39.822  32.820  36.042  1.00  0.00     0.037 A 
ATOM     68  C   UNL A   1      39.974  29.814  30.261  1.00  0.00     0.049 A 
ATOM     69  C   UNL A   1      38.993  32.948  34.795  1.00  0.00     0.074 A 
ATOM     70  C   UNL A   1      39.119  29.991  29.187  1.00  0.00     0.029 A 
ATOM     71  N   UNL A   1      39.563  30.699  31.247  1.00  0.00    -0.354 N 
ATOM     72  N   UNL A   1      39.094  32.286  33.669  1.00  0.00    -0.248 NA
ATOM     73  C   UNL A   1      37.920  33.952  34.813  1.00  0.00     0.031 C 
ATOM     74  C   UNL A   1      38.209  31.004  29.511  1.00  0.00     0.029 A 
ATOM     75  C   UNL A   1      38.476  31.433  30.802  1.00  0.00     0.049 A 
ATOM     76  H   UNL A   1      39.982  30.792  32.133  1.00  0.00     0.167 HD
ATOM     77  C   UNL A   1      38.094  32.787  32.845  1.00  0.00     0.074 A 
ATOM     78  C   UNL A   1      37.388  33.797  33.607  1.00  0.00     0.031 C 
ATOM     79  C   UNL A   1      37.791  32.443  31.568  1.00  0.00     0.037 A 
BRANCH  66  80
ATOM     80  C   UNL A   1      41.390  28.001  29.220  1.00  0.00     0.058 A 
ATOM     81  C   UNL A   1      42.445  28.280  28.338  1.00  0.00     0.135 A 
ATOM     82  C   UNL A   1      40.652  26.824  29.007  1.00  0.00     0.135 A 
ATOM     83  F   UNL A   1      43.173  29.399  28.486  1.00  0.00    -0.206 F 
ATOM     84  C   UNL A   1      42.746  27.437  27.273  1.00  0.00     0.059 A 
ATOM     85  C   UNL A   1      40.949  25.956  27.960  1.00  0.00     0.059 A 
ATOM     86  F   UNL A   1      39.633  26.510  29.821  1.00  0.00    -0.206 F 
ATOM     87  C   UNL A   1      41.989  26.279  27.089  1.00  0.00     0.060 A 
BRANCH  87  88
ATOM     88  S   UNL A   1      42.392  25.197  25.701  1.00  0.00     0.124 S 
ATOM     89  O   UNL A   1      41.272  25.454  24.799  1.00  0.00    -0.237 OA
ATOM     90  O   UNL A   1      43.685  25.714  25.265  1.00  0.00    -0.237 OA
ATOM     91  O   UNL A   1      42.421  23.867  26.301  1.00  0.00    -0.744 OA
ENDBRANCH  87  88
ENDBRANCH  66  80
BRANCH  67  92
ATOM     92  C   UNL A   1      39.506  33.611  37.258  1.00  0.00     0.058 A 
ATOM     93  C   UNL A   1      38.555  33.158  38.183  1.00  0.00     0.135 A 
ATOM     94  C   UNL A   1      40.180  34.810  37.543  1.00  0.00     0.135 A 
ATOM     95  F   UNL A   1      37.877  32.025  37.948  1.00  0.00    -0.206 F 
ATOM     96  C   UNL A   1      38.283  33.863  39.352  1.00  0.00     0.059 A 
ATOM     97  C   UNL A   1      39.940  35.521  38.714  1.00  0.00     0.059 A 
ATOM     98  F   UNL A   1      41.105  35.278  36.692  1.00  0.00    -0.206 F 
ATOM     99  C   UNL A   1      38.987  35.041  39.611  1.00  0.00     0.060 A 
BRANCH  99 100
ATOM    100  S   UNL A   1      38.678  35.913  41.163  1.00  0.00     0.124 S 
ATOM    101  O   UNL A   1      39.922  35.674  41.886  1.00  0.00    -0.237 OA
ATOM    102  O   UNL A   1      38.456  37.282  40.709  1.00  0.00    -0.237 OA
ATOM    103  O   UNL A   1      37.497  35.240  41.697  1.00  0.00    -0.744 OA
ENDBRANCH  99 100
ENDBRANCH  67  92
BRANCH  79 104
ATOM    104  C   UNL A   1      36.647  33.163  30.913  1.00  0.00     0.058 A 
ATOM    105  C   UNL A   1      35.320  32.922  31.295  1.00  0.00     0.135 A 
ATOM    106  C   UNL A   1      36.885  34.149  29.942  1.00  0.00     0.135 A 
ATOM    107  F   UNL A   1      35.041  31.984  32.215  1.00  0.00    -0.206 F 
ATOM    108  C   UNL A   1      34.263  33.625  30.727  1.00  0.00     0.059 A 
ATOM    109  C   UNL A   1      35.844  34.878  29.375  1.00  0.00     0.059 A 
ATOM    110  F   UNL A   1      38.139  34.422  29.548  1.00  0.00    -0.206 F 
ATOM    111  C   UNL A   1      34.535  34.604  29.769  1.00  0.00     0.060 A 
BRANCH 111 112
ATOM    112  S   UNL A   1      33.157  35.542  29.074  1.00  0.00     0.124 S 
ATOM    113  O   UNL A   1      33.856  36.584  28.329  1.00  0.00    -0.237 OA
ATOM    114  O   UNL A   1      32.471  34.538  28.267  1.00  0.00    -0.237 OA
ATOM    115  O   UNL A   1      32.425  35.995  30.253  1.00  0.00    -0.744 OA
ENDBRANCH 111 112
ENDBRANCH  79 104
ENDBRANCH  53  54
ENDBRANCH  45  48
ENDBRANCH  43  44
ENDBRANCH  42  43
ENDBRANCH  41  42
ENDBRANCH   1  41
TORSDOF 20
ENDMDL
MODEL 3
REMARK VINA RESULT:      -9.7      5.113     12.663
REMARK SMILES Cc1cc(NS(=O)(=O)c2ccc3c(c2)[C@H]2[C@H]4CC[C@H](C4)[C@@H]2[C@H](c2cccc(C(=O)NCCCCCCNC(=O)c4ccc(-c5c6nc(c(-c7c(F)cc(S(=O)(=O)[O-])cc7F)c7ccc([nH]7)c(-c7c(F)cc(S(=O)(=O)[O-])cc7F)c7nc(c(-c8c(F)cc(S(=O)(=O)[O-])cc8F)c8ccc5[nH]8)C=C7)C=C6)cc4)c2)N3)no1
REMARK SMILES IDX 33 1 32 2 31 3 30 4 28 5 29 6 27 8 23 9 24 10 106 11 25 12
REMARK SMILES IDX 26 13 22 14 9 15 10 16 14 17 11 18 13 19 12 20 15 21 107 22
REMARK SMILES IDX 16 23 21 24 17 26 20 27 19 28 18 29 6 30 7 31 8 32 5 33 4 35
REMARK SMILES IDX 1 36 2 37 3 38 109 39 108 40 34 41 35 42 36 43 37 44 38 45
REMARK SMILES IDX 39 47 40 48 41 49 105 50 42 51 104 52 43 53 44 54 45 55
REMARK SMILES IDX 98 56 46 57 103 58 97 59 99 60 47 61 102 62 96 63 95 64
REMARK SMILES IDX 48 66 82 67 61 68 81 69 62 70 65 71 80 72 100 73 63 74 64 75
REMARK SMILES IDX 79 77 101 78 66 79 49 80 50 81 59 82 51 83 52 84 58 85 60 86
REMARK SMILES IDX 53 87 54 88 55 89 56 90 57 91 83 92 84 93 93 94 85 95 86 96
REMARK SMILES IDX 92 97 94 98 87 99 88 100 89 101 90 102 91 103 67 104 68 105
REMARK SMILES IDX 77 106 69 107 70 108 76 109 78 110 71 111 72 112 73 113
REMARK SMILES IDX 74 114 75 115
REMARK H PARENT 30 7 107 25 5 34 37 46 99 65 65 76
REMARK Flexibility Score: inf
ROOT
ATOM      1  C   UNL A   1      35.451  33.151  33.168  1.00  0.00     0.002 C 
ENDROOT
BRANCH   1   2
ATOM      2  C   UNL A   1      35.913  33.741  34.498  1.00  0.00     0.021 C 
BRANCH   2   3
ATOM      3  C   UNL A   1      37.342  33.448  34.932  1.00  0.00     0.116 C 
BRANCH   3   4
ATOM      4  N   UNL A   1      37.496  32.316  35.828  1.00  0.00    -0.352 N 
ATOM      5  C   UNL A   1      38.349  31.236  35.753  1.00  0.00     0.251 C 
ATOM      6  O   UNL A   1      38.300  30.387  36.643  1.00  0.00    -0.269 OA
ATOM      7  H   UNL A   1      36.899  32.321  36.610  1.00  0.00     0.163 HD
BRANCH   5   8
ATOM      8  C   UNL A   1      39.275  31.029  34.602  1.00  0.00     0.040 A 
ATOM      9  C   UNL A   1      40.655  29.586  33.191  1.00  0.00    -0.025 A 
ATOM     10  C   UNL A   1      41.188  30.731  32.584  1.00  0.00     0.006 A 
ATOM     11  C   UNL A   1      39.604  29.766  34.103  1.00  0.00     0.019 A 
ATOM     12  C   UNL A   1      40.794  32.008  32.990  1.00  0.00     0.001 A 
ATOM     13  C   UNL A   1      39.867  32.156  34.021  1.00  0.00     0.014 A 
BRANCH   9  14
ATOM     14  C   UNL A   1      41.260  28.205  32.943  1.00  0.00     0.113 C 
ATOM     15  C   UNL A   1      43.875  25.871  36.750  1.00  0.00     0.088 A 
ATOM     16  C   UNL A   1      42.632  25.230  36.667  1.00  0.00     0.024 A 
ATOM     17  C   UNL A   1      44.098  27.027  36.013  1.00  0.00     0.028 A 
ATOM     18  C   UNL A   1      41.634  25.718  35.806  1.00  0.00     0.027 A 
ATOM     19  C   UNL A   1      43.138  27.457  35.096  1.00  0.00    -0.020 A 
ATOM     20  C   UNL A   1      41.881  26.817  34.980  1.00  0.00     0.038 A 
ATOM     21  C   UNL A   1      43.399  28.592  34.162  1.00  0.00     0.030 C 
ATOM     22  N   UNL A   1      40.936  27.245  34.040  1.00  0.00    -0.378 N 
ATOM     23  C   UNL A   1      44.784  29.122  33.745  1.00  0.00    -0.003 C 
ATOM     24  C   UNL A   1      42.793  28.181  32.803  1.00  0.00     0.027 C 
ATOM     25  H   UNL A   1      40.017  26.898  34.106  1.00  0.00     0.161 HD
ATOM     26  C   UNL A   1      45.600  28.095  32.933  1.00  0.00     0.004 C 
ATOM     27  C   UNL A   1      44.320  30.084  32.638  1.00  0.00     0.008 C 
ATOM     28  C   UNL A   1      43.662  28.976  31.801  1.00  0.00    -0.005 C 
ATOM     29  C   UNL A   1      44.918  28.106  31.551  1.00  0.00     0.004 C 
BRANCH  15  30
ATOM     30  S   UNL A   1      45.140  25.118  37.761  1.00  0.00     0.263 S 
ATOM     31  O   UNL A   1      44.485  24.473  38.877  1.00  0.00    -0.201 OA
ATOM     32  O   UNL A   1      46.128  26.159  37.967  1.00  0.00    -0.201 OA
BRANCH  30  33
ATOM     33  N   UNL A   1      45.940  23.980  36.836  1.00  0.00    -0.261 N 
ATOM     34  H   UNL A   1      46.576  24.322  36.167  1.00  0.00     0.182 HD
BRANCH  33  35
ATOM     35  C   UNL A   1      45.799  22.606  36.915  1.00  0.00     0.183 A 
ATOM     36  C   UNL A   1      46.723  19.254  38.064  1.00  0.00     0.091 C 
ATOM     37  C   UNL A   1      46.223  20.541  37.550  1.00  0.00     0.135 A 
ATOM     38  C   UNL A   1      46.274  21.837  38.002  1.00  0.00     0.096 A 
ATOM     39  O   UNL A   1      45.621  20.522  36.332  1.00  0.00    -0.360 OA
ATOM     40  N   UNL A   1      45.349  21.818  35.936  1.00  0.00    -0.061 NA
ENDBRANCH  33  35
ENDBRANCH  30  33
ENDBRANCH  15  30
ENDBRANCH   9  14
ENDBRANCH   5   8
ENDBRANCH   3   4
ENDBRANCH   2   3
ENDBRANCH   1   2
BRANCH   1  41
ATOM     41  C   UNL A   1      36.110  31.851  32.704  1.00  0.00     0.002 C 
BRANCH  41  42
ATOM     42  C   UNL A   1      37.174  31.954  31.612  1.00  0.00     0.021 C 
BRANCH  42  43
ATOM     43  C   UNL A   1      36.689  32.296  30.208  1.00  0.00     0.116 C 
BRANCH  43  44
ATOM     44  N   UNL A   1      35.736  31.342  29.669  1.00  0.00    -0.352 N 
ATOM     45  C   UNL A   1      35.963  30.127  29.064  1.00  0.00     0.251 C 
ATOM     46  H   UNL A   1      34.790  31.602  29.748  1.00  0.00     0.163 HD
ATOM     47  O   UNL A   1      35.017  29.487  28.611  1.00  0.00    -0.269 OA
BRANCH  45  48
ATOM     48  C   UNL A   1      37.345  29.614  28.909  1.00  0.00     0.039 A 
ATOM     49  C   UNL A   1      38.034  29.036  29.978  1.00  0.00     0.014 A 
ATOM     50  C   UNL A   1      37.969  29.732  27.663  1.00  0.00     0.014 A 
ATOM     51  C   UNL A   1      39.389  28.734  29.845  1.00  0.00     0.010 A 
ATOM     52  C   UNL A   1      39.308  29.357  27.511  1.00  0.00     0.010 A 
ATOM     53  C   UNL A   1      40.045  28.903  28.615  1.00  0.00    -0.014 A 
BRANCH  53  54
ATOM     54  C   UNL A   1      41.500  28.611  28.507  1.00  0.00     0.031 A 
ATOM     55  C   UNL A   1      41.984  27.232  28.140  1.00  0.00     0.074 A 
ATOM     56  C   UNL A   1      42.389  29.609  28.683  1.00  0.00     0.049 A 
ATOM     57  N   UNL A   1      43.211  26.805  27.974  1.00  0.00    -0.248 NA
ATOM     58  C   UNL A   1      40.960  26.196  27.933  1.00  0.00     0.031 C 
ATOM     59  C   UNL A   1      42.047  30.990  29.027  1.00  0.00     0.029 A 
ATOM     60  N   UNL A   1      43.757  29.624  28.566  1.00  0.00    -0.354 N 
ATOM     61  C   UNL A   1      43.108  25.456  27.652  1.00  0.00     0.074 A 
ATOM     62  C   UNL A   1      41.700  25.124  27.680  1.00  0.00     0.031 C 
ATOM     63  C   UNL A   1      43.165  31.731  29.032  1.00  0.00     0.029 A 
ATOM     64  C   UNL A   1      44.309  30.870  28.748  1.00  0.00     0.049 A 
ATOM     65  H   UNL A   1      44.290  28.821  28.372  1.00  0.00     0.167 HD
ATOM     66  C   UNL A   1      44.093  24.578  27.345  1.00  0.00     0.037 A 
ATOM     67  C   UNL A   1      45.592  31.278  28.695  1.00  0.00     0.037 A 
ATOM     68  C   UNL A   1      45.494  24.912  27.301  1.00  0.00     0.049 A 
ATOM     69  C   UNL A   1      46.670  30.275  28.397  1.00  0.00     0.074 A 
ATOM     70  C   UNL A   1      46.566  24.090  27.000  1.00  0.00     0.029 A 
ATOM     71  N   UNL A   1      46.017  26.170  27.558  1.00  0.00    -0.354 N 
ATOM     72  N   UNL A   1      46.553  29.000  28.116  1.00  0.00    -0.248 NA
ATOM     73  C   UNL A   1      48.055  30.763  28.425  1.00  0.00     0.031 C 
ATOM     74  C   UNL A   1      47.741  24.843  27.104  1.00  0.00     0.029 A 
ATOM     75  C   UNL A   1      47.396  26.144  27.436  1.00  0.00     0.049 A 
ATOM     76  H   UNL A   1      45.486  26.965  27.793  1.00  0.00     0.167 HD
ATOM     77  C   UNL A   1      47.847  28.534  27.926  1.00  0.00     0.074 A 
ATOM     78  C   UNL A   1      48.732  29.666  28.109  1.00  0.00     0.031 C 
ATOM     79  C   UNL A   1      48.265  27.277  27.631  1.00  0.00     0.037 A 
BRANCH  66  80
ATOM     80  C   UNL A   1      43.692  23.163  27.031  1.00  0.00     0.058 A 
ATOM     81  C   UNL A   1      43.181  22.310  28.020  1.00  0.00     0.135 A 
ATOM     82  C   UNL A   1      43.778  22.667  25.719  1.00  0.00     0.135 A 
ATOM     83  F   UNL A   1      43.091  22.728  29.293  1.00  0.00    -0.206 F 
ATOM     84  C   UNL A   1      42.789  21.007  27.727  1.00  0.00     0.059 A 
ATOM     85  C   UNL A   1      43.373  21.374  25.400  1.00  0.00     0.059 A 
ATOM     86  F   UNL A   1      44.260  23.441  24.734  1.00  0.00    -0.206 F 
ATOM     87  C   UNL A   1      42.893  20.547  26.414  1.00  0.00     0.060 A 
BRANCH  87  88
ATOM     88  S   UNL A   1      42.382  18.853  26.051  1.00  0.00     0.124 S 
ATOM     89  O   UNL A   1      42.628  18.196  27.332  1.00  0.00    -0.237 OA
ATOM     90  O   UNL A   1      40.979  19.021  25.686  1.00  0.00    -0.237 OA
ATOM     91  O   UNL A   1      43.267  18.455  24.961  1.00  0.00    -0.744 OA
ENDBRANCH  87  88
ENDBRANCH  66  80
BRANCH  67  92
ATOM     92  C   UNL A   1      45.916  32.710  28.917  1.00  0.00     0.058 A 
ATOM     93  C   UNL A   1      46.266  33.177  30.192  1.00  0.00     0.135 A 
ATOM     94  C   UNL A   1      45.929  33.627  27.855  1.00  0.00     0.135 A 
ATOM     95  F   UNL A   1      46.255  32.339  31.240  1.00  0.00    -0.206 F 
ATOM     96  C   UNL A   1      46.621  34.505  30.408  1.00  0.00     0.059 A 
ATOM     97  C   UNL A   1      46.300  34.955  28.042  1.00  0.00     0.059 A 
ATOM     98  F   UNL A   1      45.612  33.225  26.615  1.00  0.00    -0.206 F 
ATOM     99  C   UNL A   1      46.641  35.386  29.324  1.00  0.00     0.060 A 
BRANCH  99 100
ATOM    100  S   UNL A   1      47.170  37.090  29.600  1.00  0.00     0.124 S 
ATOM    101  O   UNL A   1      46.814  37.285  31.000  1.00  0.00    -0.237 OA
ATOM    102  O   UNL A   1      48.598  37.022  29.307  1.00  0.00    -0.237 OA
ATOM    103  O   UNL A   1      46.377  37.848  28.635  1.00  0.00    -0.744 OA
ENDBRANCH  99 100
ENDBRANCH  67  92
BRANCH  79 104
ATOM    104  C   UNL A   1      49.744  27.059  27.488  1.00  0.00     0.058 A 
ATOM    105  C   UNL A   1      50.394  27.262  26.262  1.00  0.00     0.135 A 
ATOM    106  C   UNL A   1      50.527  26.706  28.599  1.00  0.00     0.135 A 
ATOM    107  F   UNL A   1      49.689  27.593  25.169  1.00  0.00    -0.206 F 
ATOM    108  C   UNL A   1      51.772  27.110  26.139  1.00  0.00     0.059 A 
ATOM    109  C   UNL A   1      51.908  26.568  28.502  1.00  0.00     0.059 A 
ATOM    110  F   UNL A   1      49.951  26.508  29.796  1.00  0.00    -0.206 F 
ATOM    111  C   UNL A   1      52.521  26.767  27.266  1.00  0.00     0.060 A 
BRANCH 111 112
ATOM    112  S   UNL A   1      54.313  26.620  27.102  1.00  0.00     0.124 S 
ATOM    113  O   UNL A   1      54.776  27.293  28.310  1.00  0.00    -0.237 OA
ATOM    114  O   UNL A   1      54.507  25.173  27.069  1.00  0.00    -0.237 OA
ATOM    115  O   UNL A   1      54.598  27.311  25.848  1.00  0.00    -0.744 OA
ENDBRANCH 111 112
ENDBRANCH  79 104
ENDBRANCH  53  54
ENDBRANCH  45  48
ENDBRANCH  43  44
ENDBRANCH  42  43
ENDBRANCH  41  42
ENDBRANCH   1  41
TORSDOF 20
ENDMDL
