MODEL 1
REMARK VINA RESULT:     -12.3      0.000      0.000
REMARK SMILES Cc1cc(C(=O)NCCCCCCNC(=O)c2ccc(-c3c4nc(c(-c5c(F)cc(S(=O)(=O)[O-])cc5F)c5ccc([nH]5)c(-c5c(F)cc(S(=O)(=O)[O-])cc5F)c5nc(c(-c6c(F)cc(S(=O)(=O)[O-])cc6F)c6ccc3[nH]6)C=C5)C=C4)cc2)nc(N2CCN(c3ccccc3Cl)CC2)n1
REMARK SMILES IDX 11 1 10 2 9 3 8 4 7 5 5 6 6 7 4 9 1 10 2 11 3 12 98 13 84 14
REMARK SMILES IDX 83 15 85 16 86 17 97 18 87 19 96 20 88 21 89 22 90 23 94 24
REMARK SMILES IDX 91 25 93 26 95 27 92 28 12 29 13 30 14 31 15 32 16 34 17 35
REMARK SMILES IDX 18 36 82 37 19 38 81 39 20 40 21 41 22 42 75 43 23 44 80 45
REMARK SMILES IDX 74 46 76 47 24 48 79 49 73 50 72 51 25 53 59 54 38 55 58 56
REMARK SMILES IDX 39 57 42 58 57 59 77 60 40 61 41 62 56 64 78 65 43 66 26 67
REMARK SMILES IDX 27 68 36 69 28 70 29 71 35 72 37 73 30 74 31 75 32 76 33 77
REMARK SMILES IDX 34 78 60 79 61 80 70 81 62 82 63 83 69 84 71 85 64 86 65 87
REMARK SMILES IDX 66 88 67 89 68 90 44 91 45 92 54 93 46 94 47 95 53 96 55 97
REMARK SMILES IDX 48 98 49 99 50 100 51 101 52 102
REMARK H PARENT 7 8 14 33 76 52 42 63
REMARK Flexibility Score: inf
ROOT
ATOM      1  C   UNL A   1      35.761  32.867  28.133  1.00  0.00     0.002 C 
ENDROOT
BRANCH   1   2
ATOM      2  C   UNL A   1      34.988  31.564  28.375  1.00  0.00     0.002 C 
BRANCH   2   3
ATOM      3  C   UNL A   1      33.812  31.340  27.414  1.00  0.00     0.021 C 
BRANCH   3   4
ATOM      4  C   UNL A   1      33.760  29.907  26.886  1.00  0.00     0.116 C 
BRANCH   4   5
ATOM      5  N   UNL A   1      32.829  29.148  27.686  1.00  0.00    -0.351 N 
ATOM      6  C   UNL A   1      31.826  28.271  27.367  1.00  0.00     0.270 C 
ATOM      7  O   UNL A   1      31.101  27.923  28.303  1.00  0.00    -0.268 OA
ATOM      8  H   UNL A   1      32.936  29.288  28.654  1.00  0.00     0.163 HD
BRANCH   6   9
ATOM      9  C   UNL A   1      31.623  27.677  26.002  1.00  0.00     0.133 A 
ATOM     10  C   UNL A   1      30.746  28.241  22.421  1.00  0.00     0.067 C 
ATOM     11  C   UNL A   1      31.194  27.610  23.707  1.00  0.00     0.044 A 
ATOM     12  C   UNL A   1      31.098  28.303  24.899  1.00  0.00     0.058 A 
ATOM     13  N   UNL A   1      31.656  26.345  23.638  1.00  0.00    -0.218 NA
ATOM     14  C   UNL A   1      32.002  25.759  24.788  1.00  0.00     0.226 A 
ATOM     15  N   UNL A   1      32.034  26.402  25.952  1.00  0.00    -0.208 NA
BRANCH  14  16
ATOM     16  N   UNL A   1      32.292  24.423  24.850  1.00  0.00    -0.337 N 
ATOM     17  C   UNL A   1      33.324  23.837  24.004  1.00  0.00     0.141 C 
ATOM     18  C   UNL A   1      31.117  23.582  25.124  1.00  0.00     0.141 C 
ATOM     19  C   UNL A   1      33.780  22.490  24.626  1.00  0.00     0.138 C 
ATOM     20  C   UNL A   1      31.547  22.228  25.708  1.00  0.00     0.138 C 
ATOM     21  N   UNL A   1      32.611  21.636  24.886  1.00  0.00    -0.367 N 
BRANCH  21  22
ATOM     22  C   UNL A   1      32.592  20.300  24.556  1.00  0.00     0.056 A 
ATOM     23  C   UNL A   1      32.889  19.339  25.532  1.00  0.00     0.027 A 
ATOM     24  C   UNL A   1      32.295  19.837  23.256  1.00  0.00     0.064 A 
ATOM     25  C   UNL A   1      32.889  17.973  25.235  1.00  0.00     0.002 A 
ATOM     26  C   UNL A   1      32.303  18.472  22.954  1.00  0.00     0.023 A 
ATOM     27  Cl  UNL A   1      31.983  20.924  21.942  1.00  0.00    -0.082 Cl
ATOM     28  C   UNL A   1      32.599  17.540  23.944  1.00  0.00     0.002 A 
ENDBRANCH  21  22
ENDBRANCH  14  16
ENDBRANCH   6   9
ENDBRANCH   4   5
ENDBRANCH   3   4
ENDBRANCH   2   3
ENDBRANCH   1   2
BRANCH   1  29
ATOM     29  C   UNL A   1      35.970  33.722  29.386  1.00  0.00     0.021 C 
BRANCH  29  30
ATOM     30  C   UNL A   1      37.076  33.211  30.301  1.00  0.00     0.116 C 
BRANCH  30  31
ATOM     31  N   UNL A   1      36.557  32.260  31.273  1.00  0.00    -0.352 N 
ATOM     32  C   UNL A   1      36.940  30.963  31.499  1.00  0.00     0.251 C 
ATOM     33  H   UNL A   1      35.832  32.596  31.848  1.00  0.00     0.163 HD
ATOM     34  O   UNL A   1      36.226  30.220  32.164  1.00  0.00    -0.269 OA
BRANCH  32  35
ATOM     35  C   UNL A   1      38.210  30.468  30.929  1.00  0.00     0.039 A 
ATOM     36  C   UNL A   1      38.332  30.348  29.543  1.00  0.00     0.014 A 
ATOM     37  C   UNL A   1      39.273  30.113  31.765  1.00  0.00     0.014 A 
ATOM     38  C   UNL A   1      39.540  29.916  28.993  1.00  0.00     0.010 A 
ATOM     39  C   UNL A   1      40.498  29.754  31.213  1.00  0.00     0.010 A 
ATOM     40  C   UNL A   1      40.641  29.643  29.822  1.00  0.00    -0.014 A 
BRANCH  40  41
ATOM     41  C   UNL A   1      41.950  29.235  29.253  1.00  0.00     0.031 A 
ATOM     42  C   UNL A   1      43.056  30.246  29.106  1.00  0.00     0.074 A 
ATOM     43  C   UNL A   1      42.120  27.972  28.814  1.00  0.00     0.049 A 
ATOM     44  N   UNL A   1      44.242  30.099  28.574  1.00  0.00    -0.248 NA
ATOM     45  C   UNL A   1      42.785  31.608  29.597  1.00  0.00     0.031 C 
ATOM     46  C   UNL A   1      41.105  26.916  28.862  1.00  0.00     0.029 A 
ATOM     47  N   UNL A   1      43.204  27.363  28.233  1.00  0.00    -0.354 N 
ATOM     48  C   UNL A   1      44.850  31.347  28.651  1.00  0.00     0.074 A 
ATOM     49  C   UNL A   1      43.884  32.253  29.235  1.00  0.00     0.031 C 
ATOM     50  C   UNL A   1      41.623  25.786  28.355  1.00  0.00     0.029 A 
ATOM     51  C   UNL A   1      42.988  26.044  27.910  1.00  0.00     0.049 A 
ATOM     52  H   UNL A   1      44.055  27.826  28.064  1.00  0.00     0.167 HD
ATOM     53  C   UNL A   1      46.106  31.700  28.290  1.00  0.00     0.037 A 
ATOM     54  C   UNL A   1      43.797  25.146  27.313  1.00  0.00     0.037 A 
ATOM     55  C   UNL A   1      47.071  30.784  27.738  1.00  0.00     0.049 A 
ATOM     56  C   UNL A   1      45.188  25.565  26.918  1.00  0.00     0.074 A 
ATOM     57  C   UNL A   1      48.391  31.027  27.400  1.00  0.00     0.029 A 
ATOM     58  N   UNL A   1      46.821  29.452  27.441  1.00  0.00    -0.354 N 
ATOM     59  N   UNL A   1      45.769  26.733  27.061  1.00  0.00    -0.248 NA
ATOM     60  C   UNL A   1      46.035  24.545  26.286  1.00  0.00     0.031 C 
ATOM     61  C   UNL A   1      48.924  29.857  26.852  1.00  0.00     0.029 A 
ATOM     62  C   UNL A   1      47.954  28.867  26.901  1.00  0.00     0.049 A 
ATOM     63  H   UNL A   1      45.964  28.991  27.593  1.00  0.00     0.167 HD
ATOM     64  C   UNL A   1      47.059  26.578  26.567  1.00  0.00     0.074 A 
ATOM     65  C   UNL A   1      47.176  25.201  26.132  1.00  0.00     0.031 C 
ATOM     66  C   UNL A   1      48.057  27.492  26.482  1.00  0.00     0.037 A 
BRANCH  53  67
ATOM     67  C   UNL A   1      46.517  33.134  28.483  1.00  0.00     0.058 A 
ATOM     68  C   UNL A   1      47.081  33.587  29.688  1.00  0.00     0.135 A 
ATOM     69  C   UNL A   1      46.396  34.058  27.431  1.00  0.00     0.135 A 
ATOM     70  F   UNL A   1      47.205  32.751  30.731  1.00  0.00    -0.206 F 
ATOM     71  C   UNL A   1      47.487  34.907  29.850  1.00  0.00     0.059 A 
ATOM     72  C   UNL A   1      46.823  35.376  27.562  1.00  0.00     0.059 A 
ATOM     73  F   UNL A   1      45.863  33.680  26.258  1.00  0.00    -0.206 F 
ATOM     74  C   UNL A   1      47.358  35.793  28.780  1.00  0.00     0.060 A 
BRANCH  74  75
ATOM     75  S   UNL A   1      47.909  37.498  29.002  1.00  0.00     0.124 S 
ATOM     76  O   UNL A   1      48.589  37.752  27.736  1.00  0.00    -0.237 OA
ATOM     77  O   UNL A   1      46.650  38.209  29.199  1.00  0.00    -0.237 OA
ATOM     78  O   UNL A   1      48.774  37.426  30.175  1.00  0.00    -0.744 OA
ENDBRANCH  74  75
ENDBRANCH  53  67
BRANCH  54  79
ATOM     79  C   UNL A   1      43.321  23.758  27.068  1.00  0.00     0.058 A 
ATOM     80  C   UNL A   1      43.202  22.840  28.122  1.00  0.00     0.135 A 
ATOM     81  C   UNL A   1      42.976  23.321  25.778  1.00  0.00     0.135 A 
ATOM     82  F   UNL A   1      43.523  23.207  29.371  1.00  0.00    -0.206 F 
ATOM     83  C   UNL A   1      42.784  21.531  27.905  1.00  0.00     0.059 A 
ATOM     84  C   UNL A   1      42.529  22.026  25.541  1.00  0.00     0.059 A 
ATOM     85  F   UNL A   1      43.053  24.166  24.738  1.00  0.00    -0.206 F 
ATOM     86  C   UNL A   1      42.450  21.133  26.609  1.00  0.00     0.060 A 
BRANCH  86  87
ATOM     87  S   UNL A   1      41.879  19.441  26.342  1.00  0.00     0.124 S 
ATOM     88  O   UNL A   1      40.433  19.621  26.300  1.00  0.00    -0.237 OA
ATOM     89  O   UNL A   1      42.518  19.100  25.074  1.00  0.00    -0.237 OA
ATOM     90  O   UNL A   1      42.393  18.725  27.506  1.00  0.00    -0.744 OA
ENDBRANCH  86  87
ENDBRANCH  54  79
BRANCH  66  91
ATOM     91  C   UNL A   1      49.379  27.027  25.936  1.00  0.00     0.058 A 
ATOM     92  C   UNL A   1      49.711  27.169  24.580  1.00  0.00     0.135 A 
ATOM     93  C   UNL A   1      50.347  26.479  26.795  1.00  0.00     0.135 A 
ATOM     94  F   UNL A   1      48.819  27.679  23.716  1.00  0.00    -0.206 F 
ATOM     95  C   UNL A   1      50.947  26.763  24.088  1.00  0.00     0.059 A 
ATOM     96  C   UNL A   1      51.602  26.095  26.330  1.00  0.00     0.059 A 
ATOM     97  F   UNL A   1      50.086  26.331  28.102  1.00  0.00    -0.206 F 
ATOM     98  C   UNL A   1      51.888  26.229  24.972  1.00  0.00     0.060 A 
BRANCH  98  99
ATOM     99  S   UNL A   1      53.501  25.740  24.328  1.00  0.00     0.124 S 
ATOM    100  O   UNL A   1      54.378  26.720  24.958  1.00  0.00    -0.237 OA
ATOM    101  O   UNL A   1      53.628  24.370  24.815  1.00  0.00    -0.237 OA
ATOM    102  O   UNL A   1      53.345  25.873  22.883  1.00  0.00    -0.744 OA
ENDBRANCH  98  99
ENDBRANCH  66  91
ENDBRANCH  40  41
ENDBRANCH  32  35
ENDBRANCH  30  31
ENDBRANCH  29  30
ENDBRANCH   1  29
TORSDOF 18
ENDMDL
MODEL 2
REMARK VINA RESULT:     -12.1      5.188      8.028
REMARK SMILES Cc1cc(C(=O)NCCCCCCNC(=O)c2ccc(-c3c4nc(c(-c5c(F)cc(S(=O)(=O)[O-])cc5F)c5ccc([nH]5)c(-c5c(F)cc(S(=O)(=O)[O-])cc5F)c5nc(c(-c6c(F)cc(S(=O)(=O)[O-])cc6F)c6ccc3[nH]6)C=C5)C=C4)cc2)nc(N2CCN(c3ccccc3Cl)CC2)n1
REMARK SMILES IDX 11 1 10 2 9 3 8 4 7 5 5 6 6 7 4 9 1 10 2 11 3 12 98 13 84 14
REMARK SMILES IDX 83 15 85 16 86 17 97 18 87 19 96 20 88 21 89 22 90 23 94 24
REMARK SMILES IDX 91 25 93 26 95 27 92 28 12 29 13 30 14 31 15 32 16 34 17 35
REMARK SMILES IDX 18 36 82 37 19 38 81 39 20 40 21 41 22 42 75 43 23 44 80 45
REMARK SMILES IDX 74 46 76 47 24 48 79 49 73 50 72 51 25 53 59 54 38 55 58 56
REMARK SMILES IDX 39 57 42 58 57 59 77 60 40 61 41 62 56 64 78 65 43 66 26 67
REMARK SMILES IDX 27 68 36 69 28 70 29 71 35 72 37 73 30 74 31 75 32 76 33 77
REMARK SMILES IDX 34 78 60 79 61 80 70 81 62 82 63 83 69 84 71 85 64 86 65 87
REMARK SMILES IDX 66 88 67 89 68 90 44 91 45 92 54 93 46 94 47 95 53 96 55 97
REMARK SMILES IDX 48 98 49 99 50 100 51 101 52 102
REMARK H PARENT 7 8 14 33 76 52 42 63
REMARK Flexibility Score: inf
ROOT
ATOM      1  C   UNL A   1      36.412  33.653  28.210  1.00  0.00     0.002 C 
ENDROOT
BRANCH   1   2
ATOM      2  C   UNL A   1      37.031  33.107  29.503  1.00  0.00     0.002 C 
BRANCH   2   3
ATOM      3  C   UNL A   1      38.028  34.061  30.178  1.00  0.00     0.021 C 
BRANCH   3   4
ATOM      4  C   UNL A   1      37.982  33.964  31.702  1.00  0.00     0.116 C 
BRANCH   4   5
ATOM      5  N   UNL A   1      37.251  32.775  32.072  1.00  0.00    -0.351 N 
ATOM      6  C   UNL A   1      37.527  31.739  32.925  1.00  0.00     0.270 C 
ATOM      7  O   UNL A   1      36.746  30.785  32.880  1.00  0.00    -0.268 OA
ATOM      8  H   UNL A   1      36.379  32.694  31.623  1.00  0.00     0.163 HD
BRANCH   6   9
ATOM      9  C   UNL A   1      38.648  31.744  33.927  1.00  0.00     0.133 A 
ATOM     10  C   UNL A   1      40.198  33.357  36.911  1.00  0.00     0.067 C 
ATOM     11  C   UNL A   1      39.889  32.406  35.791  1.00  0.00     0.044 A 
ATOM     12  C   UNL A   1      38.925  32.719  34.852  1.00  0.00     0.058 A 
ATOM     13  N   UNL A   1      40.611  31.268  35.739  1.00  0.00    -0.218 NA
ATOM     14  C   UNL A   1      40.380  30.446  34.710  1.00  0.00     0.226 A 
ATOM     15  N   UNL A   1      39.397  30.635  33.834  1.00  0.00    -0.208 NA
BRANCH  14  16
ATOM     16  N   UNL A   1      41.189  29.373  34.457  1.00  0.00    -0.337 N 
ATOM     17  C   UNL A   1      40.927  28.480  33.336  1.00  0.00     0.141 C 
ATOM     18  C   UNL A   1      41.731  28.750  35.674  1.00  0.00     0.141 C 
ATOM     19  C   UNL A   1      42.228  27.708  32.992  1.00  0.00     0.138 C 
ATOM     20  C   UNL A   1      43.002  27.949  35.351  1.00  0.00     0.138 C 
ATOM     21  N   UNL A   1      42.766  27.066  34.201  1.00  0.00    -0.367 N 
BRANCH  21  22
ATOM     22  C   UNL A   1      43.212  25.764  34.204  1.00  0.00     0.056 A 
ATOM     23  C   UNL A   1      44.293  25.398  33.389  1.00  0.00     0.027 A 
ATOM     24  C   UNL A   1      42.618  24.753  34.990  1.00  0.00     0.064 A 
ATOM     25  C   UNL A   1      44.771  24.085  33.357  1.00  0.00     0.002 A 
ATOM     26  C   UNL A   1      43.088  23.437  34.952  1.00  0.00     0.023 A 
ATOM     27  Cl  UNL A   1      41.230  25.058  35.982  1.00  0.00    -0.082 Cl
ATOM     28  C   UNL A   1      44.165  23.103  34.136  1.00  0.00     0.002 A 
ENDBRANCH  21  22
ENDBRANCH  14  16
ENDBRANCH   6   9
ENDBRANCH   4   5
ENDBRANCH   3   4
ENDBRANCH   2   3
ENDBRANCH   1   2
BRANCH   1  29
ATOM     29  C   UNL A   1      34.925  33.334  28.036  1.00  0.00     0.021 C 
BRANCH  29  30
ATOM     30  C   UNL A   1      34.403  32.285  29.010  1.00  0.00     0.116 C 
BRANCH  30  31
ATOM     31  N   UNL A   1      33.874  31.128  28.305  1.00  0.00    -0.352 N 
ATOM     32  C   UNL A   1      34.548  30.055  27.781  1.00  0.00     0.251 C 
ATOM     33  H   UNL A   1      32.896  31.114  28.188  1.00  0.00     0.163 HD
ATOM     34  O   UNL A   1      33.988  29.306  26.989  1.00  0.00    -0.269 OA
BRANCH  32  35
ATOM     35  C   UNL A   1      35.952  29.814  28.173  1.00  0.00     0.039 A 
ATOM     36  C   UNL A   1      36.228  29.344  29.459  1.00  0.00     0.014 A 
ATOM     37  C   UNL A   1      36.993  30.066  27.274  1.00  0.00     0.014 A 
ATOM     38  C   UNL A   1      37.548  29.079  29.826  1.00  0.00     0.010 A 
ATOM     39  C   UNL A   1      38.299  29.732  27.617  1.00  0.00     0.010 A 
ATOM     40  C   UNL A   1      38.591  29.244  28.899  1.00  0.00    -0.014 A 
BRANCH  40  41
ATOM     41  C   UNL A   1      39.995  28.916  29.254  1.00  0.00     0.031 A 
ATOM     42  C   UNL A   1      40.845  29.926  29.976  1.00  0.00     0.074 A 
ATOM     43  C   UNL A   1      40.518  27.734  28.871  1.00  0.00     0.049 A 
ATOM     44  N   UNL A   1      42.107  29.851  30.313  1.00  0.00    -0.248 NA
ATOM     45  C   UNL A   1      40.202  31.198  30.346  1.00  0.00     0.031 C 
ATOM     46  C   UNL A   1      39.805  26.694  28.126  1.00  0.00     0.029 A 
ATOM     47  N   UNL A   1      41.775  27.211  29.048  1.00  0.00    -0.354 N 
ATOM     48  C   UNL A   1      42.412  31.066  30.917  1.00  0.00     0.074 A 
ATOM     49  C   UNL A   1      41.217  31.880  30.856  1.00  0.00     0.031 C 
ATOM     50  C   UNL A   1      40.626  25.650  27.932  1.00  0.00     0.029 A 
ATOM     51  C   UNL A   1      41.934  25.961  28.499  1.00  0.00     0.049 A 
ATOM     52  H   UNL A   1      42.494  27.686  29.522  1.00  0.00     0.167 HD
ATOM     53  C   UNL A   1      43.573  31.458  31.491  1.00  0.00     0.037 A 
ATOM     54  C   UNL A   1      43.016  25.158  28.451  1.00  0.00     0.037 A 
ATOM     55  C   UNL A   1      44.748  30.629  31.575  1.00  0.00     0.049 A 
ATOM     56  C   UNL A   1      44.297  25.619  29.094  1.00  0.00     0.074 A 
ATOM     57  C   UNL A   1      45.954  30.908  32.193  1.00  0.00     0.029 A 
ATOM     58  N   UNL A   1      44.866  29.361  31.022  1.00  0.00    -0.354 N 
ATOM     59  N   UNL A   1      44.546  26.745  29.721  1.00  0.00    -0.248 NA
ATOM     60  C   UNL A   1      45.442  24.700  29.028  1.00  0.00     0.031 C 
ATOM     61  C   UNL A   1      46.818  29.831  31.972  1.00  0.00     0.029 A 
ATOM     62  C   UNL A   1      46.132  28.856  31.264  1.00  0.00     0.049 A 
ATOM     63  H   UNL A   1      44.153  28.891  30.532  1.00  0.00     0.167 HD
ATOM     64  C   UNL A   1      45.865  26.655  30.151  1.00  0.00     0.074 A 
ATOM     65  C   UNL A   1      46.356  25.361  29.724  1.00  0.00     0.031 C 
ATOM     66  C   UNL A   1      46.602  27.561  30.841  1.00  0.00     0.037 A 
BRANCH  53  67
ATOM     67  C   UNL A   1      43.637  32.841  32.080  1.00  0.00     0.058 A 
ATOM     68  C   UNL A   1      43.815  33.979  31.277  1.00  0.00     0.135 A 
ATOM     69  C   UNL A   1      43.464  33.036  33.461  1.00  0.00     0.135 A 
ATOM     70  F   UNL A   1      44.002  33.850  29.954  1.00  0.00    -0.206 F 
ATOM     71  C   UNL A   1      43.843  35.258  31.823  1.00  0.00     0.059 A 
ATOM     72  C   UNL A   1      43.459  34.309  34.024  1.00  0.00     0.059 A 
ATOM     73  F   UNL A   1      43.291  31.983  34.276  1.00  0.00    -0.206 F 
ATOM     74  C   UNL A   1      43.660  35.413  33.198  1.00  0.00     0.060 A 
BRANCH  74  75
ATOM     75  S   UNL A   1      43.679  37.082  33.887  1.00  0.00     0.124 S 
ATOM     76  O   UNL A   1      43.811  37.893  32.681  1.00  0.00    -0.237 OA
ATOM     77  O   UNL A   1      42.386  37.154  34.561  1.00  0.00    -0.237 OA
ATOM     78  O   UNL A   1      44.842  37.073  34.768  1.00  0.00    -0.744 OA
ENDBRANCH  74  75
ENDBRANCH  53  67
BRANCH  54  79
ATOM     79  C   UNL A   1      42.932  23.830  27.787  1.00  0.00     0.058 A 
ATOM     80  C   UNL A   1      42.470  22.703  28.483  1.00  0.00     0.135 A 
ATOM     81  C   UNL A   1      43.312  23.659  26.446  1.00  0.00     0.135 A 
ATOM     82  F   UNL A   1      42.099  22.813  29.767  1.00  0.00    -0.206 F 
ATOM     83  C   UNL A   1      42.411  21.449  27.884  1.00  0.00     0.059 A 
ATOM     84  C   UNL A   1      43.235  22.420  25.817  1.00  0.00     0.059 A 
ATOM     85  F   UNL A   1      43.743  24.708  25.728  1.00  0.00    -0.206 F 
ATOM     86  C   UNL A   1      42.796  21.317  26.549  1.00  0.00     0.060 A 
BRANCH  86  87
ATOM     87  S   UNL A   1      42.687  19.692  25.771  1.00  0.00     0.124 S 
ATOM     88  O   UNL A   1      41.252  19.569  25.545  1.00  0.00    -0.237 OA
ATOM     89  O   UNL A   1      43.510  19.869  24.577  1.00  0.00    -0.237 OA
ATOM     90  O   UNL A   1      43.246  18.798  26.781  1.00  0.00    -0.744 OA
ENDBRANCH  86  87
ENDBRANCH  54  79
BRANCH  66  91
ATOM     91  C   UNL A   1      48.007  27.172  31.214  1.00  0.00     0.058 A 
ATOM     92  C   UNL A   1      49.086  27.371  30.339  1.00  0.00     0.135 A 
ATOM     93  C   UNL A   1      48.281  26.643  32.485  1.00  0.00     0.135 A 
ATOM     94  F   UNL A   1      48.878  27.867  29.109  1.00  0.00    -0.206 F 
ATOM     95  C   UNL A   1      50.386  27.036  30.703  1.00  0.00     0.059 A 
ATOM     96  C   UNL A   1      49.578  26.330  32.882  1.00  0.00     0.059 A 
ATOM     97  F   UNL A   1      47.286  26.443  33.364  1.00  0.00    -0.206 F 
ATOM     98  C   UNL A   1      50.622  26.518  31.978  1.00  0.00     0.060 A 
BRANCH  98  99
ATOM     99  S   UNL A   1      52.319  26.122  32.451  1.00  0.00     0.124 S 
ATOM    100  O   UNL A   1      52.712  25.204  31.388  1.00  0.00    -0.237 OA
ATOM    101  O   UNL A   1      52.963  27.431  32.428  1.00  0.00    -0.237 OA
ATOM    102  O   UNL A   1      52.173  25.524  33.774  1.00  0.00    -0.744 OA
ENDBRANCH  98  99
ENDBRANCH  66  91
ENDBRANCH  40  41
ENDBRANCH  32  35
ENDBRANCH  30  31
ENDBRANCH  29  30
ENDBRANCH   1  29
TORSDOF 18
ENDMDL
MODEL 3
REMARK VINA RESULT:     -11.8      2.737      9.304
REMARK SMILES Cc1cc(C(=O)NCCCCCCNC(=O)c2ccc(-c3c4nc(c(-c5c(F)cc(S(=O)(=O)[O-])cc5F)c5ccc([nH]5)c(-c5c(F)cc(S(=O)(=O)[O-])cc5F)c5nc(c(-c6c(F)cc(S(=O)(=O)[O-])cc6F)c6ccc3[nH]6)C=C5)C=C4)cc2)nc(N2CCN(c3ccccc3Cl)CC2)n1
REMARK SMILES IDX 11 1 10 2 9 3 8 4 7 5 5 6 6 7 4 9 1 10 2 11 3 12 98 13 84 14
REMARK SMILES IDX 83 15 85 16 86 17 97 18 87 19 96 20 88 21 89 22 90 23 94 24
REMARK SMILES IDX 91 25 93 26 95 27 92 28 12 29 13 30 14 31 15 32 16 34 17 35
REMARK SMILES IDX 18 36 82 37 19 38 81 39 20 40 21 41 22 42 75 43 23 44 80 45
REMARK SMILES IDX 74 46 76 47 24 48 79 49 73 50 72 51 25 53 59 54 38 55 58 56
REMARK SMILES IDX 39 57 42 58 57 59 77 60 40 61 41 62 56 64 78 65 43 66 26 67
REMARK SMILES IDX 27 68 36 69 28 70 29 71 35 72 37 73 30 74 31 75 32 76 33 77
REMARK SMILES IDX 34 78 60 79 61 80 70 81 62 82 63 83 69 84 71 85 64 86 65 87
REMARK SMILES IDX 66 88 67 89 68 90 44 91 45 92 54 93 46 94 47 95 53 96 55 97
REMARK SMILES IDX 48 98 49 99 50 100 51 101 52 102
REMARK H PARENT 7 8 14 33 76 52 42 63
REMARK Flexibility Score: inf
ROOT
ATOM      1  C   UNL A   1      40.726  21.350  27.236  1.00  0.00     0.002 C 
ENDROOT
BRANCH   1   2
ATOM      2  C   UNL A   1      39.889  22.344  26.421  1.00  0.00     0.002 C 
BRANCH   2   3
ATOM      3  C   UNL A   1      38.465  21.862  26.107  1.00  0.00     0.021 C 
BRANCH   3   4
ATOM      4  C   UNL A   1      37.524  23.017  25.767  1.00  0.00     0.116 C 
BRANCH   4   5
ATOM      5  N   UNL A   1      37.425  23.131  24.331  1.00  0.00    -0.351 N 
ATOM      6  C   UNL A   1      36.389  22.954  23.452  1.00  0.00     0.270 C 
ATOM      7  O   UNL A   1      36.693  22.969  22.256  1.00  0.00    -0.268 OA
ATOM      8  H   UNL A   1      38.270  23.389  23.898  1.00  0.00     0.163 HD
BRANCH   6   9
ATOM      9  C   UNL A   1      34.948  22.825  23.857  1.00  0.00     0.133 A 
ATOM     10  C   UNL A   1      32.288  20.714  25.399  1.00  0.00     0.067 C 
ATOM     11  C   UNL A   1      33.035  21.867  24.796  1.00  0.00     0.044 A 
ATOM     12  C   UNL A   1      34.313  21.691  24.298  1.00  0.00     0.058 A 
ATOM     13  N   UNL A   1      32.392  23.051  24.741  1.00  0.00    -0.218 NA
ATOM     14  C   UNL A   1      33.032  24.066  24.151  1.00  0.00     0.226 A 
ATOM     15  N   UNL A   1      34.297  23.992  23.749  1.00  0.00    -0.208 NA
BRANCH  14  16
ATOM     16  N   UNL A   1      32.396  25.244  23.868  1.00  0.00    -0.337 N 
ATOM     17  C   UNL A   1      31.690  25.985  24.905  1.00  0.00     0.141 C 
ATOM     18  C   UNL A   1      31.805  25.280  22.523  1.00  0.00     0.141 C 
ATOM     19  C   UNL A   1      31.526  27.459  24.447  1.00  0.00     0.138 C 
ATOM     20  C   UNL A   1      31.600  26.731  22.062  1.00  0.00     0.138 C 
ATOM     21  N   UNL A   1      30.918  27.504  23.109  1.00  0.00    -0.367 N 
BRANCH  21  22
ATOM     22  C   UNL A   1      29.893  28.369  22.797  1.00  0.00     0.056 A 
ATOM     23  C   UNL A   1      30.178  29.577  22.144  1.00  0.00     0.027 A 
ATOM     24  C   UNL A   1      28.545  28.104  23.118  1.00  0.00     0.064 A 
ATOM     25  C   UNL A   1      29.168  30.486  21.819  1.00  0.00     0.002 A 
ATOM     26  C   UNL A   1      27.533  29.017  22.802  1.00  0.00     0.023 A 
ATOM     27  Cl  UNL A   1      28.069  26.684  23.990  1.00  0.00    -0.082 Cl
ATOM     28  C   UNL A   1      27.845  30.207  22.151  1.00  0.00     0.002 A 
ENDBRANCH  21  22
ENDBRANCH  14  16
ENDBRANCH   6   9
ENDBRANCH   4   5
ENDBRANCH   3   4
ENDBRANCH   2   3
ENDBRANCH   1   2
BRANCH   1  29
ATOM     29  C   UNL A   1      40.940  19.995  26.556  1.00  0.00     0.021 C 
BRANCH  29  30
ATOM     30  C   UNL A   1      42.227  19.294  26.974  1.00  0.00     0.116 C 
BRANCH  30  31
ATOM     31  N   UNL A   1      43.040  18.951  25.818  1.00  0.00    -0.352 N 
ATOM     32  C   UNL A   1      43.731  19.781  24.973  1.00  0.00     0.251 C 
ATOM     33  H   UNL A   1      43.103  17.989  25.615  1.00  0.00     0.163 HD
ATOM     34  O   UNL A   1      44.141  19.358  23.898  1.00  0.00    -0.269 OA
BRANCH  32  35
ATOM     35  C   UNL A   1      43.968  21.185  25.364  1.00  0.00     0.039 A 
ATOM     36  C   UNL A   1      44.719  21.455  26.510  1.00  0.00     0.014 A 
ATOM     37  C   UNL A   1      43.438  22.233  24.605  1.00  0.00     0.014 A 
ATOM     38  C   UNL A   1      44.980  22.778  26.868  1.00  0.00     0.010 A 
ATOM     39  C   UNL A   1      43.760  23.549  24.921  1.00  0.00     0.010 A 
ATOM     40  C   UNL A   1      44.526  23.835  26.061  1.00  0.00    -0.014 A 
BRANCH  40  41
ATOM     41  C   UNL A   1      44.839  25.247  26.395  1.00  0.00     0.031 A 
ATOM     42  C   UNL A   1      46.247  25.761  26.255  1.00  0.00     0.074 A 
ATOM     43  C   UNL A   1      43.868  26.047  26.880  1.00  0.00     0.049 A 
ATOM     44  N   UNL A   1      46.729  26.939  26.558  1.00  0.00    -0.248 NA
ATOM     45  C   UNL A   1      47.252  24.820  25.731  1.00  0.00     0.031 C 
ATOM     46  C   UNL A   1      42.476  25.648  27.102  1.00  0.00     0.029 A 
ATOM     47  N   UNL A   1      43.905  27.358  27.283  1.00  0.00    -0.354 N 
ATOM     48  C   UNL A   1      48.090  26.875  26.278  1.00  0.00     0.074 A 
ATOM     49  C   UNL A   1      48.367  25.528  25.828  1.00  0.00     0.031 C 
ATOM     50  C   UNL A   1      41.788  26.698  27.578  1.00  0.00     0.029 A 
ATOM     51  C   UNL A   1      42.694  27.830  27.734  1.00  0.00     0.049 A 
ATOM     52  H   UNL A   1      44.720  27.908  27.252  1.00  0.00     0.167 HD
ATOM     53  C   UNL A   1      49.017  27.857  26.365  1.00  0.00     0.037 A 
ATOM     54  C   UNL A   1      42.356  29.039  28.225  1.00  0.00     0.037 A 
ATOM     55  C   UNL A   1      48.726  29.204  26.784  1.00  0.00     0.049 A 
ATOM     56  C   UNL A   1      43.407  30.112  28.315  1.00  0.00     0.074 A 
ATOM     57  C   UNL A   1      49.583  30.289  26.844  1.00  0.00     0.029 A 
ATOM     58  N   UNL A   1      47.485  29.650  27.216  1.00  0.00    -0.354 N 
ATOM     59  N   UNL A   1      44.675  30.054  27.981  1.00  0.00    -0.248 NA
ATOM     60  C   UNL A   1      42.984  31.416  28.842  1.00  0.00     0.031 C 
ATOM     61  C   UNL A   1      48.873  31.378  27.359  1.00  0.00     0.029 A 
ATOM     62  C   UNL A   1      47.559  30.987  27.568  1.00  0.00     0.049 A 
ATOM     63  H   UNL A   1      46.672  29.096  27.265  1.00  0.00     0.167 HD
ATOM     64  C   UNL A   1      45.191  31.321  28.227  1.00  0.00     0.074 A 
ATOM     65  C   UNL A   1      44.096  32.127  28.727  1.00  0.00     0.031 C 
ATOM     66  C   UNL A   1      46.456  31.778  28.054  1.00  0.00     0.037 A 
BRANCH  53  67
ATOM     67  C   UNL A   1      50.437  27.519  25.997  1.00  0.00     0.058 A 
ATOM     68  C   UNL A   1      50.904  27.627  24.676  1.00  0.00     0.135 A 
ATOM     69  C   UNL A   1      51.357  27.133  26.986  1.00  0.00     0.135 A 
ATOM     70  F   UNL A   1      50.064  27.976  23.689  1.00  0.00    -0.206 F 
ATOM     71  C   UNL A   1      52.225  27.343  24.346  1.00  0.00     0.059 A 
ATOM     72  C   UNL A   1      52.690  26.872  26.682  1.00  0.00     0.059 A 
ATOM     73  F   UNL A   1      50.964  27.011  28.264  1.00  0.00    -0.206 F 
ATOM     74  C   UNL A   1      53.112  26.970  25.357  1.00  0.00     0.060 A 
BRANCH  74  75
ATOM     75  S   UNL A   1      54.827  26.623  24.914  1.00  0.00     0.124 S 
ATOM     76  O   UNL A   1      55.478  27.881  25.267  1.00  0.00    -0.237 OA
ATOM     77  O   UNL A   1      55.145  25.484  25.768  1.00  0.00    -0.237 OA
ATOM     78  O   UNL A   1      54.758  26.332  23.485  1.00  0.00    -0.744 OA
ENDBRANCH  74  75
ENDBRANCH  53  67
BRANCH  54  79
ATOM     79  C   UNL A   1      40.957  29.306  28.654  1.00  0.00     0.058 A 
ATOM     80  C   UNL A   1      39.923  29.423  27.712  1.00  0.00     0.135 A 
ATOM     81  C   UNL A   1      40.623  29.451  30.010  1.00  0.00     0.135 A 
ATOM     82  F   UNL A   1      40.191  29.297  26.404  1.00  0.00    -0.206 F 
ATOM     83  C   UNL A   1      38.615  29.699  28.095  1.00  0.00     0.059 A 
ATOM     84  C   UNL A   1      39.317  29.699  30.420  1.00  0.00     0.059 A 
ATOM     85  F   UNL A   1      41.571  29.329  30.953  1.00  0.00    -0.206 F 
ATOM     86  C   UNL A   1      38.322  29.835  29.453  1.00  0.00     0.060 A 
BRANCH  86  87
ATOM     87  S   UNL A   1      36.615  30.163  29.943  1.00  0.00     0.124 S 
ATOM     88  O   UNL A   1      36.664  31.588  30.247  1.00  0.00    -0.237 OA
ATOM     89  O   UNL A   1      35.875  29.791  28.740  1.00  0.00    -0.237 OA
ATOM     90  O   UNL A   1      36.419  29.279  31.088  1.00  0.00    -0.744 OA
ENDBRANCH  86  87
ENDBRANCH  54  79
BRANCH  66  91
ATOM     91  C   UNL A   1      46.721  33.225  28.367  1.00  0.00     0.058 A 
ATOM     92  C   UNL A   1      46.570  34.230  27.399  1.00  0.00     0.135 A 
ATOM     93  C   UNL A   1      47.080  33.614  29.668  1.00  0.00     0.135 A 
ATOM     94  F   UNL A   1      46.235  33.912  26.139  1.00  0.00    -0.206 F 
ATOM     95  C   UNL A   1      46.788  35.570  27.705  1.00  0.00     0.059 A 
ATOM     96  C   UNL A   1      47.273  34.951  30.004  1.00  0.00     0.059 A 
ATOM     97  F   UNL A   1      47.227  32.693  30.633  1.00  0.00    -0.206 F 
ATOM     98  C   UNL A   1      47.137  35.921  29.011  1.00  0.00     0.060 A 
BRANCH  98  99
ATOM     99  S   UNL A   1      47.382  37.666  29.403  1.00  0.00     0.124 S 
ATOM    100  O   UNL A   1      46.318  38.293  28.627  1.00  0.00    -0.237 OA
ATOM    101  O   UNL A   1      47.208  37.687  30.852  1.00  0.00    -0.237 OA
ATOM    102  O   UNL A   1      48.739  37.932  28.936  1.00  0.00    -0.744 OA
ENDBRANCH  98  99
ENDBRANCH  66  91
ENDBRANCH  40  41
ENDBRANCH  32  35
ENDBRANCH  30  31
ENDBRANCH  29  30
ENDBRANCH   1  29
TORSDOF 18
ENDMDL
