MODEL 1
REMARK VINA RESULT:     -11.4      0.000      0.000
REMARK SMILES CCN1C(=O)C[C@@H](C(=O)NCCCCCCNC(=O)c2ccc(-c3c4nc(c(-c5c(F)cc(S(=O)(=O)[O-])cc5F)c5ccc([nH]5)c(-c5c(F)cc(S(=O)(=O)[O-])cc5F)c5nc(c(-c6c(F)cc(S(=O)(=O)[O-])cc6F)c6ccc3[nH]6)C=C5)C=C4)cc2)[C@H]1c1ccccc1C1CC1
REMARK SMILES IDX 14 1 13 2 12 3 11 4 10 5 8 6 9 7 7 9 3 10 4 11 86 12 5 13
REMARK SMILES IDX 6 14 2 15 1 16 87 17 88 18 92 19 89 20 91 21 90 22 93 23
REMARK SMILES IDX 94 24 95 25 15 26 16 27 17 28 18 29 19 31 20 32 21 33 85 34
REMARK SMILES IDX 22 35 84 36 23 37 24 38 25 39 78 40 26 41 83 42 77 43 79 44
REMARK SMILES IDX 27 45 82 46 76 47 75 48 28 50 62 51 41 52 61 53 42 54 45 55
REMARK SMILES IDX 60 56 80 57 43 58 44 59 59 61 81 62 46 63 29 64 30 65 39 66
REMARK SMILES IDX 31 67 32 68 38 69 40 70 33 71 34 72 35 73 36 74 37 75 63 76
REMARK SMILES IDX 64 77 73 78 65 79 66 80 72 81 74 82 67 83 68 84 69 85 70 86
REMARK SMILES IDX 71 87 47 88 48 89 57 90 49 91 50 92 56 93 58 94 51 95 52 96
REMARK SMILES IDX 53 97 54 98 55 99
REMARK H PARENT 10 8 17 30 79 49 45 60
REMARK Flexibility Score: inf
ROOT
ATOM      1  C   UNL A   1      34.387  32.744  28.335  1.00  0.00     0.002 C 
ENDROOT
BRANCH   1   2
ATOM      2  C   UNL A   1      33.824  31.368  27.966  1.00  0.00     0.002 C 
BRANCH   2   3
ATOM      3  C   UNL A   1      34.773  30.489  27.143  1.00  0.00     0.021 C 
BRANCH   3   4
ATOM      4  C   UNL A   1      34.750  29.021  27.555  1.00  0.00     0.116 C 
BRANCH   4   5
ATOM      5  N   UNL A   1      33.386  28.595  27.810  1.00  0.00    -0.356 N 
ATOM      6  C   UNL A   1      32.413  28.214  26.940  1.00  0.00     0.226 C 
ATOM      7  O   UNL A   1      31.306  27.929  27.397  1.00  0.00    -0.275 OA
ATOM      8  H   UNL A   1      33.126  28.578  28.759  1.00  0.00     0.163 HD
BRANCH   6   9
ATOM      9  C   UNL A   1      32.740  28.114  25.464  1.00  0.00     0.115 C 
ATOM     10  N   UNL A   1      30.874  27.359  24.216  1.00  0.00    -0.335 N 
ATOM     11  C   UNL A   1      30.853  28.746  24.128  1.00  0.00     0.223 C 
ATOM     12  C   UNL A   1      32.148  26.885  24.748  1.00  0.00     0.128 C 
ATOM     13  O   UNL A   1      30.004  29.449  23.599  1.00  0.00    -0.275 OA
ATOM     14  C   UNL A   1      32.134  29.293  24.705  1.00  0.00     0.116 C 
BRANCH  10  15
ATOM     15  C   UNL A   1      29.933  26.437  23.581  1.00  0.00     0.117 C 
ATOM     16  C   UNL A   1      28.467  26.596  23.943  1.00  0.00     0.027 C 
ENDBRANCH  10  15
BRANCH  12  17
ATOM     17  C   UNL A   1      32.085  25.558  25.495  1.00  0.00    -0.021 A 
ATOM     18  C   UNL A   1      30.793  25.117  25.901  1.00  0.00     0.006 A 
ATOM     19  C   UNL A   1      33.214  24.755  25.821  1.00  0.00    -0.040 A 
ATOM     20  C   UNL A   1      30.597  23.994  26.698  1.00  0.00     0.000 A 
ATOM     21  C   UNL A   1      32.960  23.624  26.648  1.00  0.00     0.004 A 
ATOM     22  C   UNL A   1      31.690  23.254  27.094  1.00  0.00     0.000 A 
BRANCH  19  23
ATOM     23  C   UNL A   1      34.679  24.900  25.404  1.00  0.00     0.019 C 
ATOM     24  C   UNL A   1      35.786  23.909  25.618  1.00  0.00     0.009 C 
ATOM     25  C   UNL A   1      35.255  24.160  24.229  1.00  0.00     0.009 C 
ENDBRANCH  19  23
ENDBRANCH  12  17
ENDBRANCH   6   9
ENDBRANCH   4   5
ENDBRANCH   3   4
ENDBRANCH   2   3
ENDBRANCH   1   2
BRANCH   1  26
ATOM     26  C   UNL A   1      35.879  32.922  28.042  1.00  0.00     0.021 C 
BRANCH  26  27
ATOM     27  C   UNL A   1      36.764  32.965  29.285  1.00  0.00     0.116 C 
BRANCH  27  28
ATOM     28  N   UNL A   1      36.230  32.146  30.362  1.00  0.00    -0.352 N 
ATOM     29  C   UNL A   1      36.663  30.930  30.826  1.00  0.00     0.251 C 
ATOM     30  H   UNL A   1      35.445  32.518  30.823  1.00  0.00     0.163 HD
ATOM     31  O   UNL A   1      35.966  30.293  31.611  1.00  0.00    -0.269 OA
BRANCH  29  32
ATOM     32  C   UNL A   1      37.956  30.382  30.364  1.00  0.00     0.039 A 
ATOM     33  C   UNL A   1      38.121  30.112  29.004  1.00  0.00     0.014 A 
ATOM     34  C   UNL A   1      38.999  30.134  31.263  1.00  0.00     0.014 A 
ATOM     35  C   UNL A   1      39.353  29.648  28.539  1.00  0.00     0.010 A 
ATOM     36  C   UNL A   1      40.248  29.744  30.786  1.00  0.00     0.010 A 
ATOM     37  C   UNL A   1      40.438  29.496  29.419  1.00  0.00    -0.014 A 
BRANCH  37  38
ATOM     38  C   UNL A   1      41.779  29.112  28.907  1.00  0.00     0.031 A 
ATOM     39  C   UNL A   1      42.885  30.127  28.810  1.00  0.00     0.074 A 
ATOM     40  C   UNL A   1      41.985  27.846  28.491  1.00  0.00     0.049 A 
ATOM     41  N   UNL A   1      44.114  29.968  28.388  1.00  0.00    -0.248 NA
ATOM     42  C   UNL A   1      42.567  31.504  29.218  1.00  0.00     0.031 C 
ATOM     43  C   UNL A   1      40.971  26.787  28.480  1.00  0.00     0.029 A 
ATOM     44  N   UNL A   1      43.108  27.232  27.998  1.00  0.00    -0.354 N 
ATOM     45  C   UNL A   1      44.712  31.219  28.478  1.00  0.00     0.074 A 
ATOM     46  C   UNL A   1      43.695  32.139  28.937  1.00  0.00     0.031 C 
ATOM     47  C   UNL A   1      41.529  25.649  28.038  1.00  0.00     0.029 A 
ATOM     48  C   UNL A   1      42.924  25.904  27.696  1.00  0.00     0.049 A 
ATOM     49  H   UNL A   1      43.965  27.700  27.871  1.00  0.00     0.167 HD
ATOM     50  C   UNL A   1      45.998  31.564  28.223  1.00  0.00     0.037 A 
ATOM     51  C   UNL A   1      43.780  24.992  27.195  1.00  0.00     0.037 A 
ATOM     52  C   UNL A   1      47.008  30.637  27.775  1.00  0.00     0.049 A 
ATOM     53  C   UNL A   1      45.201  25.401  26.915  1.00  0.00     0.074 A 
ATOM     54  C   UNL A   1      48.351  30.875  27.543  1.00  0.00     0.029 A 
ATOM     55  N   UNL A   1      46.785  29.299  27.481  1.00  0.00    -0.354 N 
ATOM     56  N   UNL A   1      45.769  26.572  27.078  1.00  0.00    -0.248 NA
ATOM     57  C   UNL A   1      46.098  24.364  26.391  1.00  0.00     0.031 C 
ATOM     58  C   UNL A   1      48.928  29.698  27.056  1.00  0.00     0.029 A 
ATOM     59  C   UNL A   1      47.959  28.707  27.041  1.00  0.00     0.049 A 
ATOM     60  H   UNL A   1      45.921  28.838  27.572  1.00  0.00     0.167 HD
ATOM     61  C   UNL A   1      47.096  26.408  26.696  1.00  0.00     0.074 A 
ATOM     62  C   UNL A   1      47.249  25.016  26.320  1.00  0.00     0.031 C 
ATOM     63  C   UNL A   1      48.095  27.323  26.658  1.00  0.00     0.037 A 
BRANCH  50  64
ATOM     64  C   UNL A   1      46.390  33.004  28.423  1.00  0.00     0.058 A 
ATOM     65  C   UNL A   1      46.874  33.475  29.654  1.00  0.00     0.135 A 
ATOM     66  C   UNL A   1      46.323  33.917  27.357  1.00  0.00     0.135 A 
ATOM     67  F   UNL A   1      46.946  32.652  30.712  1.00  0.00    -0.206 F 
ATOM     68  C   UNL A   1      47.249  34.803  29.831  1.00  0.00     0.059 A 
ATOM     69  C   UNL A   1      46.723  35.243  27.502  1.00  0.00     0.059 A 
ATOM     70  F   UNL A   1      45.867  33.524  26.157  1.00  0.00    -0.206 F 
ATOM     71  C   UNL A   1      47.172  35.680  28.747  1.00  0.00     0.060 A 
BRANCH  71  72
ATOM     72  S   UNL A   1      47.673  37.397  28.992  1.00  0.00     0.124 S 
ATOM     73  O   UNL A   1      46.402  38.097  28.831  1.00  0.00    -0.237 OA
ATOM     74  O   UNL A   1      48.217  37.372  30.345  1.00  0.00    -0.237 OA
ATOM     75  O   UNL A   1      48.649  37.622  27.929  1.00  0.00    -0.744 OA
ENDBRANCH  71  72
ENDBRANCH  50  64
BRANCH  51  76
ATOM     76  C   UNL A   1      43.321  23.599  26.946  1.00  0.00     0.058 A 
ATOM     77  C   UNL A   1      43.079  23.137  25.643  1.00  0.00     0.135 A 
ATOM     78  C   UNL A   1      43.126  22.697  28.004  1.00  0.00     0.135 A 
ATOM     79  F   UNL A   1      43.245  23.962  24.598  1.00  0.00    -0.206 F 
ATOM     80  C   UNL A   1      42.643  21.840  25.399  1.00  0.00     0.059 A 
ATOM     81  C   UNL A   1      42.720  21.386  27.783  1.00  0.00     0.059 A 
ATOM     82  F   UNL A   1      43.361  23.082  29.268  1.00  0.00    -0.206 F 
ATOM     83  C   UNL A   1      42.470  20.969  26.476  1.00  0.00     0.060 A 
BRANCH  83  84
ATOM     84  S   UNL A   1      41.952  19.271  26.145  1.00  0.00     0.124 S 
ATOM     85  O   UNL A   1      42.727  18.956  24.951  1.00  0.00    -0.237 OA
ATOM     86  O   UNL A   1      42.356  18.585  27.369  1.00  0.00    -0.237 OA
ATOM     87  O   UNL A   1      40.511  19.392  25.950  1.00  0.00    -0.744 OA
ENDBRANCH  83  84
ENDBRANCH  51  76
BRANCH  63  88
ATOM     88  C   UNL A   1      49.450  26.842  26.209  1.00  0.00     0.058 A 
ATOM     89  C   UNL A   1      50.322  26.169  27.081  1.00  0.00     0.135 A 
ATOM     90  C   UNL A   1      49.877  27.044  24.886  1.00  0.00     0.135 A 
ATOM     91  F   UNL A   1      49.968  25.954  28.358  1.00  0.00    -0.206 F 
ATOM     92  C   UNL A   1      51.584  25.752  26.669  1.00  0.00     0.059 A 
ATOM     93  C   UNL A   1      51.121  26.604  24.443  1.00  0.00     0.059 A 
ATOM     94  F   UNL A   1      49.080  27.669  24.005  1.00  0.00    -0.206 F 
ATOM     95  C   UNL A   1      51.975  25.977  25.348  1.00  0.00     0.060 A 
BRANCH  95  96
ATOM     96  S   UNL A   1      53.614  25.430  24.828  1.00  0.00     0.124 S 
ATOM     97  O   UNL A   1      54.476  26.374  25.533  1.00  0.00    -0.237 OA
ATOM     98  O   UNL A   1      53.652  24.053  25.312  1.00  0.00    -0.237 OA
ATOM     99  O   UNL A   1      53.577  25.577  23.376  1.00  0.00    -0.744 OA
ENDBRANCH  95  96
ENDBRANCH  63  88
ENDBRANCH  37  38
ENDBRANCH  29  32
ENDBRANCH  27  28
ENDBRANCH  26  27
ENDBRANCH   1  26
TORSDOF 19
ENDMDL
MODEL 2
REMARK VINA RESULT:     -11.4      6.147      8.577
REMARK SMILES CCN1C(=O)C[C@@H](C(=O)NCCCCCCNC(=O)c2ccc(-c3c4nc(c(-c5c(F)cc(S(=O)(=O)[O-])cc5F)c5ccc([nH]5)c(-c5c(F)cc(S(=O)(=O)[O-])cc5F)c5nc(c(-c6c(F)cc(S(=O)(=O)[O-])cc6F)c6ccc3[nH]6)C=C5)C=C4)cc2)[C@H]1c1ccccc1C1CC1
REMARK SMILES IDX 14 1 13 2 12 3 11 4 10 5 8 6 9 7 7 9 3 10 4 11 86 12 5 13
REMARK SMILES IDX 6 14 2 15 1 16 87 17 88 18 92 19 89 20 91 21 90 22 93 23
REMARK SMILES IDX 94 24 95 25 15 26 16 27 17 28 18 29 19 31 20 32 21 33 85 34
REMARK SMILES IDX 22 35 84 36 23 37 24 38 25 39 78 40 26 41 83 42 77 43 79 44
REMARK SMILES IDX 27 45 82 46 76 47 75 48 28 50 62 51 41 52 61 53 42 54 45 55
REMARK SMILES IDX 60 56 80 57 43 58 44 59 59 61 81 62 46 63 29 64 30 65 39 66
REMARK SMILES IDX 31 67 32 68 38 69 40 70 33 71 34 72 35 73 36 74 37 75 63 76
REMARK SMILES IDX 64 77 73 78 65 79 66 80 72 81 74 82 67 83 68 84 69 85 70 86
REMARK SMILES IDX 71 87 47 88 48 89 57 90 49 91 50 92 56 93 58 94 51 95 52 96
REMARK SMILES IDX 53 97 54 98 55 99
REMARK H PARENT 10 8 17 30 79 49 45 60
REMARK Flexibility Score: inf
ROOT
ATOM      1  C   UNL A   1      31.025  31.826  25.844  1.00  0.00     0.002 C 
ENDROOT
BRANCH   1   2
ATOM      2  C   UNL A   1      31.359  30.479  25.197  1.00  0.00     0.002 C 
BRANCH   2   3
ATOM      3  C   UNL A   1      30.320  29.980  24.187  1.00  0.00     0.021 C 
BRANCH   3   4
ATOM      4  C   UNL A   1      30.932  29.231  23.008  1.00  0.00     0.116 C 
BRANCH   4   5
ATOM      5  N   UNL A   1      30.613  27.818  23.095  1.00  0.00    -0.356 N 
ATOM      6  C   UNL A   1      31.436  26.735  23.091  1.00  0.00     0.226 C 
ATOM      7  O   UNL A   1      30.922  25.617  23.137  1.00  0.00    -0.275 OA
ATOM      8  H   UNL A   1      29.653  27.611  23.169  1.00  0.00     0.163 HD
BRANCH   6   9
ATOM      9  C   UNL A   1      32.936  26.948  23.077  1.00  0.00     0.115 C 
ATOM     10  N   UNL A   1      34.050  25.329  24.399  1.00  0.00    -0.335 N 
ATOM     11  C   UNL A   1      34.095  24.850  23.095  1.00  0.00     0.223 C 
ATOM     12  C   UNL A   1      33.637  26.728  24.431  1.00  0.00     0.128 C 
ATOM     13  O   UNL A   1      34.532  23.775  22.707  1.00  0.00    -0.275 OA
ATOM     14  C   UNL A   1      33.608  25.927  22.160  1.00  0.00     0.116 C 
BRANCH  10  15
ATOM     15  C   UNL A   1      34.632  24.687  25.577  1.00  0.00     0.117 C 
ATOM     16  C   UNL A   1      33.885  23.497  26.151  1.00  0.00     0.027 C 
ENDBRANCH  10  15
BRANCH  12  17
ATOM     17  C   UNL A   1      32.927  27.165  25.707  1.00  0.00    -0.021 A 
ATOM     18  C   UNL A   1      31.751  26.446  26.060  1.00  0.00     0.006 A 
ATOM     19  C   UNL A   1      33.347  28.237  26.544  1.00  0.00    -0.040 A 
ATOM     20  C   UNL A   1      30.932  26.815  27.122  1.00  0.00     0.000 A 
ATOM     21  C   UNL A   1      32.468  28.581  27.610  1.00  0.00     0.004 A 
ATOM     22  C   UNL A   1      31.281  27.904  27.890  1.00  0.00     0.000 A 
BRANCH  19  23
ATOM     23  C   UNL A   1      34.623  29.083  26.496  1.00  0.00     0.019 C 
ATOM     24  C   UNL A   1      34.998  30.213  27.410  1.00  0.00     0.009 C 
ATOM     25  C   UNL A   1      35.741  28.904  27.484  1.00  0.00     0.009 C 
ENDBRANCH  19  23
ENDBRANCH  12  17
ENDBRANCH   6   9
ENDBRANCH   4   5
ENDBRANCH   3   4
ENDBRANCH   2   3
ENDBRANCH   1   2
BRANCH   1  26
ATOM     26  C   UNL A   1      31.571  32.006  27.263  1.00  0.00     0.021 C 
BRANCH  26  27
ATOM     27  C   UNL A   1      32.839  32.849  27.348  1.00  0.00     0.116 C 
BRANCH  27  28
ATOM     28  N   UNL A   1      32.555  34.225  27.723  1.00  0.00    -0.352 N 
ATOM     29  C   UNL A   1      33.082  34.975  28.743  1.00  0.00     0.251 C 
ATOM     30  H   UNL A   1      31.887  34.684  27.164  1.00  0.00     0.163 HD
ATOM     31  O   UNL A   1      32.574  36.054  29.033  1.00  0.00    -0.269 OA
BRANCH  29  32
ATOM     32  C   UNL A   1      34.245  34.471  29.504  1.00  0.00     0.039 A 
ATOM     33  C   UNL A   1      34.031  33.920  30.769  1.00  0.00     0.014 A 
ATOM     34  C   UNL A   1      35.539  34.541  28.977  1.00  0.00     0.014 A 
ATOM     35  C   UNL A   1      35.107  33.386  31.479  1.00  0.00     0.010 A 
ATOM     36  C   UNL A   1      36.598  33.940  29.654  1.00  0.00     0.010 A 
ATOM     37  C   UNL A   1      36.393  33.357  30.912  1.00  0.00    -0.014 A 
BRANCH  37  38
ATOM     38  C   UNL A   1      37.516  32.688  31.619  1.00  0.00     0.031 A 
ATOM     39  C   UNL A   1      38.014  33.212  32.939  1.00  0.00     0.074 A 
ATOM     40  C   UNL A   1      38.115  31.626  31.044  1.00  0.00     0.049 A 
ATOM     41  N   UNL A   1      38.982  32.755  33.694  1.00  0.00    -0.248 NA
ATOM     42  C   UNL A   1      37.357  34.416  33.472  1.00  0.00     0.031 C 
ATOM     43  C   UNL A   1      37.761  31.064  29.737  1.00  0.00     0.029 A 
ATOM     44  N   UNL A   1      39.144  30.829  31.477  1.00  0.00    -0.354 N 
ATOM     45  C   UNL A   1      39.050  33.613  34.785  1.00  0.00     0.074 A 
ATOM     46  C   UNL A   1      38.068  34.653  34.565  1.00  0.00     0.031 C 
ATOM     47  C   UNL A   1      38.534  29.994  29.495  1.00  0.00     0.029 A 
ATOM     48  C   UNL A   1      39.465  29.818  30.604  1.00  0.00     0.049 A 
ATOM     49  H   UNL A   1      39.609  30.969  32.334  1.00  0.00     0.167 HD
ATOM     50  C   UNL A   1      39.844  33.529  35.881  1.00  0.00     0.037 A 
ATOM     51  C   UNL A   1      40.406  28.857  30.683  1.00  0.00     0.037 A 
ATOM     52  C   UNL A   1      40.813  32.484  36.096  1.00  0.00     0.049 A 
ATOM     53  C   UNL A   1      41.279  28.789  31.907  1.00  0.00     0.074 A 
ATOM     54  C   UNL A   1      41.625  32.278  37.197  1.00  0.00     0.029 A 
ATOM     55  N   UNL A   1      41.110  31.476  35.190  1.00  0.00    -0.354 N 
ATOM     56  N   UNL A   1      41.277  29.564  32.964  1.00  0.00    -0.248 NA
ATOM     57  C   UNL A   1      42.273  27.710  31.952  1.00  0.00     0.031 C 
ATOM     58  C   UNL A   1      42.452  31.180  36.934  1.00  0.00     0.029 A 
ATOM     59  C   UNL A   1      42.114  30.663  35.693  1.00  0.00     0.049 A 
ATOM     60  H   UNL A   1      40.672  31.354  34.316  1.00  0.00     0.167 HD
ATOM     61  C   UNL A   1      42.257  29.056  33.810  1.00  0.00     0.074 A 
ATOM     62  C   UNL A   1      42.809  27.889  33.150  1.00  0.00     0.031 C 
ATOM     63  C   UNL A   1      42.663  29.512  35.021  1.00  0.00     0.037 A 
BRANCH  50  64
ATOM     64  C   UNL A   1      39.698  34.595  36.934  1.00  0.00     0.058 A 
ATOM     65  C   UNL A   1      38.829  34.441  38.027  1.00  0.00     0.135 A 
ATOM     66  C   UNL A   1      40.470  35.768  36.877  1.00  0.00     0.135 A 
ATOM     67  F   UNL A   1      38.056  33.348  38.128  1.00  0.00    -0.206 F 
ATOM     68  C   UNL A   1      38.708  35.421  39.007  1.00  0.00     0.059 A 
ATOM     69  C   UNL A   1      40.388  36.748  37.863  1.00  0.00     0.059 A 
ATOM     70  F   UNL A   1      41.317  35.970  35.855  1.00  0.00    -0.206 F 
ATOM     71  C   UNL A   1      39.495  36.572  38.917  1.00  0.00     0.060 A 
BRANCH  71  72
ATOM     72  S   UNL A   1      39.332  37.828  40.203  1.00  0.00     0.124 S 
ATOM     73  O   UNL A   1      38.236  38.638  39.682  1.00  0.00    -0.237 OA
ATOM     74  O   UNL A   1      39.024  37.027  41.383  1.00  0.00    -0.237 OA
ATOM     75  O   UNL A   1      40.640  38.477  40.212  1.00  0.00    -0.744 OA
ENDBRANCH  71  72
ENDBRANCH  50  64
BRANCH  51  76
ATOM     76  C   UNL A   1      40.559  27.873  29.577  1.00  0.00     0.058 A 
ATOM     77  C   UNL A   1      41.575  28.009  28.619  1.00  0.00     0.135 A 
ATOM     78  C   UNL A   1      39.699  26.769  29.463  1.00  0.00     0.135 A 
ATOM     79  F   UNL A   1      42.419  29.050  28.681  1.00  0.00    -0.206 F 
ATOM     80  C   UNL A   1      41.722  27.098  27.579  1.00  0.00     0.059 A 
ATOM     81  C   UNL A   1      39.844  25.829  28.449  1.00  0.00     0.059 A 
ATOM     82  F   UNL A   1      38.721  26.582  30.363  1.00  0.00    -0.206 F 
ATOM     83  C   UNL A   1      40.853  26.008  27.504  1.00  0.00     0.060 A 
BRANCH  83  84
ATOM     84  S   UNL A   1      41.084  24.804  26.178  1.00  0.00     0.124 S 
ATOM     85  O   UNL A   1      41.966  23.833  26.815  1.00  0.00    -0.237 OA
ATOM     86  O   UNL A   1      39.716  24.359  25.929  1.00  0.00    -0.237 OA
ATOM     87  O   UNL A   1      41.682  25.595  25.107  1.00  0.00    -0.744 OA
ENDBRANCH  83  84
ENDBRANCH  51  76
BRANCH  63  88
ATOM     88  C   UNL A   1      43.749  28.734  35.718  1.00  0.00     0.058 A 
ATOM     89  C   UNL A   1      43.454  27.685  36.605  1.00  0.00     0.135 A 
ATOM     90  C   UNL A   1      45.102  29.032  35.486  1.00  0.00     0.135 A 
ATOM     91  F   UNL A   1      42.178  27.361  36.868  1.00  0.00    -0.206 F 
ATOM     92  C   UNL A   1      44.459  26.989  37.269  1.00  0.00     0.059 A 
ATOM     93  C   UNL A   1      46.124  28.325  36.112  1.00  0.00     0.059 A 
ATOM     94  F   UNL A   1      45.443  30.015  34.638  1.00  0.00    -0.206 F 
ATOM     95  C   UNL A   1      45.792  27.319  37.017  1.00  0.00     0.060 A 
BRANCH  95  96
ATOM     96  S   UNL A   1      47.085  26.407  37.884  1.00  0.00     0.124 S 
ATOM     97  O   UNL A   1      47.435  25.387  36.901  1.00  0.00    -0.237 OA
ATOM     98  O   UNL A   1      48.094  27.438  38.114  1.00  0.00    -0.237 OA
ATOM     99  O   UNL A   1      46.412  25.919  39.084  1.00  0.00    -0.744 OA
ENDBRANCH  95  96
ENDBRANCH  63  88
ENDBRANCH  37  38
ENDBRANCH  29  32
ENDBRANCH  27  28
ENDBRANCH  26  27
ENDBRANCH   1  26
TORSDOF 19
ENDMDL
MODEL 3
REMARK VINA RESULT:     -11.2      6.021      8.605
REMARK SMILES CCN1C(=O)C[C@@H](C(=O)NCCCCCCNC(=O)c2ccc(-c3c4nc(c(-c5c(F)cc(S(=O)(=O)[O-])cc5F)c5ccc([nH]5)c(-c5c(F)cc(S(=O)(=O)[O-])cc5F)c5nc(c(-c6c(F)cc(S(=O)(=O)[O-])cc6F)c6ccc3[nH]6)C=C5)C=C4)cc2)[C@H]1c1ccccc1C1CC1
REMARK SMILES IDX 14 1 13 2 12 3 11 4 10 5 8 6 9 7 7 9 3 10 4 11 86 12 5 13
REMARK SMILES IDX 6 14 2 15 1 16 87 17 88 18 92 19 89 20 91 21 90 22 93 23
REMARK SMILES IDX 94 24 95 25 15 26 16 27 17 28 18 29 19 31 20 32 21 33 85 34
REMARK SMILES IDX 22 35 84 36 23 37 24 38 25 39 78 40 26 41 83 42 77 43 79 44
REMARK SMILES IDX 27 45 82 46 76 47 75 48 28 50 62 51 41 52 61 53 42 54 45 55
REMARK SMILES IDX 60 56 80 57 43 58 44 59 59 61 81 62 46 63 29 64 30 65 39 66
REMARK SMILES IDX 31 67 32 68 38 69 40 70 33 71 34 72 35 73 36 74 37 75 63 76
REMARK SMILES IDX 64 77 73 78 65 79 66 80 72 81 74 82 67 83 68 84 69 85 70 86
REMARK SMILES IDX 71 87 47 88 48 89 57 90 49 91 50 92 56 93 58 94 51 95 52 96
REMARK SMILES IDX 53 97 54 98 55 99
REMARK H PARENT 10 8 17 30 79 49 45 60
REMARK Flexibility Score: inf
ROOT
ATOM      1  C   UNL A   1      31.908  30.217  26.688  1.00  0.00     0.002 C 
ENDROOT
BRANCH   1   2
ATOM      2  C   UNL A   1      32.007  29.711  25.246  1.00  0.00     0.002 C 
BRANCH   2   3
ATOM      3  C   UNL A   1      33.121  28.685  25.005  1.00  0.00     0.021 C 
BRANCH   3   4
ATOM      4  C   UNL A   1      33.218  27.628  26.100  1.00  0.00     0.116 C 
BRANCH   4   5
ATOM      5  N   UNL A   1      34.158  26.592  25.711  1.00  0.00    -0.356 N 
ATOM      6  C   UNL A   1      34.019  25.239  25.720  1.00  0.00     0.226 C 
ATOM      7  O   UNL A   1      34.984  24.556  25.375  1.00  0.00    -0.275 OA
ATOM      8  H   UNL A   1      35.029  26.920  25.390  1.00  0.00     0.163 HD
BRANCH   6   9
ATOM      9  C   UNL A   1      32.684  24.636  26.105  1.00  0.00     0.115 C 
ATOM     10  N   UNL A   1      32.278  22.618  24.935  1.00  0.00    -0.335 N 
ATOM     11  C   UNL A   1      32.813  22.244  26.162  1.00  0.00     0.223 C 
ATOM     12  C   UNL A   1      31.886  24.023  24.940  1.00  0.00     0.128 C 
ATOM     13  O   UNL A   1      33.107  21.117  26.538  1.00  0.00    -0.275 OA
ATOM     14  C   UNL A   1      32.889  23.456  27.054  1.00  0.00     0.116 C 
BRANCH  10  15
ATOM     15  C   UNL A   1      31.839  21.716  23.872  1.00  0.00     0.117 C 
ATOM     16  C   UNL A   1      32.757  20.555  23.532  1.00  0.00     0.027 C 
ENDBRANCH  10  15
BRANCH  12  17
ATOM     17  C   UNL A   1      31.923  24.711  23.580  1.00  0.00    -0.021 A 
ATOM     18  C   UNL A   1      32.749  24.112  22.586  1.00  0.00     0.006 A 
ATOM     19  C   UNL A   1      31.214  25.900  23.251  1.00  0.00    -0.040 A 
ATOM     20  C   UNL A   1      32.981  24.699  21.346  1.00  0.00     0.000 A 
ATOM     21  C   UNL A   1      31.495  26.464  21.973  1.00  0.00     0.004 A 
ATOM     22  C   UNL A   1      32.367  25.895  21.045  1.00  0.00     0.000 A 
BRANCH  19  23
ATOM     23  C   UNL A   1      30.162  26.673  24.051  1.00  0.00     0.019 C 
ATOM     24  C   UNL A   1      29.236  27.738  23.541  1.00  0.00     0.009 C 
ATOM     25  C   UNL A   1      28.692  26.387  23.931  1.00  0.00     0.009 C 
ENDBRANCH  19  23
ENDBRANCH  12  17
ENDBRANCH   6   9
ENDBRANCH   4   5
ENDBRANCH   3   4
ENDBRANCH   2   3
ENDBRANCH   1   2
BRANCH   1  26
ATOM     26  C   UNL A   1      31.765  31.735  26.824  1.00  0.00     0.021 C 
BRANCH  26  27
ATOM     27  C   UNL A   1      32.986  32.432  27.417  1.00  0.00     0.116 C 
BRANCH  27  28
ATOM     28  N   UNL A   1      32.734  33.839  27.681  1.00  0.00    -0.352 N 
ATOM     29  C   UNL A   1      33.285  34.657  28.635  1.00  0.00     0.251 C 
ATOM     30  H   UNL A   1      32.073  34.267  27.091  1.00  0.00     0.163 HD
ATOM     31  O   UNL A   1      32.802  35.768  28.840  1.00  0.00    -0.269 OA
BRANCH  29  32
ATOM     32  C   UNL A   1      34.442  34.190  29.429  1.00  0.00     0.039 A 
ATOM     33  C   UNL A   1      34.204  33.488  30.612  1.00  0.00     0.014 A 
ATOM     34  C   UNL A   1      35.753  34.442  29.012  1.00  0.00     0.014 A 
ATOM     35  C   UNL A   1      35.281  32.989  31.345  1.00  0.00     0.010 A 
ATOM     36  C   UNL A   1      36.822  33.877  29.703  1.00  0.00     0.010 A 
ATOM     37  C   UNL A   1      36.597  33.146  30.878  1.00  0.00    -0.014 A 
BRANCH  37  38
ATOM     38  C   UNL A   1      37.735  32.518  31.598  1.00  0.00     0.031 A 
ATOM     39  C   UNL A   1      38.193  33.054  32.928  1.00  0.00     0.074 A 
ATOM     40  C   UNL A   1      38.384  31.483  31.026  1.00  0.00     0.049 A 
ATOM     41  N   UNL A   1      39.167  32.631  33.695  1.00  0.00    -0.248 NA
ATOM     42  C   UNL A   1      37.482  34.228  33.456  1.00  0.00     0.031 C 
ATOM     43  C   UNL A   1      38.070  30.915  29.712  1.00  0.00     0.029 A 
ATOM     44  N   UNL A   1      39.436  30.725  31.471  1.00  0.00    -0.354 N 
ATOM     45  C   UNL A   1      39.186  33.485  34.790  1.00  0.00     0.074 A 
ATOM     46  C   UNL A   1      38.167  34.487  34.561  1.00  0.00     0.031 C 
ATOM     47  C   UNL A   1      38.888  29.877  29.476  1.00  0.00     0.029 A 
ATOM     48  C   UNL A   1      39.809  29.731  30.598  1.00  0.00     0.049 A 
ATOM     49  H   UNL A   1      39.883  30.878  32.335  1.00  0.00     0.167 HD
ATOM     50  C   UNL A   1      39.966  33.426  35.897  1.00  0.00     0.037 A 
ATOM     51  C   UNL A   1      40.786  28.808  30.686  1.00  0.00     0.037 A 
ATOM     52  C   UNL A   1      40.973  32.419  36.122  1.00  0.00     0.049 A 
ATOM     53  C   UNL A   1      41.643  28.767  31.922  1.00  0.00     0.074 A 
ATOM     54  C   UNL A   1      41.776  32.238  37.234  1.00  0.00     0.029 A 
ATOM     55  N   UNL A   1      41.322  31.427  35.215  1.00  0.00    -0.354 N 
ATOM     56  N   UNL A   1      41.596  29.536  32.983  1.00  0.00    -0.248 NA
ATOM     57  C   UNL A   1      42.678  27.727  31.977  1.00  0.00     0.031 C 
ATOM     58  C   UNL A   1      42.649  31.175  36.978  1.00  0.00     0.029 A 
ATOM     59  C   UNL A   1      42.349  30.652  35.730  1.00  0.00     0.049 A 
ATOM     60  H   UNL A   1      40.901  31.294  34.335  1.00  0.00     0.167 HD
ATOM     61  C   UNL A   1      42.582  29.061  33.841  1.00  0.00     0.074 A 
ATOM     62  C   UNL A   1      43.189  27.921  33.184  1.00  0.00     0.031 C 
ATOM     63  C   UNL A   1      42.953  29.527  35.060  1.00  0.00     0.037 A 
BRANCH  50  64
ATOM     64  C   UNL A   1      39.764  34.480  36.954  1.00  0.00     0.058 A 
ATOM     65  C   UNL A   1      38.918  34.270  38.056  1.00  0.00     0.135 A 
ATOM     66  C   UNL A   1      40.458  35.700  36.889  1.00  0.00     0.135 A 
ATOM     67  F   UNL A   1      38.218  33.130  38.164  1.00  0.00    -0.206 F 
ATOM     68  C   UNL A   1      38.745  35.240  39.038  1.00  0.00     0.059 A 
ATOM     69  C   UNL A   1      40.324  36.672  37.877  1.00  0.00     0.059 A 
ATOM     70  F   UNL A   1      41.279  35.956  35.858  1.00  0.00    -0.206 F 
ATOM     71  C   UNL A   1      39.455  36.438  38.941  1.00  0.00     0.060 A 
BRANCH  71  72
ATOM     72  S   UNL A   1      39.226  37.681  40.230  1.00  0.00     0.124 S 
ATOM     73  O   UNL A   1      40.562  38.263  40.314  1.00  0.00    -0.237 OA
ATOM     74  O   UNL A   1      38.196  38.539  39.656  1.00  0.00    -0.237 OA
ATOM     75  O   UNL A   1      38.812  36.896  41.390  1.00  0.00    -0.744 OA
ENDBRANCH  71  72
ENDBRANCH  50  64
BRANCH  51  76
ATOM     76  C   UNL A   1      40.993  27.836  29.578  1.00  0.00     0.058 A 
ATOM     77  C   UNL A   1      42.093  27.944  28.714  1.00  0.00     0.135 A 
ATOM     78  C   UNL A   1      40.102  26.771  29.369  1.00  0.00     0.135 A 
ATOM     79  F   UNL A   1      42.971  28.948  28.868  1.00  0.00    -0.206 F 
ATOM     80  C   UNL A   1      42.292  27.046  27.671  1.00  0.00     0.059 A 
ATOM     81  C   UNL A   1      40.295  25.843  28.353  1.00  0.00     0.059 A 
ATOM     82  F   UNL A   1      39.043  26.611  30.179  1.00  0.00    -0.206 F 
ATOM     83  C   UNL A   1      41.388  25.995  27.501  1.00  0.00     0.060 A 
BRANCH  83  84
ATOM     84  S   UNL A   1      41.683  24.804  26.176  1.00  0.00     0.124 S 
ATOM     85  O   UNL A   1      40.733  23.750  26.512  1.00  0.00    -0.237 OA
ATOM     86  O   UNL A   1      41.373  25.589  24.985  1.00  0.00    -0.237 OA
ATOM     87  O   UNL A   1      43.092  24.460  26.341  1.00  0.00    -0.744 OA
ENDBRANCH  83  84
ENDBRANCH  51  76
BRANCH  63  88
ATOM     88  C   UNL A   1      44.058  28.788  35.769  1.00  0.00     0.058 A 
ATOM     89  C   UNL A   1      43.793  27.704  36.623  1.00  0.00     0.135 A 
ATOM     90  C   UNL A   1      45.400  29.160  35.583  1.00  0.00     0.135 A 
ATOM     91  F   UNL A   1      42.529  27.309  36.841  1.00  0.00    -0.206 F 
ATOM     92  C   UNL A   1      44.815  27.044  37.298  1.00  0.00     0.059 A 
ATOM     93  C   UNL A   1      46.440  28.492  36.221  1.00  0.00     0.059 A 
ATOM     94  F   UNL A   1      45.712  30.181  34.768  1.00  0.00    -0.206 F 
ATOM     95  C   UNL A   1      46.135  27.448  37.092  1.00  0.00     0.060 A 
BRANCH  95  96
ATOM     96  S   UNL A   1      47.450  26.581  37.974  1.00  0.00     0.124 S 
ATOM     97  O   UNL A   1      47.673  25.427  37.109  1.00  0.00    -0.237 OA
ATOM     98  O   UNL A   1      48.520  27.575  37.994  1.00  0.00    -0.237 OA
ATOM     99  O   UNL A   1      46.853  26.287  39.273  1.00  0.00    -0.744 OA
ENDBRANCH  95  96
ENDBRANCH  63  88
ENDBRANCH  37  38
ENDBRANCH  29  32
ENDBRANCH  27  28
ENDBRANCH  26  27
ENDBRANCH   1  26
TORSDOF 19
ENDMDL
