MODEL 1
REMARK VINA RESULT:     -11.5      0.000      0.000
REMARK SMILES C#Cc1ccc2c(c1)C=C(C(=O)NCCCCCCNC(=O)c1ccc(-c3c4nc(c(-c5c(F)cc(S(=O)(=O)[O-])cc5F)c5ccc([nH]5)c(-c5c(F)cc(S(=O)(=O)[O-])cc5F)c5nc(c(-c6c(F)cc(S(=O)(=O)[O-])cc6F)c6ccc3[nH]6)C=C5)C=C4)cc1)[C@@H](C(F)(F)F)O2
REMARK SMILES IDX 17 1 16 2 15 3 14 4 13 5 11 6 12 7 10 9 3 10 4 11 8 12 5 13
REMARK SMILES IDX 7 14 6 15 9 16 94 17 89 18 2 19 1 20 90 21 91 22 92 23 93 24
REMARK SMILES IDX 18 25 19 26 20 27 21 28 22 30 23 31 24 32 88 33 25 34 87 35
REMARK SMILES IDX 26 36 27 37 28 38 81 39 29 40 86 41 80 42 82 43 30 44 85 45
REMARK SMILES IDX 79 46 78 47 31 49 65 50 44 51 64 52 45 53 48 54 63 55 83 56
REMARK SMILES IDX 46 57 47 58 62 60 84 61 49 62 32 63 33 64 42 65 34 66 35 67
REMARK SMILES IDX 41 68 43 69 36 70 37 71 38 72 39 73 40 74 66 75 67 76 76 77
REMARK SMILES IDX 68 78 69 79 75 80 77 81 70 82 71 83 72 84 73 85 74 86 50 87
REMARK SMILES IDX 51 88 60 89 52 90 53 91 59 92 61 93 54 94 55 95 56 96 57 97
REMARK SMILES IDX 58 98
REMARK H PARENT 13 8 20 29 82 48 48 59
REMARK Flexibility Score: inf
ROOT
ATOM      1  C   UNL A   1      31.405  29.128  25.722  1.00  0.00     0.002 C 
ENDROOT
BRANCH   1   2
ATOM      2  C   UNL A   1      30.793  28.512  24.457  1.00  0.00     0.002 C 
BRANCH   2   3
ATOM      3  C   UNL A   1      31.428  28.980  23.147  1.00  0.00     0.021 C 
BRANCH   3   4
ATOM      4  C   UNL A   1      32.858  28.486  22.970  1.00  0.00     0.116 C 
BRANCH   4   5
ATOM      5  N   UNL A   1      32.954  27.479  21.928  1.00  0.00    -0.352 N 
ATOM      6  C   UNL A   1      33.140  26.139  21.860  1.00  0.00     0.251 C 
ATOM      7  O   UNL A   1      33.131  25.658  20.721  1.00  0.00    -0.270 OA
ATOM      8  H   UNL A   1      32.858  27.877  21.031  1.00  0.00     0.163 HD
BRANCH   6   9
ATOM      9  C   UNL A   1      33.353  25.246  23.039  1.00  0.00     0.067 C 
ATOM     10  C   UNL A   1      35.815  21.621  25.085  1.00  0.00     0.025 A 
ATOM     11  C   UNL A   1      35.145  21.847  26.289  1.00  0.00     0.021 A 
ATOM     12  C   UNL A   1      35.554  22.427  23.969  1.00  0.00     0.029 A 
ATOM     13  C   UNL A   1      34.211  22.873  26.379  1.00  0.00     0.048 A 
ATOM     14  C   UNL A   1      34.615  23.459  24.058  1.00  0.00     0.018 A 
ATOM     15  C   UNL A   1      33.947  23.664  25.265  1.00  0.00     0.128 A 
ATOM     16  C   UNL A   1      34.356  24.355  22.937  1.00  0.00     0.025 C 
ATOM     17  O   UNL A   1      33.038  24.657  25.456  1.00  0.00    -0.475 OA
ATOM     18  C   UNL A   1      32.495  25.287  24.271  1.00  0.00     0.314 C 
BRANCH  10  19
ATOM     19  C   UNL A   1      36.778  20.568  25.008  1.00  0.00    -0.070 C 
ATOM     20  C   UNL A   1      37.604  19.700  24.916  1.00  0.00     0.010 C 
ENDBRANCH  10  19
BRANCH  18  21
ATOM     21  C   UNL A   1      31.076  24.741  24.021  1.00  0.00     0.429 C 
ATOM     22  F   UNL A   1      31.135  23.498  23.482  1.00  0.00    -0.167 F 
ATOM     23  F   UNL A   1      30.348  24.631  25.157  1.00  0.00    -0.167 F 
ATOM     24  F   UNL A   1      30.366  25.522  23.177  1.00  0.00    -0.167 F 
ENDBRANCH  18  21
ENDBRANCH   6   9
ENDBRANCH   4   5
ENDBRANCH   3   4
ENDBRANCH   2   3
ENDBRANCH   1   2
BRANCH   1  25
ATOM     25  C   UNL A   1      32.044  28.124  26.683  1.00  0.00     0.021 C 
BRANCH  25  26
ATOM     26  C   UNL A   1      33.395  28.566  27.228  1.00  0.00     0.116 C 
BRANCH  26  27
ATOM     27  N   UNL A   1      33.400  29.975  27.595  1.00  0.00    -0.352 N 
ATOM     28  C   UNL A   1      34.391  30.712  28.196  1.00  0.00     0.251 C 
ATOM     29  H   UNL A   1      32.577  30.470  27.381  1.00  0.00     0.163 HD
ATOM     30  O   UNL A   1      34.156  31.839  28.618  1.00  0.00    -0.269 OA
BRANCH  28  31
ATOM     31  C   UNL A   1      35.731  30.111  28.355  1.00  0.00     0.039 A 
ATOM     32  C   UNL A   1      36.131  29.610  29.595  1.00  0.00     0.014 A 
ATOM     33  C   UNL A   1      36.611  30.112  27.273  1.00  0.00     0.014 A 
ATOM     34  C   UNL A   1      37.468  29.299  29.806  1.00  0.00     0.010 A 
ATOM     35  C   UNL A   1      37.931  29.696  27.463  1.00  0.00     0.010 A 
ATOM     36  C   UNL A   1      38.386  29.345  28.745  1.00  0.00    -0.014 A 
BRANCH  36  37
ATOM     37  C   UNL A   1      39.821  29.056  28.998  1.00  0.00     0.031 A 
ATOM     38  C   UNL A   1      40.702  30.084  29.662  1.00  0.00     0.074 A 
ATOM     39  C   UNL A   1      40.321  27.851  28.667  1.00  0.00     0.049 A 
ATOM     40  N   UNL A   1      41.982  30.025  29.927  1.00  0.00    -0.248 NA
ATOM     41  C   UNL A   1      40.064  31.343  30.078  1.00  0.00     0.031 C 
ATOM     42  C   UNL A   1      39.561  26.762  28.048  1.00  0.00     0.029 A 
ATOM     43  N   UNL A   1      41.582  27.330  28.815  1.00  0.00    -0.354 N 
ATOM     44  C   UNL A   1      42.306  31.238  30.523  1.00  0.00     0.074 A 
ATOM     45  C   UNL A   1      41.097  32.034  30.539  1.00  0.00     0.031 C 
ATOM     46  C   UNL A   1      40.356  25.693  27.910  1.00  0.00     0.029 A 
ATOM     47  C   UNL A   1      41.701  26.041  28.355  1.00  0.00     0.049 A 
ATOM     48  H   UNL A   1      42.329  27.833  29.213  1.00  0.00     0.167 HD
ATOM     49  C   UNL A   1      43.497  31.646  31.025  1.00  0.00     0.037 A 
ATOM     50  C   UNL A   1      42.776  25.234  28.276  1.00  0.00     0.037 A 
ATOM     51  C   UNL A   1      44.693  30.841  31.014  1.00  0.00     0.049 A 
ATOM     52  C   UNL A   1      44.104  25.739  28.765  1.00  0.00     0.074 A 
ATOM     53  C   UNL A   1      45.946  31.158  31.507  1.00  0.00     0.029 A 
ATOM     54  N   UNL A   1      44.787  29.563  30.481  1.00  0.00    -0.354 N 
ATOM     55  N   UNL A   1      44.391  26.888  29.331  1.00  0.00    -0.248 NA
ATOM     56  C   UNL A   1      45.254  24.842  28.600  1.00  0.00     0.031 C 
ATOM     57  C   UNL A   1      46.811  30.099  31.218  1.00  0.00     0.029 A 
ATOM     58  C   UNL A   1      46.085  29.092  30.603  1.00  0.00     0.049 A 
ATOM     59  H   UNL A   1      44.041  29.064  30.075  1.00  0.00     0.167 HD
ATOM     60  C   UNL A   1      45.754  26.846  29.602  1.00  0.00     0.074 A 
ATOM     61  C   UNL A   1      46.225  25.546  29.166  1.00  0.00     0.031 C 
ATOM     62  C   UNL A   1      46.546  27.800  30.156  1.00  0.00     0.037 A 
BRANCH  49  63
ATOM     63  C   UNL A   1      43.575  33.029  31.619  1.00  0.00     0.058 A 
ATOM     64  C   UNL A   1      43.433  33.251  32.999  1.00  0.00     0.135 A 
ATOM     65  C   UNL A   1      43.843  34.142  30.805  1.00  0.00     0.135 A 
ATOM     66  F   UNL A   1      43.161  32.228  33.825  1.00  0.00    -0.206 F 
ATOM     67  C   UNL A   1      43.527  34.528  33.545  1.00  0.00     0.059 A 
ATOM     68  C   UNL A   1      43.974  35.424  31.334  1.00  0.00     0.059 A 
ATOM     69  F   UNL A   1      43.990  33.991  29.480  1.00  0.00    -0.206 F 
ATOM     70  C   UNL A   1      43.800  35.608  32.705  1.00  0.00     0.060 A 
BRANCH  70  71
ATOM     71  S   UNL A   1      43.917  37.254  33.435  1.00  0.00     0.124 S 
ATOM     72  O   UNL A   1      44.000  38.096  32.245  1.00  0.00    -0.237 OA
ATOM     73  O   UNL A   1      42.671  37.345  34.189  1.00  0.00    -0.237 OA
ATOM     74  O   UNL A   1      45.132  37.187  34.240  1.00  0.00    -0.744 OA
ENDBRANCH  70  71
ENDBRANCH  49  63
BRANCH  50  75
ATOM     75  C   UNL A   1      42.628  23.866  27.710  1.00  0.00     0.058 A 
ATOM     76  C   UNL A   1      42.669  23.654  26.325  1.00  0.00     0.135 A 
ATOM     77  C   UNL A   1      42.488  22.742  28.540  1.00  0.00     0.135 A 
ATOM     78  F   UNL A   1      42.792  24.698  25.490  1.00  0.00    -0.206 F 
ATOM     79  C   UNL A   1      42.577  22.378  25.781  1.00  0.00     0.059 A 
ATOM     80  C   UNL A   1      42.427  21.453  28.023  1.00  0.00     0.059 A 
ATOM     81  F   UNL A   1      42.456  22.889  29.874  1.00  0.00    -0.206 F 
ATOM     82  C   UNL A   1      42.468  21.282  26.640  1.00  0.00     0.060 A 
BRANCH  82  83
ATOM     83  S   UNL A   1      42.424  19.627  25.920  1.00  0.00     0.124 S 
ATOM     84  O   UNL A   1      43.484  19.711  24.922  1.00  0.00    -0.237 OA
ATOM     85  O   UNL A   1      42.704  18.787  27.081  1.00  0.00    -0.237 OA
ATOM     86  O   UNL A   1      41.068  19.524  25.392  1.00  0.00    -0.744 OA
ENDBRANCH  82  83
ENDBRANCH  50  75
BRANCH  62  87
ATOM     87  C   UNL A   1      48.005  27.474  30.328  1.00  0.00     0.058 A 
ATOM     88  C   UNL A   1      48.486  26.842  31.486  1.00  0.00     0.135 A 
ATOM     89  C   UNL A   1      48.928  27.751  29.305  1.00  0.00     0.135 A 
ATOM     90  F   UNL A   1      47.650  26.557  32.497  1.00  0.00    -0.206 F 
ATOM     91  C   UNL A   1      49.832  26.526  31.637  1.00  0.00     0.059 A 
ATOM     92  C   UNL A   1      50.272  27.410  29.420  1.00  0.00     0.059 A 
ATOM     93  F   UNL A   1      48.523  28.343  28.170  1.00  0.00    -0.206 F 
ATOM     94  C   UNL A   1      50.716  26.811  30.596  1.00  0.00     0.060 A 
BRANCH  94  95
ATOM     95  S   UNL A   1      52.456  26.376  30.804  1.00  0.00     0.124 S 
ATOM     96  O   UNL A   1      52.362  25.149  31.589  1.00  0.00    -0.237 OA
ATOM     97  O   UNL A   1      52.901  26.213  29.424  1.00  0.00    -0.237 OA
ATOM     98  O   UNL A   1      53.015  27.527  31.507  1.00  0.00    -0.744 OA
ENDBRANCH  94  95
ENDBRANCH  62  87
ENDBRANCH  36  37
ENDBRANCH  28  31
ENDBRANCH  26  27
ENDBRANCH  25  26
ENDBRANCH   1  25
TORSDOF 18
ENDMDL
MODEL 2
REMARK VINA RESULT:     -11.4      2.858      3.894
REMARK SMILES C#Cc1ccc2c(c1)C=C(C(=O)NCCCCCCNC(=O)c1ccc(-c3c4nc(c(-c5c(F)cc(S(=O)(=O)[O-])cc5F)c5ccc([nH]5)c(-c5c(F)cc(S(=O)(=O)[O-])cc5F)c5nc(c(-c6c(F)cc(S(=O)(=O)[O-])cc6F)c6ccc3[nH]6)C=C5)C=C4)cc1)[C@@H](C(F)(F)F)O2
REMARK SMILES IDX 17 1 16 2 15 3 14 4 13 5 11 6 12 7 10 9 3 10 4 11 8 12 5 13
REMARK SMILES IDX 7 14 6 15 9 16 94 17 89 18 2 19 1 20 90 21 91 22 92 23 93 24
REMARK SMILES IDX 18 25 19 26 20 27 21 28 22 30 23 31 24 32 88 33 25 34 87 35
REMARK SMILES IDX 26 36 27 37 28 38 81 39 29 40 86 41 80 42 82 43 30 44 85 45
REMARK SMILES IDX 79 46 78 47 31 49 65 50 44 51 64 52 45 53 48 54 63 55 83 56
REMARK SMILES IDX 46 57 47 58 62 60 84 61 49 62 32 63 33 64 42 65 34 66 35 67
REMARK SMILES IDX 41 68 43 69 36 70 37 71 38 72 39 73 40 74 66 75 67 76 76 77
REMARK SMILES IDX 68 78 69 79 75 80 77 81 70 82 71 83 72 84 73 85 74 86 50 87
REMARK SMILES IDX 51 88 60 89 52 90 53 91 59 92 61 93 54 94 55 95 56 96 57 97
REMARK SMILES IDX 58 98
REMARK H PARENT 13 8 20 29 82 48 48 59
REMARK Flexibility Score: inf
ROOT
ATOM      1  C   UNL A   1      33.248  31.070  27.332  1.00  0.00     0.002 C 
ENDROOT
BRANCH   1   2
ATOM      2  C   UNL A   1      32.258  30.216  26.527  1.00  0.00     0.002 C 
BRANCH   2   3
ATOM      3  C   UNL A   1      31.706  29.003  27.276  1.00  0.00     0.021 C 
BRANCH   3   4
ATOM      4  C   UNL A   1      32.416  27.705  26.912  1.00  0.00     0.116 C 
BRANCH   4   5
ATOM      5  N   UNL A   1      31.483  26.599  26.789  1.00  0.00    -0.352 N 
ATOM      6  C   UNL A   1      31.478  25.366  26.229  1.00  0.00     0.251 C 
ATOM      7  O   UNL A   1      30.440  24.714  26.386  1.00  0.00    -0.270 OA
ATOM      8  H   UNL A   1      30.626  26.798  27.232  1.00  0.00     0.163 HD
BRANCH   6   9
ATOM      9  C   UNL A   1      32.612  24.776  25.454  1.00  0.00     0.067 C 
ATOM     10  C   UNL A   1      37.141  23.081  25.402  1.00  0.00     0.025 A 
ATOM     11  C   UNL A   1      36.972  22.672  24.078  1.00  0.00     0.021 A 
ATOM     12  C   UNL A   1      36.087  23.693  26.092  1.00  0.00     0.029 A 
ATOM     13  C   UNL A   1      35.753  22.877  23.441  1.00  0.00     0.048 A 
ATOM     14  C   UNL A   1      34.861  23.901  25.453  1.00  0.00     0.018 A 
ATOM     15  C   UNL A   1      34.713  23.495  24.127  1.00  0.00     0.128 A 
ATOM     16  C   UNL A   1      33.723  24.483  26.154  1.00  0.00     0.025 C 
ATOM     17  O   UNL A   1      33.552  23.631  23.431  1.00  0.00    -0.475 OA
ATOM     18  C   UNL A   1      32.564  24.540  23.971  1.00  0.00     0.314 C 
BRANCH  10  19
ATOM     19  C   UNL A   1      38.396  22.857  26.047  1.00  0.00    -0.070 C 
ATOM     20  C   UNL A   1      39.468  22.686  26.563  1.00  0.00     0.010 C 
ENDBRANCH  10  19
BRANCH  18  21
ATOM     21  C   UNL A   1      32.598  25.852  23.164  1.00  0.00     0.429 C 
ATOM     22  F   UNL A   1      33.115  25.636  21.929  1.00  0.00    -0.167 F 
ATOM     23  F   UNL A   1      31.367  26.384  22.975  1.00  0.00    -0.167 F 
ATOM     24  F   UNL A   1      33.347  26.804  23.762  1.00  0.00    -0.167 F 
ENDBRANCH  18  21
ENDBRANCH   6   9
ENDBRANCH   4   5
ENDBRANCH   3   4
ENDBRANCH   2   3
ENDBRANCH   1   2
BRANCH   1  25
ATOM     25  C   UNL A   1      34.701  30.595  27.277  1.00  0.00     0.021 C 
BRANCH  25  26
ATOM     26  C   UNL A   1      35.625  31.322  28.245  1.00  0.00     0.116 C 
BRANCH  26  27
ATOM     27  N   UNL A   1      35.494  30.819  29.605  1.00  0.00    -0.352 N 
ATOM     28  C   UNL A   1      36.418  30.164  30.381  1.00  0.00     0.251 C 
ATOM     29  H   UNL A   1      34.618  30.971  30.028  1.00  0.00     0.163 HD
ATOM     30  O   UNL A   1      36.079  29.631  31.432  1.00  0.00    -0.269 OA
BRANCH  28  31
ATOM     31  C   UNL A   1      37.816  30.087  29.913  1.00  0.00     0.039 A 
ATOM     32  C   UNL A   1      38.092  29.904  28.556  1.00  0.00     0.014 A 
ATOM     33  C   UNL A   1      38.852  30.130  30.847  1.00  0.00     0.014 A 
ATOM     34  C   UNL A   1      39.379  29.564  28.161  1.00  0.00     0.010 A 
ATOM     35  C   UNL A   1      40.163  29.893  30.428  1.00  0.00     0.010 A 
ATOM     36  C   UNL A   1      40.429  29.547  29.093  1.00  0.00    -0.014 A 
BRANCH  36  37
ATOM     37  C   UNL A   1      41.789  29.134  28.662  1.00  0.00     0.031 A 
ATOM     38  C   UNL A   1      42.927  30.122  28.676  1.00  0.00     0.074 A 
ATOM     39  C   UNL A   1      42.009  27.857  28.296  1.00  0.00     0.049 A 
ATOM     40  N   UNL A   1      44.170  29.955  28.299  1.00  0.00    -0.248 NA
ATOM     41  C   UNL A   1      42.632  31.476  29.174  1.00  0.00     0.031 C 
ATOM     42  C   UNL A   1      40.995  26.800  28.271  1.00  0.00     0.029 A 
ATOM     43  N   UNL A   1      43.156  27.224  27.890  1.00  0.00    -0.354 N 
ATOM     44  C   UNL A   1      44.798  31.180  28.497  1.00  0.00     0.074 A 
ATOM     45  C   UNL A   1      43.789  32.095  28.985  1.00  0.00     0.031 C 
ATOM     46  C   UNL A   1      41.572  25.644  27.914  1.00  0.00     0.029 A 
ATOM     47  C   UNL A   1      42.976  25.891  27.607  1.00  0.00     0.049 A 
ATOM     48  H   UNL A   1      44.024  27.681  27.808  1.00  0.00     0.167 HD
ATOM     49  C   UNL A   1      46.099  31.507  28.305  1.00  0.00     0.037 A 
ATOM     50  C   UNL A   1      43.838  24.972  27.131  1.00  0.00     0.037 A 
ATOM     51  C   UNL A   1      47.099  30.583  27.830  1.00  0.00     0.049 A 
ATOM     52  C   UNL A   1      45.256  25.380  26.848  1.00  0.00     0.074 A 
ATOM     53  C   UNL A   1      48.446  30.813  27.613  1.00  0.00     0.029 A 
ATOM     54  N   UNL A   1      46.863  29.257  27.494  1.00  0.00    -0.354 N 
ATOM     55  N   UNL A   1      45.835  26.541  27.047  1.00  0.00    -0.248 NA
ATOM     56  C   UNL A   1      46.136  24.356  26.274  1.00  0.00     0.031 C 
ATOM     57  C   UNL A   1      49.010  29.646  27.089  1.00  0.00     0.029 A 
ATOM     58  C   UNL A   1      48.032  28.666  27.040  1.00  0.00     0.049 A 
ATOM     59  H   UNL A   1      45.992  28.803  27.567  1.00  0.00     0.167 HD
ATOM     60  C   UNL A   1      47.153  26.383  26.633  1.00  0.00     0.074 A 
ATOM     61  C   UNL A   1      47.291  25.005  26.204  1.00  0.00     0.031 C 
ATOM     62  C   UNL A   1      48.156  27.296  26.605  1.00  0.00     0.037 A 
BRANCH  49  63
ATOM     63  C   UNL A   1      46.520  32.924  28.598  1.00  0.00     0.058 A 
ATOM     64  C   UNL A   1      46.468  33.929  27.618  1.00  0.00     0.135 A 
ATOM     65  C   UNL A   1      46.935  33.294  29.888  1.00  0.00     0.135 A 
ATOM     66  F   UNL A   1      46.093  33.633  26.363  1.00  0.00    -0.206 F 
ATOM     67  C   UNL A   1      46.838  35.241  27.899  1.00  0.00     0.059 A 
ATOM     68  C   UNL A   1      47.279  34.607  30.200  1.00  0.00     0.059 A 
ATOM     69  F   UNL A   1      47.004  32.377  30.865  1.00  0.00    -0.206 F 
ATOM     70  C   UNL A   1      47.239  35.571  29.194  1.00  0.00     0.060 A 
BRANCH  70  71
ATOM     71  S   UNL A   1      47.716  37.278  29.535  1.00  0.00     0.124 S 
ATOM     72  O   UNL A   1      49.114  37.280  29.116  1.00  0.00    -0.237 OA
ATOM     73  O   UNL A   1      46.798  38.029  28.686  1.00  0.00    -0.237 OA
ATOM     74  O   UNL A   1      47.493  37.415  30.972  1.00  0.00    -0.744 OA
ENDBRANCH  70  71
ENDBRANCH  49  63
BRANCH  50  75
ATOM     75  C   UNL A   1      43.370  23.580  26.895  1.00  0.00     0.058 A 
ATOM     76  C   UNL A   1      43.144  23.109  25.594  1.00  0.00     0.135 A 
ATOM     77  C   UNL A   1      43.183  22.681  27.958  1.00  0.00     0.135 A 
ATOM     78  F   UNL A   1      43.300  23.933  24.546  1.00  0.00    -0.206 F 
ATOM     79  C   UNL A   1      42.750  21.797  25.354  1.00  0.00     0.059 A 
ATOM     80  C   UNL A   1      42.822  21.356  27.741  1.00  0.00     0.059 A 
ATOM     81  F   UNL A   1      43.399  23.078  29.222  1.00  0.00    -0.206 F 
ATOM     82  C   UNL A   1      42.604  20.925  26.433  1.00  0.00     0.060 A 
BRANCH  82  83
ATOM     83  S   UNL A   1      42.163  19.207  26.097  1.00  0.00     0.124 S 
ATOM     84  O   UNL A   1      40.733  19.314  25.835  1.00  0.00    -0.237 OA
ATOM     85  O   UNL A   1      43.003  18.902  24.942  1.00  0.00    -0.237 OA
ATOM     86  O   UNL A   1      42.529  18.516  27.330  1.00  0.00    -0.744 OA
ENDBRANCH  82  83
ENDBRANCH  50  75
BRANCH  62  87
ATOM     87  C   UNL A   1      49.497  26.838  26.097  1.00  0.00     0.058 A 
ATOM     88  C   UNL A   1      49.877  27.017  24.757  1.00  0.00     0.135 A 
ATOM     89  C   UNL A   1      50.434  26.257  26.969  1.00  0.00     0.135 A 
ATOM     90  F   UNL A   1      49.019  27.562  23.879  1.00  0.00    -0.206 F 
ATOM     91  C   UNL A   1      51.122  26.608  24.293  1.00  0.00     0.059 A 
ATOM     92  C   UNL A   1      51.699  25.876  26.534  1.00  0.00     0.059 A 
ATOM     93  F   UNL A   1      50.130  26.073  28.264  1.00  0.00    -0.206 F 
ATOM     94  C   UNL A   1      52.028  26.042  25.191  1.00  0.00     0.060 A 
BRANCH  94  95
ATOM     95  S   UNL A   1      53.647  25.536  24.572  1.00  0.00     0.124 S 
ATOM     96  O   UNL A   1      54.544  26.277  25.453  1.00  0.00    -0.237 OA
ATOM     97  O   UNL A   1      53.615  24.090  24.771  1.00  0.00    -0.237 OA
ATOM     98  O   UNL A   1      53.634  25.973  23.180  1.00  0.00    -0.744 OA
ENDBRANCH  94  95
ENDBRANCH  62  87
ENDBRANCH  36  37
ENDBRANCH  28  31
ENDBRANCH  26  27
ENDBRANCH  25  26
ENDBRANCH   1  25
TORSDOF 18
ENDMDL
MODEL 3
REMARK VINA RESULT:     -11.4      4.902     10.038
REMARK SMILES C#Cc1ccc2c(c1)C=C(C(=O)NCCCCCCNC(=O)c1ccc(-c3c4nc(c(-c5c(F)cc(S(=O)(=O)[O-])cc5F)c5ccc([nH]5)c(-c5c(F)cc(S(=O)(=O)[O-])cc5F)c5nc(c(-c6c(F)cc(S(=O)(=O)[O-])cc6F)c6ccc3[nH]6)C=C5)C=C4)cc1)[C@@H](C(F)(F)F)O2
REMARK SMILES IDX 17 1 16 2 15 3 14 4 13 5 11 6 12 7 10 9 3 10 4 11 8 12 5 13
REMARK SMILES IDX 7 14 6 15 9 16 94 17 89 18 2 19 1 20 90 21 91 22 92 23 93 24
REMARK SMILES IDX 18 25 19 26 20 27 21 28 22 30 23 31 24 32 88 33 25 34 87 35
REMARK SMILES IDX 26 36 27 37 28 38 81 39 29 40 86 41 80 42 82 43 30 44 85 45
REMARK SMILES IDX 79 46 78 47 31 49 65 50 44 51 64 52 45 53 48 54 63 55 83 56
REMARK SMILES IDX 46 57 47 58 62 60 84 61 49 62 32 63 33 64 42 65 34 66 35 67
REMARK SMILES IDX 41 68 43 69 36 70 37 71 38 72 39 73 40 74 66 75 67 76 76 77
REMARK SMILES IDX 68 78 69 79 75 80 77 81 70 82 71 83 72 84 73 85 74 86 50 87
REMARK SMILES IDX 51 88 60 89 52 90 53 91 59 92 61 93 54 94 55 95 56 96 57 97
REMARK SMILES IDX 58 98
REMARK H PARENT 13 8 20 29 82 48 48 59
REMARK Flexibility Score: inf
ROOT
ATOM      1  C   UNL A   1      41.197  22.244  27.716  1.00  0.00     0.002 C 
ENDROOT
BRANCH   1   2
ATOM      2  C   UNL A   1      40.107  21.788  26.737  1.00  0.00     0.002 C 
BRANCH   2   3
ATOM      3  C   UNL A   1      39.137  22.888  26.306  1.00  0.00     0.021 C 
BRANCH   3   4
ATOM      4  C   UNL A   1      37.779  22.348  25.873  1.00  0.00     0.116 C 
BRANCH   4   5
ATOM      5  N   UNL A   1      37.543  22.562  24.456  1.00  0.00    -0.352 N 
ATOM      6  C   UNL A   1      36.502  22.927  23.670  1.00  0.00     0.251 C 
ATOM      7  O   UNL A   1      36.752  23.014  22.463  1.00  0.00    -0.270 OA
ATOM      8  H   UNL A   1      38.357  22.399  23.925  1.00  0.00     0.163 HD
BRANCH   6   9
ATOM      9  C   UNL A   1      35.120  23.212  24.162  1.00  0.00     0.067 C 
ATOM     10  C   UNL A   1      32.048  26.268  26.309  1.00  0.00     0.025 A 
ATOM     11  C   UNL A   1      30.990  25.403  26.024  1.00  0.00     0.021 A 
ATOM     12  C   UNL A   1      33.349  25.952  25.898  1.00  0.00     0.029 A 
ATOM     13  C   UNL A   1      31.229  24.220  25.334  1.00  0.00     0.048 A 
ATOM     14  C   UNL A   1      33.592  24.763  25.203  1.00  0.00     0.018 A 
ATOM     15  C   UNL A   1      32.525  23.906  24.937  1.00  0.00     0.128 A 
ATOM     16  C   UNL A   1      34.922  24.426  24.709  1.00  0.00     0.025 C 
ATOM     17  O   UNL A   1      32.658  22.742  24.246  1.00  0.00    -0.475 OA
ATOM     18  C   UNL A   1      33.998  22.215  24.098  1.00  0.00     0.314 C 
BRANCH  10  19
ATOM     19  C   UNL A   1      31.786  27.484  27.013  1.00  0.00    -0.070 C 
ATOM     20  C   UNL A   1      31.543  28.489  27.626  1.00  0.00     0.010 C 
ENDBRANCH  10  19
BRANCH  18  21
ATOM     21  C   UNL A   1      34.189  21.049  25.086  1.00  0.00     0.429 C 
ATOM     22  F   UNL A   1      34.643  21.507  26.279  1.00  0.00    -0.167 F 
ATOM     23  F   UNL A   1      33.036  20.387  25.345  1.00  0.00    -0.167 F 
ATOM     24  F   UNL A   1      35.073  20.132  24.635  1.00  0.00    -0.167 F 
ENDBRANCH  18  21
ENDBRANCH   6   9
ENDBRANCH   4   5
ENDBRANCH   3   4
ENDBRANCH   2   3
ENDBRANCH   1   2
BRANCH   1  25
ATOM     25  C   UNL A   1      42.618  22.230  27.150  1.00  0.00     0.021 C 
BRANCH  25  26
ATOM     26  C   UNL A   1      43.249  23.610  27.031  1.00  0.00     0.116 C 
BRANCH  26  27
ATOM     27  N   UNL A   1      42.617  24.409  25.990  1.00  0.00    -0.352 N 
ATOM     28  C   UNL A   1      41.878  25.560  26.107  1.00  0.00     0.251 C 
ATOM     29  H   UNL A   1      42.739  24.077  25.071  1.00  0.00     0.163 HD
ATOM     30  O   UNL A   1      41.248  25.994  25.148  1.00  0.00    -0.269 OA
BRANCH  28  31
ATOM     31  C   UNL A   1      41.827  26.245  27.414  1.00  0.00     0.039 A 
ATOM     32  C   UNL A   1      40.832  25.920  28.338  1.00  0.00     0.014 A 
ATOM     33  C   UNL A   1      42.740  27.265  27.686  1.00  0.00     0.014 A 
ATOM     34  C   UNL A   1      40.625  26.743  29.437  1.00  0.00     0.010 A 
ATOM     35  C   UNL A   1      42.593  28.024  28.849  1.00  0.00     0.010 A 
ATOM     36  C   UNL A   1      41.499  27.809  29.702  1.00  0.00    -0.014 A 
BRANCH  36  37
ATOM     37  C   UNL A   1      41.235  28.709  30.855  1.00  0.00     0.031 A 
ATOM     38  C   UNL A   1      40.119  29.720  30.795  1.00  0.00     0.074 A 
ATOM     39  C   UNL A   1      41.976  28.586  31.973  1.00  0.00     0.049 A 
ATOM     40  N   UNL A   1      39.767  30.613  31.685  1.00  0.00    -0.248 NA
ATOM     41  C   UNL A   1      39.294  29.735  29.577  1.00  0.00     0.031 C 
ATOM     42  C   UNL A   1      43.064  27.624  32.163  1.00  0.00     0.029 A 
ATOM     43  N   UNL A   1      41.921  29.262  33.165  1.00  0.00    -0.354 N 
ATOM     44  C   UNL A   1      38.695  31.304  31.130  1.00  0.00     0.074 A 
ATOM     45  C   UNL A   1      38.483  30.758  29.807  1.00  0.00     0.031 C 
ATOM     46  C   UNL A   1      43.543  27.741  33.409  1.00  0.00     0.029 A 
ATOM     47  C   UNL A   1      42.854  28.837  34.080  1.00  0.00     0.049 A 
ATOM     48  H   UNL A   1      41.275  29.983  33.347  1.00  0.00     0.167 HD
ATOM     49  C   UNL A   1      37.946  32.291  31.679  1.00  0.00     0.037 A 
ATOM     50  C   UNL A   1      43.142  29.293  35.314  1.00  0.00     0.037 A 
ATOM     51  C   UNL A   1      38.160  32.821  33.004  1.00  0.00     0.049 A 
ATOM     52  C   UNL A   1      42.351  30.443  35.870  1.00  0.00     0.074 A 
ATOM     53  C   UNL A   1      37.449  33.813  33.656  1.00  0.00     0.029 A 
ATOM     54  N   UNL A   1      39.156  32.406  33.876  1.00  0.00    -0.354 N 
ATOM     55  N   UNL A   1      41.337  31.081  35.334  1.00  0.00    -0.248 NA
ATOM     56  C   UNL A   1      42.745  30.939  37.193  1.00  0.00     0.031 C 
ATOM     57  C   UNL A   1      38.054  34.041  34.896  1.00  0.00     0.029 A 
ATOM     58  C   UNL A   1      39.100  33.145  35.047  1.00  0.00     0.049 A 
ATOM     59  H   UNL A   1      39.808  31.691  33.690  1.00  0.00     0.167 HD
ATOM     60  C   UNL A   1      40.963  32.047  36.262  1.00  0.00     0.074 A 
ATOM     61  C   UNL A   1      41.841  31.886  37.405  1.00  0.00     0.031 C 
ATOM     62  C   UNL A   1      39.987  32.985  36.175  1.00  0.00     0.037 A 
BRANCH  49  63
ATOM     63  C   UNL A   1      36.833  32.876  30.849  1.00  0.00     0.058 A 
ATOM     64  C   UNL A   1      37.078  33.829  29.847  1.00  0.00     0.135 A 
ATOM     65  C   UNL A   1      35.508  32.442  31.025  1.00  0.00     0.135 A 
ATOM     66  F   UNL A   1      38.321  34.292  29.642  1.00  0.00    -0.206 F 
ATOM     67  C   UNL A   1      36.048  34.350  29.069  1.00  0.00     0.059 A 
ATOM     68  C   UNL A   1      34.467  32.926  30.236  1.00  0.00     0.059 A 
ATOM     69  F   UNL A   1      35.213  31.532  31.967  1.00  0.00    -0.206 F 
ATOM     70  C   UNL A   1      34.746  33.890  29.269  1.00  0.00     0.060 A 
BRANCH  70  71
ATOM     71  S   UNL A   1      33.426  34.580  28.250  1.00  0.00     0.124 S 
ATOM     72  O   UNL A   1      32.855  33.375  27.656  1.00  0.00    -0.237 OA
ATOM     73  O   UNL A   1      32.594  35.255  29.239  1.00  0.00    -0.237 OA
ATOM     74  O   UNL A   1      34.134  35.459  27.324  1.00  0.00    -0.744 OA
ENDBRANCH  70  71
ENDBRANCH  49  63
BRANCH  50  75
ATOM     75  C   UNL A   1      44.231  28.651  36.098  1.00  0.00     0.058 A 
ATOM     76  C   UNL A   1      43.961  27.571  36.951  1.00  0.00     0.135 A 
ATOM     77  C   UNL A   1      45.565  29.073  35.979  1.00  0.00     0.135 A 
ATOM     78  F   UNL A   1      42.701  27.138  37.106  1.00  0.00    -0.206 F 
ATOM     79  C   UNL A   1      44.974  26.931  37.656  1.00  0.00     0.059 A 
ATOM     80  C   UNL A   1      46.600  28.429  36.649  1.00  0.00     0.059 A 
ATOM     81  F   UNL A   1      45.879  30.095  35.167  1.00  0.00    -0.206 F 
ATOM     82  C   UNL A   1      46.292  27.360  37.489  1.00  0.00     0.060 A 
BRANCH  82  83
ATOM     83  S   UNL A   1      47.602  26.471  38.356  1.00  0.00     0.124 S 
ATOM     84  O   UNL A   1      46.893  25.969  39.528  1.00  0.00    -0.237 OA
ATOM     85  O   UNL A   1      47.990  25.469  37.368  1.00  0.00    -0.237 OA
ATOM     86  O   UNL A   1      48.598  27.504  38.616  1.00  0.00    -0.744 OA
ENDBRANCH  82  83
ENDBRANCH  50  75
BRANCH  62  87
ATOM     87  C   UNL A   1      39.809  33.911  37.348  1.00  0.00     0.058 A 
ATOM     88  C   UNL A   1      38.992  33.570  38.437  1.00  0.00     0.135 A 
ATOM     89  C   UNL A   1      40.500  35.133  37.408  1.00  0.00     0.135 A 
ATOM     90  F   UNL A   1      38.304  32.416  38.431  1.00  0.00    -0.206 F 
ATOM     91  C   UNL A   1      38.841  34.419  39.529  1.00  0.00     0.059 A 
ATOM     92  C   UNL A   1      40.394  35.980  38.507  1.00  0.00     0.059 A 
ATOM     93  F   UNL A   1      41.305  35.506  36.400  1.00  0.00    -0.206 F 
ATOM     94  C   UNL A   1      39.551  35.621  39.555  1.00  0.00     0.060 A 
BRANCH  94  95
ATOM     95  S   UNL A   1      39.356  36.700  40.989  1.00  0.00     0.124 S 
ATOM     96  O   UNL A   1      40.744  36.911  41.390  1.00  0.00    -0.237 OA
ATOM     97  O   UNL A   1      38.679  37.858  40.414  1.00  0.00    -0.237 OA
ATOM     98  O   UNL A   1      38.553  35.904  41.911  1.00  0.00    -0.744 OA
ENDBRANCH  94  95
ENDBRANCH  62  87
ENDBRANCH  36  37
ENDBRANCH  28  31
ENDBRANCH  26  27
ENDBRANCH  25  26
ENDBRANCH   1  25
TORSDOF 18
ENDMDL
