MODEL 1
REMARK VINA RESULT:     -11.7      0.000      0.000
REMARK SMILES CC[C@H]([NH2+]C1c2ccccc2-c2ccccc21)C(=O)NCCCCCCNC(=O)c1ccc(-c2c3nc(c(-c4c(F)cc(S(=O)(=O)[O-])cc4F)c4ccc([nH]4)c(-c4c(F)cc(S(=O)(=O)[O-])cc4F)c4nc(c(-c5c(F)cc(S(=O)(=O)[O-])cc5F)c5ccc2[nH]5)C=C4)C=C3)cc1
REMARK SMILES IDX 24 1 23 2 22 3 21 4 20 5 18 6 19 7 3 9 2 10 1 11 4 12 5 15
REMARK SMILES IDX 6 16 17 17 7 18 11 19 12 20 16 21 8 22 10 23 13 24 15 25
REMARK SMILES IDX 9 26 14 27 25 28 26 29 27 30 28 31 29 33 30 34 31 35 95 36
REMARK SMILES IDX 32 37 94 38 33 39 34 40 35 41 88 42 36 43 93 44 87 45 89 46
REMARK SMILES IDX 37 47 92 48 86 49 85 50 38 52 72 53 51 54 71 55 52 56 55 57
REMARK SMILES IDX 70 58 90 59 53 60 54 61 69 63 91 64 56 65 39 66 40 67 49 68
REMARK SMILES IDX 41 69 42 70 48 71 50 72 43 73 44 74 45 75 46 76 47 77 73 78
REMARK SMILES IDX 74 79 83 80 75 81 76 82 82 83 84 84 77 85 78 86 79 87 80 88
REMARK SMILES IDX 81 89 57 90 58 91 67 92 59 93 60 94 66 95 68 96 61 97 62 98
REMARK SMILES IDX 63 99 64 100 65 101
REMARK H PARENT 20 8 4 13 4 14 27 32 89 51 55 62
REMARK Flexibility Score: inf
ROOT
ATOM      1  C   UNL A   1      31.568  28.498  25.519  1.00  0.00     0.002 C 
ENDROOT
BRANCH   1   2
ATOM      2  C   UNL A   1      30.881  29.358  24.465  1.00  0.00     0.002 C 
BRANCH   2   3
ATOM      3  C   UNL A   1      30.742  28.800  23.047  1.00  0.00     0.021 C 
BRANCH   3   4
ATOM      4  C   UNL A   1      30.964  27.314  22.746  1.00  0.00     0.116 C 
BRANCH   4   5
ATOM      5  N   UNL A   1      32.304  26.789  22.547  1.00  0.00    -0.351 N 
ATOM      6  C   UNL A   1      32.918  25.598  22.795  1.00  0.00     0.278 C 
ATOM      7  O   UNL A   1      33.989  25.410  22.199  1.00  0.00    -0.268 OA
ATOM      8  H   UNL A   1      32.909  27.449  22.135  1.00  0.00     0.163 HD
BRANCH   6   9
ATOM      9  C   UNL A   1      32.392  24.503  23.734  1.00  0.00     0.273 C 
BRANCH   9  10
ATOM     10  C   UNL A   1      32.717  24.886  25.202  1.00  0.00     0.072 C 
ATOM     11  C   UNL A   1      31.670  24.550  26.256  1.00  0.00     0.011 C 
ENDBRANCH   9  10
BRANCH   9  12
ATOM     12  N   UNL A   1      32.828  23.151  23.391  1.00  0.00    -0.326 N 
ATOM     13  H   UNL A   1      33.350  23.227  22.518  1.00  0.00     0.347 HD
ATOM     14  H   UNL A   1      31.954  22.626  23.384  1.00  0.00     0.347 HD
BRANCH  12  15
ATOM     15  C   UNL A   1      33.666  22.373  24.313  1.00  0.00     0.246 C 
ATOM     16  C   UNL A   1      33.519  20.847  24.232  1.00  0.00     0.022 A 
ATOM     17  C   UNL A   1      35.181  22.534  24.515  1.00  0.00     0.022 A 
ATOM     18  C   UNL A   1      32.383  20.074  24.037  1.00  0.00     0.011 A 
ATOM     19  C   UNL A   1      34.737  20.245  24.618  1.00  0.00    -0.008 A 
ATOM     20  C   UNL A   1      35.741  21.269  24.808  1.00  0.00    -0.008 A 
ATOM     21  C   UNL A   1      35.973  23.659  24.703  1.00  0.00     0.011 A 
ATOM     22  C   UNL A   1      32.477  18.691  24.230  1.00  0.00     0.001 A 
ATOM     23  C   UNL A   1      34.826  18.877  24.826  1.00  0.00     0.009 A 
ATOM     24  C   UNL A   1      37.039  21.141  25.295  1.00  0.00     0.009 A 
ATOM     25  C   UNL A   1      37.279  23.540  25.183  1.00  0.00     0.001 A 
ATOM     26  C   UNL A   1      33.685  18.099  24.631  1.00  0.00     0.001 A 
ATOM     27  C   UNL A   1      37.807  22.288  25.491  1.00  0.00     0.001 A 
ENDBRANCH  12  15
ENDBRANCH   9  12
ENDBRANCH   6   9
ENDBRANCH   4   5
ENDBRANCH   3   4
ENDBRANCH   2   3
ENDBRANCH   1   2
BRANCH   1  28
ATOM     28  C   UNL A   1      33.058  28.759  25.678  1.00  0.00     0.021 C 
BRANCH  28  29
ATOM     29  C   UNL A   1      33.541  28.819  27.120  1.00  0.00     0.116 C 
BRANCH  29  30
ATOM     30  N   UNL A   1      33.536  30.167  27.678  1.00  0.00    -0.352 N 
ATOM     31  C   UNL A   1      34.565  30.791  28.349  1.00  0.00     0.251 C 
ATOM     32  H   UNL A   1      32.708  30.687  27.564  1.00  0.00     0.163 HD
ATOM     33  O   UNL A   1      34.423  31.891  28.869  1.00  0.00    -0.269 OA
BRANCH  31  34
ATOM     34  C   UNL A   1      35.846  30.064  28.454  1.00  0.00     0.039 A 
ATOM     35  C   UNL A   1      36.742  30.103  27.383  1.00  0.00     0.014 A 
ATOM     36  C   UNL A   1      36.214  29.503  29.680  1.00  0.00     0.014 A 
ATOM     37  C   UNL A   1      38.049  29.653  27.573  1.00  0.00     0.010 A 
ATOM     38  C   UNL A   1      37.535  29.128  29.885  1.00  0.00     0.010 A 
ATOM     39  C   UNL A   1      38.469  29.212  28.839  1.00  0.00    -0.014 A 
BRANCH  39  40
ATOM     40  C   UNL A   1      39.887  28.855  29.110  1.00  0.00     0.031 A 
ATOM     41  C   UNL A   1      40.832  29.908  29.622  1.00  0.00     0.074 A 
ATOM     42  C   UNL A   1      40.343  27.625  28.793  1.00  0.00     0.049 A 
ATOM     43  N   UNL A   1      42.125  29.839  29.797  1.00  0.00    -0.248 NA
ATOM     44  C   UNL A   1      40.251  31.222  29.943  1.00  0.00     0.031 C 
ATOM     45  C   UNL A   1      39.537  26.541  28.222  1.00  0.00     0.029 A 
ATOM     46  N   UNL A   1      41.603  27.086  28.878  1.00  0.00    -0.354 N 
ATOM     47  C   UNL A   1      42.516  31.105  30.215  1.00  0.00     0.074 A 
ATOM     48  C   UNL A   1      41.332  31.933  30.231  1.00  0.00     0.031 C 
ATOM     49  C   UNL A   1      40.320  25.469  28.017  1.00  0.00     0.029 A 
ATOM     50  C   UNL A   1      41.689  25.797  28.402  1.00  0.00     0.049 A 
ATOM     51  H   UNL A   1      42.374  27.576  29.244  1.00  0.00     0.167 HD
ATOM     52  C   UNL A   1      43.750  31.530  30.572  1.00  0.00     0.037 A 
ATOM     53  C   UNL A   1      42.753  24.979  28.270  1.00  0.00     0.037 A 
ATOM     54  C   UNL A   1      44.910  30.682  30.613  1.00  0.00     0.049 A 
ATOM     55  C   UNL A   1      44.109  25.470  28.705  1.00  0.00     0.074 A 
ATOM     56  C   UNL A   1      46.177  30.984  31.081  1.00  0.00     0.029 A 
ATOM     57  N   UNL A   1      44.948  29.370  30.169  1.00  0.00    -0.354 N 
ATOM     58  N   UNL A   1      44.440  26.638  29.201  1.00  0.00    -0.248 NA
ATOM     59  C   UNL A   1      45.237  24.538  28.561  1.00  0.00     0.031 C 
ATOM     60  C   UNL A   1      46.993  29.868  30.875  1.00  0.00     0.029 A 
ATOM     61  C   UNL A   1      46.225  28.858  30.318  1.00  0.00     0.049 A 
ATOM     62  H   UNL A   1      44.179  28.874  29.801  1.00  0.00     0.167 HD
ATOM     63  C   UNL A   1      45.809  26.576  29.442  1.00  0.00     0.074 A 
ATOM     64  C   UNL A   1      46.241  25.249  29.055  1.00  0.00     0.031 C 
ATOM     65  C   UNL A   1      46.634  27.531  29.933  1.00  0.00     0.037 A 
BRANCH  52  66
ATOM     66  C   UNL A   1      43.916  32.972  30.961  1.00  0.00     0.058 A 
ATOM     67  C   UNL A   1      44.216  33.962  30.012  1.00  0.00     0.135 A 
ATOM     68  C   UNL A   1      43.702  33.378  32.288  1.00  0.00     0.135 A 
ATOM     69  F   UNL A   1      44.446  33.626  28.733  1.00  0.00    -0.206 F 
ATOM     70  C   UNL A   1      44.312  35.303  30.368  1.00  0.00     0.059 A 
ATOM     71  C   UNL A   1      43.767  34.717  32.661  1.00  0.00     0.059 A 
ATOM     72  F   UNL A   1      43.417  32.470  33.235  1.00  0.00    -0.206 F 
ATOM     73  C   UNL A   1      44.081  35.671  31.695  1.00  0.00     0.060 A 
BRANCH  73  74
ATOM     74  S   UNL A   1      44.169  37.421  32.131  1.00  0.00     0.124 S 
ATOM     75  O   UNL A   1      43.239  37.488  33.254  1.00  0.00    -0.237 OA
ATOM     76  O   UNL A   1      45.579  37.588  32.466  1.00  0.00    -0.237 OA
ATOM     77  O   UNL A   1      43.732  38.097  30.913  1.00  0.00    -0.744 OA
ENDBRANCH  73  74
ENDBRANCH  52  66
BRANCH  53  78
ATOM     78  C   UNL A   1      42.590  23.616  27.695  1.00  0.00     0.058 A 
ATOM     79  C   UNL A   1      42.392  22.499  28.522  1.00  0.00     0.135 A 
ATOM     80  C   UNL A   1      42.648  23.399  26.309  1.00  0.00     0.135 A 
ATOM     81  F   UNL A   1      42.338  22.653  29.854  1.00  0.00    -0.206 F 
ATOM     82  C   UNL A   1      42.285  21.214  28.000  1.00  0.00     0.059 A 
ATOM     83  C   UNL A   1      42.518  22.125  25.762  1.00  0.00     0.059 A 
ATOM     84  F   UNL A   1      42.818  24.434  25.472  1.00  0.00    -0.206 F 
ATOM     85  C   UNL A   1      42.353  21.037  26.617  1.00  0.00     0.060 A 
BRANCH  85  86
ATOM     86  S   UNL A   1      42.191  19.368  25.945  1.00  0.00     0.124 S 
ATOM     87  O   UNL A   1      43.058  19.438  24.775  1.00  0.00    -0.237 OA
ATOM     88  O   UNL A   1      42.672  18.544  27.049  1.00  0.00    -0.237 OA
ATOM     89  O   UNL A   1      40.762  19.258  25.667  1.00  0.00    -0.744 OA
ENDBRANCH  85  86
ENDBRANCH  53  78
BRANCH  65  90
ATOM     90  C   UNL A   1      48.086  27.184  30.093  1.00  0.00     0.058 A 
ATOM     91  C   UNL A   1      49.032  27.536  29.119  1.00  0.00     0.135 A 
ATOM     92  C   UNL A   1      48.548  26.574  31.270  1.00  0.00     0.135 A 
ATOM     93  F   UNL A   1      48.637  28.114  27.972  1.00  0.00    -0.206 F 
ATOM     94  C   UNL A   1      50.387  27.292  29.303  1.00  0.00     0.059 A 
ATOM     95  C   UNL A   1      49.902  26.341  31.487  1.00  0.00     0.059 A 
ATOM     96  F   UNL A   1      47.683  26.226  32.236  1.00  0.00    -0.206 F 
ATOM     97  C   UNL A   1      50.815  26.701  30.494  1.00  0.00     0.060 A 
BRANCH  97  98
ATOM     98  S   UNL A   1      52.584  26.451  30.749  1.00  0.00     0.124 S 
ATOM     99  O   UNL A   1      52.966  27.697  31.404  1.00  0.00    -0.237 OA
ATOM    100  O   UNL A   1      52.612  25.257  31.589  1.00  0.00    -0.237 OA
ATOM    101  O   UNL A   1      53.099  26.269  29.396  1.00  0.00    -0.744 OA
ENDBRANCH  97  98
ENDBRANCH  65  90
ENDBRANCH  39  40
ENDBRANCH  31  34
ENDBRANCH  29  30
ENDBRANCH  28  29
ENDBRANCH   1  28
TORSDOF 19
ENDMDL
MODEL 2
REMARK VINA RESULT:     -11.5      2.333      3.080
REMARK SMILES CC[C@H]([NH2+]C1c2ccccc2-c2ccccc21)C(=O)NCCCCCCNC(=O)c1ccc(-c2c3nc(c(-c4c(F)cc(S(=O)(=O)[O-])cc4F)c4ccc([nH]4)c(-c4c(F)cc(S(=O)(=O)[O-])cc4F)c4nc(c(-c5c(F)cc(S(=O)(=O)[O-])cc5F)c5ccc2[nH]5)C=C4)C=C3)cc1
REMARK SMILES IDX 24 1 23 2 22 3 21 4 20 5 18 6 19 7 3 9 2 10 1 11 4 12 5 15
REMARK SMILES IDX 6 16 17 17 7 18 11 19 12 20 16 21 8 22 10 23 13 24 15 25
REMARK SMILES IDX 9 26 14 27 25 28 26 29 27 30 28 31 29 33 30 34 31 35 95 36
REMARK SMILES IDX 32 37 94 38 33 39 34 40 35 41 88 42 36 43 93 44 87 45 89 46
REMARK SMILES IDX 37 47 92 48 86 49 85 50 38 52 72 53 51 54 71 55 52 56 55 57
REMARK SMILES IDX 70 58 90 59 53 60 54 61 69 63 91 64 56 65 39 66 40 67 49 68
REMARK SMILES IDX 41 69 42 70 48 71 50 72 43 73 44 74 45 75 46 76 47 77 73 78
REMARK SMILES IDX 74 79 83 80 75 81 76 82 82 83 84 84 77 85 78 86 79 87 80 88
REMARK SMILES IDX 81 89 57 90 58 91 67 92 59 93 60 94 66 95 68 96 61 97 62 98
REMARK SMILES IDX 63 99 64 100 65 101
REMARK H PARENT 20 8 4 13 4 14 27 32 89 51 55 62
REMARK Flexibility Score: inf
ROOT
ATOM      1  C   UNL A   1      34.324  27.667  26.234  1.00  0.00     0.002 C 
ENDROOT
BRANCH   1   2
ATOM      2  C   UNL A   1      33.192  26.709  25.881  1.00  0.00     0.002 C 
BRANCH   2   3
ATOM      3  C   UNL A   1      31.781  27.038  26.372  1.00  0.00     0.021 C 
BRANCH   3   4
ATOM      4  C   UNL A   1      30.545  26.369  25.761  1.00  0.00     0.116 C 
BRANCH   4   5
ATOM      5  N   UNL A   1      29.979  25.171  26.355  1.00  0.00    -0.351 N 
ATOM      6  C   UNL A   1      30.382  23.875  26.478  1.00  0.00     0.278 C 
ATOM      7  O   UNL A   1      29.780  23.203  27.328  1.00  0.00    -0.268 OA
ATOM      8  H   UNL A   1      29.098  25.334  26.765  1.00  0.00     0.163 HD
BRANCH   6   9
ATOM      9  C   UNL A   1      31.499  23.208  25.662  1.00  0.00     0.273 C 
BRANCH   9  10
ATOM     10  C   UNL A   1      31.197  23.374  24.148  1.00  0.00     0.072 C 
ATOM     11  C   UNL A   1      32.281  24.013  23.290  1.00  0.00     0.011 C 
ENDBRANCH   9  10
BRANCH   9  12
ATOM     12  N   UNL A   1      31.777  21.824  26.036  1.00  0.00    -0.326 N 
ATOM     13  H   UNL A   1      31.272  21.236  25.373  1.00  0.00     0.347 HD
ATOM     14  H   UNL A   1      31.497  21.793  27.016  1.00  0.00     0.347 HD
BRANCH  12  15
ATOM     15  C   UNL A   1      33.156  21.317  26.078  1.00  0.00     0.246 C 
ATOM     16  C   UNL A   1      33.399  19.969  25.384  1.00  0.00     0.022 A 
ATOM     17  C   UNL A   1      34.421  22.100  25.696  1.00  0.00     0.022 A 
ATOM     18  C   UNL A   1      32.598  18.836  25.341  1.00  0.00     0.011 A 
ATOM     19  C   UNL A   1      34.734  19.919  24.926  1.00  0.00    -0.008 A 
ATOM     20  C   UNL A   1      35.360  21.207  25.131  1.00  0.00    -0.008 A 
ATOM     21  C   UNL A   1      34.852  23.377  26.032  1.00  0.00     0.011 A 
ATOM     22  C   UNL A   1      33.146  17.652  24.833  1.00  0.00     0.001 A 
ATOM     23  C   UNL A   1      35.281  18.743  24.437  1.00  0.00     0.009 A 
ATOM     24  C   UNL A   1      36.689  21.574  24.933  1.00  0.00     0.009 A 
ATOM     25  C   UNL A   1      36.181  23.757  25.829  1.00  0.00     0.001 A 
ATOM     26  C   UNL A   1      34.478  17.603  24.394  1.00  0.00     0.001 A 
ATOM     27  C   UNL A   1      37.100  22.856  25.295  1.00  0.00     0.001 A 
ENDBRANCH  12  15
ENDBRANCH   9  12
ENDBRANCH   6   9
ENDBRANCH   4   5
ENDBRANCH   3   4
ENDBRANCH   2   3
ENDBRANCH   1   2
BRANCH   1  28
ATOM     28  C   UNL A   1      33.952  28.746  27.240  1.00  0.00     0.021 C 
BRANCH  28  29
ATOM     29  C   UNL A   1      34.936  29.904  27.320  1.00  0.00     0.116 C 
BRANCH  29  30
ATOM     30  N   UNL A   1      34.912  30.599  28.603  1.00  0.00    -0.352 N 
ATOM     31  C   UNL A   1      35.885  30.575  29.578  1.00  0.00     0.251 C 
ATOM     32  H   UNL A   1      34.114  31.144  28.792  1.00  0.00     0.163 HD
ATOM     33  O   UNL A   1      35.722  31.114  30.665  1.00  0.00    -0.269 OA
BRANCH  31  34
ATOM     34  C   UNL A   1      37.129  29.838  29.277  1.00  0.00     0.039 A 
ATOM     35  C   UNL A   1      37.642  29.867  27.979  1.00  0.00     0.014 A 
ATOM     36  C   UNL A   1      37.860  29.277  30.327  1.00  0.00     0.014 A 
ATOM     37  C   UNL A   1      38.940  29.407  27.749  1.00  0.00     0.010 A 
ATOM     38  C   UNL A   1      39.176  28.891  30.108  1.00  0.00     0.010 A 
ATOM     39  C   UNL A   1      39.734  28.965  28.821  1.00  0.00    -0.014 A 
BRANCH  39  40
ATOM     40  C   UNL A   1      41.162  28.598  28.634  1.00  0.00     0.031 A 
ATOM     41  C   UNL A   1      42.215  29.672  28.663  1.00  0.00     0.074 A 
ATOM     42  C   UNL A   1      41.495  27.325  28.330  1.00  0.00     0.049 A 
ATOM     43  N   UNL A   1      43.490  29.584  28.394  1.00  0.00    -0.248 NA
ATOM     44  C   UNL A   1      41.766  31.033  29.002  1.00  0.00     0.031 C 
ATOM     45  C   UNL A   1      40.553  26.209  28.202  1.00  0.00     0.029 A 
ATOM     46  N   UNL A   1      42.713  26.760  28.045  1.00  0.00    -0.354 N 
ATOM     47  C   UNL A   1      43.988  30.877  28.499  1.00  0.00     0.074 A 
ATOM     48  C   UNL A   1      42.872  31.738  28.817  1.00  0.00     0.031 C 
ATOM     49  C   UNL A   1      41.229  25.096  27.873  1.00  0.00     0.029 A 
ATOM     50  C   UNL A   1      42.643  25.422  27.726  1.00  0.00     0.049 A 
ATOM     51  H   UNL A   1      43.558  27.264  28.065  1.00  0.00     0.167 HD
ATOM     52  C   UNL A   1      45.265  31.301  28.360  1.00  0.00     0.037 A 
ATOM     53  C   UNL A   1      43.607  24.562  27.339  1.00  0.00     0.037 A 
ATOM     54  C   UNL A   1      46.378  30.427  28.105  1.00  0.00     0.049 A 
ATOM     55  C   UNL A   1      45.025  25.056  27.224  1.00  0.00     0.074 A 
ATOM     56  C   UNL A   1      47.725  30.740  28.074  1.00  0.00     0.029 A 
ATOM     57  N   UNL A   1      46.275  29.071  27.836  1.00  0.00    -0.354 N 
ATOM     58  N   UNL A   1      45.494  26.263  27.434  1.00  0.00    -0.248 NA
ATOM     59  C   UNL A   1      46.044  24.078  26.817  1.00  0.00     0.031 C 
ATOM     60  C   UNL A   1      48.433  29.583  27.738  1.00  0.00     0.029 A 
ATOM     61  C   UNL A   1      47.531  28.540  27.601  1.00  0.00     0.049 A 
ATOM     62  H   UNL A   1      45.432  28.561  27.814  1.00  0.00     0.167 HD
ATOM     63  C   UNL A   1      46.863  26.186  27.200  1.00  0.00     0.074 A 
ATOM     64  C   UNL A   1      47.150  24.810  26.851  1.00  0.00     0.031 C 
ATOM     65  C   UNL A   1      47.797  27.165  27.263  1.00  0.00     0.037 A 
BRANCH  52  66
ATOM     66  C   UNL A   1      45.540  32.772  28.494  1.00  0.00     0.058 A 
ATOM     67  C   UNL A   1      45.825  33.359  29.736  1.00  0.00     0.135 A 
ATOM     68  C   UNL A   1      45.588  33.591  27.354  1.00  0.00     0.135 A 
ATOM     69  F   UNL A   1      45.777  32.625  30.859  1.00  0.00    -0.206 F 
ATOM     70  C   UNL A   1      46.135  34.711  29.846  1.00  0.00     0.059 A 
ATOM     71  C   UNL A   1      45.921  34.939  27.437  1.00  0.00     0.059 A 
ATOM     72  F   UNL A   1      45.318  33.079  26.142  1.00  0.00    -0.206 F 
ATOM     73  C   UNL A   1      46.185  35.492  28.689  1.00  0.00     0.060 A 
BRANCH  73  74
ATOM     74  S   UNL A   1      46.629  37.234  28.846  1.00  0.00     0.124 S 
ATOM     75  O   UNL A   1      48.067  37.191  28.602  1.00  0.00    -0.237 OA
ATOM     76  O   UNL A   1      45.827  37.856  27.798  1.00  0.00    -0.237 OA
ATOM     77  O   UNL A   1      46.235  37.564  30.212  1.00  0.00    -0.744 OA
ENDBRANCH  73  74
ENDBRANCH  52  66
BRANCH  53  78
ATOM     78  C   UNL A   1      43.271  23.147  27.022  1.00  0.00     0.058 A 
ATOM     79  C   UNL A   1      43.168  22.181  28.036  1.00  0.00     0.135 A 
ATOM     80  C   UNL A   1      43.065  22.727  25.698  1.00  0.00     0.135 A 
ATOM     81  F   UNL A   1      43.365  22.531  29.316  1.00  0.00    -0.206 F 
ATOM     82  C   UNL A   1      42.900  20.847  27.748  1.00  0.00     0.059 A 
ATOM     83  C   UNL A   1      42.771  21.402  25.389  1.00  0.00     0.059 A 
ATOM     84  F   UNL A   1      43.134  23.612  24.692  1.00  0.00    -0.206 F 
ATOM     85  C   UNL A   1      42.707  20.466  26.419  1.00  0.00     0.060 A 
BRANCH  85  86
ATOM     86  S   UNL A   1      42.337  18.736  26.055  1.00  0.00     0.124 S 
ATOM     87  O   UNL A   1      40.936  18.811  25.662  1.00  0.00    -0.237 OA
ATOM     88  O   UNL A   1      43.286  18.437  24.986  1.00  0.00    -0.237 OA
ATOM     89  O   UNL A   1      42.603  18.063  27.324  1.00  0.00    -0.744 OA
ENDBRANCH  85  86
ENDBRANCH  53  78
BRANCH  65  90
ATOM     90  C   UNL A   1      49.219  26.793  26.959  1.00  0.00     0.058 A 
ATOM     91  C   UNL A   1      50.038  26.191  27.926  1.00  0.00     0.135 A 
ATOM     92  C   UNL A   1      49.739  26.956  25.665  1.00  0.00     0.135 A 
ATOM     93  F   UNL A   1      49.589  26.022  29.181  1.00  0.00    -0.206 F 
ATOM     94  C   UNL A   1      51.327  25.768  27.623  1.00  0.00     0.059 A 
ATOM     95  C   UNL A   1      51.016  26.518  25.332  1.00  0.00     0.059 A 
ATOM     96  F   UNL A   1      48.991  27.518  24.701  1.00  0.00    -0.206 F 
ATOM     97  C   UNL A   1      51.805  25.928  26.320  1.00  0.00     0.060 A 
BRANCH  97  98
ATOM     98  S   UNL A   1      53.454  25.312  25.923  1.00  0.00     0.124 S 
ATOM     99  O   UNL A   1      54.149  25.489  27.194  1.00  0.00    -0.237 OA
ATOM    100  O   UNL A   1      53.186  23.931  25.533  1.00  0.00    -0.237 OA
ATOM    101  O   UNL A   1      53.892  26.188  24.841  1.00  0.00    -0.744 OA
ENDBRANCH  97  98
ENDBRANCH  65  90
ENDBRANCH  39  40
ENDBRANCH  31  34
ENDBRANCH  29  30
ENDBRANCH  28  29
ENDBRANCH   1  28
TORSDOF 19
ENDMDL
MODEL 3
REMARK VINA RESULT:     -11.5      3.111      9.655
REMARK SMILES CC[C@H]([NH2+]C1c2ccccc2-c2ccccc21)C(=O)NCCCCCCNC(=O)c1ccc(-c2c3nc(c(-c4c(F)cc(S(=O)(=O)[O-])cc4F)c4ccc([nH]4)c(-c4c(F)cc(S(=O)(=O)[O-])cc4F)c4nc(c(-c5c(F)cc(S(=O)(=O)[O-])cc5F)c5ccc2[nH]5)C=C4)C=C3)cc1
REMARK SMILES IDX 24 1 23 2 22 3 21 4 20 5 18 6 19 7 3 9 2 10 1 11 4 12 5 15
REMARK SMILES IDX 6 16 17 17 7 18 11 19 12 20 16 21 8 22 10 23 13 24 15 25
REMARK SMILES IDX 9 26 14 27 25 28 26 29 27 30 28 31 29 33 30 34 31 35 95 36
REMARK SMILES IDX 32 37 94 38 33 39 34 40 35 41 88 42 36 43 93 44 87 45 89 46
REMARK SMILES IDX 37 47 92 48 86 49 85 50 38 52 72 53 51 54 71 55 52 56 55 57
REMARK SMILES IDX 70 58 90 59 53 60 54 61 69 63 91 64 56 65 39 66 40 67 49 68
REMARK SMILES IDX 41 69 42 70 48 71 50 72 43 73 44 74 45 75 46 76 47 77 73 78
REMARK SMILES IDX 74 79 83 80 75 81 76 82 82 83 84 84 77 85 78 86 79 87 80 88
REMARK SMILES IDX 81 89 57 90 58 91 67 92 59 93 60 94 66 95 68 96 61 97 62 98
REMARK SMILES IDX 63 99 64 100 65 101
REMARK H PARENT 20 8 4 13 4 14 27 32 89 51 55 62
REMARK Flexibility Score: inf
ROOT
ATOM      1  C   UNL A   1      35.994  21.368  24.719  1.00  0.00     0.002 C 
ENDROOT
BRANCH   1   2
ATOM      2  C   UNL A   1      34.722  20.988  25.468  1.00  0.00     0.002 C 
BRANCH   2   3
ATOM      3  C   UNL A   1      33.510  20.524  24.657  1.00  0.00     0.021 C 
BRANCH   3   4
ATOM      4  C   UNL A   1      32.087  20.956  25.026  1.00  0.00     0.116 C 
BRANCH   4   5
ATOM      5  N   UNL A   1      31.854  21.898  26.107  1.00  0.00    -0.351 N 
ATOM      6  C   UNL A   1      31.403  23.182  26.184  1.00  0.00     0.278 C 
ATOM      7  O   UNL A   1      31.034  23.556  27.307  1.00  0.00    -0.268 OA
ATOM      8  H   UNL A   1      32.073  21.521  26.990  1.00  0.00     0.163 HD
BRANCH   6   9
ATOM      9  C   UNL A   1      31.321  24.170  25.011  1.00  0.00     0.273 C 
BRANCH   9  10
ATOM     10  C   UNL A   1      32.736  24.363  24.403  1.00  0.00     0.072 C 
ATOM     11  C   UNL A   1      32.939  23.918  22.961  1.00  0.00     0.011 C 
ENDBRANCH   9  10
BRANCH   9  12
ATOM     12  N   UNL A   1      30.664  25.435  25.330  1.00  0.00    -0.326 N 
ATOM     13  H   UNL A   1      30.596  25.478  26.347  1.00  0.00     0.347 HD
ATOM     14  H   UNL A   1      29.799  25.383  24.792  1.00  0.00     0.347 HD
BRANCH  12  15
ATOM     15  C   UNL A   1      31.240  26.715  24.895  1.00  0.00     0.246 C 
ATOM     16  C   UNL A   1      30.265  27.707  24.248  1.00  0.00     0.022 A 
ATOM     17  C   UNL A   1      32.122  27.646  25.742  1.00  0.00     0.022 A 
ATOM     18  C   UNL A   1      29.206  27.474  23.380  1.00  0.00     0.011 A 
ATOM     19  C   UNL A   1      30.722  29.023  24.481  1.00  0.00    -0.008 A 
ATOM     20  C   UNL A   1      31.860  28.985  25.373  1.00  0.00    -0.008 A 
ATOM     21  C   UNL A   1      33.224  27.393  26.548  1.00  0.00     0.011 A 
ATOM     22  C   UNL A   1      28.609  28.571  22.749  1.00  0.00     0.001 A 
ATOM     23  C   UNL A   1      30.140  30.108  23.843  1.00  0.00     0.009 A 
ATOM     24  C   UNL A   1      32.689  30.029  25.778  1.00  0.00     0.009 A 
ATOM     25  C   UNL A   1      34.057  28.434  26.965  1.00  0.00     0.001 A 
ATOM     26  C   UNL A   1      29.077  29.875  22.970  1.00  0.00     0.001 A 
ATOM     27  C   UNL A   1      33.799  29.745  26.571  1.00  0.00     0.001 A 
ENDBRANCH  12  15
ENDBRANCH   9  12
ENDBRANCH   6   9
ENDBRANCH   4   5
ENDBRANCH   3   4
ENDBRANCH   2   3
ENDBRANCH   1   2
BRANCH   1  28
ATOM     28  C   UNL A   1      36.122  22.850  24.398  1.00  0.00     0.021 C 
BRANCH  28  29
ATOM     29  C   UNL A   1      37.256  23.560  25.124  1.00  0.00     0.116 C 
BRANCH  29  30
ATOM     30  N   UNL A   1      38.403  22.699  25.393  1.00  0.00    -0.352 N 
ATOM     31  C   UNL A   1      39.532  23.023  26.113  1.00  0.00     0.251 C 
ATOM     32  H   UNL A   1      38.365  21.789  25.020  1.00  0.00     0.163 HD
ATOM     33  O   UNL A   1      40.486  22.258  26.194  1.00  0.00    -0.269 OA
BRANCH  31  34
ATOM     34  C   UNL A   1      39.569  24.350  26.757  1.00  0.00     0.039 A 
ATOM     35  C   UNL A   1      39.011  24.508  28.027  1.00  0.00     0.014 A 
ATOM     36  C   UNL A   1      40.314  25.375  26.166  1.00  0.00     0.014 A 
ATOM     37  C   UNL A   1      39.277  25.674  28.747  1.00  0.00     0.010 A 
ATOM     38  C   UNL A   1      40.638  26.498  26.916  1.00  0.00     0.010 A 
ATOM     39  C   UNL A   1      40.134  26.653  28.218  1.00  0.00    -0.014 A 
BRANCH  39  40
ATOM     40  C   UNL A   1      40.547  27.840  29.013  1.00  0.00     0.031 A 
ATOM     41  C   UNL A   1      41.839  27.805  29.782  1.00  0.00     0.074 A 
ATOM     42  C   UNL A   1      39.713  28.895  29.128  1.00  0.00     0.049 A 
ATOM     43  N   UNL A   1      42.315  28.675  30.633  1.00  0.00    -0.248 NA
ATOM     44  C   UNL A   1      42.689  26.616  29.600  1.00  0.00     0.031 C 
ATOM     45  C   UNL A   1      38.400  29.013  28.485  1.00  0.00     0.029 A 
ATOM     46  N   UNL A   1      39.830  30.058  29.848  1.00  0.00    -0.354 N 
ATOM     47  C   UNL A   1      43.499  28.127  31.111  1.00  0.00     0.074 A 
ATOM     48  C   UNL A   1      43.650  26.832  30.486  1.00  0.00     0.031 C 
ATOM     49  C   UNL A   1      37.841  30.184  28.834  1.00  0.00     0.029 A 
ATOM     50  C   UNL A   1      38.732  30.883  29.754  1.00  0.00     0.049 A 
ATOM     51  H   UNL A   1      40.626  30.281  30.382  1.00  0.00     0.167 HD
ATOM     52  C   UNL A   1      44.387  28.665  31.978  1.00  0.00     0.037 A 
ATOM     53  C   UNL A   1      38.464  32.058  30.358  1.00  0.00     0.037 A 
ATOM     54  C   UNL A   1      44.257  29.980  32.545  1.00  0.00     0.049 A 
ATOM     55  C   UNL A   1      39.486  32.648  31.295  1.00  0.00     0.074 A 
ATOM     56  C   UNL A   1      45.164  30.667  33.333  1.00  0.00     0.029 A 
ATOM     57  N   UNL A   1      43.155  30.805  32.390  1.00  0.00    -0.354 N 
ATOM     58  N   UNL A   1      40.652  32.163  31.650  1.00  0.00    -0.248 NA
ATOM     59  C   UNL A   1      39.159  33.940  31.916  1.00  0.00     0.031 C 
ATOM     60  C   UNL A   1      44.589  31.888  33.694  1.00  0.00     0.029 A 
ATOM     61  C   UNL A   1      43.341  31.980  33.096  1.00  0.00     0.049 A 
ATOM     62  H   UNL A   1      42.355  30.587  31.856  1.00  0.00     0.167 HD
ATOM     63  C   UNL A   1      41.203  33.096  32.522  1.00  0.00     0.074 A 
ATOM     64  C   UNL A   1      40.252  34.183  32.626  1.00  0.00     0.031 C 
ATOM     65  C   UNL A   1      42.386  33.054  33.182  1.00  0.00     0.037 A 
BRANCH  52  66
ATOM     66  C   UNL A   1      45.587  27.846  32.361  1.00  0.00     0.058 A 
ATOM     67  C   UNL A   1      46.787  27.915  31.638  1.00  0.00     0.135 A 
ATOM     68  C   UNL A   1      45.555  27.036  33.507  1.00  0.00     0.135 A 
ATOM     69  F   UNL A   1      46.866  28.662  30.525  1.00  0.00    -0.206 F 
ATOM     70  C   UNL A   1      47.913  27.198  32.031  1.00  0.00     0.059 A 
ATOM     71  C   UNL A   1      46.676  26.330  33.932  1.00  0.00     0.059 A 
ATOM     72  F   UNL A   1      44.429  26.931  34.230  1.00  0.00    -0.206 F 
ATOM     73  C   UNL A   1      47.849  26.412  33.183  1.00  0.00     0.060 A 
BRANCH  73  74
ATOM     74  S   UNL A   1      49.331  25.521  33.700  1.00  0.00     0.124 S 
ATOM     75  O   UNL A   1      49.821  25.006  32.424  1.00  0.00    -0.237 OA
ATOM     76  O   UNL A   1      50.134  26.577  34.307  1.00  0.00    -0.237 OA
ATOM     77  O   UNL A   1      48.818  24.516  34.626  1.00  0.00    -0.744 OA
ENDBRANCH  73  74
ENDBRANCH  52  66
BRANCH  53  78
ATOM     78  C   UNL A   1      37.174  32.757  30.110  1.00  0.00     0.058 A 
ATOM     79  C   UNL A   1      37.027  33.647  29.034  1.00  0.00     0.135 A 
ATOM     80  C   UNL A   1      36.067  32.565  30.952  1.00  0.00     0.135 A 
ATOM     81  F   UNL A   1      38.057  33.871  28.205  1.00  0.00    -0.206 F 
ATOM     82  C   UNL A   1      35.840  34.341  28.818  1.00  0.00     0.059 A 
ATOM     83  C   UNL A   1      34.862  33.229  30.741  1.00  0.00     0.059 A 
ATOM     84  F   UNL A   1      36.148  31.712  31.986  1.00  0.00    -0.206 F 
ATOM     85  C   UNL A   1      34.764  34.128  29.681  1.00  0.00     0.060 A 
BRANCH  85  86
ATOM     86  S   UNL A   1      33.220  35.015  29.381  1.00  0.00     0.124 S 
ATOM     87  O   UNL A   1      32.600  34.187  28.354  1.00  0.00    -0.237 OA
ATOM     88  O   UNL A   1      32.586  34.984  30.696  1.00  0.00    -0.237 OA
ATOM     89  O   UNL A   1      33.672  36.333  28.943  1.00  0.00    -0.744 OA
ENDBRANCH  85  86
ENDBRANCH  53  78
BRANCH  65  90
ATOM     90  C   UNL A   1      42.731  34.216  34.068  1.00  0.00     0.058 A 
ATOM     91  C   UNL A   1      42.417  34.209  35.435  1.00  0.00     0.135 A 
ATOM     92  C   UNL A   1      43.460  35.305  33.565  1.00  0.00     0.135 A 
ATOM     93  F   UNL A   1      41.713  33.193  35.962  1.00  0.00    -0.206 F 
ATOM     94  C   UNL A   1      42.811  35.244  36.274  1.00  0.00     0.059 A 
ATOM     95  C   UNL A   1      43.885  36.340  34.390  1.00  0.00     0.059 A 
ATOM     96  F   UNL A   1      43.793  35.354  32.265  1.00  0.00    -0.206 F 
ATOM     97  C   UNL A   1      43.552  36.303  35.745  1.00  0.00     0.060 A 
BRANCH  97  98
ATOM     98  S   UNL A   1      44.115  37.607  36.858  1.00  0.00     0.124 S 
ATOM     99  O   UNL A   1      44.136  38.764  35.970  1.00  0.00    -0.237 OA
ATOM    100  O   UNL A   1      43.075  37.612  37.883  1.00  0.00    -0.237 OA
ATOM    101  O   UNL A   1      45.422  37.132  37.304  1.00  0.00    -0.744 OA
ENDBRANCH  97  98
ENDBRANCH  65  90
ENDBRANCH  39  40
ENDBRANCH  31  34
ENDBRANCH  29  30
ENDBRANCH  28  29
ENDBRANCH   1  28
TORSDOF 19
ENDMDL
