MODEL 1
REMARK VINA RESULT:     -10.7      0.000      0.000
REMARK SMILES Cc1noc(C)c1[C@H](C)NS(=O)(=O)[C@@H](C)C(=O)NCCCCCCNC(=O)c1ccc(-c2c3nc(c(-c4c(F)cc(S(=O)(=O)[O-])cc4F)c4ccc([nH]4)c(-c4c(F)cc(S(=O)(=O)[O-])cc4F)c4nc(c(-c5c(F)cc(S(=O)(=O)[O-])cc5F)c5ccc2[nH]5)C=C4)C=C3)cc1
REMARK SMILES IDX 21 1 20 2 19 3 18 4 16 5 17 6 14 8 15 9 11 10 12 11 13 12
REMARK SMILES IDX 10 13 8 15 9 16 7 17 1 18 2 19 3 20 4 21 5 22 6 23 22 24
REMARK SMILES IDX 23 25 24 26 25 27 26 28 27 30 28 31 29 32 93 33 30 34 92 35
REMARK SMILES IDX 31 36 32 37 33 38 86 39 34 40 91 41 85 42 87 43 35 44 90 45
REMARK SMILES IDX 84 46 83 47 36 49 70 50 49 51 69 52 50 53 53 54 68 55 88 56
REMARK SMILES IDX 51 57 52 58 67 60 89 61 54 62 37 63 38 64 47 65 39 66 40 67
REMARK SMILES IDX 46 68 48 69 41 70 42 71 43 72 44 73 45 74 71 75 72 76 81 77
REMARK SMILES IDX 73 78 74 79 80 80 82 81 75 82 76 83 77 84 78 85 79 86 55 87
REMARK SMILES IDX 56 88 65 89 57 90 58 91 64 92 66 93 59 94 60 95 61 96 62 97
REMARK SMILES IDX 63 98
REMARK H PARENT 18 7 10 14 25 29 87 48 53 59
REMARK Flexibility Score: inf
ROOT
ATOM      1  C   UNL A   1      35.704  33.320  28.173  1.00  0.00     0.002 C 
ENDROOT
BRANCH   1   2
ATOM      2  C   UNL A   1      34.814  32.154  28.641  1.00  0.00     0.021 C 
BRANCH   2   3
ATOM      3  C   UNL A   1      33.870  31.611  27.575  1.00  0.00     0.116 C 
BRANCH   3   4
ATOM      4  N   UNL A   1      33.632  30.189  27.723  1.00  0.00    -0.355 N 
ATOM      5  C   UNL A   1      33.150  29.210  26.925  1.00  0.00     0.239 C 
ATOM      6  O   UNL A   1      33.135  28.096  27.462  1.00  0.00    -0.274 OA
ATOM      7  H   UNL A   1      33.880  29.857  28.616  1.00  0.00     0.163 HD
BRANCH   5   8
ATOM      8  C   UNL A   1      32.739  29.360  25.489  1.00  0.00     0.209 C 
ATOM      9  C   UNL A   1      31.371  29.969  25.228  1.00  0.00     0.037 C 
BRANCH   8  10
ATOM     10  S   UNL A   1      33.171  28.007  24.378  1.00  0.00     0.223 S 
ATOM     11  O   UNL A   1      34.234  28.421  23.492  1.00  0.00    -0.212 OA
ATOM     12  O   UNL A   1      31.929  27.567  23.762  1.00  0.00    -0.212 OA
BRANCH  10  13
ATOM     13  N   UNL A   1      33.667  26.650  25.148  1.00  0.00    -0.207 NA
ATOM     14  H   UNL A   1      34.684  26.740  25.150  1.00  0.00     0.141 HD
BRANCH  13  15
ATOM     15  C   UNL A   1      33.458  25.218  24.901  1.00  0.00     0.102 C 
ATOM     16  C   UNL A   1      34.916  24.682  24.872  1.00  0.00     0.031 C 
BRANCH  15  17
ATOM     17  C   UNL A   1      32.606  24.450  25.893  1.00  0.00     0.035 A 
ATOM     18  C   UNL A   1      34.287  22.832  27.199  1.00  0.00     0.071 C 
ATOM     19  C   UNL A   1      32.981  23.425  26.837  1.00  0.00     0.085 A 
ATOM     20  N   UNL A   1      31.947  23.036  27.591  1.00  0.00    -0.085 NA
ATOM     21  O   UNL A   1      30.909  23.852  27.260  1.00  0.00    -0.361 OA
ATOM     22  C   UNL A   1      31.304  24.739  26.318  1.00  0.00     0.138 A 
ATOM     23  C   UNL A   1      30.297  25.800  26.077  1.00  0.00     0.091 C 
ENDBRANCH  15  17
ENDBRANCH  13  15
ENDBRANCH  10  13
ENDBRANCH   8  10
ENDBRANCH   5   8
ENDBRANCH   3   4
ENDBRANCH   2   3
ENDBRANCH   1   2
BRANCH   1  24
ATOM     24  C   UNL A   1      36.983  33.518  28.991  1.00  0.00     0.002 C 
BRANCH  24  25
ATOM     25  C   UNL A   1      36.782  34.018  30.424  1.00  0.00     0.021 C 
BRANCH  25  26
ATOM     26  C   UNL A   1      37.451  33.168  31.501  1.00  0.00     0.116 C 
BRANCH  26  27
ATOM     27  N   UNL A   1      36.680  31.974  31.801  1.00  0.00    -0.352 N 
ATOM     28  C   UNL A   1      36.912  30.678  31.405  1.00  0.00     0.251 C 
ATOM     29  H   UNL A   1      35.884  32.112  32.364  1.00  0.00     0.163 HD
ATOM     30  O   UNL A   1      36.027  29.836  31.526  1.00  0.00    -0.269 OA
BRANCH  28  31
ATOM     31  C   UNL A   1      38.222  30.301  30.827  1.00  0.00     0.039 A 
ATOM     32  C   UNL A   1      38.374  30.283  29.439  1.00  0.00     0.014 A 
ATOM     33  C   UNL A   1      39.287  29.926  31.652  1.00  0.00     0.014 A 
ATOM     34  C   UNL A   1      39.605  29.922  28.880  1.00  0.00     0.010 A 
ATOM     35  C   UNL A   1      40.533  29.637  31.097  1.00  0.00     0.010 A 
ATOM     36  C   UNL A   1      40.698  29.608  29.704  1.00  0.00    -0.014 A 
BRANCH  36  37
ATOM     37  C   UNL A   1      42.001  29.191  29.120  1.00  0.00     0.031 A 
ATOM     38  C   UNL A   1      43.123  30.189  28.997  1.00  0.00     0.074 A 
ATOM     39  C   UNL A   1      42.169  27.931  28.671  1.00  0.00     0.049 A 
ATOM     40  N   UNL A   1      44.324  30.029  28.501  1.00  0.00    -0.248 NA
ATOM     41  C   UNL A   1      42.850  31.557  29.469  1.00  0.00     0.031 C 
ATOM     42  C   UNL A   1      41.146  26.884  28.684  1.00  0.00     0.029 A 
ATOM     43  N   UNL A   1      43.263  27.318  28.115  1.00  0.00    -0.354 N 
ATOM     44  C   UNL A   1      44.940  31.272  28.588  1.00  0.00     0.074 A 
ATOM     45  C   UNL A   1      43.964  32.189  29.131  1.00  0.00     0.031 C 
ATOM     46  C   UNL A   1      41.669  25.752  28.183  1.00  0.00     0.029 A 
ATOM     47  C   UNL A   1      43.055  25.997  27.794  1.00  0.00     0.049 A 
ATOM     48  H   UNL A   1      44.119  27.780  27.960  1.00  0.00     0.167 HD
ATOM     49  C   UNL A   1      46.213  31.614  28.273  1.00  0.00     0.037 A 
ATOM     50  C   UNL A   1      43.889  25.085  27.257  1.00  0.00     0.037 A 
ATOM     51  C   UNL A   1      47.194  30.691  27.767  1.00  0.00     0.049 A 
ATOM     52  C   UNL A   1      45.311  25.477  26.954  1.00  0.00     0.074 A 
ATOM     53  C   UNL A   1      48.523  30.928  27.459  1.00  0.00     0.029 A 
ATOM     54  N   UNL A   1      46.957  29.351  27.502  1.00  0.00    -0.354 N 
ATOM     55  N   UNL A   1      45.892  26.645  27.095  1.00  0.00    -0.248 NA
ATOM     56  C   UNL A   1      46.195  24.423  26.438  1.00  0.00     0.031 C 
ATOM     57  C   UNL A   1      49.082  29.737  26.983  1.00  0.00     0.029 A 
ATOM     58  C   UNL A   1      48.112  28.749  27.034  1.00  0.00     0.049 A 
ATOM     59  H   UNL A   1      46.093  28.895  27.629  1.00  0.00     0.167 HD
ATOM     60  C   UNL A   1      47.219  26.456  26.721  1.00  0.00     0.074 A 
ATOM     61  C   UNL A   1      47.354  25.062  26.352  1.00  0.00     0.031 C 
ATOM     62  C   UNL A   1      48.234  27.355  26.688  1.00  0.00     0.037 A 
BRANCH  49  63
ATOM     63  C   UNL A   1      46.616  33.048  28.480  1.00  0.00     0.058 A 
ATOM     64  C   UNL A   1      47.161  33.490  29.698  1.00  0.00     0.135 A 
ATOM     65  C   UNL A   1      46.475  33.989  27.448  1.00  0.00     0.135 A 
ATOM     66  F   UNL A   1      47.302  32.636  30.724  1.00  0.00    -0.206 F 
ATOM     67  C   UNL A   1      47.518  34.819  29.896  1.00  0.00     0.059 A 
ATOM     68  C   UNL A   1      46.853  35.319  27.614  1.00  0.00     0.059 A 
ATOM     69  F   UNL A   1      45.961  33.622  26.264  1.00  0.00    -0.206 F 
ATOM     70  C   UNL A   1      47.357  35.727  28.849  1.00  0.00     0.060 A 
BRANCH  70  71
ATOM     71  S   UNL A   1      47.818  37.451  29.122  1.00  0.00     0.124 S 
ATOM     72  O   UNL A   1      48.955  37.306  30.026  1.00  0.00    -0.237 OA
ATOM     73  O   UNL A   1      48.135  37.910  27.774  1.00  0.00    -0.237 OA
ATOM     74  O   UNL A   1      46.617  38.033  29.712  1.00  0.00    -0.744 OA
ENDBRANCH  70  71
ENDBRANCH  49  63
BRANCH  50  75
ATOM     75  C   UNL A   1      43.416  23.697  27.019  1.00  0.00     0.058 A 
ATOM     76  C   UNL A   1      43.173  22.824  28.090  1.00  0.00     0.135 A 
ATOM     77  C   UNL A   1      43.189  23.216  25.720  1.00  0.00     0.135 A 
ATOM     78  F   UNL A   1      43.381  23.236  29.350  1.00  0.00    -0.206 F 
ATOM     79  C   UNL A   1      42.739  21.518  27.885  1.00  0.00     0.059 A 
ATOM     80  C   UNL A   1      42.732  21.922  25.490  1.00  0.00     0.059 A 
ATOM     81  F   UNL A   1      43.388  24.018  24.663  1.00  0.00    -0.206 F 
ATOM     82  C   UNL A   1      42.520  21.077  26.578  1.00  0.00     0.060 A 
BRANCH  82  83
ATOM     83  S   UNL A   1      41.907  19.397  26.321  1.00  0.00     0.124 S 
ATOM     84  O   UNL A   1      42.461  19.080  25.010  1.00  0.00    -0.237 OA
ATOM     85  O   UNL A   1      42.490  18.681  27.452  1.00  0.00    -0.237 OA
ATOM     86  O   UNL A   1      40.457  19.560  26.375  1.00  0.00    -0.744 OA
ENDBRANCH  82  83
ENDBRANCH  50  75
BRANCH  62  87
ATOM     87  C   UNL A   1      49.593  26.846  26.295  1.00  0.00     0.058 A 
ATOM     88  C   UNL A   1      50.106  27.027  25.002  1.00  0.00     0.135 A 
ATOM     89  C   UNL A   1      50.405  26.197  27.239  1.00  0.00     0.135 A 
ATOM     90  F   UNL A   1      49.368  27.638  24.061  1.00  0.00    -0.206 F 
ATOM     91  C   UNL A   1      51.365  26.552  24.647  1.00  0.00     0.059 A 
ATOM     92  C   UNL A   1      51.676  25.737  26.914  1.00  0.00     0.059 A 
ATOM     93  F   UNL A   1      49.966  26.012  28.494  1.00  0.00    -0.206 F 
ATOM     94  C   UNL A   1      52.141  25.904  25.610  1.00  0.00     0.060 A 
BRANCH  94  95
ATOM     95  S   UNL A   1      53.778  25.300  25.145  1.00  0.00     0.124 S 
ATOM     96  O   UNL A   1      53.814  25.620  23.722  1.00  0.00    -0.237 OA
ATOM     97  O   UNL A   1      54.659  26.092  25.996  1.00  0.00    -0.237 OA
ATOM     98  O   UNL A   1      53.718  23.877  25.468  1.00  0.00    -0.744 OA
ENDBRANCH  94  95
ENDBRANCH  62  87
ENDBRANCH  36  37
ENDBRANCH  28  31
ENDBRANCH  26  27
ENDBRANCH  25  26
ENDBRANCH  24  25
ENDBRANCH   1  24
TORSDOF 20
ENDMDL
MODEL 2
REMARK VINA RESULT:     -10.6      6.401     12.109
REMARK SMILES Cc1noc(C)c1[C@H](C)NS(=O)(=O)[C@@H](C)C(=O)NCCCCCCNC(=O)c1ccc(-c2c3nc(c(-c4c(F)cc(S(=O)(=O)[O-])cc4F)c4ccc([nH]4)c(-c4c(F)cc(S(=O)(=O)[O-])cc4F)c4nc(c(-c5c(F)cc(S(=O)(=O)[O-])cc5F)c5ccc2[nH]5)C=C4)C=C3)cc1
REMARK SMILES IDX 21 1 20 2 19 3 18 4 16 5 17 6 14 8 15 9 11 10 12 11 13 12
REMARK SMILES IDX 10 13 8 15 9 16 7 17 1 18 2 19 3 20 4 21 5 22 6 23 22 24
REMARK SMILES IDX 23 25 24 26 25 27 26 28 27 30 28 31 29 32 93 33 30 34 92 35
REMARK SMILES IDX 31 36 32 37 33 38 86 39 34 40 91 41 85 42 87 43 35 44 90 45
REMARK SMILES IDX 84 46 83 47 36 49 70 50 49 51 69 52 50 53 53 54 68 55 88 56
REMARK SMILES IDX 51 57 52 58 67 60 89 61 54 62 37 63 38 64 47 65 39 66 40 67
REMARK SMILES IDX 46 68 48 69 41 70 42 71 43 72 44 73 45 74 71 75 72 76 81 77
REMARK SMILES IDX 73 78 74 79 80 80 82 81 75 82 76 83 77 84 78 85 79 86 55 87
REMARK SMILES IDX 56 88 65 89 57 90 58 91 64 92 66 93 59 94 60 95 61 96 62 97
REMARK SMILES IDX 63 98
REMARK H PARENT 18 7 10 14 25 29 87 48 53 59
REMARK Flexibility Score: inf
ROOT
ATOM      1  C   UNL A   1      36.424  23.284  25.699  1.00  0.00     0.002 C 
ENDROOT
BRANCH   1   2
ATOM      2  C   UNL A   1      36.225  21.784  25.985  1.00  0.00     0.021 C 
BRANCH   2   3
ATOM      3  C   UNL A   1      35.614  20.996  24.832  1.00  0.00     0.116 C 
BRANCH   3   4
ATOM      4  N   UNL A   1      34.668  19.997  25.289  1.00  0.00    -0.355 N 
ATOM      5  C   UNL A   1      33.321  19.922  25.372  1.00  0.00     0.239 C 
ATOM      6  O   UNL A   1      32.913  18.844  25.819  1.00  0.00    -0.274 OA
ATOM      7  H   UNL A   1      35.110  19.182  25.617  1.00  0.00     0.163 HD
BRANCH   5   8
ATOM      8  C   UNL A   1      32.344  20.962  24.903  1.00  0.00     0.209 C 
ATOM      9  C   UNL A   1      32.131  21.074  23.403  1.00  0.00     0.037 C 
BRANCH   8  10
ATOM     10  S   UNL A   1      32.369  22.543  25.769  1.00  0.00     0.223 S 
ATOM     11  O   UNL A   1      33.061  22.402  27.028  1.00  0.00    -0.212 OA
ATOM     12  O   UNL A   1      30.992  23.008  25.818  1.00  0.00    -0.212 OA
BRANCH  10  13
ATOM     13  N   UNL A   1      33.103  23.745  24.933  1.00  0.00    -0.207 NA
ATOM     14  H   UNL A   1      34.049  23.752  25.314  1.00  0.00     0.141 HD
BRANCH  13  15
ATOM     15  C   UNL A   1      32.804  25.170  24.748  1.00  0.00     0.102 C 
ATOM     16  C   UNL A   1      33.707  25.829  25.827  1.00  0.00     0.031 C 
BRANCH  15  17
ATOM     17  C   UNL A   1      33.054  25.769  23.377  1.00  0.00     0.035 A 
ATOM     18  C   UNL A   1      33.809  28.297  23.813  1.00  0.00     0.071 C 
ATOM     19  C   UNL A   1      33.454  27.107  23.011  1.00  0.00     0.085 A 
ATOM     20  N   UNL A   1      33.638  27.231  21.691  1.00  0.00    -0.085 NA
ATOM     21  O   UNL A   1      33.484  25.983  21.168  1.00  0.00    -0.361 OA
ATOM     22  C   UNL A   1      33.216  25.100  22.158  1.00  0.00     0.138 A 
ATOM     23  C   UNL A   1      33.263  23.693  21.695  1.00  0.00     0.091 C 
ENDBRANCH  15  17
ENDBRANCH  13  15
ENDBRANCH  10  13
ENDBRANCH   8  10
ENDBRANCH   5   8
ENDBRANCH   3   4
ENDBRANCH   2   3
ENDBRANCH   1   2
BRANCH   1  24
ATOM     24  C   UNL A   1      37.781  23.844  26.133  1.00  0.00     0.002 C 
BRANCH  24  25
ATOM     25  C   UNL A   1      38.894  22.810  26.325  1.00  0.00     0.021 C 
BRANCH  25  26
ATOM     26  C   UNL A   1      40.144  23.335  27.024  1.00  0.00     0.116 C 
BRANCH  26  27
ATOM     27  N   UNL A   1      41.090  23.908  26.082  1.00  0.00    -0.352 N 
ATOM     28  C   UNL A   1      41.582  25.190  26.029  1.00  0.00     0.251 C 
ATOM     29  H   UNL A   1      41.421  23.294  25.387  1.00  0.00     0.163 HD
ATOM     30  O   UNL A   1      42.166  25.578  25.020  1.00  0.00    -0.269 OA
BRANCH  28  31
ATOM     31  C   UNL A   1      41.403  26.103  27.180  1.00  0.00     0.039 A 
ATOM     32  C   UNL A   1      40.506  25.754  28.193  1.00  0.00     0.014 A 
ATOM     33  C   UNL A   1      42.087  27.322  27.242  1.00  0.00     0.014 A 
ATOM     34  C   UNL A   1      40.323  26.611  29.283  1.00  0.00     0.010 A 
ATOM     35  C   UNL A   1      41.958  28.139  28.363  1.00  0.00     0.010 A 
ATOM     36  C   UNL A   1      41.056  27.805  29.384  1.00  0.00    -0.014 A 
BRANCH  36  37
ATOM     37  C   UNL A   1      40.844  28.739  30.522  1.00  0.00     0.031 A 
ATOM     38  C   UNL A   1      41.710  28.635  31.751  1.00  0.00     0.074 A 
ATOM     39  C   UNL A   1      39.858  29.656  30.470  1.00  0.00     0.049 A 
ATOM     40  N   UNL A   1      41.673  29.340  32.853  1.00  0.00    -0.248 NA
ATOM     41  C   UNL A   1      42.738  27.580  31.751  1.00  0.00     0.031 C 
ATOM     42  C   UNL A   1      38.916  29.826  29.361  1.00  0.00     0.029 A 
ATOM     43  N   UNL A   1      39.483  30.619  31.373  1.00  0.00    -0.354 N 
ATOM     44  C   UNL A   1      42.656  28.807  33.679  1.00  0.00     0.074 A 
ATOM     45  C   UNL A   1      43.234  27.684  32.975  1.00  0.00     0.031 C 
ATOM     46  C   UNL A   1      38.089  30.847  29.640  1.00  0.00     0.029 A 
ATOM     47  C   UNL A   1      38.425  31.391  30.953  1.00  0.00     0.049 A 
ATOM     48  H   UNL A   1      39.929  30.746  32.241  1.00  0.00     0.167 HD
ATOM     49  C   UNL A   1      43.062  29.230  34.900  1.00  0.00     0.037 A 
ATOM     50  C   UNL A   1      37.804  32.425  31.554  1.00  0.00     0.037 A 
ATOM     51  C   UNL A   1      42.510  30.370  35.583  1.00  0.00     0.049 A 
ATOM     52  C   UNL A   1      38.300  32.904  32.892  1.00  0.00     0.074 A 
ATOM     53  C   UNL A   1      42.882  30.907  36.804  1.00  0.00     0.029 A 
ATOM     54  N   UNL A   1      41.473  31.154  35.102  1.00  0.00    -0.354 N 
ATOM     55  N   UNL A   1      39.268  32.421  33.633  1.00  0.00    -0.248 NA
ATOM     56  C   UNL A   1      37.632  34.081  33.465  1.00  0.00     0.031 C 
ATOM     57  C   UNL A   1      42.052  32.002  37.071  1.00  0.00     0.029 A 
ATOM     58  C   UNL A   1      41.190  32.170  35.999  1.00  0.00     0.049 A 
ATOM     59  H   UNL A   1      41.006  31.009  34.247  1.00  0.00     0.167 HD
ATOM     60  C   UNL A   1      39.350  33.258  34.742  1.00  0.00     0.074 A 
ATOM     61  C   UNL A   1      38.336  34.278  34.571  1.00  0.00     0.031 C 
ATOM     62  C   UNL A   1      40.190  33.189  35.805  1.00  0.00     0.037 A 
BRANCH  49  63
ATOM     63  C   UNL A   1      44.167  28.459  35.568  1.00  0.00     0.058 A 
ATOM     64  C   UNL A   1      45.519  28.772  35.347  1.00  0.00     0.135 A 
ATOM     65  C   UNL A   1      43.876  27.409  36.453  1.00  0.00     0.135 A 
ATOM     66  F   UNL A   1      45.855  29.756  34.497  1.00  0.00    -0.206 F 
ATOM     67  C   UNL A   1      46.542  28.048  35.951  1.00  0.00     0.059 A 
ATOM     68  C   UNL A   1      44.883  26.690  37.091  1.00  0.00     0.059 A 
ATOM     69  F   UNL A   1      42.602  27.068  36.702  1.00  0.00    -0.206 F 
ATOM     70  C   UNL A   1      46.214  27.006  36.819  1.00  0.00     0.060 A 
BRANCH  70  71
ATOM     71  S   UNL A   1      47.552  26.072  37.591  1.00  0.00     0.124 S 
ATOM     72  O   UNL A   1      48.328  27.139  38.215  1.00  0.00    -0.237 OA
ATOM     73  O   UNL A   1      46.833  25.192  38.507  1.00  0.00    -0.237 OA
ATOM     74  O   UNL A   1      48.194  25.406  36.461  1.00  0.00    -0.744 OA
ENDBRANCH  70  71
ENDBRANCH  49  63
BRANCH  50  75
ATOM     75  C   UNL A   1      36.676  33.111  30.870  1.00  0.00     0.058 A 
ATOM     76  C   UNL A   1      35.363  32.988  31.346  1.00  0.00     0.135 A 
ATOM     77  C   UNL A   1      36.888  33.909  29.735  1.00  0.00     0.135 A 
ATOM     78  F   UNL A   1      35.109  32.232  32.425  1.00  0.00    -0.206 F 
ATOM     79  C   UNL A   1      34.295  33.616  30.713  1.00  0.00     0.059 A 
ATOM     80  C   UNL A   1      35.840  34.565  29.098  1.00  0.00     0.059 A 
ATOM     81  F   UNL A   1      38.129  34.074  29.252  1.00  0.00    -0.206 F 
ATOM     82  C   UNL A   1      34.545  34.405  29.588  1.00  0.00     0.060 A 
BRANCH  82  83
ATOM     83  S   UNL A   1      33.160  35.258  28.801  1.00  0.00     0.124 S 
ATOM     84  O   UNL A   1      33.832  36.384  28.165  1.00  0.00    -0.237 OA
ATOM     85  O   UNL A   1      32.638  34.232  27.903  1.00  0.00    -0.237 OA
ATOM     86  O   UNL A   1      32.293  35.592  29.927  1.00  0.00    -0.744 OA
ENDBRANCH  82  83
ENDBRANCH  50  75
BRANCH  62  87
ATOM     87  C   UNL A   1      40.089  34.278  36.836  1.00  0.00     0.058 A 
ATOM     88  C   UNL A   1      39.183  34.205  37.905  1.00  0.00     0.135 A 
ATOM     89  C   UNL A   1      40.937  35.395  36.769  1.00  0.00     0.135 A 
ATOM     90  F   UNL A   1      38.348  33.159  38.013  1.00  0.00    -0.206 F 
ATOM     91  C   UNL A   1      39.096  35.219  38.854  1.00  0.00     0.059 A 
ATOM     92  C   UNL A   1      40.885  36.408  37.720  1.00  0.00     0.059 A 
ATOM     93  F   UNL A   1      41.831  35.507  35.774  1.00  0.00    -0.206 F 
ATOM     94  C   UNL A   1      39.949  36.319  38.751  1.00  0.00     0.060 A 
BRANCH  94  95
ATOM     95  S   UNL A   1      39.838  37.625  39.992  1.00  0.00     0.124 S 
ATOM     96  O   UNL A   1      38.644  38.342  39.556  1.00  0.00    -0.237 OA
ATOM     97  O   UNL A   1      39.706  36.870  41.233  1.00  0.00    -0.237 OA
ATOM     98  O   UNL A   1      41.097  38.348  39.836  1.00  0.00    -0.744 OA
ENDBRANCH  94  95
ENDBRANCH  62  87
ENDBRANCH  36  37
ENDBRANCH  28  31
ENDBRANCH  26  27
ENDBRANCH  25  26
ENDBRANCH  24  25
ENDBRANCH   1  24
TORSDOF 20
ENDMDL
MODEL 3
REMARK VINA RESULT:     -10.5      5.125      7.414
REMARK SMILES Cc1noc(C)c1[C@H](C)NS(=O)(=O)[C@@H](C)C(=O)NCCCCCCNC(=O)c1ccc(-c2c3nc(c(-c4c(F)cc(S(=O)(=O)[O-])cc4F)c4ccc([nH]4)c(-c4c(F)cc(S(=O)(=O)[O-])cc4F)c4nc(c(-c5c(F)cc(S(=O)(=O)[O-])cc5F)c5ccc2[nH]5)C=C4)C=C3)cc1
REMARK SMILES IDX 21 1 20 2 19 3 18 4 16 5 17 6 14 8 15 9 11 10 12 11 13 12
REMARK SMILES IDX 10 13 8 15 9 16 7 17 1 18 2 19 3 20 4 21 5 22 6 23 22 24
REMARK SMILES IDX 23 25 24 26 25 27 26 28 27 30 28 31 29 32 93 33 30 34 92 35
REMARK SMILES IDX 31 36 32 37 33 38 86 39 34 40 91 41 85 42 87 43 35 44 90 45
REMARK SMILES IDX 84 46 83 47 36 49 70 50 49 51 69 52 50 53 53 54 68 55 88 56
REMARK SMILES IDX 51 57 52 58 67 60 89 61 54 62 37 63 38 64 47 65 39 66 40 67
REMARK SMILES IDX 46 68 48 69 41 70 42 71 43 72 44 73 45 74 71 75 72 76 81 77
REMARK SMILES IDX 73 78 74 79 80 80 82 81 75 82 76 83 77 84 78 85 79 86 55 87
REMARK SMILES IDX 56 88 65 89 57 90 58 91 64 92 66 93 59 94 60 95 61 96 62 97
REMARK SMILES IDX 63 98
REMARK H PARENT 18 7 10 14 25 29 87 48 53 59
REMARK Flexibility Score: inf
ROOT
ATOM      1  C   UNL A   1      33.588  25.248  25.889  1.00  0.00     0.002 C 
ENDROOT
BRANCH   1   2
ATOM      2  C   UNL A   1      32.122  24.797  26.024  1.00  0.00     0.021 C 
BRANCH   2   3
ATOM      3  C   UNL A   1      31.477  24.346  24.718  1.00  0.00     0.116 C 
BRANCH   3   4
ATOM      4  N   UNL A   1      30.164  24.930  24.524  1.00  0.00    -0.355 N 
ATOM      5  C   UNL A   1      29.677  25.981  23.827  1.00  0.00     0.239 C 
ATOM      6  O   UNL A   1      28.452  26.115  23.926  1.00  0.00    -0.274 OA
ATOM      7  H   UNL A   1      29.461  24.448  25.016  1.00  0.00     0.163 HD
BRANCH   5   8
ATOM      8  C   UNL A   1      30.464  26.887  22.925  1.00  0.00     0.209 C 
ATOM      9  C   UNL A   1      31.522  26.233  22.051  1.00  0.00     0.037 C 
BRANCH   8  10
ATOM     10  S   UNL A   1      30.950  28.484  23.606  1.00  0.00     0.223 S 
ATOM     11  O   UNL A   1      32.095  28.994  22.890  1.00  0.00    -0.212 OA
ATOM     12  O   UNL A   1      31.096  28.293  25.040  1.00  0.00    -0.212 OA
BRANCH  10  13
ATOM     13  N   UNL A   1      29.773  29.621  23.533  1.00  0.00    -0.207 NA
ATOM     14  H   UNL A   1      29.135  29.345  24.280  1.00  0.00     0.141 HD
BRANCH  13  15
ATOM     15  C   UNL A   1      28.870  30.068  22.467  1.00  0.00     0.102 C 
ATOM     16  C   UNL A   1      27.597  29.223  22.749  1.00  0.00     0.031 C 
BRANCH  15  17
ATOM     17  C   UNL A   1      28.547  31.548  22.393  1.00  0.00     0.035 A 
ATOM     18  C   UNL A   1      29.734  32.660  24.516  1.00  0.00     0.071 C 
ATOM     19  C   UNL A   1      28.905  32.620  23.292  1.00  0.00     0.085 A 
ATOM     20  N   UNL A   1      28.487  33.809  22.845  1.00  0.00    -0.085 NA
ATOM     21  O   UNL A   1      27.955  33.585  21.612  1.00  0.00    -0.361 OA
ATOM     22  C   UNL A   1      28.053  32.271  21.301  1.00  0.00     0.138 A 
ATOM     23  C   UNL A   1      27.705  31.993  19.888  1.00  0.00     0.091 C 
ENDBRANCH  15  17
ENDBRANCH  13  15
ENDBRANCH  10  13
ENDBRANCH   8  10
ENDBRANCH   5   8
ENDBRANCH   3   4
ENDBRANCH   2   3
ENDBRANCH   1   2
BRANCH   1  24
ATOM     24  C   UNL A   1      33.828  26.345  24.849  1.00  0.00     0.002 C 
BRANCH  24  25
ATOM     25  C   UNL A   1      34.390  27.662  25.391  1.00  0.00     0.021 C 
BRANCH  25  26
ATOM     26  C   UNL A   1      33.768  28.133  26.703  1.00  0.00     0.116 C 
BRANCH  26  27
ATOM     27  N   UNL A   1      33.598  29.575  26.731  1.00  0.00    -0.352 N 
ATOM     28  C   UNL A   1      34.313  30.512  27.439  1.00  0.00     0.251 C 
ATOM     29  H   UNL A   1      32.871  29.929  26.169  1.00  0.00     0.163 HD
ATOM     30  O   UNL A   1      33.876  31.654  27.555  1.00  0.00    -0.269 OA
BRANCH  28  31
ATOM     31  C   UNL A   1      35.603  30.144  28.066  1.00  0.00     0.039 A 
ATOM     32  C   UNL A   1      35.607  29.642  29.370  1.00  0.00     0.014 A 
ATOM     33  C   UNL A   1      36.810  30.331  27.385  1.00  0.00     0.014 A 
ATOM     34  C   UNL A   1      36.820  29.297  29.976  1.00  0.00     0.010 A 
ATOM     35  C   UNL A   1      38.009  29.919  27.963  1.00  0.00     0.010 A 
ATOM     36  C   UNL A   1      38.030  29.420  29.274  1.00  0.00    -0.014 A 
BRANCH  36  37
ATOM     37  C   UNL A   1      39.327  29.088  29.921  1.00  0.00     0.031 A 
ATOM     38  C   UNL A   1      39.771  29.846  31.146  1.00  0.00     0.074 A 
ATOM     39  C   UNL A   1      40.121  28.134  29.397  1.00  0.00     0.049 A 
ATOM     40  N   UNL A   1      40.871  29.721  31.844  1.00  0.00    -0.248 NA
ATOM     41  C   UNL A   1      38.870  30.903  31.635  1.00  0.00     0.031 C 
ATOM     42  C   UNL A   1      39.833  27.364  28.185  1.00  0.00     0.029 A 
ATOM     43  N   UNL A   1      41.334  27.650  29.815  1.00  0.00    -0.354 N 
ATOM     44  C   UNL A   1      40.801  30.689  32.840  1.00  0.00     0.074 A 
ATOM     45  C   UNL A   1      39.579  31.430  32.623  1.00  0.00     0.031 C 
ATOM     46  C   UNL A   1      40.829  26.488  27.974  1.00  0.00     0.029 A 
ATOM     47  C   UNL A   1      41.837  26.647  29.019  1.00  0.00     0.049 A 
ATOM     48  H   UNL A   1      41.804  27.988  30.612  1.00  0.00     0.167 HD
ATOM     49  C   UNL A   1      41.660  30.921  33.862  1.00  0.00     0.037 A 
ATOM     50  C   UNL A   1      42.974  25.932  29.125  1.00  0.00     0.037 A 
ATOM     51  C   UNL A   1      42.858  30.159  34.098  1.00  0.00     0.049 A 
ATOM     52  C   UNL A   1      43.892  26.179  30.292  1.00  0.00     0.074 A 
ATOM     53  C   UNL A   1      43.772  30.286  35.130  1.00  0.00     0.029 A 
ATOM     54  N   UNL A   1      43.305  29.120  33.295  1.00  0.00    -0.354 N 
ATOM     55  N   UNL A   1      43.782  27.062  31.255  1.00  0.00    -0.248 NA
ATOM     56  C   UNL A   1      45.080  25.321  30.395  1.00  0.00     0.031 C 
ATOM     57  C   UNL A   1      44.785  29.340  34.936  1.00  0.00     0.029 A 
ATOM     58  C   UNL A   1      44.480  28.598  33.807  1.00  0.00     0.049 A 
ATOM     59  H   UNL A   1      42.852  28.801  32.481  1.00  0.00     0.167 HD
ATOM     60  C   UNL A   1      44.864  26.839  32.100  1.00  0.00     0.074 A 
ATOM     61  C   UNL A   1      45.614  25.737  31.536  1.00  0.00     0.031 C 
ATOM     62  C   UNL A   1      45.205  27.487  33.242  1.00  0.00     0.037 A 
BRANCH  49  63
ATOM     63  C   UNL A   1      41.325  32.041  34.808  1.00  0.00     0.058 A 
ATOM     64  C   UNL A   1      41.817  33.342  34.610  1.00  0.00     0.135 A 
ATOM     65  C   UNL A   1      40.488  31.820  35.914  1.00  0.00     0.135 A 
ATOM     66  F   UNL A   1      42.635  33.606  33.578  1.00  0.00    -0.206 F 
ATOM     67  C   UNL A   1      41.521  34.375  35.494  1.00  0.00     0.059 A 
ATOM     68  C   UNL A   1      40.155  32.845  36.795  1.00  0.00     0.059 A 
ATOM     69  F   UNL A   1      39.990  30.597  36.150  1.00  0.00    -0.206 F 
ATOM     70  C   UNL A   1      40.692  34.115  36.586  1.00  0.00     0.060 A 
BRANCH  70  71
ATOM     71  S   UNL A   1      40.322  35.463  37.728  1.00  0.00     0.124 S 
ATOM     72  O   UNL A   1      39.147  34.942  38.420  1.00  0.00    -0.237 OA
ATOM     73  O   UNL A   1      41.542  35.544  38.525  1.00  0.00    -0.237 OA
ATOM     74  O   UNL A   1      40.079  36.599  36.844  1.00  0.00    -0.744 OA
ENDBRANCH  70  71
ENDBRANCH  49  63
BRANCH  50  75
ATOM     75  C   UNL A   1      43.282  24.877  28.124  1.00  0.00     0.058 A 
ATOM     76  C   UNL A   1      43.995  25.178  26.955  1.00  0.00     0.135 A 
ATOM     77  C   UNL A   1      42.879  23.547  28.319  1.00  0.00     0.135 A 
ATOM     78  F   UNL A   1      44.397  26.437  26.721  1.00  0.00    -0.206 F 
ATOM     79  C   UNL A   1      44.284  24.205  26.004  1.00  0.00     0.059 A 
ATOM     80  C   UNL A   1      43.176  22.551  27.394  1.00  0.00     0.059 A 
ATOM     81  F   UNL A   1      42.211  23.203  29.431  1.00  0.00    -0.206 F 
ATOM     82  C   UNL A   1      43.870  22.892  26.235  1.00  0.00     0.060 A 
BRANCH  82  83
ATOM     83  S   UNL A   1      44.293  21.623  25.019  1.00  0.00     0.124 S 
ATOM     84  O   UNL A   1      43.316  20.585  25.326  1.00  0.00    -0.237 OA
ATOM     85  O   UNL A   1      44.100  22.330  23.757  1.00  0.00    -0.237 OA
ATOM     86  O   UNL A   1      45.680  21.303  25.342  1.00  0.00    -0.744 OA
ENDBRANCH  82  83
ENDBRANCH  50  75
BRANCH  62  87
ATOM     87  C   UNL A   1      46.409  26.984  33.988  1.00  0.00     0.058 A 
ATOM     88  C   UNL A   1      47.701  27.459  33.717  1.00  0.00     0.135 A 
ATOM     89  C   UNL A   1      46.260  26.035  35.012  1.00  0.00     0.135 A 
ATOM     90  F   UNL A   1      47.898  28.364  32.745  1.00  0.00    -0.206 F 
ATOM     91  C   UNL A   1      48.809  26.986  34.412  1.00  0.00     0.059 A 
ATOM     92  C   UNL A   1      47.350  25.567  35.738  1.00  0.00     0.059 A 
ATOM     93  F   UNL A   1      45.043  25.559  35.320  1.00  0.00    -0.206 F 
ATOM     94  C   UNL A   1      48.624  26.036  35.418  1.00  0.00     0.060 A 
BRANCH  94  95
ATOM     95  S   UNL A   1      50.066  25.435  36.324  1.00  0.00     0.124 S 
ATOM     96  O   UNL A   1      51.104  25.507  35.301  1.00  0.00    -0.237 OA
ATOM     97  O   UNL A   1      50.179  26.400  37.412  1.00  0.00    -0.237 OA
ATOM     98  O   UNL A   1      49.674  24.088  36.728  1.00  0.00    -0.744 OA
ENDBRANCH  94  95
ENDBRANCH  62  87
ENDBRANCH  36  37
ENDBRANCH  28  31
ENDBRANCH  26  27
ENDBRANCH  25  26
ENDBRANCH  24  25
ENDBRANCH   1  24
TORSDOF 20
ENDMDL
