MODEL 1
REMARK VINA RESULT:     -10.3      0.000      0.000
REMARK SMILES O=C(Cc1ccc(=O)n(C(F)F)c1)NCCCCCCNC(=O)c1ccc(-c2c3nc(c(-c4c(F)cc(S(=O)(=O)[O-])cc4F)c4ccc([nH]4)c(-c4c(F)cc(S(=O)(=O)[O-])cc4F)c4nc(c(-c5c(F)cc(S(=O)(=O)[O-])cc5F)c5ccc2[nH]5)C=C4)C=C3)cc1
REMARK SMILES IDX 18 1 17 2 16 3 15 4 14 5 1 6 2 7 3 9 4 10 5 11 13 12 6 13
REMARK SMILES IDX 9 14 7 15 8 16 10 17 11 18 12 19 19 20 20 21 21 22 22 23
REMARK SMILES IDX 23 25 24 26 25 27 89 28 26 29 88 30 27 31 28 32 29 33 82 34
REMARK SMILES IDX 30 35 87 36 81 37 83 38 31 39 86 40 80 41 79 42 32 44 66 45
REMARK SMILES IDX 45 46 65 47 46 48 49 49 64 50 84 51 47 52 48 53 63 55 85 56
REMARK SMILES IDX 50 57 33 58 34 59 43 60 35 61 36 62 42 63 44 64 37 65 38 66
REMARK SMILES IDX 39 67 40 68 41 69 67 70 68 71 77 72 69 73 70 74 76 75 78 76
REMARK SMILES IDX 71 77 72 78 73 79 74 80 75 81 51 82 52 83 61 84 53 85 54 86
REMARK SMILES IDX 60 87 62 88 55 89 56 90 57 91 58 92 59 93
REMARK H PARENT 14 8 21 24 83 43 49 54
REMARK Flexibility Score: inf
ROOT
ATOM      1  C   UNL A   1      36.485  33.331  28.172  1.00  0.00     0.002 C 
ENDROOT
BRANCH   1   2
ATOM      2  C   UNL A   1      36.848  33.967  29.517  1.00  0.00     0.002 C 
BRANCH   2   3
ATOM      3  C   UNL A   1      37.942  33.252  30.324  1.00  0.00     0.021 C 
BRANCH   3   4
ATOM      4  C   UNL A   1      38.012  33.631  31.805  1.00  0.00     0.116 C 
BRANCH   4   5
ATOM      5  N   UNL A   1      36.687  33.767  32.375  1.00  0.00    -0.356 N 
ATOM      6  O   UNL A   1      36.297  31.535  32.774  1.00  0.00    -0.275 OA
ATOM      7  C   UNL A   1      35.926  32.705  32.803  1.00  0.00     0.224 C 
ATOM      8  H   UNL A   1      36.310  34.672  32.461  1.00  0.00     0.163 HD
BRANCH   7   9
ATOM      9  C   UNL A   1      34.531  33.090  33.283  1.00  0.00     0.137 C 
BRANCH   9  10
ATOM     10  C   UNL A   1      34.156  34.484  32.850  1.00  0.00    -0.022 A 
ATOM     11  C   UNL A   1      34.349  35.576  33.785  1.00  0.00     0.011 A 
ATOM     12  C   UNL A   1      33.680  34.759  31.624  1.00  0.00     0.099 A 
ATOM     13  C   UNL A   1      34.017  36.830  33.454  1.00  0.00     0.072 A 
ATOM     14  N   UNL A   1      33.349  36.051  31.249  1.00  0.00    -0.258 N 
ATOM     15  C   UNL A   1      33.474  37.135  32.102  1.00  0.00     0.254 A 
ATOM     16  O   UNL A   1      33.199  38.300  31.834  1.00  0.00    -0.269 OA
BRANCH  14  17
ATOM     17  C   UNL A   1      32.844  36.320  29.927  1.00  0.00     0.451 C 
ATOM     18  F   UNL A   1      33.529  37.329  29.337  1.00  0.00    -0.185 F 
ATOM     19  F   UNL A   1      32.949  35.223  29.136  1.00  0.00    -0.185 F 
ENDBRANCH  14  17
ENDBRANCH   9  10
ENDBRANCH   7   9
ENDBRANCH   4   5
ENDBRANCH   3   4
ENDBRANCH   2   3
ENDBRANCH   1   2
BRANCH   1  20
ATOM     20  C   UNL A   1      35.008  32.980  27.986  1.00  0.00     0.021 C 
BRANCH  20  21
ATOM     21  C   UNL A   1      34.445  31.971  28.980  1.00  0.00     0.116 C 
BRANCH  21  22
ATOM     22  N   UNL A   1      34.042  30.715  28.364  1.00  0.00    -0.352 N 
ATOM     23  C   UNL A   1      34.823  29.635  28.018  1.00  0.00     0.251 C 
ATOM     24  H   UNL A   1      33.081  30.626  28.168  1.00  0.00     0.163 HD
ATOM     25  O   UNL A   1      34.336  28.689  27.406  1.00  0.00    -0.269 OA
BRANCH  23  26
ATOM     26  C   UNL A   1      36.266  29.647  28.349  1.00  0.00     0.039 A 
ATOM     27  C   UNL A   1      37.217  29.930  27.367  1.00  0.00     0.014 A 
ATOM     28  C   UNL A   1      36.670  29.312  29.645  1.00  0.00     0.014 A 
ATOM     29  C   UNL A   1      38.565  29.709  27.632  1.00  0.00     0.010 A 
ATOM     30  C   UNL A   1      38.032  29.162  29.929  1.00  0.00     0.010 A 
ATOM     31  C   UNL A   1      38.987  29.303  28.909  1.00  0.00    -0.014 A 
BRANCH  31  32
ATOM     32  C   UNL A   1      40.423  28.993  29.141  1.00  0.00     0.031 A 
ATOM     33  C   UNL A   1      40.992  27.656  28.740  1.00  0.00     0.074 A 
ATOM     34  C   UNL A   1      41.234  29.946  29.641  1.00  0.00     0.049 A 
ATOM     35  N   UNL A   1      42.224  27.224  28.835  1.00  0.00    -0.248 NA
ATOM     36  C   UNL A   1      40.060  26.675  28.162  1.00  0.00     0.031 C 
ATOM     37  C   UNL A   1      40.807  31.285  30.049  1.00  0.00     0.029 A 
ATOM     38  N   UNL A   1      42.588  29.945  29.864  1.00  0.00    -0.354 N 
ATOM     39  C   UNL A   1      42.214  25.923  28.344  1.00  0.00     0.074 A 
ATOM     40  C   UNL A   1      40.847  25.623  27.976  1.00  0.00     0.031 C 
ATOM     41  C   UNL A   1      41.884  31.995  30.419  1.00  0.00     0.029 A 
ATOM     42  C   UNL A   1      43.069  31.146  30.327  1.00  0.00     0.049 A 
ATOM     43  H   UNL A   1      43.160  29.158  29.708  1.00  0.00     0.167 HD
ATOM     44  C   UNL A   1      43.249  25.061  28.198  1.00  0.00     0.037 A 
ATOM     45  C   UNL A   1      44.321  31.525  30.645  1.00  0.00     0.037 A 
ATOM     46  C   UNL A   1      44.614  25.367  28.539  1.00  0.00     0.049 A 
ATOM     47  C   UNL A   1      45.446  30.540  30.507  1.00  0.00     0.074 A 
ATOM     48  C   UNL A   1      45.734  24.561  28.415  1.00  0.00     0.029 A 
ATOM     49  N   UNL A   1      45.050  26.575  29.063  1.00  0.00    -0.354 N 
ATOM     50  N   UNL A   1      45.412  29.310  30.055  1.00  0.00    -0.248 NA
ATOM     51  C   UNL A   1      46.779  30.990  30.935  1.00  0.00     0.031 C 
ATOM     52  C   UNL A   1      46.841  25.272  28.892  1.00  0.00     0.029 A 
ATOM     53  C   UNL A   1      46.416  26.532  29.281  1.00  0.00     0.049 A 
ATOM     54  H   UNL A   1      44.471  27.349  29.252  1.00  0.00     0.167 HD
ATOM     55  C   UNL A   1      46.715  28.838  30.142  1.00  0.00     0.074 A 
ATOM     56  C   UNL A   1      47.519  29.922  30.670  1.00  0.00     0.031 C 
ATOM     57  C   UNL A   1      47.201  27.615  29.817  1.00  0.00     0.037 A 
BRANCH  44  58
ATOM     58  C   UNL A   1      42.950  23.695  27.648  1.00  0.00     0.058 A 
ATOM     59  C   UNL A   1      43.058  23.417  26.276  1.00  0.00     0.135 A 
ATOM     60  C   UNL A   1      42.598  22.641  28.506  1.00  0.00     0.135 A 
ATOM     61  F   UNL A   1      43.374  24.393  25.412  1.00  0.00    -0.206 F 
ATOM     62  C   UNL A   1      42.813  22.143  25.773  1.00  0.00     0.059 A 
ATOM     63  C   UNL A   1      42.368  21.354  28.026  1.00  0.00     0.059 A 
ATOM     64  F   UNL A   1      42.479  22.855  29.826  1.00  0.00    -0.206 F 
ATOM     65  C   UNL A   1      42.467  21.118  26.655  1.00  0.00     0.060 A 
BRANCH  65  66
ATOM     66  S   UNL A   1      42.160  19.470  25.986  1.00  0.00     0.124 S 
ATOM     67  O   UNL A   1      42.569  18.623  27.101  1.00  0.00    -0.237 OA
ATOM     68  O   UNL A   1      40.728  19.506  25.710  1.00  0.00    -0.237 OA
ATOM     69  O   UNL A   1      43.021  19.415  24.808  1.00  0.00    -0.744 OA
ENDBRANCH  65  66
ENDBRANCH  44  58
BRANCH  45  70
ATOM     70  C   UNL A   1      44.568  32.909  31.122  1.00  0.00     0.058 A 
ATOM     71  C   UNL A   1      44.867  33.938  30.218  1.00  0.00     0.135 A 
ATOM     72  C   UNL A   1      44.465  33.239  32.482  1.00  0.00     0.135 A 
ATOM     73  F   UNL A   1      44.983  33.668  28.908  1.00  0.00    -0.206 F 
ATOM     74  C   UNL A   1      45.050  35.249  30.644  1.00  0.00     0.059 A 
ATOM     75  C   UNL A   1      44.623  34.545  32.930  1.00  0.00     0.059 A 
ATOM     76  F   UNL A   1      44.169  32.289  33.383  1.00  0.00    -0.206 F 
ATOM     77  C   UNL A   1      44.919  35.543  32.002  1.00  0.00     0.060 A 
BRANCH  77  78
ATOM     78  S   UNL A   1      45.078  37.261  32.537  1.00  0.00     0.124 S 
ATOM     79  O   UNL A   1      45.658  37.103  33.866  1.00  0.00    -0.237 OA
ATOM     80  O   UNL A   1      45.962  37.820  31.517  1.00  0.00    -0.237 OA
ATOM     81  O   UNL A   1      43.704  37.752  32.500  1.00  0.00    -0.744 OA
ENDBRANCH  77  78
ENDBRANCH  45  70
BRANCH  57  82
ATOM     82  C   UNL A   1      48.668  27.378  30.025  1.00  0.00     0.058 A 
ATOM     83  C   UNL A   1      49.152  26.808  31.212  1.00  0.00     0.135 A 
ATOM     84  C   UNL A   1      49.592  27.668  29.009  1.00  0.00     0.135 A 
ATOM     85  F   UNL A   1      48.309  26.519  32.216  1.00  0.00    -0.206 F 
ATOM     86  C   UNL A   1      50.506  26.543  31.390  1.00  0.00     0.059 A 
ATOM     87  C   UNL A   1      50.948  27.394  29.158  1.00  0.00     0.059 A 
ATOM     88  F   UNL A   1      49.177  28.208  27.853  1.00  0.00    -0.206 F 
ATOM     89  C   UNL A   1      51.396  26.838  30.356  1.00  0.00     0.060 A 
BRANCH  89  90
ATOM     90  S   UNL A   1      53.145  26.451  30.583  1.00  0.00     0.124 S 
ATOM     91  O   UNL A   1      53.085  25.404  31.597  1.00  0.00    -0.237 OA
ATOM     92  O   UNL A   1      53.546  26.017  29.248  1.00  0.00    -0.237 OA
ATOM     93  O   UNL A   1      53.720  27.718  31.021  1.00  0.00    -0.744 OA
ENDBRANCH  89  90
ENDBRANCH  57  82
ENDBRANCH  31  32
ENDBRANCH  23  26
ENDBRANCH  21  22
ENDBRANCH  20  21
ENDBRANCH   1  20
TORSDOF 18
ENDMDL
MODEL 2
REMARK VINA RESULT:     -10.1      3.505     10.015
REMARK SMILES O=C(Cc1ccc(=O)n(C(F)F)c1)NCCCCCCNC(=O)c1ccc(-c2c3nc(c(-c4c(F)cc(S(=O)(=O)[O-])cc4F)c4ccc([nH]4)c(-c4c(F)cc(S(=O)(=O)[O-])cc4F)c4nc(c(-c5c(F)cc(S(=O)(=O)[O-])cc5F)c5ccc2[nH]5)C=C4)C=C3)cc1
REMARK SMILES IDX 18 1 17 2 16 3 15 4 14 5 1 6 2 7 3 9 4 10 5 11 13 12 6 13
REMARK SMILES IDX 9 14 7 15 8 16 10 17 11 18 12 19 19 20 20 21 21 22 22 23
REMARK SMILES IDX 23 25 24 26 25 27 89 28 26 29 88 30 27 31 28 32 29 33 82 34
REMARK SMILES IDX 30 35 87 36 81 37 83 38 31 39 86 40 80 41 79 42 32 44 66 45
REMARK SMILES IDX 45 46 65 47 46 48 49 49 64 50 84 51 47 52 48 53 63 55 85 56
REMARK SMILES IDX 50 57 33 58 34 59 43 60 35 61 36 62 42 63 44 64 37 65 38 66
REMARK SMILES IDX 39 67 40 68 41 69 67 70 68 71 77 72 69 73 70 74 76 75 78 76
REMARK SMILES IDX 71 77 72 78 73 79 74 80 75 81 51 82 52 83 61 84 53 85 54 86
REMARK SMILES IDX 60 87 62 88 55 89 56 90 57 91 58 92 59 93
REMARK H PARENT 14 8 21 24 83 43 49 54
REMARK Flexibility Score: inf
ROOT
ATOM      1  C   UNL A   1      35.909  33.700  29.136  1.00  0.00     0.002 C 
ENDROOT
BRANCH   1   2
ATOM      2  C   UNL A   1      35.633  32.698  28.011  1.00  0.00     0.002 C 
BRANCH   2   3
ATOM      3  C   UNL A   1      34.471  31.723  28.251  1.00  0.00     0.021 C 
BRANCH   3   4
ATOM      4  C   UNL A   1      34.565  30.397  27.493  1.00  0.00     0.116 C 
BRANCH   4   5
ATOM      5  N   UNL A   1      33.607  30.345  26.406  1.00  0.00    -0.356 N 
ATOM      6  O   UNL A   1      32.074  28.958  27.417  1.00  0.00    -0.275 OA
ATOM      7  C   UNL A   1      32.441  29.617  26.448  1.00  0.00     0.224 C 
ATOM      8  H   UNL A   1      33.803  30.862  25.591  1.00  0.00     0.163 HD
BRANCH   7   9
ATOM      9  C   UNL A   1      31.640  29.648  25.151  1.00  0.00     0.137 C 
BRANCH   9  10
ATOM     10  C   UNL A   1      32.139  28.628  24.161  1.00  0.00    -0.022 A 
ATOM     11  C   UNL A   1      33.255  28.980  23.305  1.00  0.00     0.011 A 
ATOM     12  C   UNL A   1      31.611  27.397  24.062  1.00  0.00     0.099 A 
ATOM     13  C   UNL A   1      33.724  28.114  22.398  1.00  0.00     0.072 A 
ATOM     14  N   UNL A   1      32.092  26.474  23.146  1.00  0.00    -0.258 N 
ATOM     15  C   UNL A   1      33.132  26.755  22.274  1.00  0.00     0.254 A 
ATOM     16  O   UNL A   1      33.602  25.986  21.443  1.00  0.00    -0.269 OA
BRANCH  14  17
ATOM     17  C   UNL A   1      31.512  25.158  23.062  1.00  0.00     0.451 C 
ATOM     18  F   UNL A   1      32.207  24.267  23.809  1.00  0.00    -0.185 F 
ATOM     19  F   UNL A   1      30.230  25.166  23.505  1.00  0.00    -0.185 F 
ENDBRANCH  14  17
ENDBRANCH   9  10
ENDBRANCH   7   9
ENDBRANCH   4   5
ENDBRANCH   3   4
ENDBRANCH   2   3
ENDBRANCH   1   2
BRANCH   1  20
ATOM     20  C   UNL A   1      37.382  33.901  29.494  1.00  0.00     0.021 C 
BRANCH  20  21
ATOM     21  C   UNL A   1      37.812  33.333  30.841  1.00  0.00     0.116 C 
BRANCH  21  22
ATOM     22  N   UNL A   1      36.866  32.371  31.391  1.00  0.00    -0.352 N 
ATOM     23  C   UNL A   1      36.911  30.996  31.345  1.00  0.00     0.251 C 
ATOM     24  H   UNL A   1      36.091  32.757  31.860  1.00  0.00     0.163 HD
ATOM     25  O   UNL A   1      35.971  30.331  31.772  1.00  0.00    -0.269 OA
BRANCH  23  26
ATOM     26  C   UNL A   1      38.083  30.327  30.734  1.00  0.00     0.039 A 
ATOM     27  C   UNL A   1      39.108  29.822  31.535  1.00  0.00     0.014 A 
ATOM     28  C   UNL A   1      38.179  30.259  29.341  1.00  0.00     0.014 A 
ATOM     29  C   UNL A   1      40.300  29.411  30.947  1.00  0.00     0.010 A 
ATOM     30  C   UNL A   1      39.351  29.776  28.751  1.00  0.00     0.010 A 
ATOM     31  C   UNL A   1      40.444  29.402  29.549  1.00  0.00    -0.014 A 
BRANCH  31  32
ATOM     32  C   UNL A   1      41.756  29.038  28.951  1.00  0.00     0.031 A 
ATOM     33  C   UNL A   1      42.892  30.029  28.936  1.00  0.00     0.074 A 
ATOM     34  C   UNL A   1      41.950  27.787  28.491  1.00  0.00     0.049 A 
ATOM     35  N   UNL A   1      44.112  29.876  28.488  1.00  0.00    -0.248 NA
ATOM     36  C   UNL A   1      42.625  31.366  29.492  1.00  0.00     0.031 C 
ATOM     37  C   UNL A   1      40.935  26.732  28.468  1.00  0.00     0.029 A 
ATOM     38  N   UNL A   1      43.071  27.183  27.981  1.00  0.00    -0.354 N 
ATOM     39  C   UNL A   1      44.753  31.093  28.693  1.00  0.00     0.074 A 
ATOM     40  C   UNL A   1      43.778  31.987  29.282  1.00  0.00     0.031 C 
ATOM     41  C   UNL A   1      41.494  25.596  28.024  1.00  0.00     0.029 A 
ATOM     42  C   UNL A   1      42.890  25.854  27.680  1.00  0.00     0.049 A 
ATOM     43  H   UNL A   1      43.925  27.655  27.845  1.00  0.00     0.167 HD
ATOM     44  C   UNL A   1      46.038  31.433  28.430  1.00  0.00     0.037 A 
ATOM     45  C   UNL A   1      43.747  24.944  27.179  1.00  0.00     0.037 A 
ATOM     46  C   UNL A   1      47.015  30.537  27.869  1.00  0.00     0.049 A 
ATOM     47  C   UNL A   1      45.156  25.354  26.864  1.00  0.00     0.074 A 
ATOM     48  C   UNL A   1      48.346  30.788  27.578  1.00  0.00     0.029 A 
ATOM     49  N   UNL A   1      46.774  29.217  27.520  1.00  0.00    -0.354 N 
ATOM     50  N   UNL A   1      45.737  26.515  27.052  1.00  0.00    -0.248 NA
ATOM     51  C   UNL A   1      46.024  24.335  26.256  1.00  0.00     0.031 C 
ATOM     52  C   UNL A   1      48.900  29.628  27.026  1.00  0.00     0.029 A 
ATOM     53  C   UNL A   1      47.924  28.645  27.004  1.00  0.00     0.049 A 
ATOM     54  H   UNL A   1      45.910  28.755  27.624  1.00  0.00     0.167 HD
ATOM     55  C   UNL A   1      47.038  26.366  26.588  1.00  0.00     0.074 A 
ATOM     56  C   UNL A   1      47.166  24.999  26.129  1.00  0.00     0.031 C 
ATOM     57  C   UNL A   1      48.034  27.285  26.542  1.00  0.00     0.037 A 
BRANCH  44  58
ATOM     58  C   UNL A   1      46.467  32.839  28.742  1.00  0.00     0.058 A 
ATOM     59  C   UNL A   1      47.031  33.175  29.983  1.00  0.00     0.135 A 
ATOM     60  C   UNL A   1      46.359  33.850  27.774  1.00  0.00     0.135 A 
ATOM     61  F   UNL A   1      47.141  32.250  30.948  1.00  0.00    -0.206 F 
ATOM     62  C   UNL A   1      47.459  34.470  30.258  1.00  0.00     0.059 A 
ATOM     63  C   UNL A   1      46.799  35.148  28.021  1.00  0.00     0.059 A 
ATOM     64  F   UNL A   1      45.825  33.581  26.572  1.00  0.00    -0.206 F 
ATOM     65  C   UNL A   1      47.338  35.450  29.271  1.00  0.00     0.060 A 
BRANCH  65  66
ATOM     66  S   UNL A   1      47.906  37.123  29.643  1.00  0.00     0.124 S 
ATOM     67  O   UNL A   1      46.966  37.926  28.867  1.00  0.00    -0.237 OA
ATOM     68  O   UNL A   1      47.751  37.192  31.092  1.00  0.00    -0.237 OA
ATOM     69  O   UNL A   1      49.283  37.131  29.162  1.00  0.00    -0.744 OA
ENDBRANCH  65  66
ENDBRANCH  44  58
BRANCH  45  70
ATOM     70  C   UNL A   1      43.285  23.551  26.953  1.00  0.00     0.058 A 
ATOM     71  C   UNL A   1      42.979  23.096  25.664  1.00  0.00     0.135 A 
ATOM     72  C   UNL A   1      43.183  22.639  28.014  1.00  0.00     0.135 A 
ATOM     73  F   UNL A   1      43.055  23.935  24.619  1.00  0.00    -0.206 F 
ATOM     74  C   UNL A   1      42.593  21.780  25.430  1.00  0.00     0.059 A 
ATOM     75  C   UNL A   1      42.819  21.314  27.804  1.00  0.00     0.059 A 
ATOM     76  F   UNL A   1      43.476  23.027  29.265  1.00  0.00    -0.206 F 
ATOM     77  C   UNL A   1      42.523  20.894  26.507  1.00  0.00     0.060 A 
BRANCH  77  78
ATOM     78  S   UNL A   1      42.100  19.168  26.185  1.00  0.00     0.124 S 
ATOM     79  O   UNL A   1      42.990  18.850  25.074  1.00  0.00    -0.237 OA
ATOM     80  O   UNL A   1      42.418  18.531  27.460  1.00  0.00    -0.237 OA
ATOM     81  O   UNL A   1      40.678  19.227  25.860  1.00  0.00    -0.744 OA
ENDBRANCH  77  78
ENDBRANCH  45  70
BRANCH  57  82
ATOM     82  C   UNL A   1      49.352  26.844  25.974  1.00  0.00     0.058 A 
ATOM     83  C   UNL A   1      49.695  27.110  24.640  1.00  0.00     0.135 A 
ATOM     84  C   UNL A   1      50.303  26.203  26.784  1.00  0.00     0.135 A 
ATOM     85  F   UNL A   1      48.816  27.714  23.824  1.00  0.00    -0.206 F 
ATOM     86  C   UNL A   1      50.933  26.746  24.123  1.00  0.00     0.059 A 
ATOM     87  C   UNL A   1      51.555  25.848  26.293  1.00  0.00     0.059 A 
ATOM     88  F   UNL A   1      50.024  25.934  28.069  1.00  0.00    -0.206 F 
ATOM     89  C   UNL A   1      51.858  26.116  24.958  1.00  0.00     0.060 A 
BRANCH  89  90
ATOM     90  S   UNL A   1      53.478  25.686  24.287  1.00  0.00     0.124 S 
ATOM     91  O   UNL A   1      54.346  26.619  24.996  1.00  0.00    -0.237 OA
ATOM     92  O   UNL A   1      53.612  24.282  24.667  1.00  0.00    -0.237 OA
ATOM     93  O   UNL A   1      53.329  25.929  22.856  1.00  0.00    -0.744 OA
ENDBRANCH  89  90
ENDBRANCH  57  82
ENDBRANCH  31  32
ENDBRANCH  23  26
ENDBRANCH  21  22
ENDBRANCH  20  21
ENDBRANCH   1  20
TORSDOF 18
ENDMDL
MODEL 3
REMARK VINA RESULT:     -10.1      5.073     13.333
REMARK SMILES O=C(Cc1ccc(=O)n(C(F)F)c1)NCCCCCCNC(=O)c1ccc(-c2c3nc(c(-c4c(F)cc(S(=O)(=O)[O-])cc4F)c4ccc([nH]4)c(-c4c(F)cc(S(=O)(=O)[O-])cc4F)c4nc(c(-c5c(F)cc(S(=O)(=O)[O-])cc5F)c5ccc2[nH]5)C=C4)C=C3)cc1
REMARK SMILES IDX 18 1 17 2 16 3 15 4 14 5 1 6 2 7 3 9 4 10 5 11 13 12 6 13
REMARK SMILES IDX 9 14 7 15 8 16 10 17 11 18 12 19 19 20 20 21 21 22 22 23
REMARK SMILES IDX 23 25 24 26 25 27 89 28 26 29 88 30 27 31 28 32 29 33 82 34
REMARK SMILES IDX 30 35 87 36 81 37 83 38 31 39 86 40 80 41 79 42 32 44 66 45
REMARK SMILES IDX 45 46 65 47 46 48 49 49 64 50 84 51 47 52 48 53 63 55 85 56
REMARK SMILES IDX 50 57 33 58 34 59 43 60 35 61 36 62 42 63 44 64 37 65 38 66
REMARK SMILES IDX 39 67 40 68 41 69 67 70 68 71 77 72 69 73 70 74 76 75 78 76
REMARK SMILES IDX 71 77 72 78 73 79 74 80 75 81 51 82 52 83 61 84 53 85 54 86
REMARK SMILES IDX 60 87 62 88 55 89 56 90 57 91 58 92 59 93
REMARK H PARENT 14 8 21 24 83 43 49 54
REMARK Flexibility Score: inf
ROOT
ATOM      1  C   UNL A   1      44.106  24.307  29.656  1.00  0.00     0.002 C 
ENDROOT
BRANCH   1   2
ATOM      2  C   UNL A   1      44.882  25.228  28.709  1.00  0.00     0.002 C 
BRANCH   2   3
ATOM      3  C   UNL A   1      46.409  25.061  28.713  1.00  0.00     0.021 C 
BRANCH   3   4
ATOM      4  C   UNL A   1      47.011  24.544  27.405  1.00  0.00     0.116 C 
BRANCH   4   5
ATOM      5  N   UNL A   1      46.026  23.825  26.622  1.00  0.00    -0.356 N 
ATOM      6  O   UNL A   1      46.245  25.033  24.675  1.00  0.00    -0.275 OA
ATOM      7  C   UNL A   1      45.709  24.136  25.320  1.00  0.00     0.224 C 
ATOM      8  H   UNL A   1      45.557  23.071  27.046  1.00  0.00     0.163 HD
BRANCH   7   9
ATOM      9  C   UNL A   1      44.579  23.295  24.736  1.00  0.00     0.137 C 
BRANCH   9  10
ATOM     10  C   UNL A   1      44.848  21.820  24.880  1.00  0.00    -0.022 A 
ATOM     11  C   UNL A   1      46.196  21.335  24.655  1.00  0.00     0.011 A 
ATOM     12  C   UNL A   1      43.896  20.942  25.239  1.00  0.00     0.099 A 
ATOM     13  C   UNL A   1      46.482  20.031  24.756  1.00  0.00     0.072 A 
ATOM     14  N   UNL A   1      44.171  19.590  25.371  1.00  0.00    -0.258 N 
ATOM     15  C   UNL A   1      45.427  19.053  25.137  1.00  0.00     0.254 A 
ATOM     16  O   UNL A   1      45.735  17.871  25.235  1.00  0.00    -0.269 OA
BRANCH  14  17
ATOM     17  C   UNL A   1      43.134  18.669  25.761  1.00  0.00     0.451 C 
ATOM     18  F   UNL A   1      43.388  18.132  26.978  1.00  0.00    -0.185 F 
ATOM     19  F   UNL A   1      41.931  19.293  25.820  1.00  0.00    -0.185 F 
ENDBRANCH  14  17
ENDBRANCH   9  10
ENDBRANCH   7   9
ENDBRANCH   4   5
ENDBRANCH   3   4
ENDBRANCH   2   3
ENDBRANCH   1   2
BRANCH   1  20
ATOM     20  C   UNL A   1      43.496  23.062  29.012  1.00  0.00     0.021 C 
BRANCH  20  21
ATOM     21  C   UNL A   1      42.058  23.213  28.528  1.00  0.00     0.116 C 
BRANCH  21  22
ATOM     22  N   UNL A   1      41.957  23.619  27.133  1.00  0.00    -0.352 N 
ATOM     23  C   UNL A   1      41.571  24.835  26.616  1.00  0.00     0.251 C 
ATOM     24  H   UNL A   1      42.197  22.931  26.471  1.00  0.00     0.163 HD
ATOM     25  O   UNL A   1      41.439  24.980  25.404  1.00  0.00    -0.269 OA
BRANCH  23  26
ATOM     26  C   UNL A   1      41.272  25.955  27.538  1.00  0.00     0.039 A 
ATOM     27  C   UNL A   1      42.129  27.054  27.621  1.00  0.00     0.014 A 
ATOM     28  C   UNL A   1      40.150  25.873  28.368  1.00  0.00     0.014 A 
ATOM     29  C   UNL A   1      41.964  27.978  28.648  1.00  0.00     0.010 A 
ATOM     30  C   UNL A   1      39.945  26.846  29.353  1.00  0.00     0.010 A 
ATOM     31  C   UNL A   1      40.883  27.874  29.539  1.00  0.00    -0.014 A 
BRANCH  31  32
ATOM     32  C   UNL A   1      40.778  28.826  30.676  1.00  0.00     0.031 A 
ATOM     33  C   UNL A   1      39.710  29.890  30.689  1.00  0.00     0.074 A 
ATOM     34  C   UNL A   1      41.596  28.683  31.737  1.00  0.00     0.049 A 
ATOM     35  N   UNL A   1      39.448  30.783  31.609  1.00  0.00    -0.248 NA
ATOM     36  C   UNL A   1      38.823  29.965  29.517  1.00  0.00     0.031 C 
ATOM     37  C   UNL A   1      42.657  27.681  31.852  1.00  0.00     0.029 A 
ATOM     38  N   UNL A   1      41.646  29.361  32.929  1.00  0.00    -0.354 N 
ATOM     39  C   UNL A   1      38.381  31.532  31.126  1.00  0.00     0.074 A 
ATOM     40  C   UNL A   1      38.059  31.007  29.816  1.00  0.00     0.031 C 
ATOM     41  C   UNL A   1      43.215  27.772  33.070  1.00  0.00     0.029 A 
ATOM     42  C   UNL A   1      42.590  28.871  33.800  1.00  0.00     0.049 A 
ATOM     43  H   UNL A   1      41.061  30.125  33.140  1.00  0.00     0.167 HD
ATOM     44  C   UNL A   1      37.719  32.552  31.722  1.00  0.00     0.037 A 
ATOM     45  C   UNL A   1      42.921  29.263  35.045  1.00  0.00     0.037 A 
ATOM     46  C   UNL A   1      38.022  33.058  33.036  1.00  0.00     0.049 A 
ATOM     47  C   UNL A   1      42.196  30.419  35.671  1.00  0.00     0.074 A 
ATOM     48  C   UNL A   1      37.398  34.082  33.729  1.00  0.00     0.029 A 
ATOM     49  N   UNL A   1      39.027  32.574  33.860  1.00  0.00    -0.354 N 
ATOM     50  N   UNL A   1      41.200  31.123  35.189  1.00  0.00    -0.248 NA
ATOM     51  C   UNL A   1      42.648  30.844  37.003  1.00  0.00     0.031 C 
ATOM     52  C   UNL A   1      38.045  34.237  34.960  1.00  0.00     0.029 A 
ATOM     53  C   UNL A   1      39.050  33.287  35.047  1.00  0.00     0.049 A 
ATOM     54  H   UNL A   1      39.634  31.833  33.634  1.00  0.00     0.167 HD
ATOM     55  C   UNL A   1      40.904  32.072  36.159  1.00  0.00     0.074 A 
ATOM     56  C   UNL A   1      41.812  31.840  37.264  1.00  0.00     0.031 C 
ATOM     57  C   UNL A   1      39.966  33.051  36.134  1.00  0.00     0.037 A 
BRANCH  44  58
ATOM     58  C   UNL A   1      36.599  33.201  30.959  1.00  0.00     0.058 A 
ATOM     59  C   UNL A   1      35.256  32.989  31.306  1.00  0.00     0.135 A 
ATOM     60  C   UNL A   1      36.873  34.081  29.899  1.00  0.00     0.135 A 
ATOM     61  F   UNL A   1      34.940  32.143  32.299  1.00  0.00    -0.206 F 
ATOM     62  C   UNL A   1      34.221  33.616  30.619  1.00  0.00     0.059 A 
ATOM     63  C   UNL A   1      35.854  34.735  29.212  1.00  0.00     0.059 A 
ATOM     64  F   UNL A   1      38.141  34.317  29.527  1.00  0.00    -0.206 F 
ATOM     65  C   UNL A   1      34.530  34.487  29.572  1.00  0.00     0.060 A 
BRANCH  65  66
ATOM     66  S   UNL A   1      33.175  35.298  28.697  1.00  0.00     0.124 S 
ATOM     67  O   UNL A   1      32.418  35.872  29.804  1.00  0.00    -0.237 OA
ATOM     68  O   UNL A   1      33.879  36.254  27.848  1.00  0.00    -0.237 OA
ATOM     69  O   UNL A   1      32.520  34.201  27.991  1.00  0.00    -0.744 OA
ENDBRANCH  65  66
ENDBRANCH  44  58
BRANCH  45  70
ATOM     70  C   UNL A   1      43.992  28.542  35.778  1.00  0.00     0.058 A 
ATOM     71  C   UNL A   1      43.685  27.474  36.632  1.00  0.00     0.135 A 
ATOM     72  C   UNL A   1      45.344  28.877  35.604  1.00  0.00     0.135 A 
ATOM     73  F   UNL A   1      42.406  27.123  36.835  1.00  0.00    -0.206 F 
ATOM     74  C   UNL A   1      44.682  26.757  37.286  1.00  0.00     0.059 A 
ATOM     75  C   UNL A   1      46.359  28.163  36.229  1.00  0.00     0.059 A 
ATOM     76  F   UNL A   1      45.687  29.885  34.786  1.00  0.00    -0.206 F 
ATOM     77  C   UNL A   1      46.017  27.105  37.072  1.00  0.00     0.060 A 
BRANCH  77  78
ATOM     78  S   UNL A   1      47.308  26.118  37.860  1.00  0.00     0.124 S 
ATOM     79  O   UNL A   1      48.476  26.472  37.063  1.00  0.00    -0.237 OA
ATOM     80  O   UNL A   1      47.291  26.628  39.229  1.00  0.00    -0.237 OA
ATOM     81  O   UNL A   1      46.825  24.750  37.705  1.00  0.00    -0.744 OA
ENDBRANCH  77  78
ENDBRANCH  45  70
BRANCH  57  82
ATOM     82  C   UNL A   1      39.875  33.949  37.333  1.00  0.00     0.058 A 
ATOM     83  C   UNL A   1      40.599  35.149  37.401  1.00  0.00     0.135 A 
ATOM     84  C   UNL A   1      39.012  33.639  38.396  1.00  0.00     0.135 A 
ATOM     85  F   UNL A   1      41.442  35.486  36.412  1.00  0.00    -0.206 F 
ATOM     86  C   UNL A   1      40.480  36.007  38.489  1.00  0.00     0.059 A 
ATOM     87  C   UNL A   1      38.863  34.492  39.485  1.00  0.00     0.059 A 
ATOM     88  F   UNL A   1      38.293  32.506  38.374  1.00  0.00    -0.206 F 
ATOM     89  C   UNL A   1      39.608  35.670  39.526  1.00  0.00     0.060 A 
BRANCH  89  90
ATOM     90  S   UNL A   1      39.431  36.813  40.913  1.00  0.00     0.124 S 
ATOM     91  O   UNL A   1      40.814  37.222  41.134  1.00  0.00    -0.237 OA
ATOM     92  O   UNL A   1      38.547  37.837  40.365  1.00  0.00    -0.237 OA
ATOM     93  O   UNL A   1      38.845  35.985  41.962  1.00  0.00    -0.744 OA
ENDBRANCH  89  90
ENDBRANCH  57  82
ENDBRANCH  31  32
ENDBRANCH  23  26
ENDBRANCH  21  22
ENDBRANCH  20  21
ENDBRANCH   1  20
TORSDOF 18
ENDMDL
