MODEL 1
REMARK VINA RESULT:     -11.8      0.000      0.000
REMARK SMILES CC(C)c1cc(C2CC[NH+](Cc3c[nH]nc3C(=O)NCCCCCCNC(=O)c3ccc(-c4c5nc(c(-c6c(F)cc(S(=O)(=O)[O-])cc6F)c6ccc([nH]6)c(-c6c(F)cc(S(=O)(=O)[O-])cc6F)c6nc(c(-c7c(F)cc(S(=O)(=O)[O-])cc7F)c7ccc4[nH]7)C=C6)C=C5)cc3)CC2)n[nH]1
REMARK SMILES IDX 22 1 21 2 20 3 19 4 17 5 18 6 16 8 12 9 13 10 14 11 15 12
REMARK SMILES IDX 11 14 10 15 7 16 8 17 96 18 9 19 95 20 6 22 4 23 5 24 98 25
REMARK SMILES IDX 97 26 2 28 1 29 3 30 23 31 24 32 25 33 26 34 27 35 28 37
REMARK SMILES IDX 29 38 30 39 94 40 31 41 93 42 32 43 33 44 34 45 87 46 35 47
REMARK SMILES IDX 92 48 86 49 88 50 36 51 91 52 85 53 84 54 37 56 71 57 50 58
REMARK SMILES IDX 70 59 51 60 54 61 69 62 89 63 52 64 53 65 68 67 90 68 55 69
REMARK SMILES IDX 38 70 39 71 48 72 40 73 41 74 47 75 49 76 42 77 43 78 44 79
REMARK SMILES IDX 45 80 46 81 72 82 73 83 82 84 74 85 75 86 81 87 83 88 76 89
REMARK SMILES IDX 77 90 78 91 79 92 80 93 56 94 57 95 66 96 58 97 59 98 65 99
REMARK SMILES IDX 67 100 60 101 61 102 62 103 63 104 64 105
REMARK H PARENT 19 7 14 13 10 21 98 27 26 36 88 55 54 66
REMARK Flexibility Score: inf
ROOT
ATOM      1  C   UNL A   1      34.175  30.051  27.333  1.00  0.00     0.002 C 
ENDROOT
BRANCH   1   2
ATOM      2  C   UNL A   1      32.794  29.450  27.120  1.00  0.00     0.021 C 
BRANCH   2   3
ATOM      3  C   UNL A   1      31.976  30.077  26.001  1.00  0.00     0.116 C 
BRANCH   3   4
ATOM      4  N   UNL A   1      32.446  29.782  24.688  1.00  0.00    -0.351 N 
ATOM      5  C   UNL A   1      31.973  28.921  23.728  1.00  0.00     0.272 C 
ATOM      6  O   UNL A   1      32.679  28.923  22.708  1.00  0.00    -0.267 OA
ATOM      7  H   UNL A   1      33.251  30.283  24.423  1.00  0.00     0.163 HD
BRANCH   5   8
ATOM      8  C   UNL A   1      30.743  28.052  23.813  1.00  0.00     0.158 A 
ATOM      9  C   UNL A   1      30.289  26.847  24.517  1.00  0.00     0.057 A 
ATOM     10  C   UNL A   1      28.957  26.720  24.136  1.00  0.00     0.115 A 
ATOM     11  N   UNL A   1      28.699  27.693  23.241  1.00  0.00    -0.284 N 
ATOM     12  N   UNL A   1      29.732  28.487  23.016  1.00  0.00    -0.170 NA
ATOM     13  H   UNL A   1      27.825  27.802  22.798  1.00  0.00     0.189 HD
BRANCH   9  14
ATOM     14  C   UNL A   1      30.890  25.871  25.502  1.00  0.00     0.303 C 
BRANCH  14  15
ATOM     15  N   UNL A   1      30.871  24.446  25.078  1.00  0.00    -0.331 N 
ATOM     16  C   UNL A   1      32.171  21.984  24.016  1.00  0.00     0.051 C 
ATOM     17  C   UNL A   1      31.235  22.840  23.160  1.00  0.00     0.071 C 
ATOM     18  C   UNL A   1      31.657  22.046  25.452  1.00  0.00     0.071 C 
ATOM     19  C   UNL A   1      31.151  24.288  23.648  1.00  0.00     0.263 C 
ATOM     20  C   UNL A   1      31.495  23.476  25.979  1.00  0.00     0.263 C 
ATOM     21  H   UNL A   1      29.900  24.157  25.193  1.00  0.00     0.348 HD
BRANCH  16  22
ATOM     22  C   UNL A   1      33.626  22.363  23.886  1.00  0.00     0.066 A 
ATOM     23  C   UNL A   1      35.836  22.517  24.153  1.00  0.00     0.038 A 
ATOM     24  C   UNL A   1      34.722  21.869  24.620  1.00  0.00     0.049 A 
ATOM     25  N   UNL A   1      35.371  23.345  23.172  1.00  0.00    -0.282 N 
ATOM     26  N   UNL A   1      34.036  23.272  22.990  1.00  0.00    -0.180 NA
ATOM     27  H   UNL A   1      35.954  23.939  22.647  1.00  0.00     0.190 HD
BRANCH  23  28
ATOM     28  C   UNL A   1      37.247  22.378  24.620  1.00  0.00     0.031 C 
ATOM     29  C   UNL A   1      37.603  23.345  25.741  1.00  0.00     0.014 C 
ATOM     30  C   UNL A   1      37.552  20.928  24.992  1.00  0.00     0.014 C 
ENDBRANCH  23  28
ENDBRANCH  16  22
ENDBRANCH  14  15
ENDBRANCH   9  14
ENDBRANCH   5   8
ENDBRANCH   3   4
ENDBRANCH   2   3
ENDBRANCH   1   2
BRANCH   1  31
ATOM     31  C   UNL A   1      34.195  31.471  27.911  1.00  0.00     0.002 C 
BRANCH  31  32
ATOM     32  C   UNL A   1      35.541  32.207  27.880  1.00  0.00     0.021 C 
BRANCH  32  33
ATOM     33  C   UNL A   1      36.164  32.525  29.239  1.00  0.00     0.116 C 
BRANCH  33  34
ATOM     34  N   UNL A   1      35.846  31.523  30.241  1.00  0.00    -0.352 N 
ATOM     35  C   UNL A   1      36.535  30.402  30.627  1.00  0.00     0.251 C 
ATOM     36  H   UNL A   1      35.000  31.674  30.720  1.00  0.00     0.163 HD
ATOM     37  O   UNL A   1      35.992  29.581  31.360  1.00  0.00    -0.269 OA
BRANCH  35  38
ATOM     38  C   UNL A   1      37.915  30.167  30.150  1.00  0.00     0.039 A 
ATOM     39  C   UNL A   1      38.963  30.247  31.071  1.00  0.00     0.014 A 
ATOM     40  C   UNL A   1      38.183  29.899  28.805  1.00  0.00     0.014 A 
ATOM     41  C   UNL A   1      40.272  29.985  30.657  1.00  0.00     0.010 A 
ATOM     42  C   UNL A   1      39.480  29.575  28.407  1.00  0.00     0.010 A 
ATOM     43  C   UNL A   1      40.535  29.604  29.331  1.00  0.00    -0.014 A 
BRANCH  43  44
ATOM     44  C   UNL A   1      41.898  29.184  28.912  1.00  0.00     0.031 A 
ATOM     45  C   UNL A   1      43.013  30.187  28.810  1.00  0.00     0.074 A 
ATOM     46  C   UNL A   1      42.107  27.900  28.557  1.00  0.00     0.049 A 
ATOM     47  N   UNL A   1      44.243  30.011  28.400  1.00  0.00    -0.248 NA
ATOM     48  C   UNL A   1      42.702  31.572  29.196  1.00  0.00     0.031 C 
ATOM     49  C   UNL A   1      41.090  26.846  28.567  1.00  0.00     0.029 A 
ATOM     50  N   UNL A   1      43.235  27.264  28.104  1.00  0.00    -0.354 N 
ATOM     51  C   UNL A   1      44.850  31.259  28.469  1.00  0.00     0.074 A 
ATOM     52  C   UNL A   1      43.840  32.193  28.918  1.00  0.00     0.031 C 
ATOM     53  C   UNL A   1      41.642  25.695  28.155  1.00  0.00     0.029 A 
ATOM     54  C   UNL A   1      43.039  25.935  27.809  1.00  0.00     0.049 A 
ATOM     55  H   UNL A   1      44.104  27.716  28.000  1.00  0.00     0.167 HD
ATOM     56  C   UNL A   1      46.136  31.591  28.198  1.00  0.00     0.037 A 
ATOM     57  C   UNL A   1      43.881  25.016  27.298  1.00  0.00     0.037 A 
ATOM     58  C   UNL A   1      47.138  30.649  27.767  1.00  0.00     0.049 A 
ATOM     59  C   UNL A   1      45.299  25.413  26.989  1.00  0.00     0.074 A 
ATOM     60  C   UNL A   1      48.485  30.872  27.540  1.00  0.00     0.029 A 
ATOM     61  N   UNL A   1      46.904  29.310  27.485  1.00  0.00    -0.354 N 
ATOM     62  N   UNL A   1      45.878  26.581  27.141  1.00  0.00    -0.248 NA
ATOM     63  C   UNL A   1      46.178  24.372  26.439  1.00  0.00     0.031 C 
ATOM     64  C   UNL A   1      49.053  29.685  27.066  1.00  0.00     0.029 A 
ATOM     65  C   UNL A   1      48.072  28.706  27.050  1.00  0.00     0.049 A 
ATOM     66  H   UNL A   1      46.035  28.857  27.581  1.00  0.00     0.167 HD
ATOM     67  C   UNL A   1      47.192  26.411  26.719  1.00  0.00     0.074 A 
ATOM     68  C   UNL A   1      47.328  25.023  26.328  1.00  0.00     0.031 C 
ATOM     69  C   UNL A   1      48.192  27.323  26.657  1.00  0.00     0.037 A 
BRANCH  56  70
ATOM     70  C   UNL A   1      46.539  33.032  28.355  1.00  0.00     0.058 A 
ATOM     71  C   UNL A   1      47.049  33.530  29.565  1.00  0.00     0.135 A 
ATOM     72  C   UNL A   1      46.469  33.915  27.264  1.00  0.00     0.135 A 
ATOM     73  F   UNL A   1      47.126  32.735  30.644  1.00  0.00    -0.206 F 
ATOM     74  C   UNL A   1      47.450  34.856  29.696  1.00  0.00     0.059 A 
ATOM     75  C   UNL A   1      46.892  35.238  27.364  1.00  0.00     0.059 A 
ATOM     76  F   UNL A   1      45.992  33.493  26.082  1.00  0.00    -0.206 F 
ATOM     77  C   UNL A   1      47.369  35.702  28.589  1.00  0.00     0.060 A 
BRANCH  77  78
ATOM     78  S   UNL A   1      47.910  37.415  28.774  1.00  0.00     0.124 S 
ATOM     79  O   UNL A   1      47.095  38.086  27.767  1.00  0.00    -0.237 OA
ATOM     80  O   UNL A   1      47.565  37.702  30.163  1.00  0.00    -0.237 OA
ATOM     81  O   UNL A   1      49.340  37.354  28.485  1.00  0.00    -0.744 OA
ENDBRANCH  77  78
ENDBRANCH  56  70
BRANCH  57  82
ATOM     82  C   UNL A   1      43.401  23.631  27.042  1.00  0.00     0.058 A 
ATOM     83  C   UNL A   1      43.147  23.181  25.738  1.00  0.00     0.135 A 
ATOM     84  C   UNL A   1      43.201  22.725  28.095  1.00  0.00     0.135 A 
ATOM     85  F   UNL A   1      43.316  24.012  24.698  1.00  0.00    -0.206 F 
ATOM     86  C   UNL A   1      42.698  21.889  25.487  1.00  0.00     0.059 A 
ATOM     87  C   UNL A   1      42.780  21.419  27.867  1.00  0.00     0.059 A 
ATOM     88  F   UNL A   1      43.445  23.098  29.361  1.00  0.00    -0.206 F 
ATOM     89  C   UNL A   1      42.520  21.013  26.559  1.00  0.00     0.060 A 
BRANCH  89  90
ATOM     90  S   UNL A   1      41.983  19.323  26.218  1.00  0.00     0.124 S 
ATOM     91  O   UNL A   1      40.538  19.487  26.122  1.00  0.00    -0.237 OA
ATOM     92  O   UNL A   1      42.678  19.027  24.969  1.00  0.00    -0.237 OA
ATOM     93  O   UNL A   1      42.459  18.579  27.381  1.00  0.00    -0.744 OA
ENDBRANCH  89  90
ENDBRANCH  57  82
BRANCH  69  94
ATOM     94  C   UNL A   1      49.529  26.851  26.153  1.00  0.00     0.058 A 
ATOM     95  C   UNL A   1      49.867  26.921  24.793  1.00  0.00     0.135 A 
ATOM     96  C   UNL A   1      50.503  26.376  27.046  1.00  0.00     0.135 A 
ATOM     97  F   UNL A   1      48.970  27.358  23.895  1.00  0.00    -0.206 F 
ATOM     98  C   UNL A   1      51.117  26.522  24.332  1.00  0.00     0.059 A 
ATOM     99  C   UNL A   1      51.771  25.998  26.612  1.00  0.00     0.059 A 
ATOM    100  F   UNL A   1      50.235  26.296  28.360  1.00  0.00    -0.206 F 
ATOM    101  C   UNL A   1      52.065  26.065  25.251  1.00  0.00     0.060 A 
BRANCH 101 102
ATOM    102  S   UNL A   1      53.697  25.591  24.644  1.00  0.00     0.124 S 
ATOM    103  O   UNL A   1      54.572  26.255  25.604  1.00  0.00    -0.237 OA
ATOM    104  O   UNL A   1      53.651  24.135  24.730  1.00  0.00    -0.237 OA
ATOM    105  O   UNL A   1      53.726  26.133  23.288  1.00  0.00    -0.744 OA
ENDBRANCH 101 102
ENDBRANCH  69  94
ENDBRANCH  43  44
ENDBRANCH  35  38
ENDBRANCH  33  34
ENDBRANCH  32  33
ENDBRANCH  31  32
ENDBRANCH   1  31
TORSDOF 20
ENDMDL
MODEL 2
REMARK VINA RESULT:     -11.4      1.244      8.186
REMARK SMILES CC(C)c1cc(C2CC[NH+](Cc3c[nH]nc3C(=O)NCCCCCCNC(=O)c3ccc(-c4c5nc(c(-c6c(F)cc(S(=O)(=O)[O-])cc6F)c6ccc([nH]6)c(-c6c(F)cc(S(=O)(=O)[O-])cc6F)c6nc(c(-c7c(F)cc(S(=O)(=O)[O-])cc7F)c7ccc4[nH]7)C=C6)C=C5)cc3)CC2)n[nH]1
REMARK SMILES IDX 22 1 21 2 20 3 19 4 17 5 18 6 16 8 12 9 13 10 14 11 15 12
REMARK SMILES IDX 11 14 10 15 7 16 8 17 96 18 9 19 95 20 6 22 4 23 5 24 98 25
REMARK SMILES IDX 97 26 2 28 1 29 3 30 23 31 24 32 25 33 26 34 27 35 28 37
REMARK SMILES IDX 29 38 30 39 94 40 31 41 93 42 32 43 33 44 34 45 87 46 35 47
REMARK SMILES IDX 92 48 86 49 88 50 36 51 91 52 85 53 84 54 37 56 71 57 50 58
REMARK SMILES IDX 70 59 51 60 54 61 69 62 89 63 52 64 53 65 68 67 90 68 55 69
REMARK SMILES IDX 38 70 39 71 48 72 40 73 41 74 47 75 49 76 42 77 43 78 44 79
REMARK SMILES IDX 45 80 46 81 72 82 73 83 82 84 74 85 75 86 81 87 83 88 76 89
REMARK SMILES IDX 77 90 78 91 79 92 80 93 56 94 57 95 66 96 58 97 59 98 65 99
REMARK SMILES IDX 67 100 60 101 61 102 62 103 63 104 64 105
REMARK H PARENT 19 7 14 13 10 21 98 27 26 36 88 55 54 66
REMARK Flexibility Score: inf
ROOT
ATOM      1  C   UNL A   1      34.413  29.574  27.709  1.00  0.00     0.002 C 
ENDROOT
BRANCH   1   2
ATOM      2  C   UNL A   1      34.282  28.745  26.441  1.00  0.00     0.021 C 
BRANCH   2   3
ATOM      3  C   UNL A   1      33.343  29.309  25.386  1.00  0.00     0.116 C 
BRANCH   3   4
ATOM      4  N   UNL A   1      33.683  28.964  24.046  1.00  0.00    -0.351 N 
ATOM      5  C   UNL A   1      32.983  28.285  23.079  1.00  0.00     0.272 C 
ATOM      6  O   UNL A   1      33.633  28.158  22.030  1.00  0.00    -0.267 OA
ATOM      7  H   UNL A   1      34.577  29.265  23.763  1.00  0.00     0.163 HD
BRANCH   5   8
ATOM      8  C   UNL A   1      31.582  27.738  23.187  1.00  0.00     0.158 A 
ATOM      9  C   UNL A   1      30.913  26.447  23.394  1.00  0.00     0.057 A 
ATOM     10  C   UNL A   1      29.565  26.780  23.479  1.00  0.00     0.115 A 
ATOM     11  N   UNL A   1      29.461  28.105  23.257  1.00  0.00    -0.284 N 
ATOM     12  N   UNL A   1      30.627  28.698  23.066  1.00  0.00    -0.170 NA
ATOM     13  H   UNL A   1      28.600  28.584  23.238  1.00  0.00     0.189 HD
BRANCH   9  14
ATOM     14  C   UNL A   1      31.350  25.012  23.572  1.00  0.00     0.303 C 
BRANCH  14  15
ATOM     15  N   UNL A   1      32.728  24.828  24.100  1.00  0.00    -0.331 N 
ATOM     16  C   UNL A   1      34.887  23.196  25.348  1.00  0.00     0.051 C 
ATOM     17  C   UNL A   1      34.120  24.262  26.133  1.00  0.00     0.071 C 
ATOM     18  C   UNL A   1      35.005  23.689  23.908  1.00  0.00     0.071 C 
ATOM     19  C   UNL A   1      32.740  24.551  25.539  1.00  0.00     0.263 C 
ATOM     20  C   UNL A   1      33.657  24.051  23.276  1.00  0.00     0.263 C 
ATOM     21  H   UNL A   1      33.166  25.743  24.000  1.00  0.00     0.348 HD
BRANCH  16  22
ATOM     22  C   UNL A   1      34.288  21.815  25.458  1.00  0.00     0.066 A 
ATOM     23  C   UNL A   1      33.516  19.769  25.016  1.00  0.00     0.038 A 
ATOM     24  C   UNL A   1      34.105  20.863  24.438  1.00  0.00     0.049 A 
ATOM     25  N   UNL A   1      33.385  20.102  26.335  1.00  0.00    -0.282 N 
ATOM     26  N   UNL A   1      33.844  21.335  26.629  1.00  0.00    -0.180 NA
ATOM     27  H   UNL A   1      32.994  19.498  27.006  1.00  0.00     0.190 HD
BRANCH  23  28
ATOM     28  C   UNL A   1      33.085  18.498  24.362  1.00  0.00     0.031 C 
ATOM     29  C   UNL A   1      32.340  18.724  23.053  1.00  0.00     0.014 C 
ATOM     30  C   UNL A   1      34.269  17.549  24.194  1.00  0.00     0.014 C 
ENDBRANCH  23  28
ENDBRANCH  16  22
ENDBRANCH  14  15
ENDBRANCH   9  14
ENDBRANCH   5   8
ENDBRANCH   3   4
ENDBRANCH   2   3
ENDBRANCH   1   2
BRANCH   1  31
ATOM     31  C   UNL A   1      35.243  30.856  27.576  1.00  0.00     0.002 C 
BRANCH  31  32
ATOM     32  C   UNL A   1      34.957  31.967  28.596  1.00  0.00     0.021 C 
BRANCH  32  33
ATOM     33  C   UNL A   1      36.045  32.217  29.640  1.00  0.00     0.116 C 
BRANCH  33  34
ATOM     34  N   UNL A   1      35.951  31.305  30.766  1.00  0.00    -0.352 N 
ATOM     35  C   UNL A   1      36.783  30.286  31.157  1.00  0.00     0.251 C 
ATOM     36  H   UNL A   1      35.165  31.440  31.341  1.00  0.00     0.163 HD
ATOM     37  O   UNL A   1      36.415  29.508  32.031  1.00  0.00    -0.269 OA
BRANCH  35  38
ATOM     38  C   UNL A   1      38.104  30.109  30.517  1.00  0.00     0.039 A 
ATOM     39  C   UNL A   1      39.245  30.133  31.324  1.00  0.00     0.014 A 
ATOM     40  C   UNL A   1      38.227  29.948  29.134  1.00  0.00     0.014 A 
ATOM     41  C   UNL A   1      40.503  29.922  30.753  1.00  0.00     0.010 A 
ATOM     42  C   UNL A   1      39.475  29.674  28.575  1.00  0.00     0.010 A 
ATOM     43  C   UNL A   1      40.623  29.648  29.380  1.00  0.00    -0.014 A 
BRANCH  43  44
ATOM     44  C   UNL A   1      41.936  29.281  28.786  1.00  0.00     0.031 A 
ATOM     45  C   UNL A   1      42.201  27.877  28.318  1.00  0.00     0.074 A 
ATOM     46  C   UNL A   1      42.914  30.208  28.736  1.00  0.00     0.049 A 
ATOM     47  N   UNL A   1      43.305  27.364  27.838  1.00  0.00    -0.248 NA
ATOM     48  C   UNL A   1      41.090  26.918  28.424  1.00  0.00     0.031 C 
ATOM     49  C   UNL A   1      42.791  31.590  29.206  1.00  0.00     0.029 A 
ATOM     50  N   UNL A   1      44.207  30.128  28.284  1.00  0.00    -0.354 N 
ATOM     51  C   UNL A   1      43.027  26.025  27.593  1.00  0.00     0.074 A 
ATOM     52  C   UNL A   1      41.664  25.794  28.019  1.00  0.00     0.031 C 
ATOM     53  C   UNL A   1      43.953  32.230  29.005  1.00  0.00     0.029 A 
ATOM     54  C   UNL A   1      44.918  31.296  28.434  1.00  0.00     0.049 A 
ATOM     55  H   UNL A   1      44.590  29.312  27.889  1.00  0.00     0.167 HD
ATOM     56  C   UNL A   1      43.832  25.081  27.047  1.00  0.00     0.037 A 
ATOM     57  C   UNL A   1      46.206  31.580  28.162  1.00  0.00     0.037 A 
ATOM     58  C   UNL A   1      45.183  25.327  26.611  1.00  0.00     0.049 A 
ATOM     59  C   UNL A   1      47.084  30.510  27.572  1.00  0.00     0.074 A 
ATOM     60  C   UNL A   1      46.053  24.456  25.976  1.00  0.00     0.029 A 
ATOM     61  N   UNL A   1      45.867  26.523  26.772  1.00  0.00    -0.354 N 
ATOM     62  N   UNL A   1      46.778  29.270  27.269  1.00  0.00    -0.248 NA
ATOM     63  C   UNL A   1      48.479  30.873  27.289  1.00  0.00     0.031 C 
ATOM     64  C   UNL A   1      47.279  25.107  25.808  1.00  0.00     0.029 A 
ATOM     65  C   UNL A   1      47.158  26.401  26.286  1.00  0.00     0.049 A 
ATOM     66  H   UNL A   1      45.489  27.339  27.174  1.00  0.00     0.167 HD
ATOM     67  C   UNL A   1      47.939  28.710  26.746  1.00  0.00     0.074 A 
ATOM     68  C   UNL A   1      48.944  29.753  26.753  1.00  0.00     0.031 C 
ATOM     69  C   UNL A   1      48.153  27.447  26.305  1.00  0.00     0.037 A 
BRANCH  56  70
ATOM     70  C   UNL A   1      43.279  23.690  26.890  1.00  0.00     0.058 A 
ATOM     71  C   UNL A   1      42.940  23.166  25.633  1.00  0.00     0.135 A 
ATOM     72  C   UNL A   1      43.139  22.848  28.007  1.00  0.00     0.135 A 
ATOM     73  F   UNL A   1      43.041  23.929  24.533  1.00  0.00    -0.206 F 
ATOM     74  C   UNL A   1      42.459  21.868  25.489  1.00  0.00     0.059 A 
ATOM     75  C   UNL A   1      42.687  21.537  27.884  1.00  0.00     0.059 A 
ATOM     76  F   UNL A   1      43.450  23.295  29.234  1.00  0.00    -0.206 F 
ATOM     77  C   UNL A   1      42.337  21.060  26.621  1.00  0.00     0.060 A 
BRANCH  77  78
ATOM     78  S   UNL A   1      41.727  19.374  26.413  1.00  0.00     0.124 S 
ATOM     79  O   UNL A   1      42.277  18.718  27.594  1.00  0.00    -0.237 OA
ATOM     80  O   UNL A   1      40.280  19.565  26.410  1.00  0.00    -0.237 OA
ATOM     81  O   UNL A   1      42.304  18.957  25.138  1.00  0.00    -0.744 OA
ENDBRANCH  77  78
ENDBRANCH  56  70
BRANCH  57  82
ATOM     82  C   UNL A   1      46.743  32.937  28.451  1.00  0.00     0.058 A 
ATOM     83  C   UNL A   1      47.297  33.247  29.702  1.00  0.00     0.135 A 
ATOM     84  C   UNL A   1      46.727  33.948  27.477  1.00  0.00     0.135 A 
ATOM     85  F   UNL A   1      47.328  32.317  30.669  1.00  0.00    -0.206 F 
ATOM     86  C   UNL A   1      47.802  34.512  29.983  1.00  0.00     0.059 A 
ATOM     87  C   UNL A   1      47.251  35.212  27.724  1.00  0.00     0.059 A 
ATOM     88  F   UNL A   1      46.224  33.701  26.257  1.00  0.00    -0.206 F 
ATOM     89  C   UNL A   1      47.777  35.488  28.986  1.00  0.00     0.060 A 
BRANCH  89  90
ATOM     90  S   UNL A   1      48.479  37.113  29.345  1.00  0.00     0.124 S 
ATOM     91  O   UNL A   1      48.103  37.865  28.155  1.00  0.00    -0.237 OA
ATOM     92  O   UNL A   1      47.787  37.478  30.578  1.00  0.00    -0.237 OA
ATOM     93  O   UNL A   1      49.905  36.837  29.495  1.00  0.00    -0.744 OA
ENDBRANCH  89  90
ENDBRANCH  57  82
BRANCH  69  94
ATOM     94  C   UNL A   1      49.526  27.118  25.786  1.00  0.00     0.058 A 
ATOM     95  C   UNL A   1      49.877  27.344  24.446  1.00  0.00     0.135 A 
ATOM     96  C   UNL A   1      50.517  26.623  26.648  1.00  0.00     0.135 A 
ATOM     97  F   UNL A   1      48.965  27.807  23.576  1.00  0.00    -0.206 F 
ATOM     98  C   UNL A   1      51.158  27.076  23.975  1.00  0.00     0.059 A 
ATOM     99  C   UNL A   1      51.813  26.375  26.206  1.00  0.00     0.059 A 
ATOM    100  F   UNL A   1      50.237  26.395  27.942  1.00  0.00    -0.206 F 
ATOM    101  C   UNL A   1      52.122  26.596  24.865  1.00  0.00     0.060 A 
BRANCH 101 102
ATOM    102  S   UNL A   1      53.791  26.294  24.248  1.00  0.00     0.124 S 
ATOM    103  O   UNL A   1      53.540  26.030  22.836  1.00  0.00    -0.237 OA
ATOM    104  O   UNL A   1      54.466  27.552  24.548  1.00  0.00    -0.237 OA
ATOM    105  O   UNL A   1      54.241  25.146  25.031  1.00  0.00    -0.744 OA
ENDBRANCH 101 102
ENDBRANCH  69  94
ENDBRANCH  43  44
ENDBRANCH  35  38
ENDBRANCH  33  34
ENDBRANCH  32  33
ENDBRANCH  31  32
ENDBRANCH   1  31
TORSDOF 20
ENDMDL
MODEL 3
REMARK VINA RESULT:     -11.3      1.402      2.570
REMARK SMILES CC(C)c1cc(C2CC[NH+](Cc3c[nH]nc3C(=O)NCCCCCCNC(=O)c3ccc(-c4c5nc(c(-c6c(F)cc(S(=O)(=O)[O-])cc6F)c6ccc([nH]6)c(-c6c(F)cc(S(=O)(=O)[O-])cc6F)c6nc(c(-c7c(F)cc(S(=O)(=O)[O-])cc7F)c7ccc4[nH]7)C=C6)C=C5)cc3)CC2)n[nH]1
REMARK SMILES IDX 22 1 21 2 20 3 19 4 17 5 18 6 16 8 12 9 13 10 14 11 15 12
REMARK SMILES IDX 11 14 10 15 7 16 8 17 96 18 9 19 95 20 6 22 4 23 5 24 98 25
REMARK SMILES IDX 97 26 2 28 1 29 3 30 23 31 24 32 25 33 26 34 27 35 28 37
REMARK SMILES IDX 29 38 30 39 94 40 31 41 93 42 32 43 33 44 34 45 87 46 35 47
REMARK SMILES IDX 92 48 86 49 88 50 36 51 91 52 85 53 84 54 37 56 71 57 50 58
REMARK SMILES IDX 70 59 51 60 54 61 69 62 89 63 52 64 53 65 68 67 90 68 55 69
REMARK SMILES IDX 38 70 39 71 48 72 40 73 41 74 47 75 49 76 42 77 43 78 44 79
REMARK SMILES IDX 45 80 46 81 72 82 73 83 82 84 74 85 75 86 81 87 83 88 76 89
REMARK SMILES IDX 77 90 78 91 79 92 80 93 56 94 57 95 66 96 58 97 59 98 65 99
REMARK SMILES IDX 67 100 60 101 61 102 62 103 63 104 64 105
REMARK H PARENT 19 7 14 13 10 21 98 27 26 36 88 55 54 66
REMARK Flexibility Score: inf
ROOT
ATOM      1  C   UNL A   1      33.063  28.513  26.641  1.00  0.00     0.002 C 
ENDROOT
BRANCH   1   2
ATOM      2  C   UNL A   1      31.669  28.623  26.042  1.00  0.00     0.021 C 
BRANCH   2   3
ATOM      3  C   UNL A   1      31.571  29.441  24.763  1.00  0.00     0.116 C 
BRANCH   3   4
ATOM      4  N   UNL A   1      32.709  29.343  23.911  1.00  0.00    -0.351 N 
ATOM      5  C   UNL A   1      33.154  28.323  23.107  1.00  0.00     0.272 C 
ATOM      6  O   UNL A   1      34.214  28.610  22.529  1.00  0.00    -0.267 OA
ATOM      7  H   UNL A   1      33.275  30.149  23.895  1.00  0.00     0.163 HD
BRANCH   5   8
ATOM      8  C   UNL A   1      32.491  26.988  22.881  1.00  0.00     0.158 A 
ATOM      9  C   UNL A   1      32.286  25.721  23.594  1.00  0.00     0.057 A 
ATOM     10  C   UNL A   1      31.462  24.990  22.746  1.00  0.00     0.115 A 
ATOM     11  N   UNL A   1      31.285  25.719  21.627  1.00  0.00    -0.284 N 
ATOM     12  N   UNL A   1      31.889  26.895  21.666  1.00  0.00    -0.170 NA
ATOM     13  H   UNL A   1      30.757  25.407  20.856  1.00  0.00     0.189 HD
BRANCH   9  14
ATOM     14  C   UNL A   1      32.694  25.149  24.932  1.00  0.00     0.303 C 
BRANCH  14  15
ATOM     15  N   UNL A   1      34.028  24.495  24.964  1.00  0.00    -0.331 N 
ATOM     16  C   UNL A   1      35.801  22.099  24.959  1.00  0.00     0.051 C 
ATOM     17  C   UNL A   1      35.542  22.913  26.229  1.00  0.00     0.071 C 
ATOM     18  C   UNL A   1      35.793  23.076  23.785  1.00  0.00     0.071 C 
ATOM     19  C   UNL A   1      34.223  23.687  26.172  1.00  0.00     0.263 C 
ATOM     20  C   UNL A   1      34.519  23.924  23.709  1.00  0.00     0.263 C 
ATOM     21  H   UNL A   1      34.691  25.266  25.049  1.00  0.00     0.348 HD
BRANCH  16  22
ATOM     22  C   UNL A   1      34.853  20.940  24.778  1.00  0.00     0.066 A 
ATOM     23  C   UNL A   1      33.964  18.901  24.611  1.00  0.00     0.038 A 
ATOM     24  C   UNL A   1      35.138  19.563  24.856  1.00  0.00     0.049 A 
ATOM     25  N   UNL A   1      33.042  19.888  24.412  1.00  0.00    -0.282 N 
ATOM     26  N   UNL A   1      33.553  21.133  24.507  1.00  0.00    -0.180 NA
ATOM     27  H   UNL A   1      32.094  19.709  24.218  1.00  0.00     0.190 HD
BRANCH  23  28
ATOM     28  C   UNL A   1      33.732  17.427  24.547  1.00  0.00     0.031 C 
ATOM     29  C   UNL A   1      32.328  17.025  24.976  1.00  0.00     0.014 C 
ATOM     30  C   UNL A   1      34.089  16.885  23.165  1.00  0.00     0.014 C 
ENDBRANCH  23  28
ENDBRANCH  16  22
ENDBRANCH  14  15
ENDBRANCH   9  14
ENDBRANCH   5   8
ENDBRANCH   3   4
ENDBRANCH   2   3
ENDBRANCH   1   2
BRANCH   1  31
ATOM     31  C   UNL A   1      33.630  29.808  27.234  1.00  0.00     0.002 C 
BRANCH  31  32
ATOM     32  C   UNL A   1      35.098  29.774  27.682  1.00  0.00     0.021 C 
BRANCH  32  33
ATOM     33  C   UNL A   1      35.603  31.012  28.423  1.00  0.00     0.116 C 
BRANCH  33  34
ATOM     34  N   UNL A   1      35.525  30.863  29.865  1.00  0.00    -0.352 N 
ATOM     35  C   UNL A   1      36.463  30.424  30.765  1.00  0.00     0.251 C 
ATOM     36  H   UNL A   1      34.661  31.120  30.260  1.00  0.00     0.163 HD
ATOM     37  O   UNL A   1      36.126  30.190  31.921  1.00  0.00    -0.269 OA
BRANCH  35  38
ATOM     38  C   UNL A   1      37.865  30.212  30.346  1.00  0.00     0.039 A 
ATOM     39  C   UNL A   1      38.818  29.921  31.325  1.00  0.00     0.014 A 
ATOM     40  C   UNL A   1      38.247  30.325  29.006  1.00  0.00     0.014 A 
ATOM     41  C   UNL A   1      40.141  29.670  30.952  1.00  0.00     0.010 A 
ATOM     42  C   UNL A   1      39.553  30.012  28.629  1.00  0.00     0.010 A 
ATOM     43  C   UNL A   1      40.510  29.672  29.596  1.00  0.00    -0.014 A 
BRANCH  43  44
ATOM     44  C   UNL A   1      41.877  29.267  29.176  1.00  0.00     0.031 A 
ATOM     45  C   UNL A   1      42.990  30.275  29.109  1.00  0.00     0.074 A 
ATOM     46  C   UNL A   1      42.092  27.993  28.787  1.00  0.00     0.049 A 
ATOM     47  N   UNL A   1      44.223  30.114  28.703  1.00  0.00    -0.248 NA
ATOM     48  C   UNL A   1      42.672  31.648  29.531  1.00  0.00     0.031 C 
ATOM     49  C   UNL A   1      41.078  26.937  28.761  1.00  0.00     0.029 A 
ATOM     50  N   UNL A   1      43.225  27.373  28.323  1.00  0.00    -0.354 N 
ATOM     51  C   UNL A   1      44.826  31.361  28.810  1.00  0.00     0.074 A 
ATOM     52  C   UNL A   1      43.810  32.280  29.278  1.00  0.00     0.031 C 
ATOM     53  C   UNL A   1      41.636  25.799  28.320  1.00  0.00     0.029 A 
ATOM     54  C   UNL A   1      43.035  26.053  27.990  1.00  0.00     0.049 A 
ATOM     55  H   UNL A   1      44.093  27.830  28.238  1.00  0.00     0.167 HD
ATOM     56  C   UNL A   1      46.112  31.704  28.557  1.00  0.00     0.037 A 
ATOM     57  C   UNL A   1      43.883  25.150  27.460  1.00  0.00     0.037 A 
ATOM     58  C   UNL A   1      47.120  30.777  28.107  1.00  0.00     0.049 A 
ATOM     59  C   UNL A   1      45.302  25.559  27.172  1.00  0.00     0.074 A 
ATOM     60  C   UNL A   1      48.468  31.010  27.896  1.00  0.00     0.029 A 
ATOM     61  N   UNL A   1      46.892  29.446  27.787  1.00  0.00    -0.354 N 
ATOM     62  N   UNL A   1      45.876  26.724  27.360  1.00  0.00    -0.248 NA
ATOM     63  C   UNL A   1      46.188  24.537  26.600  1.00  0.00     0.031 C 
ATOM     64  C   UNL A   1      49.042  29.838  27.393  1.00  0.00     0.029 A 
ATOM     65  C   UNL A   1      48.065  28.858  27.343  1.00  0.00     0.049 A 
ATOM     66  H   UNL A   1      46.024  28.988  27.864  1.00  0.00     0.167 HD
ATOM     67  C   UNL A   1      47.193  26.570  26.943  1.00  0.00     0.074 A 
ATOM     68  C   UNL A   1      47.336  25.193  26.515  1.00  0.00     0.031 C 
ATOM     69  C   UNL A   1      48.192  27.486  26.913  1.00  0.00     0.037 A 
BRANCH  56  70
ATOM     70  C   UNL A   1      46.510  33.141  28.757  1.00  0.00     0.058 A 
ATOM     71  C   UNL A   1      46.449  34.078  27.713  1.00  0.00     0.135 A 
ATOM     72  C   UNL A   1      46.905  33.603  30.025  1.00  0.00     0.135 A 
ATOM     73  F   UNL A   1      46.092  33.691  26.478  1.00  0.00    -0.206 F 
ATOM     74  C   UNL A   1      46.788  35.413  27.911  1.00  0.00     0.059 A 
ATOM     75  C   UNL A   1      47.220  34.940  30.253  1.00  0.00     0.059 A 
ATOM     76  F   UNL A   1      46.979  32.752  31.061  1.00  0.00    -0.206 F 
ATOM     77  C   UNL A   1      47.171  35.835  29.184  1.00  0.00     0.060 A 
BRANCH  77  78
ATOM     78  S   UNL A   1      47.591  37.574  29.425  1.00  0.00     0.124 S 
ATOM     79  O   UNL A   1      48.302  37.527  30.698  1.00  0.00    -0.237 OA
ATOM     80  O   UNL A   1      48.410  37.862  28.252  1.00  0.00    -0.237 OA
ATOM     81  O   UNL A   1      46.291  38.238  29.458  1.00  0.00    -0.744 OA
ENDBRANCH  77  78
ENDBRANCH  56  70
BRANCH  57  82
ATOM     82  C   UNL A   1      43.409  23.772  27.163  1.00  0.00     0.058 A 
ATOM     83  C   UNL A   1      43.233  22.829  28.187  1.00  0.00     0.135 A 
ATOM     84  C   UNL A   1      43.108  23.373  25.851  1.00  0.00     0.135 A 
ATOM     85  F   UNL A   1      43.514  23.159  29.457  1.00  0.00    -0.206 F 
ATOM     86  C   UNL A   1      42.790  21.537  27.920  1.00  0.00     0.059 A 
ATOM     87  C   UNL A   1      42.637  22.097  25.562  1.00  0.00     0.059 A 
ATOM     88  F   UNL A   1      43.244  24.241  24.836  1.00  0.00    -0.206 F 
ATOM     89  C   UNL A   1      42.491  21.181  26.604  1.00  0.00     0.060 A 
BRANCH  89  90
ATOM     90  S   UNL A   1      41.871  19.518  26.275  1.00  0.00     0.124 S 
ATOM     91  O   UNL A   1      42.591  19.172  25.056  1.00  0.00    -0.237 OA
ATOM     92  O   UNL A   1      42.272  18.798  27.481  1.00  0.00    -0.237 OA
ATOM     93  O   UNL A   1      40.433  19.719  26.125  1.00  0.00    -0.744 OA
ENDBRANCH  89  90
ENDBRANCH  57  82
BRANCH  69  94
ATOM     94  C   UNL A   1      49.534  27.032  26.405  1.00  0.00     0.058 A 
ATOM     95  C   UNL A   1      50.509  26.514  27.271  1.00  0.00     0.135 A 
ATOM     96  C   UNL A   1      49.826  27.062  25.032  1.00  0.00     0.135 A 
ATOM     97  F   UNL A   1      50.284  26.472  28.595  1.00  0.00    -0.206 F 
ATOM     98  C   UNL A   1      51.735  26.058  26.797  1.00  0.00     0.059 A 
ATOM     99  C   UNL A   1      51.034  26.585  24.532  1.00  0.00     0.059 A 
ATOM    100  F   UNL A   1      48.925  27.540  24.158  1.00  0.00    -0.206 F 
ATOM    101  C   UNL A   1      51.986  26.093  25.424  1.00  0.00     0.060 A 
BRANCH 101 102
ATOM    102  S   UNL A   1      53.564  25.458  24.819  1.00  0.00     0.124 S 
ATOM    103  O   UNL A   1      53.548  25.905  23.430  1.00  0.00    -0.237 OA
ATOM    104  O   UNL A   1      54.524  26.129  25.690  1.00  0.00    -0.237 OA
ATOM    105  O   UNL A   1      53.448  24.016  25.017  1.00  0.00    -0.744 OA
ENDBRANCH 101 102
ENDBRANCH  69  94
ENDBRANCH  43  44
ENDBRANCH  35  38
ENDBRANCH  33  34
ENDBRANCH  32  33
ENDBRANCH  31  32
ENDBRANCH   1  31
TORSDOF 20
ENDMDL
