MODEL 1
REMARK VINA RESULT:     -10.8      0.000      0.000
REMARK SMILES CCN(C(=O)C1(C)CCCC1)[C@@H]1COC[C@H]1C(=O)NCCCCCCNC(=O)c1ccc(-c2c3nc(c(-c4c(F)cc(S(=O)(=O)[O-])cc4F)c4ccc([nH]4)c(-c4c(F)cc(S(=O)(=O)[O-])cc4F)c4nc(c(-c5c(F)cc(S(=O)(=O)[O-])cc5F)c5ccc2[nH]5)C=C4)C=C3)cc1
REMARK SMILES IDX 22 1 21 2 20 3 19 4 17 5 18 6 16 8 12 9 13 10 14 11 15 12
REMARK SMILES IDX 3 13 2 14 1 15 4 16 5 17 6 18 7 19 8 20 11 21 9 22 10 23
REMARK SMILES IDX 23 24 24 25 25 26 26 27 27 28 28 30 29 31 30 32 94 33 31 34
REMARK SMILES IDX 93 35 32 36 33 37 34 38 87 39 35 40 92 41 86 42 88 43 36 44
REMARK SMILES IDX 91 45 85 46 84 47 37 49 71 50 50 51 70 52 51 53 54 54 69 55
REMARK SMILES IDX 89 56 52 57 53 58 68 60 90 61 55 62 38 63 39 64 48 65 40 66
REMARK SMILES IDX 41 67 47 68 49 69 42 70 43 71 44 72 45 73 46 74 72 75 73 76
REMARK SMILES IDX 82 77 74 78 75 79 81 80 83 81 76 82 77 83 78 84 79 85 80 86
REMARK SMILES IDX 56 87 57 88 66 89 58 90 59 91 65 92 67 93 60 94 61 95 62 96
REMARK SMILES IDX 63 97 64 98
REMARK H PARENT 19 7 26 29 88 48 54 59
REMARK Flexibility Score: inf
ROOT
ATOM      1  C   UNL A   1      38.051  22.114  25.642  1.00  0.00     0.002 C 
ENDROOT
BRANCH   1   2
ATOM      2  C   UNL A   1      37.019  22.932  24.855  1.00  0.00     0.021 C 
BRANCH   2   3
ATOM      3  C   UNL A   1      36.063  23.740  25.731  1.00  0.00     0.116 C 
BRANCH   3   4
ATOM      4  N   UNL A   1      35.488  22.915  26.778  1.00  0.00    -0.356 N 
ATOM      5  C   UNL A   1      34.210  22.531  27.019  1.00  0.00     0.227 C 
ATOM      6  O   UNL A   1      34.015  21.800  27.996  1.00  0.00    -0.275 OA
ATOM      7  H   UNL A   1      36.142  22.573  27.430  1.00  0.00     0.163 HD
BRANCH   5   8
ATOM      8  C   UNL A   1      33.043  22.961  26.155  1.00  0.00     0.129 C 
ATOM      9  C   UNL A   1      32.349  21.860  25.350  1.00  0.00     0.125 C 
ATOM     10  C   UNL A   1      30.917  22.414  25.310  1.00  0.00     0.186 C 
ATOM     11  O   UNL A   1      30.702  23.090  26.559  1.00  0.00    -0.378 OA
ATOM     12  C   UNL A   1      31.956  23.614  26.993  1.00  0.00     0.176 C 
BRANCH   9  13
ATOM     13  N   UNL A   1      32.968  21.419  24.065  1.00  0.00    -0.336 N 
BRANCH  13  14
ATOM     14  C   UNL A   1      33.749  22.399  23.296  1.00  0.00     0.116 C 
ATOM     15  C   UNL A   1      32.913  23.111  22.238  1.00  0.00     0.027 C 
ENDBRANCH  13  14
BRANCH  13  16
ATOM     16  C   UNL A   1      32.970  20.045  23.794  1.00  0.00     0.228 C 
ATOM     17  O   UNL A   1      32.142  19.574  23.008  1.00  0.00    -0.274 OA
BRANCH  16  18
ATOM     18  C   UNL A   1      33.909  19.065  24.562  1.00  0.00     0.047 C 
ATOM     19  C   UNL A   1      35.169  19.826  25.002  1.00  0.00     0.022 C 
ATOM     20  C   UNL A   1      33.192  18.548  25.842  1.00  0.00     0.016 C 
ATOM     21  C   UNL A   1      34.195  17.721  23.876  1.00  0.00     0.016 C 
ATOM     22  C   UNL A   1      32.302  17.399  25.372  1.00  0.00     0.001 C 
ATOM     23  C   UNL A   1      32.933  16.890  24.083  1.00  0.00     0.001 C 
ENDBRANCH  16  18
ENDBRANCH  13  16
ENDBRANCH   9  13
ENDBRANCH   5   8
ENDBRANCH   3   4
ENDBRANCH   2   3
ENDBRANCH   1   2
BRANCH   1  24
ATOM     24  C   UNL A   1      38.989  22.936  26.531  1.00  0.00     0.002 C 
BRANCH  24  25
ATOM     25  C   UNL A   1      40.217  22.184  27.048  1.00  0.00     0.021 C 
BRANCH  25  26
ATOM     26  C   UNL A   1      41.372  23.077  27.486  1.00  0.00     0.116 C 
BRANCH  26  27
ATOM     27  N   UNL A   1      42.006  23.740  26.358  1.00  0.00    -0.352 N 
ATOM     28  C   UNL A   1      42.135  25.081  26.098  1.00  0.00     0.251 C 
ATOM     29  H   UNL A   1      42.397  23.139  25.683  1.00  0.00     0.163 HD
ATOM     30  O   UNL A   1      42.516  25.456  24.995  1.00  0.00    -0.269 OA
BRANCH  28  31
ATOM     31  C   UNL A   1      41.793  26.069  27.144  1.00  0.00     0.039 A 
ATOM     32  C   UNL A   1      40.757  25.778  28.033  1.00  0.00     0.014 A 
ATOM     33  C   UNL A   1      42.496  27.274  27.252  1.00  0.00     0.014 A 
ATOM     34  C   UNL A   1      40.472  26.664  29.075  1.00  0.00     0.010 A 
ATOM     35  C   UNL A   1      42.257  28.120  28.332  1.00  0.00     0.010 A 
ATOM     36  C   UNL A   1      41.247  27.821  29.258  1.00  0.00    -0.014 A 
BRANCH  36  37
ATOM     37  C   UNL A   1      41.037  28.705  30.434  1.00  0.00     0.031 A 
ATOM     38  C   UNL A   1      41.860  28.527  31.682  1.00  0.00     0.074 A 
ATOM     39  C   UNL A   1      40.057  29.629  30.397  1.00  0.00     0.049 A 
ATOM     40  N   UNL A   1      41.780  29.166  32.820  1.00  0.00    -0.248 NA
ATOM     41  C   UNL A   1      42.892  27.479  31.655  1.00  0.00     0.031 C 
ATOM     42  C   UNL A   1      39.161  29.864  29.262  1.00  0.00     0.029 A 
ATOM     43  N   UNL A   1      39.641  30.538  31.337  1.00  0.00    -0.354 N 
ATOM     44  C   UNL A   1      42.743  28.598  33.645  1.00  0.00     0.074 A 
ATOM     45  C   UNL A   1      43.360  27.526  32.895  1.00  0.00     0.031 C 
ATOM     46  C   UNL A   1      38.318  30.864  29.564  1.00  0.00     0.029 A 
ATOM     47  C   UNL A   1      38.582  31.313  30.927  1.00  0.00     0.049 A 
ATOM     48  H   UNL A   1      40.062  30.627  32.223  1.00  0.00     0.167 HD
ATOM     49  C   UNL A   1      43.093  28.951  34.906  1.00  0.00     0.037 A 
ATOM     50  C   UNL A   1      37.889  32.267  31.579  1.00  0.00     0.037 A 
ATOM     51  C   UNL A   1      42.480  30.028  35.641  1.00  0.00     0.049 A 
ATOM     52  C   UNL A   1      38.285  32.627  32.985  1.00  0.00     0.074 A 
ATOM     53  C   UNL A   1      42.803  30.500  36.901  1.00  0.00     0.029 A 
ATOM     54  N   UNL A   1      41.414  30.794  35.190  1.00  0.00    -0.354 N 
ATOM     55  N   UNL A   1      39.246  32.127  33.724  1.00  0.00    -0.248 NA
ATOM     56  C   UNL A   1      37.506  33.684  33.645  1.00  0.00     0.031 C 
ATOM     57  C   UNL A   1      41.897  31.513  37.235  1.00  0.00     0.029 A 
ATOM     58  C   UNL A   1      41.048  31.715  36.159  1.00  0.00     0.049 A 
ATOM     59  H   UNL A   1      40.982  30.697  34.311  1.00  0.00     0.167 HD
ATOM     60  C   UNL A   1      39.204  32.824  34.926  1.00  0.00     0.074 A 
ATOM     61  C   UNL A   1      38.133  33.793  34.808  1.00  0.00     0.031 C 
ATOM     62  C   UNL A   1      39.979  32.675  36.028  1.00  0.00     0.037 A 
BRANCH  49  63
ATOM     63  C   UNL A   1      44.190  28.166  35.575  1.00  0.00     0.058 A 
ATOM     64  C   UNL A   1      43.916  27.030  36.353  1.00  0.00     0.135 A 
ATOM     65  C   UNL A   1      45.536  28.525  35.396  1.00  0.00     0.135 A 
ATOM     66  F   UNL A   1      42.647  26.647  36.569  1.00  0.00    -0.206 F 
ATOM     67  C   UNL A   1      44.934  26.293  36.951  1.00  0.00     0.059 A 
ATOM     68  C   UNL A   1      46.572  27.786  35.961  1.00  0.00     0.059 A 
ATOM     69  F   UNL A   1      45.857  29.603  34.664  1.00  0.00    -0.206 F 
ATOM     70  C   UNL A   1      46.260  26.679  36.747  1.00  0.00     0.060 A 
BRANCH  70  71
ATOM     71  S   UNL A   1      47.568  25.704  37.522  1.00  0.00     0.124 S 
ATOM     72  O   UNL A   1      48.535  25.598  36.434  1.00  0.00    -0.237 OA
ATOM     73  O   UNL A   1      47.964  26.550  38.642  1.00  0.00    -0.237 OA
ATOM     74  O   UNL A   1      46.895  24.460  37.886  1.00  0.00    -0.744 OA
ENDBRANCH  70  71
ENDBRANCH  49  63
BRANCH  50  75
ATOM     75  C   UNL A   1      36.757  32.956  30.903  1.00  0.00     0.058 A 
ATOM     76  C   UNL A   1      36.985  33.924  29.913  1.00  0.00     0.135 A 
ATOM     77  C   UNL A   1      35.423  32.655  31.225  1.00  0.00     0.135 A 
ATOM     78  F   UNL A   1      38.241  34.252  29.574  1.00  0.00    -0.206 F 
ATOM     79  C   UNL A   1      35.935  34.580  29.278  1.00  0.00     0.059 A 
ATOM     80  C   UNL A   1      34.357  33.277  30.584  1.00  0.00     0.059 A 
ATOM     81  F   UNL A   1      35.149  31.724  32.152  1.00  0.00    -0.206 F 
ATOM     82  C   UNL A   1      34.624  34.247  29.619  1.00  0.00     0.060 A 
BRANCH  82  83
ATOM     83  S   UNL A   1      33.268  35.072  28.755  1.00  0.00     0.124 S 
ATOM     84  O   UNL A   1      32.461  35.556  29.870  1.00  0.00    -0.237 OA
ATOM     85  O   UNL A   1      33.974  36.093  27.986  1.00  0.00    -0.237 OA
ATOM     86  O   UNL A   1      32.673  34.000  27.963  1.00  0.00    -0.744 OA
ENDBRANCH  82  83
ENDBRANCH  50  75
BRANCH  62  87
ATOM     87  C   UNL A   1      39.721  33.599  37.188  1.00  0.00     0.058 A 
ATOM     88  C   UNL A   1      38.766  33.301  38.172  1.00  0.00     0.135 A 
ATOM     89  C   UNL A   1      40.473  34.776  37.340  1.00  0.00     0.135 A 
ATOM     90  F   UNL A   1      38.014  32.193  38.072  1.00  0.00    -0.206 F 
ATOM     91  C   UNL A   1      38.546  34.150  39.252  1.00  0.00     0.059 A 
ATOM     92  C   UNL A   1      40.291  35.624  38.430  1.00  0.00     0.059 A 
ATOM     93  F   UNL A   1      41.406  35.105  36.434  1.00  0.00    -0.206 F 
ATOM     94  C   UNL A   1      39.316  35.308  39.374  1.00  0.00     0.060 A 
BRANCH  94  95
ATOM     95  S   UNL A   1      39.042  36.383  40.798  1.00  0.00     0.124 S 
ATOM     96  O   UNL A   1      38.540  37.595  40.159  1.00  0.00    -0.237 OA
ATOM     97  O   UNL A   1      38.067  35.626  41.577  1.00  0.00    -0.237 OA
ATOM     98  O   UNL A   1      40.366  36.496  41.400  1.00  0.00    -0.744 OA
ENDBRANCH  94  95
ENDBRANCH  62  87
ENDBRANCH  36  37
ENDBRANCH  28  31
ENDBRANCH  26  27
ENDBRANCH  25  26
ENDBRANCH  24  25
ENDBRANCH   1  24
TORSDOF 20
ENDMDL
MODEL 2
REMARK VINA RESULT:     -10.6      2.188      3.818
REMARK SMILES CCN(C(=O)C1(C)CCCC1)[C@@H]1COC[C@H]1C(=O)NCCCCCCNC(=O)c1ccc(-c2c3nc(c(-c4c(F)cc(S(=O)(=O)[O-])cc4F)c4ccc([nH]4)c(-c4c(F)cc(S(=O)(=O)[O-])cc4F)c4nc(c(-c5c(F)cc(S(=O)(=O)[O-])cc5F)c5ccc2[nH]5)C=C4)C=C3)cc1
REMARK SMILES IDX 22 1 21 2 20 3 19 4 17 5 18 6 16 8 12 9 13 10 14 11 15 12
REMARK SMILES IDX 3 13 2 14 1 15 4 16 5 17 6 18 7 19 8 20 11 21 9 22 10 23
REMARK SMILES IDX 23 24 24 25 25 26 26 27 27 28 28 30 29 31 30 32 94 33 31 34
REMARK SMILES IDX 93 35 32 36 33 37 34 38 87 39 35 40 92 41 86 42 88 43 36 44
REMARK SMILES IDX 91 45 85 46 84 47 37 49 71 50 50 51 70 52 51 53 54 54 69 55
REMARK SMILES IDX 89 56 52 57 53 58 68 60 90 61 55 62 38 63 39 64 48 65 40 66
REMARK SMILES IDX 41 67 47 68 49 69 42 70 43 71 44 72 45 73 46 74 72 75 73 76
REMARK SMILES IDX 82 77 74 78 75 79 81 80 83 81 76 82 77 83 78 84 79 85 80 86
REMARK SMILES IDX 56 87 57 88 66 89 58 90 59 91 65 92 67 93 60 94 61 95 62 96
REMARK SMILES IDX 63 97 64 98
REMARK H PARENT 19 7 26 29 88 48 54 59
REMARK Flexibility Score: inf
ROOT
ATOM      1  C   UNL A   1      35.466  22.647  25.611  1.00  0.00     0.002 C 
ENDROOT
BRANCH   1   2
ATOM      2  C   UNL A   1      34.744  22.378  24.285  1.00  0.00     0.021 C 
BRANCH   2   3
ATOM      3  C   UNL A   1      33.630  23.375  23.967  1.00  0.00     0.116 C 
BRANCH   3   4
ATOM      4  N   UNL A   1      34.095  24.405  23.054  1.00  0.00    -0.356 N 
ATOM      5  C   UNL A   1      33.453  25.450  22.478  1.00  0.00     0.227 C 
ATOM      6  O   UNL A   1      34.119  26.185  21.741  1.00  0.00    -0.275 OA
ATOM      7  H   UNL A   1      35.046  24.330  22.810  1.00  0.00     0.163 HD
BRANCH   5   8
ATOM      8  C   UNL A   1      31.983  25.739  22.699  1.00  0.00     0.129 C 
ATOM      9  C   UNL A   1      31.641  26.704  23.836  1.00  0.00     0.125 C 
ATOM     10  C   UNL A   1      30.360  27.340  23.277  1.00  0.00     0.186 C 
ATOM     11  O   UNL A   1      30.526  27.418  21.852  1.00  0.00    -0.378 OA
ATOM     12  C   UNL A   1      31.348  26.325  21.448  1.00  0.00     0.176 C 
BRANCH   9  13
ATOM     13  N   UNL A   1      31.613  26.179  25.233  1.00  0.00    -0.336 N 
BRANCH  13  14
ATOM     14  C   UNL A   1      30.817  24.975  25.508  1.00  0.00     0.116 C 
ATOM     15  C   UNL A   1      29.444  25.301  26.084  1.00  0.00     0.027 C 
ENDBRANCH  13  14
BRANCH  13  16
ATOM     16  C   UNL A   1      32.534  26.722  26.139  1.00  0.00     0.228 C 
ATOM     17  O   UNL A   1      33.524  26.064  26.473  1.00  0.00    -0.274 OA
BRANCH  16  18
ATOM     18  C   UNL A   1      32.276  28.089  26.842  1.00  0.00     0.047 C 
ATOM     19  C   UNL A   1      31.252  27.884  27.969  1.00  0.00     0.022 C 
ATOM     20  C   UNL A   1      33.595  28.605  27.484  1.00  0.00     0.016 C 
ATOM     21  C   UNL A   1      31.965  29.278  25.921  1.00  0.00     0.016 C 
ATOM     22  C   UNL A   1      34.361  29.282  26.349  1.00  0.00     0.001 C 
ATOM     23  C   UNL A   1      33.308  29.684  25.325  1.00  0.00     0.001 C 
ENDBRANCH  16  18
ENDBRANCH  13  16
ENDBRANCH   9  13
ENDBRANCH   5   8
ENDBRANCH   3   4
ENDBRANCH   2   3
ENDBRANCH   1   2
BRANCH   1  24
ATOM     24  C   UNL A   1      36.066  24.051  25.750  1.00  0.00     0.002 C 
BRANCH  24  25
ATOM     25  C   UNL A   1      37.571  24.142  25.491  1.00  0.00     0.021 C 
BRANCH  25  26
ATOM     26  C   UNL A   1      38.445  23.752  26.677  1.00  0.00     0.116 C 
BRANCH  26  27
ATOM     27  N   UNL A   1      39.845  23.631  26.305  1.00  0.00    -0.352 N 
ATOM     28  C   UNL A   1      40.893  24.476  26.575  1.00  0.00     0.251 C 
ATOM     29  H   UNL A   1      40.075  22.828  25.783  1.00  0.00     0.163 HD
ATOM     30  O   UNL A   1      41.967  24.320  26.004  1.00  0.00    -0.269 OA
BRANCH  28  31
ATOM     31  C   UNL A   1      40.715  25.584  27.539  1.00  0.00     0.039 A 
ATOM     32  C   UNL A   1      39.743  25.461  28.533  1.00  0.00     0.014 A 
ATOM     33  C   UNL A   1      41.507  26.734  27.466  1.00  0.00     0.014 A 
ATOM     34  C   UNL A   1      39.612  26.463  29.498  1.00  0.00     0.010 A 
ATOM     35  C   UNL A   1      41.423  27.697  28.469  1.00  0.00     0.010 A 
ATOM     36  C   UNL A   1      40.480  27.568  29.499  1.00  0.00    -0.014 A 
BRANCH  36  37
ATOM     37  C   UNL A   1      40.437  28.575  30.591  1.00  0.00     0.031 A 
ATOM     38  C   UNL A   1      41.336  28.441  31.791  1.00  0.00     0.074 A 
ATOM     39  C   UNL A   1      39.538  29.577  30.528  1.00  0.00     0.049 A 
ATOM     40  N   UNL A   1      41.397  29.191  32.861  1.00  0.00    -0.248 NA
ATOM     41  C   UNL A   1      42.271  27.306  31.799  1.00  0.00     0.031 C 
ATOM     42  C   UNL A   1      38.579  29.784  29.439  1.00  0.00     0.029 A 
ATOM     43  N   UNL A   1      39.273  30.604  31.398  1.00  0.00    -0.354 N 
ATOM     44  C   UNL A   1      42.370  28.618  33.671  1.00  0.00     0.074 A 
ATOM     45  C   UNL A   1      42.836  27.428  32.993  1.00  0.00     0.031 C 
ATOM     46  C   UNL A   1      37.849  30.880  29.696  1.00  0.00     0.029 A 
ATOM     47  C   UNL A   1      38.254  31.430  30.985  1.00  0.00     0.049 A 
ATOM     48  H   UNL A   1      39.767  30.738  32.239  1.00  0.00     0.167 HD
ATOM     49  C   UNL A   1      42.845  29.055  34.863  1.00  0.00     0.037 A 
ATOM     50  C   UNL A   1      37.696  32.502  31.583  1.00  0.00     0.037 A 
ATOM     51  C   UNL A   1      42.383  30.248  35.525  1.00  0.00     0.049 A 
ATOM     52  C   UNL A   1      38.228  32.955  32.915  1.00  0.00     0.074 A 
ATOM     53  C   UNL A   1      42.841  30.807  36.706  1.00  0.00     0.029 A 
ATOM     54  N   UNL A   1      41.354  31.062  35.074  1.00  0.00    -0.354 N 
ATOM     55  N   UNL A   1      39.198  32.442  33.633  1.00  0.00    -0.248 NA
ATOM     56  C   UNL A   1      37.594  34.136  33.517  1.00  0.00     0.031 C 
ATOM     57  C   UNL A   1      42.052  31.925  36.998  1.00  0.00     0.029 A 
ATOM     58  C   UNL A   1      41.142  32.100  35.968  1.00  0.00     0.049 A 
ATOM     59  H   UNL A   1      40.848  30.922  34.241  1.00  0.00     0.167 HD
ATOM     60  C   UNL A   1      39.307  33.251  34.758  1.00  0.00     0.074 A 
ATOM     61  C   UNL A   1      38.316  34.298  34.617  1.00  0.00     0.031 C 
ATOM     62  C   UNL A   1      40.151  33.137  35.814  1.00  0.00     0.037 A 
BRANCH  49  63
ATOM     63  C   UNL A   1      43.922  28.241  35.531  1.00  0.00     0.058 A 
ATOM     64  C   UNL A   1      43.616  27.241  36.468  1.00  0.00     0.135 A 
ATOM     65  C   UNL A   1      45.272  28.428  35.194  1.00  0.00     0.135 A 
ATOM     66  F   UNL A   1      42.343  27.027  36.839  1.00  0.00    -0.206 F 
ATOM     67  C   UNL A   1      44.611  26.474  37.066  1.00  0.00     0.059 A 
ATOM     68  C   UNL A   1      46.282  27.653  35.758  1.00  0.00     0.059 A 
ATOM     69  F   UNL A   1      45.623  29.370  34.305  1.00  0.00    -0.206 F 
ATOM     70  C   UNL A   1      45.942  26.687  36.703  1.00  0.00     0.060 A 
BRANCH  70  71
ATOM     71  S   UNL A   1      47.218  25.675  37.482  1.00  0.00     0.124 S 
ATOM     72  O   UNL A   1      47.620  26.523  38.600  1.00  0.00    -0.237 OA
ATOM     73  O   UNL A   1      46.483  24.466  37.836  1.00  0.00    -0.237 OA
ATOM     74  O   UNL A   1      48.215  25.514  36.428  1.00  0.00    -0.744 OA
ENDBRANCH  70  71
ENDBRANCH  49  63
BRANCH  50  75
ATOM     75  C   UNL A   1      36.576  33.224  30.920  1.00  0.00     0.058 A 
ATOM     76  C   UNL A   1      36.803  34.041  29.803  1.00  0.00     0.135 A 
ATOM     77  C   UNL A   1      35.256  33.104  31.383  1.00  0.00     0.135 A 
ATOM     78  F   UNL A   1      38.048  34.194  29.325  1.00  0.00    -0.206 F 
ATOM     79  C   UNL A   1      35.766  34.727  29.178  1.00  0.00     0.059 A 
ATOM     80  C   UNL A   1      34.199  33.756  30.758  1.00  0.00     0.059 A 
ATOM     81  F   UNL A   1      34.982  32.320  32.438  1.00  0.00    -0.206 F 
ATOM     82  C   UNL A   1      34.466  34.575  29.662  1.00  0.00     0.060 A 
BRANCH  82  83
ATOM     83  S   UNL A   1      33.121  35.434  28.815  1.00  0.00     0.124 S 
ATOM     84  O   UNL A   1      32.355  35.960  29.938  1.00  0.00    -0.237 OA
ATOM     85  O   UNL A   1      33.844  36.419  28.016  1.00  0.00    -0.237 OA
ATOM     86  O   UNL A   1      32.474  34.371  28.050  1.00  0.00    -0.744 OA
ENDBRANCH  82  83
ENDBRANCH  50  75
BRANCH  62  87
ATOM     87  C   UNL A   1      40.061  34.187  36.890  1.00  0.00     0.058 A 
ATOM     88  C   UNL A   1      40.899  35.313  36.895  1.00  0.00     0.135 A 
ATOM     89  C   UNL A   1      39.093  34.086  37.902  1.00  0.00     0.135 A 
ATOM     90  F   UNL A   1      41.846  35.455  35.955  1.00  0.00    -0.206 F 
ATOM     91  C   UNL A   1      40.798  36.289  37.881  1.00  0.00     0.059 A 
ATOM     92  C   UNL A   1      38.953  35.066  38.881  1.00  0.00     0.059 A 
ATOM     93  F   UNL A   1      38.260  33.035  37.940  1.00  0.00    -0.206 F 
ATOM     94  C   UNL A   1      39.819  36.158  38.868  1.00  0.00     0.060 A 
BRANCH  94  95
ATOM     95  S   UNL A   1      39.679  37.449  40.122  1.00  0.00     0.124 S 
ATOM     96  O   UNL A   1      40.624  38.444  39.627  1.00  0.00    -0.237 OA
ATOM     97  O   UNL A   1      38.268  37.815  40.037  1.00  0.00    -0.237 OA
ATOM     98  O   UNL A   1      40.071  36.771  41.354  1.00  0.00    -0.744 OA
ENDBRANCH  94  95
ENDBRANCH  62  87
ENDBRANCH  36  37
ENDBRANCH  28  31
ENDBRANCH  26  27
ENDBRANCH  25  26
ENDBRANCH  24  25
ENDBRANCH   1  24
TORSDOF 20
ENDMDL
MODEL 3
REMARK VINA RESULT:     -10.6      6.578     11.530
REMARK SMILES CCN(C(=O)C1(C)CCCC1)[C@@H]1COC[C@H]1C(=O)NCCCCCCNC(=O)c1ccc(-c2c3nc(c(-c4c(F)cc(S(=O)(=O)[O-])cc4F)c4ccc([nH]4)c(-c4c(F)cc(S(=O)(=O)[O-])cc4F)c4nc(c(-c5c(F)cc(S(=O)(=O)[O-])cc5F)c5ccc2[nH]5)C=C4)C=C3)cc1
REMARK SMILES IDX 22 1 21 2 20 3 19 4 17 5 18 6 16 8 12 9 13 10 14 11 15 12
REMARK SMILES IDX 3 13 2 14 1 15 4 16 5 17 6 18 7 19 8 20 11 21 9 22 10 23
REMARK SMILES IDX 23 24 24 25 25 26 26 27 27 28 28 30 29 31 30 32 94 33 31 34
REMARK SMILES IDX 93 35 32 36 33 37 34 38 87 39 35 40 92 41 86 42 88 43 36 44
REMARK SMILES IDX 91 45 85 46 84 47 37 49 71 50 50 51 70 52 51 53 54 54 69 55
REMARK SMILES IDX 89 56 52 57 53 58 68 60 90 61 55 62 38 63 39 64 48 65 40 66
REMARK SMILES IDX 41 67 47 68 49 69 42 70 43 71 44 72 45 73 46 74 72 75 73 76
REMARK SMILES IDX 82 77 74 78 75 79 81 80 83 81 76 82 77 83 78 84 79 85 80 86
REMARK SMILES IDX 56 87 57 88 66 89 58 90 59 91 65 92 67 93 60 94 61 95 62 96
REMARK SMILES IDX 63 97 64 98
REMARK H PARENT 19 7 26 29 88 48 54 59
REMARK Flexibility Score: inf
ROOT
ATOM      1  C   UNL A   1      33.126  29.921  26.251  1.00  0.00     0.002 C 
ENDROOT
BRANCH   1   2
ATOM      2  C   UNL A   1      31.786  29.183  26.363  1.00  0.00     0.021 C 
BRANCH   2   3
ATOM      3  C   UNL A   1      31.879  27.819  27.045  1.00  0.00     0.116 C 
BRANCH   3   4
ATOM      4  N   UNL A   1      30.769  26.964  26.659  1.00  0.00    -0.356 N 
ATOM      5  C   UNL A   1      30.461  26.372  25.480  1.00  0.00     0.227 C 
ATOM      6  O   UNL A   1      29.441  25.675  25.448  1.00  0.00    -0.275 OA
ATOM      7  H   UNL A   1      30.127  26.783  27.383  1.00  0.00     0.163 HD
BRANCH   5   8
ATOM      8  C   UNL A   1      31.300  26.535  24.230  1.00  0.00     0.129 C 
ATOM      9  C   UNL A   1      31.320  25.350  23.263  1.00  0.00     0.125 C 
ATOM     10  C   UNL A   1      31.508  26.089  21.930  1.00  0.00     0.186 C 
ATOM     11  O   UNL A   1      30.799  27.333  22.046  1.00  0.00    -0.378 OA
ATOM     12  C   UNL A   1      30.839  27.732  23.415  1.00  0.00     0.176 C 
BRANCH   9  13
ATOM     13  N   UNL A   1      32.225  24.200  23.562  1.00  0.00    -0.336 N 
BRANCH  13  14
ATOM     14  C   UNL A   1      31.652  22.847  23.566  1.00  0.00     0.116 C 
ATOM     15  C   UNL A   1      32.598  21.811  22.968  1.00  0.00     0.027 C 
ENDBRANCH  13  14
BRANCH  13  16
ATOM     16  C   UNL A   1      33.602  24.458  23.581  1.00  0.00     0.228 C 
ATOM     17  O   UNL A   1      34.263  24.330  22.546  1.00  0.00    -0.274 OA
BRANCH  16  18
ATOM     18  C   UNL A   1      34.352  24.777  24.910  1.00  0.00     0.047 C 
ATOM     19  C   UNL A   1      34.378  26.300  25.114  1.00  0.00     0.022 C 
ATOM     20  C   UNL A   1      33.585  24.149  26.108  1.00  0.00     0.016 C 
ATOM     21  C   UNL A   1      35.714  24.096  25.101  1.00  0.00     0.016 C 
ATOM     22  C   UNL A   1      34.031  22.689  26.154  1.00  0.00     0.001 C 
ATOM     23  C   UNL A   1      35.391  22.652  25.472  1.00  0.00     0.001 C 
ENDBRANCH  16  18
ENDBRANCH  13  16
ENDBRANCH   9  13
ENDBRANCH   5   8
ENDBRANCH   3   4
ENDBRANCH   2   3
ENDBRANCH   1   2
BRANCH   1  24
ATOM     24  C   UNL A   1      33.385  30.964  27.343  1.00  0.00     0.002 C 
BRANCH  24  25
ATOM     25  C   UNL A   1      34.861  31.228  27.649  1.00  0.00     0.021 C 
BRANCH  25  26
ATOM     26  C   UNL A   1      35.611  30.038  28.237  1.00  0.00     0.116 C 
BRANCH  26  27
ATOM     27  N   UNL A   1      35.583  30.042  29.691  1.00  0.00    -0.352 N 
ATOM     28  C   UNL A   1      36.597  29.788  30.581  1.00  0.00     0.251 C 
ATOM     29  H   UNL A   1      34.711  30.256  30.095  1.00  0.00     0.163 HD
ATOM     30  O   UNL A   1      36.342  29.631  31.770  1.00  0.00    -0.269 OA
BRANCH  28  31
ATOM     31  C   UNL A   1      37.991  29.684  30.097  1.00  0.00     0.039 A 
ATOM     32  C   UNL A   1      38.992  29.317  30.999  1.00  0.00     0.014 A 
ATOM     33  C   UNL A   1      38.308  29.940  28.759  1.00  0.00     0.014 A 
ATOM     34  C   UNL A   1      40.300  29.139  30.543  1.00  0.00     0.010 A 
ATOM     35  C   UNL A   1      39.597  29.692  28.294  1.00  0.00     0.010 A 
ATOM     36  C   UNL A   1      40.605  29.283  29.179  1.00  0.00    -0.014 A 
BRANCH  36  37
ATOM     37  C   UNL A   1      41.963  28.972  28.661  1.00  0.00     0.031 A 
ATOM     38  C   UNL A   1      42.311  27.577  28.218  1.00  0.00     0.074 A 
ATOM     39  C   UNL A   1      42.901  29.939  28.651  1.00  0.00     0.049 A 
ATOM     40  N   UNL A   1      43.456  27.111  27.791  1.00  0.00    -0.248 NA
ATOM     41  C   UNL A   1      41.241  26.570  28.284  1.00  0.00     0.031 C 
ATOM     42  C   UNL A   1      42.697  31.319  29.101  1.00  0.00     0.029 A 
ATOM     43  N   UNL A   1      44.215  29.914  28.258  1.00  0.00    -0.354 N 
ATOM     44  C   UNL A   1      43.248  25.759  27.543  1.00  0.00     0.074 A 
ATOM     45  C   UNL A   1      41.881  25.468  27.917  1.00  0.00     0.031 C 
ATOM     46  C   UNL A   1      43.836  32.010  28.939  1.00  0.00     0.029 A 
ATOM     47  C   UNL A   1      44.864  31.116  28.415  1.00  0.00     0.049 A 
ATOM     48  H   UNL A   1      44.653  29.110  27.896  1.00  0.00     0.167 HD
ATOM     49  C   UNL A   1      44.113  24.849  27.032  1.00  0.00     0.037 A 
ATOM     50  C   UNL A   1      46.145  31.460  28.180  1.00  0.00     0.037 A 
ATOM     51  C   UNL A   1      45.469  25.151  26.652  1.00  0.00     0.049 A 
ATOM     52  C   UNL A   1      47.090  30.426  27.631  1.00  0.00     0.074 A 
ATOM     53  C   UNL A   1      46.405  24.312  26.072  1.00  0.00     0.029 A 
ATOM     54  N   UNL A   1      46.088  26.381  26.821  1.00  0.00    -0.354 N 
ATOM     55  N   UNL A   1      46.856  29.169  27.335  1.00  0.00    -0.248 NA
ATOM     56  C   UNL A   1      48.473  30.855  27.379  1.00  0.00     0.031 C 
ATOM     57  C   UNL A   1      47.606  25.018  25.942  1.00  0.00     0.029 A 
ATOM     58  C   UNL A   1      47.402  26.316  26.384  1.00  0.00     0.049 A 
ATOM     59  H   UNL A   1      45.657  27.182  27.196  1.00  0.00     0.167 HD
ATOM     60  C   UNL A   1      48.053  28.666  26.839  1.00  0.00     0.074 A 
ATOM     61  C   UNL A   1      49.005  29.758  26.859  1.00  0.00     0.031 C 
ATOM     62  C   UNL A   1      48.339  27.412  26.409  1.00  0.00     0.037 A 
BRANCH  49  63
ATOM     63  C   UNL A   1      43.621  23.437  26.853  1.00  0.00     0.058 A 
ATOM     64  C   UNL A   1      43.403  22.587  27.949  1.00  0.00     0.135 A 
ATOM     65  C   UNL A   1      43.316  22.944  25.574  1.00  0.00     0.135 A 
ATOM     66  F   UNL A   1      43.689  23.000  29.194  1.00  0.00    -0.206 F 
ATOM     67  C   UNL A   1      42.926  21.290  27.782  1.00  0.00     0.059 A 
ATOM     68  C   UNL A   1      42.810  21.660  25.386  1.00  0.00     0.059 A 
ATOM     69  F   UNL A   1      43.505  23.712  24.490  1.00  0.00    -0.206 F 
ATOM     70  C   UNL A   1      42.630  20.837  26.495  1.00  0.00     0.060 A 
BRANCH  70  71
ATOM     71  S   UNL A   1      42.001  19.156  26.299  1.00  0.00     0.124 S 
ATOM     72  O   UNL A   1      42.213  18.609  27.636  1.00  0.00    -0.237 OA
ATOM     73  O   UNL A   1      40.611  19.385  25.922  1.00  0.00    -0.237 OA
ATOM     74  O   UNL A   1      42.849  18.595  25.251  1.00  0.00    -0.744 OA
ENDBRANCH  70  71
ENDBRANCH  49  63
BRANCH  50  75
ATOM     75  C   UNL A   1      46.605  32.848  28.453  1.00  0.00     0.058 A 
ATOM     76  C   UNL A   1      46.576  33.831  27.452  1.00  0.00     0.135 A 
ATOM     77  C   UNL A   1      47.073  33.225  29.722  1.00  0.00     0.135 A 
ATOM     78  F   UNL A   1      46.143  33.520  26.220  1.00  0.00    -0.206 F 
ATOM     79  C   UNL A   1      47.010  35.131  27.692  1.00  0.00     0.059 A 
ATOM     80  C   UNL A   1      47.485  34.525  29.995  1.00  0.00     0.059 A 
ATOM     81  F   UNL A   1      47.105  32.328  30.720  1.00  0.00    -0.206 F 
ATOM     82  C   UNL A   1      47.460  35.468  28.969  1.00  0.00     0.060 A 
BRANCH  82  83
ATOM     83  S   UNL A   1      47.977  37.171  29.282  1.00  0.00     0.124 S 
ATOM     84  O   UNL A   1      48.273  37.640  27.934  1.00  0.00    -0.237 OA
ATOM     85  O   UNL A   1      46.788  37.740  29.911  1.00  0.00    -0.237 OA
ATOM     86  O   UNL A   1      49.129  37.015  30.165  1.00  0.00    -0.744 OA
ENDBRANCH  82  83
ENDBRANCH  50  75
BRANCH  62  87
ATOM     87  C   UNL A   1      49.731  27.157  25.895  1.00  0.00     0.058 A 
ATOM     88  C   UNL A   1      50.745  26.651  26.723  1.00  0.00     0.135 A 
ATOM     89  C   UNL A   1      50.041  27.379  24.542  1.00  0.00     0.135 A 
ATOM     90  F   UNL A   1      50.505  26.427  28.025  1.00  0.00    -0.206 F 
ATOM     91  C   UNL A   1      52.023  26.399  26.236  1.00  0.00     0.059 A 
ATOM     92  C   UNL A   1      51.305  27.104  24.027  1.00  0.00     0.059 A 
ATOM     93  F   UNL A   1      49.108  27.853  23.703  1.00  0.00    -0.206 F 
ATOM     94  C   UNL A   1      52.292  26.626  24.886  1.00  0.00     0.060 A 
BRANCH  94  95
ATOM     95  S   UNL A   1      53.947  26.263  24.262  1.00  0.00     0.124 S 
ATOM     96  O   UNL A   1      54.674  27.473  24.634  1.00  0.00    -0.237 OA
ATOM     97  O   UNL A   1      54.303  25.056  25.002  1.00  0.00    -0.237 OA
ATOM     98  O   UNL A   1      53.737  26.074  22.830  1.00  0.00    -0.744 OA
ENDBRANCH  94  95
ENDBRANCH  62  87
ENDBRANCH  36  37
ENDBRANCH  28  31
ENDBRANCH  26  27
ENDBRANCH  25  26
ENDBRANCH  24  25
ENDBRANCH   1  24
TORSDOF 20
ENDMDL
