MODEL 1
REMARK VINA RESULT:     -12.3      0.000      0.000
REMARK SMILES O=C(NCCCCCCNC(=O)c1ccccc1/N=C/c1coc2ccccc2c1=O)c1ccc(-c2c3nc(c(-c4c(F)cc(S(=O)(=O)[O-])cc4F)c4ccc([nH]4)c(-c4c(F)cc(S(=O)(=O)[O-])cc4F)c4nc(c(-c5c(F)cc(S(=O)(=O)[O-])cc5F)c5ccc2[nH]5)C=C4)C=C3)cc1
REMARK SMILES IDX 6 1 5 2 4 3 3 4 1 5 2 6 32 8 33 9 97 10 34 11 96 12 35 13
REMARK SMILES IDX 36 14 37 15 90 16 38 17 95 18 89 19 91 20 39 21 94 22 88 23
REMARK SMILES IDX 87 24 40 26 74 27 53 28 73 29 54 30 57 31 72 32 92 33 55 34
REMARK SMILES IDX 56 35 71 37 93 38 58 39 41 40 42 41 51 42 43 43 44 44 50 45
REMARK SMILES IDX 52 46 45 47 46 48 47 49 48 50 49 51 75 52 76 53 85 54 77 55
REMARK SMILES IDX 78 56 84 57 86 58 79 59 80 60 81 61 82 62 83 63 59 64 60 65
REMARK SMILES IDX 69 66 61 67 62 68 68 69 70 70 63 71 64 72 65 73 66 74 67 75
REMARK SMILES IDX 7 76 8 77 9 78 10 79 11 80 12 82 13 83 14 84 18 85 15 86
REMARK SMILES IDX 17 87 16 88 19 89 20 90 21 91 22 92 30 93 23 94 29 95 31 96
REMARK SMILES IDX 24 97 28 98 25 99 27 100 26 101
REMARK H PARENT 3 7 91 25 57 36 10 81
REMARK Flexibility Score: inf
ROOT
ATOM      1  C   UNL A   1      34.269  32.859  28.454  1.00  0.00     0.002 C 
ENDROOT
BRANCH   1   2
ATOM      2  C   UNL A   1      35.772  33.131  28.378  1.00  0.00     0.021 C 
BRANCH   2   3
ATOM      3  C   UNL A   1      36.572  32.881  29.652  1.00  0.00     0.116 C 
BRANCH   3   4
ATOM      4  N   UNL A   1      36.050  31.788  30.451  1.00  0.00    -0.352 N 
ATOM      5  O   UNL A   1      35.903  29.731  31.336  1.00  0.00    -0.269 OA
ATOM      6  C   UNL A   1      36.580  30.549  30.715  1.00  0.00     0.251 C 
ATOM      7  H   UNL A   1      35.176  31.962  30.871  1.00  0.00     0.163 HD
BRANCH   6   8
ATOM      8  C   UNL A   1      37.939  30.168  30.251  1.00  0.00     0.039 A 
ATOM      9  C   UNL A   1      38.969  29.853  31.141  1.00  0.00     0.014 A 
ATOM     10  C   UNL A   1      38.165  30.060  28.873  1.00  0.00     0.014 A 
ATOM     11  C   UNL A   1      40.238  29.529  30.658  1.00  0.00     0.010 A 
ATOM     12  C   UNL A   1      39.424  29.686  28.387  1.00  0.00     0.010 A 
ATOM     13  C   UNL A   1      40.477  29.439  29.277  1.00  0.00    -0.014 A 
BRANCH  13  14
ATOM     14  C   UNL A   1      41.821  29.039  28.789  1.00  0.00     0.031 A 
ATOM     15  C   UNL A   1      42.983  29.989  28.854  1.00  0.00     0.074 A 
ATOM     16  C   UNL A   1      42.002  27.793  28.311  1.00  0.00     0.049 A 
ATOM     17  N   UNL A   1      44.232  29.785  28.514  1.00  0.00    -0.248 NA
ATOM     18  C   UNL A   1      42.712  31.342  29.363  1.00  0.00     0.031 C 
ATOM     19  C   UNL A   1      40.952  26.781  28.174  1.00  0.00     0.029 A 
ATOM     20  N   UNL A   1      43.137  27.157  27.879  1.00  0.00    -0.354 N 
ATOM     21  C   UNL A   1      44.890  30.987  28.742  1.00  0.00     0.074 A 
ATOM     22  C   UNL A   1      43.902  31.917  29.250  1.00  0.00     0.031 C 
ATOM     23  C   UNL A   1      41.502  25.636  27.742  1.00  0.00     0.029 A 
ATOM     24  C   UNL A   1      42.935  25.839  27.550  1.00  0.00     0.049 A 
ATOM     25  H   UNL A   1      44.013  27.603  27.811  1.00  0.00     0.167 HD
ATOM     26  C   UNL A   1      46.196  31.289  28.548  1.00  0.00     0.037 A 
ATOM     27  C   UNL A   1      43.806  24.893  27.154  1.00  0.00     0.037 A 
ATOM     28  C   UNL A   1      47.190  30.365  28.069  1.00  0.00     0.049 A 
ATOM     29  C   UNL A   1      45.259  25.233  27.004  1.00  0.00     0.074 A 
ATOM     30  C   UNL A   1      48.538  30.586  27.839  1.00  0.00     0.029 A 
ATOM     31  N   UNL A   1      46.947  29.036  27.754  1.00  0.00    -0.354 N 
ATOM     32  N   UNL A   1      45.859  26.378  27.216  1.00  0.00    -0.248 NA
ATOM     33  C   UNL A   1      46.149  24.154  26.555  1.00  0.00     0.031 C 
ATOM     34  C   UNL A   1      49.110  29.390  27.386  1.00  0.00     0.029 A 
ATOM     35  C   UNL A   1      48.119  28.424  27.340  1.00  0.00     0.049 A 
ATOM     36  H   UNL A   1      46.071  28.593  27.817  1.00  0.00     0.167 HD
ATOM     37  C   UNL A   1      47.198  26.163  26.917  1.00  0.00     0.074 A 
ATOM     38  C   UNL A   1      47.323  24.772  26.528  1.00  0.00     0.031 C 
ATOM     39  C   UNL A   1      48.227  27.042  26.953  1.00  0.00     0.037 A 
BRANCH  26  40
ATOM     40  C   UNL A   1      46.620  32.694  28.851  1.00  0.00     0.058 A 
ATOM     41  C   UNL A   1      47.095  33.051  30.122  1.00  0.00     0.135 A 
ATOM     42  C   UNL A   1      46.555  33.689  27.865  1.00  0.00     0.135 A 
ATOM     43  F   UNL A   1      47.159  32.136  31.101  1.00  0.00    -0.206 F 
ATOM     44  C   UNL A   1      47.476  34.357  30.412  1.00  0.00     0.059 A 
ATOM     45  C   UNL A   1      46.938  35.000  28.130  1.00  0.00     0.059 A 
ATOM     46  F   UNL A   1      46.101  33.394  26.637  1.00  0.00    -0.206 F 
ATOM     47  C   UNL A   1      47.382  35.327  29.412  1.00  0.00     0.060 A 
BRANCH  47  48
ATOM     48  S   UNL A   1      47.860  37.029  29.785  1.00  0.00     0.124 S 
ATOM     49  O   UNL A   1      48.706  37.347  28.639  1.00  0.00    -0.237 OA
ATOM     50  O   UNL A   1      46.578  37.724  29.836  1.00  0.00    -0.237 OA
ATOM     51  O   UNL A   1      48.552  36.906  31.065  1.00  0.00    -0.744 OA
ENDBRANCH  47  48
ENDBRANCH  26  40
BRANCH  27  52
ATOM     52  C   UNL A   1      43.317  23.517  26.910  1.00  0.00     0.058 A 
ATOM     53  C   UNL A   1      43.161  23.040  25.602  1.00  0.00     0.135 A 
ATOM     54  C   UNL A   1      43.058  22.641  27.973  1.00  0.00     0.135 A 
ATOM     55  F   UNL A   1      43.399  23.850  24.559  1.00  0.00    -0.206 F 
ATOM     56  C   UNL A   1      42.772  21.730  25.350  1.00  0.00     0.059 A 
ATOM     57  C   UNL A   1      42.677  21.323  27.745  1.00  0.00     0.059 A 
ATOM     58  F   UNL A   1      43.207  23.057  29.239  1.00  0.00    -0.206 F 
ATOM     59  C   UNL A   1      42.536  20.877  26.430  1.00  0.00     0.060 A 
BRANCH  59  60
ATOM     60  S   UNL A   1      42.125  19.144  26.122  1.00  0.00     0.124 S 
ATOM     61  O   UNL A   1      40.696  19.228  25.847  1.00  0.00    -0.237 OA
ATOM     62  O   UNL A   1      42.975  18.806  24.985  1.00  0.00    -0.237 OA
ATOM     63  O   UNL A   1      42.495  18.500  27.380  1.00  0.00    -0.744 OA
ENDBRANCH  59  60
ENDBRANCH  27  52
BRANCH  39  64
ATOM     64  C   UNL A   1      49.573  26.523  26.548  1.00  0.00     0.058 A 
ATOM     65  C   UNL A   1      50.451  25.984  27.500  1.00  0.00     0.135 A 
ATOM     66  C   UNL A   1      49.985  26.555  25.209  1.00  0.00     0.135 A 
ATOM     67  F   UNL A   1      50.100  25.939  28.795  1.00  0.00    -0.206 F 
ATOM     68  C   UNL A   1      51.706  25.504  27.138  1.00  0.00     0.059 A 
ATOM     69  C   UNL A   1      51.232  26.075  24.823  1.00  0.00     0.059 A 
ATOM     70  F   UNL A   1      49.177  27.064  24.265  1.00  0.00    -0.206 F 
ATOM     71  C   UNL A   1      52.091  25.561  25.798  1.00  0.00     0.060 A 
BRANCH  71  72
ATOM     72  S   UNL A   1      53.712  24.930  25.314  1.00  0.00     0.124 S 
ATOM     73  O   UNL A   1      54.018  25.764  24.157  1.00  0.00    -0.237 OA
ATOM     74  O   UNL A   1      54.525  25.175  26.502  1.00  0.00    -0.237 OA
ATOM     75  O   UNL A   1      53.446  23.524  25.027  1.00  0.00    -0.744 OA
ENDBRANCH  71  72
ENDBRANCH  39  64
ENDBRANCH  13  14
ENDBRANCH   6   8
ENDBRANCH   3   4
ENDBRANCH   2   3
ENDBRANCH   1   2
BRANCH   1  76
ATOM     76  C   UNL A   1      33.774  31.612  27.719  1.00  0.00     0.002 C 
BRANCH  76  77
ATOM     77  C   UNL A   1      34.839  30.579  27.326  1.00  0.00     0.021 C 
BRANCH  77  78
ATOM     78  C   UNL A   1      34.326  29.215  26.860  1.00  0.00     0.116 C 
BRANCH  78  79
ATOM     79  N   UNL A   1      33.235  28.706  27.674  1.00  0.00    -0.352 N 
ATOM     80  C   UNL A   1      31.995  28.272  27.284  1.00  0.00     0.253 C 
ATOM     81  H   UNL A   1      33.411  28.668  28.641  1.00  0.00     0.163 HD
ATOM     82  O   UNL A   1      31.215  27.809  28.115  1.00  0.00    -0.269 OA
BRANCH  80  83
ATOM     83  C   UNL A   1      31.543  28.390  25.887  1.00  0.00     0.065 A 
ATOM     84  C   UNL A   1      31.313  29.689  25.405  1.00  0.00     0.016 A 
ATOM     85  C   UNL A   1      31.276  27.283  25.074  1.00  0.00     0.076 A 
ATOM     86  C   UNL A   1      30.862  29.891  24.099  1.00  0.00     0.001 A 
ATOM     87  C   UNL A   1      30.826  27.508  23.763  1.00  0.00     0.029 A 
ATOM     88  C   UNL A   1      30.618  28.798  23.275  1.00  0.00     0.002 A 
BRANCH  85  89
ATOM     89  N   UNL A   1      31.540  25.953  25.390  1.00  0.00    -0.255 NA
ATOM     90  C   UNL A   1      30.620  25.043  25.361  1.00  0.00     0.127 C 
BRANCH  90  91
ATOM     91  C   UNL A   1      31.100  23.650  25.446  1.00  0.00     0.076 A 
ATOM     92  C   UNL A   1      31.271  23.089  24.239  1.00  0.00     0.209 A 
ATOM     93  C   UNL A   1      32.101  23.280  26.473  1.00  0.00     0.201 A 
ATOM     94  O   UNL A   1      32.357  22.289  23.910  1.00  0.00    -0.463 OA
ATOM     95  C   UNL A   1      33.444  23.071  25.918  1.00  0.00     0.065 A 
ATOM     96  O   UNL A   1      31.851  23.254  27.669  1.00  0.00    -0.288 OA
ATOM     97  C   UNL A   1      33.511  22.604  24.604  1.00  0.00     0.137 A 
ATOM     98  C   UNL A   1      34.586  23.480  26.605  1.00  0.00     0.016 A 
ATOM     99  C   UNL A   1      34.740  22.537  23.957  1.00  0.00     0.048 A 
ATOM    100  C   UNL A   1      35.813  23.444  25.943  1.00  0.00     0.001 A 
ATOM    101  C   UNL A   1      35.888  22.976  24.625  1.00  0.00     0.004 A 
ENDBRANCH  90  91
ENDBRANCH  85  89
ENDBRANCH  80  83
ENDBRANCH  78  79
ENDBRANCH  77  78
ENDBRANCH  76  77
ENDBRANCH   1  76
TORSDOF 18
ENDMDL
MODEL 2
REMARK VINA RESULT:     -12.3      6.231     11.848
REMARK SMILES O=C(NCCCCCCNC(=O)c1ccccc1/N=C/c1coc2ccccc2c1=O)c1ccc(-c2c3nc(c(-c4c(F)cc(S(=O)(=O)[O-])cc4F)c4ccc([nH]4)c(-c4c(F)cc(S(=O)(=O)[O-])cc4F)c4nc(c(-c5c(F)cc(S(=O)(=O)[O-])cc5F)c5ccc2[nH]5)C=C4)C=C3)cc1
REMARK SMILES IDX 6 1 5 2 4 3 3 4 1 5 2 6 32 8 33 9 97 10 34 11 96 12 35 13
REMARK SMILES IDX 36 14 37 15 90 16 38 17 95 18 89 19 91 20 39 21 94 22 88 23
REMARK SMILES IDX 87 24 40 26 74 27 53 28 73 29 54 30 57 31 72 32 92 33 55 34
REMARK SMILES IDX 56 35 71 37 93 38 58 39 41 40 42 41 51 42 43 43 44 44 50 45
REMARK SMILES IDX 52 46 45 47 46 48 47 49 48 50 49 51 75 52 76 53 85 54 77 55
REMARK SMILES IDX 78 56 84 57 86 58 79 59 80 60 81 61 82 62 83 63 59 64 60 65
REMARK SMILES IDX 69 66 61 67 62 68 68 69 70 70 63 71 64 72 65 73 66 74 67 75
REMARK SMILES IDX 7 76 8 77 9 78 10 79 11 80 12 82 13 83 14 84 18 85 15 86
REMARK SMILES IDX 17 87 16 88 19 89 20 90 21 91 22 92 30 93 23 94 29 95 31 96
REMARK SMILES IDX 24 97 28 98 25 99 27 100 26 101
REMARK H PARENT 3 7 91 25 57 36 10 81
REMARK Flexibility Score: inf
ROOT
ATOM      1  C   UNL A   1      38.837  22.414  26.059  1.00  0.00     0.002 C 
ENDROOT
BRANCH   1   2
ATOM      2  C   UNL A   1      40.018  21.900  26.883  1.00  0.00     0.021 C 
BRANCH   2   3
ATOM      3  C   UNL A   1      41.084  22.926  27.255  1.00  0.00     0.116 C 
BRANCH   3   4
ATOM      4  N   UNL A   1      41.495  23.756  26.137  1.00  0.00    -0.352 N 
ATOM      5  O   UNL A   1      41.852  25.619  24.938  1.00  0.00    -0.269 OA
ATOM      6  C   UNL A   1      41.582  25.123  26.031  1.00  0.00     0.251 C 
ATOM      7  H   UNL A   1      41.753  23.261  25.326  1.00  0.00     0.163 HD
BRANCH   6   8
ATOM      8  C   UNL A   1      41.337  26.012  27.195  1.00  0.00     0.039 A 
ATOM      9  C   UNL A   1      40.297  25.784  28.101  1.00  0.00     0.014 A 
ATOM     10  C   UNL A   1      42.226  27.071  27.422  1.00  0.00     0.014 A 
ATOM     11  C   UNL A   1      40.090  26.665  29.165  1.00  0.00     0.010 A 
ATOM     12  C   UNL A   1      42.049  27.924  28.517  1.00  0.00     0.010 A 
ATOM     13  C   UNL A   1      40.966  27.741  29.385  1.00  0.00    -0.014 A 
BRANCH  13  14
ATOM     14  C   UNL A   1      40.755  28.630  30.555  1.00  0.00     0.031 A 
ATOM     15  C   UNL A   1      41.679  28.587  31.738  1.00  0.00     0.074 A 
ATOM     16  C   UNL A   1      39.736  29.511  30.534  1.00  0.00     0.049 A 
ATOM     17  N   UNL A   1      41.665  29.326  32.820  1.00  0.00    -0.248 NA
ATOM     18  C   UNL A   1      42.756  27.586  31.708  1.00  0.00     0.031 C 
ATOM     19  C   UNL A   1      38.754  29.639  29.456  1.00  0.00     0.029 A 
ATOM     20  N   UNL A   1      39.374  30.481  31.433  1.00  0.00    -0.354 N 
ATOM     21  C   UNL A   1      42.710  28.865  33.610  1.00  0.00     0.074 A 
ATOM     22  C   UNL A   1      43.340  27.781  32.883  1.00  0.00     0.031 C 
ATOM     23  C   UNL A   1      37.934  30.665  29.731  1.00  0.00     0.029 A 
ATOM     24  C   UNL A   1      38.318  31.251  31.012  1.00  0.00     0.049 A 
ATOM     25  H   UNL A   1      39.827  30.612  32.298  1.00  0.00     0.167 HD
ATOM     26  C   UNL A   1      43.111  29.303  34.827  1.00  0.00     0.037 A 
ATOM     27  C   UNL A   1      37.732  32.319  31.583  1.00  0.00     0.037 A 
ATOM     28  C   UNL A   1      42.509  30.396  35.546  1.00  0.00     0.049 A 
ATOM     29  C   UNL A   1      38.230  32.826  32.903  1.00  0.00     0.074 A 
ATOM     30  C   UNL A   1      42.849  30.906  36.788  1.00  0.00     0.029 A 
ATOM     31  N   UNL A   1      41.446  31.156  35.082  1.00  0.00    -0.354 N 
ATOM     32  N   UNL A   1      39.215  32.370  33.637  1.00  0.00    -0.248 NA
ATOM     33  C   UNL A   1      37.534  33.988  33.473  1.00  0.00     0.031 C 
ATOM     34  C   UNL A   1      41.991  31.977  37.074  1.00  0.00     0.029 A 
ATOM     35  C   UNL A   1      41.122  32.135  36.007  1.00  0.00     0.049 A 
ATOM     36  H   UNL A   1      40.989  31.020  34.221  1.00  0.00     0.167 HD
ATOM     37  C   UNL A   1      39.252  33.182  34.763  1.00  0.00     0.074 A 
ATOM     38  C   UNL A   1      38.204  34.170  34.604  1.00  0.00     0.031 C 
ATOM     39  C   UNL A   1      40.075  33.107  35.837  1.00  0.00     0.037 A 
BRANCH  26  40
ATOM     40  C   UNL A   1      44.261  28.584  35.464  1.00  0.00     0.058 A 
ATOM     41  C   UNL A   1      44.062  27.419  36.218  1.00  0.00     0.135 A 
ATOM     42  C   UNL A   1      45.573  29.060  35.315  1.00  0.00     0.135 A 
ATOM     43  F   UNL A   1      42.824  26.935  36.401  1.00  0.00    -0.206 F 
ATOM     44  C   UNL A   1      45.126  26.756  36.823  1.00  0.00     0.059 A 
ATOM     45  C   UNL A   1      46.653  28.410  35.904  1.00  0.00     0.059 A 
ATOM     46  F   UNL A   1      45.810  30.176  34.607  1.00  0.00    -0.206 F 
ATOM     47  C   UNL A   1      46.416  27.267  36.670  1.00  0.00     0.060 A 
BRANCH  47  48
ATOM     48  S   UNL A   1      47.801  26.422  37.464  1.00  0.00     0.124 S 
ATOM     49  O   UNL A   1      48.209  27.411  38.458  1.00  0.00    -0.237 OA
ATOM     50  O   UNL A   1      47.183  25.211  37.995  1.00  0.00    -0.237 OA
ATOM     51  O   UNL A   1      48.736  26.212  36.364  1.00  0.00    -0.744 OA
ENDBRANCH  47  48
ENDBRANCH  26  40
BRANCH  27  52
ATOM     52  C   UNL A   1      36.625  33.001  30.874  1.00  0.00     0.058 A 
ATOM     53  C   UNL A   1      35.306  32.880  31.333  1.00  0.00     0.135 A 
ATOM     54  C   UNL A   1      36.872  33.830  29.772  1.00  0.00     0.135 A 
ATOM     55  F   UNL A   1      35.031  32.094  32.386  1.00  0.00    -0.206 F 
ATOM     56  C   UNL A   1      34.262  33.568  30.726  1.00  0.00     0.059 A 
ATOM     57  C   UNL A   1      35.845  34.535  29.154  1.00  0.00     0.059 A 
ATOM     58  F   UNL A   1      38.122  33.980  29.311  1.00  0.00    -0.206 F 
ATOM     59  C   UNL A   1      34.542  34.397  29.639  1.00  0.00     0.060 A 
BRANCH  59  60
ATOM     60  S   UNL A   1      33.215  35.375  28.900  1.00  0.00     0.124 S 
ATOM     61  O   UNL A   1      32.513  35.855  30.083  1.00  0.00    -0.237 OA
ATOM     62  O   UNL A   1      33.942  36.384  28.137  1.00  0.00    -0.237 OA
ATOM     63  O   UNL A   1      32.502  34.388  28.092  1.00  0.00    -0.744 OA
ENDBRANCH  59  60
ENDBRANCH  27  52
BRANCH  39  64
ATOM     64  C   UNL A   1      39.862  34.116  36.923  1.00  0.00     0.058 A 
ATOM     65  C   UNL A   1      39.060  33.817  38.035  1.00  0.00     0.135 A 
ATOM     66  C   UNL A   1      40.466  35.380  36.861  1.00  0.00     0.135 A 
ATOM     67  F   UNL A   1      38.457  32.622  38.131  1.00  0.00    -0.206 F 
ATOM     68  C   UNL A   1      38.850  34.748  39.048  1.00  0.00     0.059 A 
ATOM     69  C   UNL A   1      40.274  36.324  37.866  1.00  0.00     0.059 A 
ATOM     70  F   UNL A   1      41.240  35.708  35.815  1.00  0.00    -0.206 F 
ATOM     71  C   UNL A   1      39.455  36.001  38.950  1.00  0.00     0.060 A 
BRANCH  71  72
ATOM     72  S   UNL A   1      39.200  37.213  40.265  1.00  0.00     0.124 S 
ATOM     73  O   UNL A   1      38.454  38.252  39.564  1.00  0.00    -0.237 OA
ATOM     74  O   UNL A   1      38.446  36.457  41.262  1.00  0.00    -0.237 OA
ATOM     75  O   UNL A   1      40.561  37.566  40.656  1.00  0.00    -0.744 OA
ENDBRANCH  71  72
ENDBRANCH  39  64
ENDBRANCH  13  14
ENDBRANCH   6   8
ENDBRANCH   3   4
ENDBRANCH   2   3
ENDBRANCH   1   2
BRANCH   1  76
ATOM     76  C   UNL A   1      37.895  21.346  25.499  1.00  0.00     0.002 C 
BRANCH  76  77
ATOM     77  C   UNL A   1      37.059  21.743  24.275  1.00  0.00     0.021 C 
BRANCH  77  78
ATOM     78  C   UNL A   1      35.941  22.759  24.514  1.00  0.00     0.116 C 
BRANCH  78  79
ATOM     79  N   UNL A   1      35.276  22.587  25.795  1.00  0.00    -0.352 N 
ATOM     80  C   UNL A   1      34.266  21.725  26.136  1.00  0.00     0.253 C 
ATOM     81  H   UNL A   1      35.596  23.170  26.520  1.00  0.00     0.163 HD
ATOM     82  O   UNL A   1      33.867  21.673  27.298  1.00  0.00    -0.269 OA
BRANCH  80  83
ATOM     83  C   UNL A   1      33.600  20.883  25.127  1.00  0.00     0.065 A 
ATOM     84  C   UNL A   1      33.774  19.494  25.249  1.00  0.00     0.016 A 
ATOM     85  C   UNL A   1      32.882  21.407  24.047  1.00  0.00     0.076 A 
ATOM     86  C   UNL A   1      33.196  18.623  24.323  1.00  0.00     0.001 A 
ATOM     87  C   UNL A   1      32.307  20.514  23.129  1.00  0.00     0.029 A 
ATOM     88  C   UNL A   1      32.459  19.134  23.260  1.00  0.00     0.002 A 
BRANCH  85  89
ATOM     89  N   UNL A   1      32.559  22.748  23.852  1.00  0.00    -0.255 NA
ATOM     90  C   UNL A   1      32.647  23.315  22.692  1.00  0.00     0.127 C 
BRANCH  90  91
ATOM     91  C   UNL A   1      32.015  24.644  22.585  1.00  0.00     0.076 A 
ATOM     92  C   UNL A   1      30.840  24.710  23.232  1.00  0.00     0.209 A 
ATOM     93  C   UNL A   1      32.853  25.864  22.651  1.00  0.00     0.201 A 
ATOM     94  O   UNL A   1      30.448  25.795  24.003  1.00  0.00    -0.463 OA
ATOM     95  C   UNL A   1      32.730  26.577  23.928  1.00  0.00     0.065 A 
ATOM     96  O   UNL A   1      33.639  26.180  21.771  1.00  0.00    -0.288 OA
ATOM     97  C   UNL A   1      31.502  26.475  24.585  1.00  0.00     0.137 A 
ATOM     98  C   UNL A   1      33.832  27.178  24.534  1.00  0.00     0.016 A 
ATOM     99  C   UNL A   1      31.362  26.985  25.871  1.00  0.00     0.048 A 
ATOM    100  C   UNL A   1      33.701  27.659  25.836  1.00  0.00     0.001 A 
ATOM    101  C   UNL A   1      32.472  27.561  26.501  1.00  0.00     0.004 A 
ENDBRANCH  90  91
ENDBRANCH  85  89
ENDBRANCH  80  83
ENDBRANCH  78  79
ENDBRANCH  77  78
ENDBRANCH  76  77
ENDBRANCH   1  76
TORSDOF 18
ENDMDL
MODEL 3
REMARK VINA RESULT:     -12.1      5.769      7.992
REMARK SMILES O=C(NCCCCCCNC(=O)c1ccccc1/N=C/c1coc2ccccc2c1=O)c1ccc(-c2c3nc(c(-c4c(F)cc(S(=O)(=O)[O-])cc4F)c4ccc([nH]4)c(-c4c(F)cc(S(=O)(=O)[O-])cc4F)c4nc(c(-c5c(F)cc(S(=O)(=O)[O-])cc5F)c5ccc2[nH]5)C=C4)C=C3)cc1
REMARK SMILES IDX 6 1 5 2 4 3 3 4 1 5 2 6 32 8 33 9 97 10 34 11 96 12 35 13
REMARK SMILES IDX 36 14 37 15 90 16 38 17 95 18 89 19 91 20 39 21 94 22 88 23
REMARK SMILES IDX 87 24 40 26 74 27 53 28 73 29 54 30 57 31 72 32 92 33 55 34
REMARK SMILES IDX 56 35 71 37 93 38 58 39 41 40 42 41 51 42 43 43 44 44 50 45
REMARK SMILES IDX 52 46 45 47 46 48 47 49 48 50 49 51 75 52 76 53 85 54 77 55
REMARK SMILES IDX 78 56 84 57 86 58 79 59 80 60 81 61 82 62 83 63 59 64 60 65
REMARK SMILES IDX 69 66 61 67 62 68 68 69 70 70 63 71 64 72 65 73 66 74 67 75
REMARK SMILES IDX 7 76 8 77 9 78 10 79 11 80 12 82 13 83 14 84 18 85 15 86
REMARK SMILES IDX 17 87 16 88 19 89 20 90 21 91 22 92 30 93 23 94 29 95 31 96
REMARK SMILES IDX 24 97 28 98 25 99 27 100 26 101
REMARK H PARENT 3 7 91 25 57 36 10 81
REMARK Flexibility Score: inf
ROOT
ATOM      1  C   UNL A   1      31.559  30.767  26.243  1.00  0.00     0.002 C 
ENDROOT
BRANCH   1   2
ATOM      2  C   UNL A   1      31.571  32.263  26.562  1.00  0.00     0.021 C 
BRANCH   2   3
ATOM      3  C   UNL A   1      32.778  32.783  27.334  1.00  0.00     0.116 C 
BRANCH   3   4
ATOM      4  N   UNL A   1      32.632  34.161  27.767  1.00  0.00    -0.352 N 
ATOM      5  O   UNL A   1      32.940  36.006  29.006  1.00  0.00    -0.269 OA
ATOM      6  C   UNL A   1      33.313  34.867  28.728  1.00  0.00     0.251 C 
ATOM      7  H   UNL A   1      31.932  34.671  27.297  1.00  0.00     0.163 HD
BRANCH   6   8
ATOM      8  C   UNL A   1      34.471  34.282  29.450  1.00  0.00     0.039 A 
ATOM      9  C   UNL A   1      34.315  33.500  30.598  1.00  0.00     0.014 A 
ATOM     10  C   UNL A   1      35.752  34.470  28.916  1.00  0.00     0.014 A 
ATOM     11  C   UNL A   1      35.436  32.994  31.259  1.00  0.00     0.010 A 
ATOM     12  C   UNL A   1      36.873  33.921  29.550  1.00  0.00     0.010 A 
ATOM     13  C   UNL A   1      36.725  33.197  30.740  1.00  0.00    -0.014 A 
BRANCH  13  14
ATOM     14  C   UNL A   1      37.897  32.603  31.432  1.00  0.00     0.031 A 
ATOM     15  C   UNL A   1      38.314  33.076  32.795  1.00  0.00     0.074 A 
ATOM     16  C   UNL A   1      38.573  31.602  30.836  1.00  0.00     0.049 A 
ATOM     17  N   UNL A   1      39.283  32.635  33.558  1.00  0.00    -0.248 NA
ATOM     18  C   UNL A   1      37.549  34.189  33.378  1.00  0.00     0.031 C 
ATOM     19  C   UNL A   1      38.284  31.064  29.505  1.00  0.00     0.029 A 
ATOM     20  N   UNL A   1      39.622  30.841  31.284  1.00  0.00    -0.354 N 
ATOM     21  C   UNL A   1      39.262  33.429  34.698  1.00  0.00     0.074 A 
ATOM     22  C   UNL A   1      38.184  34.381  34.527  1.00  0.00     0.031 C 
ATOM     23  C   UNL A   1      39.101  30.026  29.266  1.00  0.00     0.029 A 
ATOM     24  C   UNL A   1      39.983  29.841  30.415  1.00  0.00     0.049 A 
ATOM     25  H   UNL A   1      40.074  30.998  32.145  1.00  0.00     0.167 HD
ATOM     26  C   UNL A   1      40.066  33.371  35.786  1.00  0.00     0.037 A 
ATOM     27  C   UNL A   1      40.909  28.872  30.534  1.00  0.00     0.037 A 
ATOM     28  C   UNL A   1      41.123  32.413  35.977  1.00  0.00     0.049 A 
ATOM     29  C   UNL A   1      41.747  28.788  31.773  1.00  0.00     0.074 A 
ATOM     30  C   UNL A   1      41.990  32.283  37.050  1.00  0.00     0.029 A 
ATOM     31  N   UNL A   1      41.452  31.410  35.078  1.00  0.00    -0.354 N 
ATOM     32  N   UNL A   1      41.718  29.554  32.836  1.00  0.00    -0.248 NA
ATOM     33  C   UNL A   1      42.747  27.713  31.827  1.00  0.00     0.031 C 
ATOM     34  C   UNL A   1      42.843  31.200  36.798  1.00  0.00     0.029 A 
ATOM     35  C   UNL A   1      42.502  30.654  35.572  1.00  0.00     0.049 A 
ATOM     36  H   UNL A   1      41.004  31.259  34.214  1.00  0.00     0.167 HD
ATOM     37  C   UNL A   1      42.701  29.062  33.683  1.00  0.00     0.074 A 
ATOM     38  C   UNL A   1      43.294  27.918  33.018  1.00  0.00     0.031 C 
ATOM     39  C   UNL A   1      43.084  29.523  34.898  1.00  0.00     0.037 A 
BRANCH  26  40
ATOM     40  C   UNL A   1      39.830  34.391  36.859  1.00  0.00     0.058 A 
ATOM     41  C   UNL A   1      40.410  35.666  36.791  1.00  0.00     0.135 A 
ATOM     42  C   UNL A   1      39.017  34.092  37.963  1.00  0.00     0.135 A 
ATOM     43  F   UNL A   1      41.208  35.991  35.762  1.00  0.00    -0.206 F 
ATOM     44  C   UNL A   1      40.205  36.610  37.792  1.00  0.00     0.059 A 
ATOM     45  C   UNL A   1      38.792  35.023  38.972  1.00  0.00     0.059 A 
ATOM     46  F   UNL A   1      38.447  32.882  38.074  1.00  0.00    -0.206 F 
ATOM     47  C   UNL A   1      39.404  36.274  38.885  1.00  0.00     0.060 A 
BRANCH  47  48
ATOM     48  S   UNL A   1      39.147  37.488  40.197  1.00  0.00     0.124 S 
ATOM     49  O   UNL A   1      40.500  38.003  40.382  1.00  0.00    -0.237 OA
ATOM     50  O   UNL A   1      38.194  38.418  39.599  1.00  0.00    -0.237 OA
ATOM     51  O   UNL A   1      38.623  36.683  41.296  1.00  0.00    -0.744 OA
ENDBRANCH  47  48
ENDBRANCH  26  40
BRANCH  27  52
ATOM     52  C   UNL A   1      41.056  27.877  29.446  1.00  0.00     0.058 A 
ATOM     53  C   UNL A   1      42.152  27.934  28.574  1.00  0.00     0.135 A 
ATOM     54  C   UNL A   1      40.145  26.823  29.300  1.00  0.00     0.135 A 
ATOM     55  F   UNL A   1      43.045  28.930  28.684  1.00  0.00    -0.206 F 
ATOM     56  C   UNL A   1      42.348  26.970  27.593  1.00  0.00     0.059 A 
ATOM     57  C   UNL A   1      40.326  25.841  28.331  1.00  0.00     0.059 A 
ATOM     58  F   UNL A   1      39.090  26.727  30.122  1.00  0.00    -0.206 F 
ATOM     59  C   UNL A   1      41.431  25.924  27.482  1.00  0.00     0.060 A 
BRANCH  59  60
ATOM     60  S   UNL A   1      41.722  24.609  26.278  1.00  0.00     0.124 S 
ATOM     61  O   UNL A   1      43.019  24.102  26.707  1.00  0.00    -0.237 OA
ATOM     62  O   UNL A   1      40.587  23.717  26.492  1.00  0.00    -0.237 OA
ATOM     63  O   UNL A   1      41.707  25.329  25.008  1.00  0.00    -0.744 OA
ENDBRANCH  59  60
ENDBRANCH  27  52
BRANCH  39  64
ATOM     64  C   UNL A   1      44.203  28.794  35.575  1.00  0.00     0.058 A 
ATOM     65  C   UNL A   1      43.942  27.735  36.457  1.00  0.00     0.135 A 
ATOM     66  C   UNL A   1      45.540  29.145  35.338  1.00  0.00     0.135 A 
ATOM     67  F   UNL A   1      42.677  27.370  36.718  1.00  0.00    -0.206 F 
ATOM     68  C   UNL A   1      44.973  27.054  37.097  1.00  0.00     0.059 A 
ATOM     69  C   UNL A   1      46.587  28.474  35.961  1.00  0.00     0.059 A 
ATOM     70  F   UNL A   1      45.835  30.153  34.502  1.00  0.00    -0.206 F 
ATOM     71  C   UNL A   1      46.292  27.436  36.848  1.00  0.00     0.060 A 
BRANCH  71  72
ATOM     72  S   UNL A   1      47.639  26.551  37.663  1.00  0.00     0.124 S 
ATOM     73  O   UNL A   1      47.191  26.550  39.051  1.00  0.00    -0.237 OA
ATOM     74  O   UNL A   1      47.626  25.252  36.995  1.00  0.00    -0.237 OA
ATOM     75  O   UNL A   1      48.802  27.383  37.374  1.00  0.00    -0.744 OA
ENDBRANCH  71  72
ENDBRANCH  39  64
ENDBRANCH  13  14
ENDBRANCH   6   8
ENDBRANCH   3   4
ENDBRANCH   2   3
ENDBRANCH   1   2
BRANCH   1  76
ATOM     76  C   UNL A   1      32.607  29.919  26.968  1.00  0.00     0.002 C 
BRANCH  76  77
ATOM     77  C   UNL A   1      33.664  29.237  26.090  1.00  0.00     0.021 C 
BRANCH  77  78
ATOM     78  C   UNL A   1      33.361  27.803  25.650  1.00  0.00     0.116 C 
BRANCH  78  79
ATOM     79  N   UNL A   1      33.844  27.501  24.313  1.00  0.00    -0.352 N 
ATOM     80  C   UNL A   1      33.186  27.595  23.114  1.00  0.00     0.253 C 
ATOM     81  H   UNL A   1      34.774  27.185  24.260  1.00  0.00     0.163 HD
ATOM     82  O   UNL A   1      33.781  27.356  22.065  1.00  0.00    -0.269 OA
BRANCH  80  83
ATOM     83  C   UNL A   1      31.753  27.930  23.048  1.00  0.00     0.065 A 
ATOM     84  C   UNL A   1      31.427  29.237  22.649  1.00  0.00     0.016 A 
ATOM     85  C   UNL A   1      30.741  27.040  23.423  1.00  0.00     0.076 A 
ATOM     86  C   UNL A   1      30.094  29.646  22.579  1.00  0.00     0.001 A 
ATOM     87  C   UNL A   1      29.407  27.470  23.343  1.00  0.00     0.029 A 
ATOM     88  C   UNL A   1      29.080  28.761  22.926  1.00  0.00     0.002 A 
BRANCH  85  89
ATOM     89  N   UNL A   1      30.913  25.697  23.751  1.00  0.00    -0.255 NA
ATOM     90  C   UNL A   1      30.711  25.251  24.949  1.00  0.00     0.127 C 
BRANCH  90  91
ATOM     91  C   UNL A   1      30.662  23.782  25.081  1.00  0.00     0.076 A 
ATOM     92  C   UNL A   1      31.239  23.151  24.045  1.00  0.00     0.209 A 
ATOM     93  C   UNL A   1      30.867  23.156  26.407  1.00  0.00     0.201 A 
ATOM     94  O   UNL A   1      32.062  22.042  24.182  1.00  0.00    -0.463 OA
ATOM     95  C   UNL A   1      32.183  22.520  26.545  1.00  0.00     0.065 A 
ATOM     96  O   UNL A   1      30.063  23.253  27.322  1.00  0.00    -0.288 OA
ATOM     97  C   UNL A   1      32.754  22.008  25.379  1.00  0.00     0.137 A 
ATOM     98  C   UNL A   1      32.897  22.578  27.741  1.00  0.00     0.016 A 
ATOM     99  C   UNL A   1      34.063  21.537  25.399  1.00  0.00     0.048 A 
ATOM    100  C   UNL A   1      34.220  22.138  27.752  1.00  0.00     0.001 A 
ATOM    101  C   UNL A   1      34.800  21.622  26.586  1.00  0.00     0.004 A 
ENDBRANCH  90  91
ENDBRANCH  85  89
ENDBRANCH  80  83
ENDBRANCH  78  79
ENDBRANCH  77  78
ENDBRANCH  76  77
ENDBRANCH   1  76
TORSDOF 18
ENDMDL
