MODEL 1
REMARK VINA RESULT:     -11.0      0.000      0.000
REMARK SMILES CC(C)[NH2+][C@]1(C(=O)NCCCCCCNC(=O)c2ccc(-c3c4nc(c(-c5c(F)cc(S(=O)(=O)[O-])cc5F)c5ccc([nH]5)c(-c5c(F)cc(S(=O)(=O)[O-])cc5F)c5nc(c(-c6c(F)cc(S(=O)(=O)[O-])cc6F)c6ccc3[nH]6)C=C5)C=C4)cc2)CC[C@H]([N@H+](C)C2CCCC2)C1
REMARK SMILES IDX 12 1 11 2 10 3 9 4 8 5 6 6 7 7 5 9 84 10 94 11 85 12 86 13
REMARK SMILES IDX 4 14 2 17 1 18 3 19 87 20 88 21 89 23 90 24 93 25 91 26
REMARK SMILES IDX 92 27 13 28 14 29 15 30 16 31 17 33 18 34 19 35 83 36 20 37
REMARK SMILES IDX 82 38 21 39 22 40 23 41 76 42 24 43 81 44 75 45 77 46 25 47
REMARK SMILES IDX 80 48 74 49 73 50 26 52 60 53 39 54 59 55 40 56 43 57 58 58
REMARK SMILES IDX 78 59 41 60 42 61 57 63 79 64 44 65 27 66 28 67 37 68 29 69
REMARK SMILES IDX 30 70 36 71 38 72 31 73 32 74 33 75 34 76 35 77 61 78 62 79
REMARK SMILES IDX 71 80 63 81 64 82 70 83 72 84 65 85 66 86 67 87 68 88 69 89
REMARK SMILES IDX 45 90 46 91 55 92 47 93 48 94 54 95 56 96 49 97 50 98 51 99
REMARK SMILES IDX 52 100 53 101
REMARK H PARENT 8 8 4 15 4 16 87 22 15 32 77 51 43 62
REMARK Flexibility Score: inf
ROOT
ATOM      1  C   UNL A   1      37.079  23.150  25.724  1.00  0.00     0.002 C 
ENDROOT
BRANCH   1   2
ATOM      2  C   UNL A   1      36.220  21.898  25.516  1.00  0.00     0.002 C 
BRANCH   2   3
ATOM      3  C   UNL A   1      34.987  21.794  26.430  1.00  0.00     0.021 C 
BRANCH   3   4
ATOM      4  C   UNL A   1      34.273  23.129  26.680  1.00  0.00     0.116 C 
BRANCH   4   5
ATOM      5  N   UNL A   1      32.896  22.885  27.010  1.00  0.00    -0.351 N 
ATOM      6  C   UNL A   1      31.784  23.626  26.828  1.00  0.00     0.281 C 
ATOM      7  O   UNL A   1      30.849  23.299  27.576  1.00  0.00    -0.268 OA
ATOM      8  H   UNL A   1      32.734  22.018  27.449  1.00  0.00     0.163 HD
BRANCH   6   9
ATOM      9  C   UNL A   1      31.604  24.738  25.713  1.00  0.00     0.181 C 
ATOM     10  C   UNL A   1      30.298  25.556  25.663  1.00  0.00     0.085 C 
ATOM     11  C   UNL A   1      32.731  25.805  25.928  1.00  0.00     0.144 C 
ATOM     12  C   UNL A   1      30.654  27.022  25.358  1.00  0.00     0.072 C 
ATOM     13  C   UNL A   1      32.134  27.214  25.692  1.00  0.00     0.191 C 
BRANCH   9  14
ATOM     14  N   UNL A   1      31.686  23.941  24.466  1.00  0.00    -0.331 N 
ATOM     15  H   UNL A   1      31.853  22.972  24.740  1.00  0.00     0.347 HD
ATOM     16  H   UNL A   1      30.804  24.133  23.993  1.00  0.00     0.347 HD
BRANCH  14  17
ATOM     17  C   UNL A   1      32.681  24.280  23.496  1.00  0.00     0.176 C 
ATOM     18  C   UNL A   1      33.467  23.039  23.090  1.00  0.00     0.075 C 
ATOM     19  C   UNL A   1      32.124  25.015  22.283  1.00  0.00     0.075 C 
ENDBRANCH  14  17
ENDBRANCH   9  14
BRANCH  13  20
ATOM     20  N   UNL A   1      32.943  28.278  24.994  1.00  0.00    -0.332 N 
ATOM     21  C   UNL A   1      33.895  27.585  24.091  1.00  0.00     0.333 C 
ATOM     22  H   UNL A   1      32.226  28.849  24.547  1.00  0.00     0.348 HD
BRANCH  20  23
ATOM     23  C   UNL A   1      33.692  29.319  25.778  1.00  0.00     0.184 C 
ATOM     24  C   UNL A   1      32.769  30.306  26.565  1.00  0.00     0.065 C 
ATOM     25  C   UNL A   1      34.550  28.882  26.976  1.00  0.00     0.065 C 
ATOM     26  C   UNL A   1      33.616  30.984  27.643  1.00  0.00     0.006 C 
ATOM     27  C   UNL A   1      34.873  30.158  27.739  1.00  0.00     0.006 C 
ENDBRANCH  20  23
ENDBRANCH  13  20
ENDBRANCH   6   9
ENDBRANCH   4   5
ENDBRANCH   3   4
ENDBRANCH   2   3
ENDBRANCH   1   2
BRANCH   1  28
ATOM     28  C   UNL A   1      38.500  22.871  26.212  1.00  0.00     0.021 C 
BRANCH  28  29
ATOM     29  C   UNL A   1      39.226  24.104  26.724  1.00  0.00     0.116 C 
BRANCH  29  30
ATOM     30  N   UNL A   1      40.481  24.307  26.021  1.00  0.00    -0.352 N 
ATOM     31  C   UNL A   1      41.383  25.326  26.186  1.00  0.00     0.251 C 
ATOM     32  H   UNL A   1      40.712  23.631  25.345  1.00  0.00     0.163 HD
ATOM     33  O   UNL A   1      42.264  25.518  25.350  1.00  0.00    -0.269 OA
BRANCH  31  34
ATOM     34  C   UNL A   1      41.268  26.194  27.373  1.00  0.00     0.039 A 
ATOM     35  C   UNL A   1      42.146  27.270  27.518  1.00  0.00     0.014 A 
ATOM     36  C   UNL A   1      40.270  25.958  28.324  1.00  0.00     0.014 A 
ATOM     37  C   UNL A   1      41.994  28.135  28.601  1.00  0.00     0.010 A 
ATOM     38  C   UNL A   1      40.066  26.872  29.352  1.00  0.00     0.010 A 
ATOM     39  C   UNL A   1      40.936  27.959  29.510  1.00  0.00    -0.014 A 
BRANCH  39  40
ATOM     40  C   UNL A   1      40.738  28.893  30.647  1.00  0.00     0.031 A 
ATOM     41  C   UNL A   1      41.572  28.748  31.890  1.00  0.00     0.074 A 
ATOM     42  C   UNL A   1      39.774  29.832  30.577  1.00  0.00     0.049 A 
ATOM     43  N   UNL A   1      41.517  29.430  33.005  1.00  0.00    -0.248 NA
ATOM     44  C   UNL A   1      42.584  27.678  31.894  1.00  0.00     0.031 C 
ATOM     45  C   UNL A   1      38.869  30.033  29.443  1.00  0.00     0.029 A 
ATOM     46  N   UNL A   1      39.388  30.788  31.482  1.00  0.00    -0.354 N 
ATOM     47  C   UNL A   1      42.473  28.866  33.842  1.00  0.00     0.074 A 
ATOM     48  C   UNL A   1      43.052  27.748  33.132  1.00  0.00     0.031 C 
ATOM     49  C   UNL A   1      38.053  31.066  29.708  1.00  0.00     0.029 A 
ATOM     50  C   UNL A   1      38.345  31.571  31.046  1.00  0.00     0.049 A 
ATOM     51  H   UNL A   1      39.816  30.903  32.360  1.00  0.00     0.167 HD
ATOM     52  C   UNL A   1      42.850  29.260  35.081  1.00  0.00     0.037 A 
ATOM     53  C   UNL A   1      37.692  32.579  31.659  1.00  0.00     0.037 A 
ATOM     54  C   UNL A   1      42.282  30.390  35.769  1.00  0.00     0.049 A 
ATOM     55  C   UNL A   1      38.126  32.995  33.039  1.00  0.00     0.074 A 
ATOM     56  C   UNL A   1      42.637  30.912  37.000  1.00  0.00     0.029 A 
ATOM     57  N   UNL A   1      41.239  31.168  35.290  1.00  0.00    -0.354 N 
ATOM     58  N   UNL A   1      39.082  32.495  33.787  1.00  0.00    -0.248 NA
ATOM     59  C   UNL A   1      37.401  34.112  33.655  1.00  0.00     0.031 C 
ATOM     60  C   UNL A   1      41.770  31.970  37.291  1.00  0.00     0.029 A 
ATOM     61  C   UNL A   1      40.918  32.149  36.213  1.00  0.00     0.049 A 
ATOM     62  H   UNL A   1      40.793  31.043  34.421  1.00  0.00     0.167 HD
ATOM     63  C   UNL A   1      39.092  33.259  34.950  1.00  0.00     0.074 A 
ATOM     64  C   UNL A   1      38.055  34.260  34.799  1.00  0.00     0.031 C 
ATOM     65  C   UNL A   1      39.886  33.143  36.044  1.00  0.00     0.037 A 
BRANCH  52  66
ATOM     66  C   UNL A   1      43.926  28.466  35.772  1.00  0.00     0.058 A 
ATOM     67  C   UNL A   1      43.626  27.364  36.591  1.00  0.00     0.135 A 
ATOM     68  C   UNL A   1      45.280  28.787  35.582  1.00  0.00     0.135 A 
ATOM     69  F   UNL A   1      42.349  27.022  36.823  1.00  0.00    -0.206 F 
ATOM     70  C   UNL A   1      44.625  26.628  37.216  1.00  0.00     0.059 A 
ATOM     71  C   UNL A   1      46.299  28.044  36.171  1.00  0.00     0.059 A 
ATOM     72  F   UNL A   1      45.626  29.831  34.812  1.00  0.00    -0.206 F 
ATOM     73  C   UNL A   1      45.960  26.973  36.998  1.00  0.00     0.060 A 
BRANCH  73  74
ATOM     74  S   UNL A   1      47.245  25.998  37.807  1.00  0.00     0.124 S 
ATOM     75  O   UNL A   1      47.628  26.878  38.907  1.00  0.00    -0.237 OA
ATOM     76  O   UNL A   1      46.524  24.787  38.187  1.00  0.00    -0.237 OA
ATOM     77  O   UNL A   1      48.250  25.825  36.764  1.00  0.00    -0.744 OA
ENDBRANCH  73  74
ENDBRANCH  52  66
BRANCH  53  78
ATOM     78  C   UNL A   1      36.572  33.271  30.967  1.00  0.00     0.058 A 
ATOM     79  C   UNL A   1      36.813  34.153  29.902  1.00  0.00     0.135 A 
ATOM     80  C   UNL A   1      35.238  33.058  31.348  1.00  0.00     0.135 A 
ATOM     81  F   UNL A   1      38.070  34.394  29.502  1.00  0.00    -0.206 F 
ATOM     82  C   UNL A   1      35.775  34.818  29.256  1.00  0.00     0.059 A 
ATOM     83  C   UNL A   1      34.181  33.688  30.698  1.00  0.00     0.059 A 
ATOM     84  F   UNL A   1      34.951  32.210  32.348  1.00  0.00    -0.206 F 
ATOM     85  C   UNL A   1      34.461  34.575  29.661  1.00  0.00     0.060 A 
BRANCH  85  86
ATOM     86  S   UNL A   1      33.118  35.412  28.789  1.00  0.00     0.124 S 
ATOM     87  O   UNL A   1      33.851  36.378  27.981  1.00  0.00    -0.237 OA
ATOM     88  O   UNL A   1      32.494  34.311  28.062  1.00  0.00    -0.237 OA
ATOM     89  O   UNL A   1      32.315  35.973  29.872  1.00  0.00    -0.744 OA
ENDBRANCH  85  86
ENDBRANCH  53  78
BRANCH  65  90
ATOM     90  C   UNL A   1      39.697  34.146  37.150  1.00  0.00     0.058 A 
ATOM     91  C   UNL A   1      38.929  33.857  38.288  1.00  0.00     0.135 A 
ATOM     92  C   UNL A   1      40.340  35.394  37.092  1.00  0.00     0.135 A 
ATOM     93  F   UNL A   1      38.288  32.682  38.391  1.00  0.00    -0.206 F 
ATOM     94  C   UNL A   1      38.785  34.779  39.319  1.00  0.00     0.059 A 
ATOM     95  C   UNL A   1      40.236  36.317  38.126  1.00  0.00     0.059 A 
ATOM     96  F   UNL A   1      41.096  35.716  36.030  1.00  0.00    -0.206 F 
ATOM     97  C   UNL A   1      39.446  36.006  39.230  1.00  0.00     0.060 A 
BRANCH  97  98
ATOM     98  S   UNL A   1      39.278  37.179  40.592  1.00  0.00     0.124 S 
ATOM     99  O   UNL A   1      38.334  38.142  40.036  1.00  0.00    -0.237 OA
ATOM    100  O   UNL A   1      38.764  36.335  41.667  1.00  0.00    -0.237 OA
ATOM    101  O   UNL A   1      40.638  37.672  40.786  1.00  0.00    -0.744 OA
ENDBRANCH  97  98
ENDBRANCH  65  90
ENDBRANCH  39  40
ENDBRANCH  31  34
ENDBRANCH  29  30
ENDBRANCH  28  29
ENDBRANCH   1  28
TORSDOF 20
ENDMDL
MODEL 2
REMARK VINA RESULT:     -11.0      1.180      2.102
REMARK SMILES CC(C)[NH2+][C@]1(C(=O)NCCCCCCNC(=O)c2ccc(-c3c4nc(c(-c5c(F)cc(S(=O)(=O)[O-])cc5F)c5ccc([nH]5)c(-c5c(F)cc(S(=O)(=O)[O-])cc5F)c5nc(c(-c6c(F)cc(S(=O)(=O)[O-])cc6F)c6ccc3[nH]6)C=C5)C=C4)cc2)CC[C@H]([N@H+](C)C2CCCC2)C1
REMARK SMILES IDX 12 1 11 2 10 3 9 4 8 5 6 6 7 7 5 9 84 10 94 11 85 12 86 13
REMARK SMILES IDX 4 14 2 17 1 18 3 19 87 20 88 21 89 23 90 24 93 25 91 26
REMARK SMILES IDX 92 27 13 28 14 29 15 30 16 31 17 33 18 34 19 35 83 36 20 37
REMARK SMILES IDX 82 38 21 39 22 40 23 41 76 42 24 43 81 44 75 45 77 46 25 47
REMARK SMILES IDX 80 48 74 49 73 50 26 52 60 53 39 54 59 55 40 56 43 57 58 58
REMARK SMILES IDX 78 59 41 60 42 61 57 63 79 64 44 65 27 66 28 67 37 68 29 69
REMARK SMILES IDX 30 70 36 71 38 72 31 73 32 74 33 75 34 76 35 77 61 78 62 79
REMARK SMILES IDX 71 80 63 81 64 82 70 83 72 84 65 85 66 86 67 87 68 88 69 89
REMARK SMILES IDX 45 90 46 91 55 92 47 93 48 94 54 95 56 96 49 97 50 98 51 99
REMARK SMILES IDX 52 100 53 101
REMARK H PARENT 8 8 4 15 4 16 87 22 15 32 77 51 43 62
REMARK Flexibility Score: inf
ROOT
ATOM      1  C   UNL A   1      40.435  21.850  26.549  1.00  0.00     0.002 C 
ENDROOT
BRANCH   1   2
ATOM      2  C   UNL A   1      39.086  22.558  26.382  1.00  0.00     0.002 C 
BRANCH   2   3
ATOM      3  C   UNL A   1      38.058  21.807  25.518  1.00  0.00     0.021 C 
BRANCH   3   4
ATOM      4  C   UNL A   1      36.672  22.463  25.475  1.00  0.00     0.116 C 
BRANCH   4   5
ATOM      5  N   UNL A   1      35.781  21.768  26.363  1.00  0.00    -0.351 N 
ATOM      6  C   UNL A   1      34.478  21.956  26.654  1.00  0.00     0.281 C 
ATOM      7  O   UNL A   1      34.139  21.447  27.735  1.00  0.00    -0.268 OA
ATOM      8  H   UNL A   1      36.198  21.018  26.846  1.00  0.00     0.163 HD
BRANCH   6   9
ATOM      9  C   UNL A   1      33.422  22.652  25.699  1.00  0.00     0.181 C 
ATOM     10  C   UNL A   1      31.932  22.657  26.093  1.00  0.00     0.085 C 
ATOM     11  C   UNL A   1      33.809  24.167  25.598  1.00  0.00     0.144 C 
ATOM     12  C   UNL A   1      31.343  24.038  25.755  1.00  0.00     0.072 C 
ATOM     13  C   UNL A   1      32.512  25.014  25.620  1.00  0.00     0.191 C 
BRANCH   9  14
ATOM     14  N   UNL A   1      33.559  21.857  24.456  1.00  0.00    -0.331 N 
ATOM     15  H   UNL A   1      33.637  22.519  23.684  1.00  0.00     0.347 HD
ATOM     16  H   UNL A   1      34.371  21.266  24.630  1.00  0.00     0.347 HD
BRANCH  14  17
ATOM     17  C   UNL A   1      32.525  20.930  24.112  1.00  0.00     0.176 C 
ATOM     18  C   UNL A   1      32.056  21.170  22.682  1.00  0.00     0.075 C 
ATOM     19  C   UNL A   1      32.908  19.475  24.344  1.00  0.00     0.075 C 
ENDBRANCH  14  17
ENDBRANCH   9  14
BRANCH  13  20
ATOM     20  N   UNL A   1      32.389  26.240  24.751  1.00  0.00    -0.332 N 
ATOM     21  C   UNL A   1      33.388  26.110  23.662  1.00  0.00     0.333 C 
ATOM     22  H   UNL A   1      31.408  26.220  24.472  1.00  0.00     0.348 HD
BRANCH  20  23
ATOM     23  C   UNL A   1      32.491  27.619  25.338  1.00  0.00     0.184 C 
ATOM     24  C   UNL A   1      31.655  27.815  26.645  1.00  0.00     0.065 C 
ATOM     25  C   UNL A   1      33.836  28.090  25.915  1.00  0.00     0.065 C 
ATOM     26  C   UNL A   1      32.194  29.051  27.367  1.00  0.00     0.006 C 
ATOM     27  C   UNL A   1      33.524  29.341  26.722  1.00  0.00     0.006 C 
ENDBRANCH  20  23
ENDBRANCH  13  20
ENDBRANCH   6   9
ENDBRANCH   4   5
ENDBRANCH   3   4
ENDBRANCH   2   3
ENDBRANCH   1   2
BRANCH   1  28
ATOM     28  C   UNL A   1      41.142  22.137  27.872  1.00  0.00     0.021 C 
BRANCH  28  29
ATOM     29  C   UNL A   1      42.405  22.971  27.725  1.00  0.00     0.116 C 
BRANCH  29  30
ATOM     30  N   UNL A   1      42.397  23.725  26.484  1.00  0.00    -0.352 N 
ATOM     31  C   UNL A   1      42.019  25.028  26.293  1.00  0.00     0.251 C 
ATOM     32  H   UNL A   1      42.701  23.241  25.683  1.00  0.00     0.163 HD
ATOM     33  O   UNL A   1      41.813  25.457  25.159  1.00  0.00    -0.269 OA
BRANCH  31  34
ATOM     34  C   UNL A   1      41.851  25.902  27.471  1.00  0.00     0.039 A 
ATOM     35  C   UNL A   1      42.824  26.861  27.753  1.00  0.00     0.014 A 
ATOM     36  C   UNL A   1      40.712  25.788  28.274  1.00  0.00     0.014 A 
ATOM     37  C   UNL A   1      42.634  27.736  28.821  1.00  0.00     0.010 A 
ATOM     38  C   UNL A   1      40.482  26.717  29.282  1.00  0.00     0.010 A 
ATOM     39  C   UNL A   1      41.448  27.689  29.576  1.00  0.00    -0.014 A 
BRANCH  39  40
ATOM     40  C   UNL A   1      41.212  28.638  30.693  1.00  0.00     0.031 A 
ATOM     41  C   UNL A   1      42.040  28.543  31.945  1.00  0.00     0.074 A 
ATOM     42  C   UNL A   1      40.219  29.545  30.599  1.00  0.00     0.049 A 
ATOM     43  N   UNL A   1      41.955  29.244  33.046  1.00  0.00    -0.248 NA
ATOM     44  C   UNL A   1      43.085  27.506  31.976  1.00  0.00     0.031 C 
ATOM     45  C   UNL A   1      39.318  29.696  29.454  1.00  0.00     0.029 A 
ATOM     46  N   UNL A   1      39.797  30.506  31.482  1.00  0.00    -0.354 N 
ATOM     47  C   UNL A   1      42.922  28.726  33.901  1.00  0.00     0.074 A 
ATOM     48  C   UNL A   1      43.541  27.613  33.216  1.00  0.00     0.031 C 
ATOM     49  C   UNL A   1      38.468  30.708  29.694  1.00  0.00     0.029 A 
ATOM     50  C   UNL A   1      38.733  31.247  31.023  1.00  0.00     0.049 A 
ATOM     51  H   UNL A   1      40.214  30.650  32.361  1.00  0.00     0.167 HD
ATOM     52  C   UNL A   1      43.277  29.155  35.135  1.00  0.00     0.037 A 
ATOM     53  C   UNL A   1      38.045  32.245  31.612  1.00  0.00     0.037 A 
ATOM     54  C   UNL A   1      42.669  30.279  35.797  1.00  0.00     0.049 A 
ATOM     55  C   UNL A   1      38.455  32.701  32.987  1.00  0.00     0.074 A 
ATOM     56  C   UNL A   1      42.998  30.836  37.020  1.00  0.00     0.029 A 
ATOM     57  N   UNL A   1      41.606  31.015  35.295  1.00  0.00    -0.354 N 
ATOM     58  N   UNL A   1      39.420  32.246  33.752  1.00  0.00    -0.248 NA
ATOM     59  C   UNL A   1      37.690  33.806  33.577  1.00  0.00     0.031 C 
ATOM     60  C   UNL A   1      42.096  31.871  37.285  1.00  0.00     0.029 A 
ATOM     61  C   UNL A   1      41.247  32.003  36.197  1.00  0.00     0.049 A 
ATOM     62  H   UNL A   1      41.171  30.860  34.426  1.00  0.00     0.167 HD
ATOM     63  C   UNL A   1      39.397  33.031  34.900  1.00  0.00     0.074 A 
ATOM     64  C   UNL A   1      38.331  33.996  34.722  1.00  0.00     0.031 C 
ATOM     65  C   UNL A   1      40.187  32.961  36.001  1.00  0.00     0.037 A 
BRANCH  52  66
ATOM     66  C   UNL A   1      44.371  28.409  35.849  1.00  0.00     0.058 A 
ATOM     67  C   UNL A   1      45.727  28.735  35.677  1.00  0.00     0.135 A 
ATOM     68  C   UNL A   1      44.058  27.377  36.750  1.00  0.00     0.135 A 
ATOM     69  F   UNL A   1      46.086  29.700  34.816  1.00  0.00    -0.206 F 
ATOM     70  C   UNL A   1      46.732  28.049  36.350  1.00  0.00     0.059 A 
ATOM     71  C   UNL A   1      45.045  26.699  37.459  1.00  0.00     0.059 A 
ATOM     72  F   UNL A   1      42.780  27.020  36.952  1.00  0.00    -0.206 F 
ATOM     73  C   UNL A   1      46.382  27.034  37.241  1.00  0.00     0.060 A 
BRANCH  73  74
ATOM     74  S   UNL A   1      47.698  26.163  38.116  1.00  0.00     0.124 S 
ATOM     75  O   UNL A   1      48.691  27.221  38.276  1.00  0.00    -0.237 OA
ATOM     76  O   UNL A   1      47.028  25.734  39.339  1.00  0.00    -0.237 OA
ATOM     77  O   UNL A   1      48.067  25.091  37.198  1.00  0.00    -0.744 OA
ENDBRANCH  73  74
ENDBRANCH  52  66
BRANCH  53  78
ATOM     78  C   UNL A   1      36.909  32.889  30.899  1.00  0.00     0.058 A 
ATOM     79  C   UNL A   1      35.580  32.576  31.224  1.00  0.00     0.135 A 
ATOM     80  C   UNL A   1      37.128  33.836  29.886  1.00  0.00     0.135 A 
ATOM     81  F   UNL A   1      35.318  31.675  32.182  1.00  0.00    -0.206 F 
ATOM     82  C   UNL A   1      34.509  33.161  30.555  1.00  0.00     0.059 A 
ATOM     83  C   UNL A   1      36.072  34.455  29.224  1.00  0.00     0.059 A 
ATOM     84  F   UNL A   1      38.379  34.185  29.549  1.00  0.00    -0.206 F 
ATOM     85  C   UNL A   1      34.767  34.101  29.557  1.00  0.00     0.060 A 
BRANCH  85  86
ATOM     86  S   UNL A   1      33.368  34.884  28.723  1.00  0.00     0.124 S 
ATOM     87  O   UNL A   1      33.021  33.878  27.727  1.00  0.00    -0.237 OA
ATOM     88  O   UNL A   1      32.417  35.056  29.817  1.00  0.00    -0.237 OA
ATOM     89  O   UNL A   1      33.941  36.121  28.199  1.00  0.00    -0.744 OA
ENDBRANCH  85  86
ENDBRANCH  53  78
BRANCH  65  90
ATOM     90  C   UNL A   1      39.957  33.979  37.086  1.00  0.00     0.058 A 
ATOM     91  C   UNL A   1      39.160  33.699  38.207  1.00  0.00     0.135 A 
ATOM     92  C   UNL A   1      40.591  35.231  37.028  1.00  0.00     0.135 A 
ATOM     93  F   UNL A   1      38.527  32.520  38.310  1.00  0.00    -0.206 F 
ATOM     94  C   UNL A   1      38.979  34.635  39.220  1.00  0.00     0.059 A 
ATOM     95  C   UNL A   1      40.450  36.169  38.045  1.00  0.00     0.059 A 
ATOM     96  F   UNL A   1      41.373  35.545  35.982  1.00  0.00    -0.206 F 
ATOM     97  C   UNL A   1      39.631  35.867  39.131  1.00  0.00     0.060 A 
BRANCH  97  98
ATOM     98  S   UNL A   1      39.415  37.057  40.470  1.00  0.00     0.124 S 
ATOM     99  O   UNL A   1      38.317  36.460  41.221  1.00  0.00    -0.237 OA
ATOM    100  O   UNL A   1      40.719  37.030  41.124  1.00  0.00    -0.237 OA
ATOM    101  O   UNL A   1      39.097  38.300  39.772  1.00  0.00    -0.744 OA
ENDBRANCH  97  98
ENDBRANCH  65  90
ENDBRANCH  39  40
ENDBRANCH  31  34
ENDBRANCH  29  30
ENDBRANCH  28  29
ENDBRANCH   1  28
TORSDOF 20
ENDMDL
MODEL 3
REMARK VINA RESULT:     -10.8      6.291      9.120
REMARK SMILES CC(C)[NH2+][C@]1(C(=O)NCCCCCCNC(=O)c2ccc(-c3c4nc(c(-c5c(F)cc(S(=O)(=O)[O-])cc5F)c5ccc([nH]5)c(-c5c(F)cc(S(=O)(=O)[O-])cc5F)c5nc(c(-c6c(F)cc(S(=O)(=O)[O-])cc6F)c6ccc3[nH]6)C=C5)C=C4)cc2)CC[C@H]([N@H+](C)C2CCCC2)C1
REMARK SMILES IDX 12 1 11 2 10 3 9 4 8 5 6 6 7 7 5 9 84 10 94 11 85 12 86 13
REMARK SMILES IDX 4 14 2 17 1 18 3 19 87 20 88 21 89 23 90 24 93 25 91 26
REMARK SMILES IDX 92 27 13 28 14 29 15 30 16 31 17 33 18 34 19 35 83 36 20 37
REMARK SMILES IDX 82 38 21 39 22 40 23 41 76 42 24 43 81 44 75 45 77 46 25 47
REMARK SMILES IDX 80 48 74 49 73 50 26 52 60 53 39 54 59 55 40 56 43 57 58 58
REMARK SMILES IDX 78 59 41 60 42 61 57 63 79 64 44 65 27 66 28 67 37 68 29 69
REMARK SMILES IDX 30 70 36 71 38 72 31 73 32 74 33 75 34 76 35 77 61 78 62 79
REMARK SMILES IDX 71 80 63 81 64 82 70 83 72 84 65 85 66 86 67 87 68 88 69 89
REMARK SMILES IDX 45 90 46 91 55 92 47 93 48 94 54 95 56 96 49 97 50 98 51 99
REMARK SMILES IDX 52 100 53 101
REMARK H PARENT 8 8 4 15 4 16 87 22 15 32 77 51 43 62
REMARK Flexibility Score: inf
ROOT
ATOM      1  C   UNL A   1      37.226  21.165  24.980  1.00  0.00     0.002 C 
ENDROOT
BRANCH   1   2
ATOM      2  C   UNL A   1      37.517  22.457  25.752  1.00  0.00     0.002 C 
BRANCH   2   3
ATOM      3  C   UNL A   1      37.023  23.747  25.074  1.00  0.00     0.021 C 
BRANCH   3   4
ATOM      4  C   UNL A   1      35.569  24.113  25.398  1.00  0.00     0.116 C 
BRANCH   4   5
ATOM      5  N   UNL A   1      34.980  24.791  24.277  1.00  0.00    -0.351 N 
ATOM      6  C   UNL A   1      34.039  24.408  23.390  1.00  0.00     0.281 C 
ATOM      7  O   UNL A   1      34.059  25.068  22.339  1.00  0.00    -0.268 OA
ATOM      8  H   UNL A   1      35.326  25.701  24.129  1.00  0.00     0.163 HD
BRANCH   6   9
ATOM      9  C   UNL A   1      32.928  23.310  23.658  1.00  0.00     0.181 C 
ATOM     10  C   UNL A   1      32.231  22.629  22.463  1.00  0.00     0.085 C 
ATOM     11  C   UNL A   1      33.610  22.135  24.439  1.00  0.00     0.144 C 
ATOM     12  C   UNL A   1      32.073  21.131  22.780  1.00  0.00     0.072 C 
ATOM     13  C   UNL A   1      33.062  20.792  23.895  1.00  0.00     0.191 C 
BRANCH   9  14
ATOM     14  N   UNL A   1      31.903  24.081  24.400  1.00  0.00    -0.331 N 
ATOM     15  H   UNL A   1      32.108  25.070  24.254  1.00  0.00     0.347 HD
ATOM     16  H   UNL A   1      31.019  23.741  24.024  1.00  0.00     0.347 HD
BRANCH  14  17
ATOM     17  C   UNL A   1      31.779  23.883  25.811  1.00  0.00     0.176 C 
ATOM     18  C   UNL A   1      31.703  25.226  26.528  1.00  0.00     0.075 C 
ATOM     19  C   UNL A   1      30.622  22.971  26.199  1.00  0.00     0.075 C 
ENDBRANCH  14  17
ENDBRANCH   9  14
BRANCH  13  20
ATOM     20  N   UNL A   1      32.791  19.644  24.834  1.00  0.00    -0.332 N 
ATOM     21  C   UNL A   1      32.970  20.153  26.216  1.00  0.00     0.333 C 
ATOM     22  H   UNL A   1      31.847  19.358  24.573  1.00  0.00     0.348 HD
BRANCH  20  23
ATOM     23  C   UNL A   1      33.531  18.343  24.700  1.00  0.00     0.184 C 
ATOM     24  C   UNL A   1      32.962  17.194  25.597  1.00  0.00     0.065 C 
ATOM     25  C   UNL A   1      33.467  17.578  23.368  1.00  0.00     0.065 C 
ATOM     26  C   UNL A   1      33.477  15.865  25.041  1.00  0.00     0.006 C 
ATOM     27  C   UNL A   1      34.002  16.185  23.666  1.00  0.00     0.006 C 
ENDBRANCH  20  23
ENDBRANCH  13  20
ENDBRANCH   6   9
ENDBRANCH   4   5
ENDBRANCH   3   4
ENDBRANCH   2   3
ENDBRANCH   1   2
BRANCH   1  28
ATOM     28  C   UNL A   1      38.325  20.108  25.078  1.00  0.00     0.021 C 
BRANCH  28  29
ATOM     29  C   UNL A   1      39.442  20.471  26.043  1.00  0.00     0.116 C 
BRANCH  29  30
ATOM     30  N   UNL A   1      40.429  19.410  26.131  1.00  0.00    -0.352 N 
ATOM     31  C   UNL A   1      41.794  19.529  26.154  1.00  0.00     0.251 C 
ATOM     32  H   UNL A   1      40.075  18.493  26.180  1.00  0.00     0.163 HD
ATOM     33  O   UNL A   1      42.508  18.546  25.965  1.00  0.00    -0.269 OA
BRANCH  31  34
ATOM     34  C   UNL A   1      42.389  20.858  26.395  1.00  0.00     0.039 A 
ATOM     35  C   UNL A   1      42.746  21.653  25.305  1.00  0.00     0.014 A 
ATOM     36  C   UNL A   1      42.564  21.324  27.702  1.00  0.00     0.014 A 
ATOM     37  C   UNL A   1      43.241  22.937  25.528  1.00  0.00     0.010 A 
ATOM     38  C   UNL A   1      42.973  22.634  27.918  1.00  0.00     0.010 A 
ATOM     39  C   UNL A   1      43.332  23.448  26.835  1.00  0.00    -0.014 A 
BRANCH  39  40
ATOM     40  C   UNL A   1      43.822  24.826  27.087  1.00  0.00     0.031 A 
ATOM     41  C   UNL A   1      45.279  25.150  26.902  1.00  0.00     0.074 A 
ATOM     42  C   UNL A   1      42.965  25.766  27.534  1.00  0.00     0.049 A 
ATOM     43  N   UNL A   1      45.908  26.276  27.118  1.00  0.00    -0.248 NA
ATOM     44  C   UNL A   1      46.151  24.057  26.438  1.00  0.00     0.031 C 
ATOM     45  C   UNL A   1      41.541  25.555  27.800  1.00  0.00     0.029 A 
ATOM     46  N   UNL A   1      43.169  27.086  27.850  1.00  0.00    -0.354 N 
ATOM     47  C   UNL A   1      47.245  26.025  26.829  1.00  0.00     0.074 A 
ATOM     48  C   UNL A   1      47.348  24.625  26.482  1.00  0.00     0.031 C 
ATOM     49  C   UNL A   1      40.993  26.709  28.213  1.00  0.00     0.029 A 
ATOM     50  C   UNL A   1      42.033  27.730  28.283  1.00  0.00     0.049 A 
ATOM     51  H   UNL A   1      44.044  27.529  27.775  1.00  0.00     0.167 HD
ATOM     52  C   UNL A   1      48.287  26.889  26.831  1.00  0.00     0.037 A 
ATOM     53  C   UNL A   1      41.853  29.000  28.696  1.00  0.00     0.037 A 
ATOM     54  C   UNL A   1      48.168  28.286  27.156  1.00  0.00     0.049 A 
ATOM     55  C   UNL A   1      43.030  29.940  28.695  1.00  0.00     0.074 A 
ATOM     56  C   UNL A   1      49.149  29.261  27.126  1.00  0.00     0.029 A 
ATOM     57  N   UNL A   1      47.000  28.906  27.574  1.00  0.00    -0.354 N 
ATOM     58  N   UNL A   1      44.274  29.703  28.350  1.00  0.00    -0.248 NA
ATOM     59  C   UNL A   1      42.778  31.319  29.132  1.00  0.00     0.031 C 
ATOM     60  C   UNL A   1      48.589  30.458  27.582  1.00  0.00     0.029 A 
ATOM     61  C   UNL A   1      47.242  30.245  27.833  1.00  0.00     0.049 A 
ATOM     62  H   UNL A   1      46.127  28.462  27.671  1.00  0.00     0.167 HD
ATOM     63  C   UNL A   1      44.946  30.912  28.498  1.00  0.00     0.074 A 
ATOM     64  C   UNL A   1      43.967  31.879  28.952  1.00  0.00     0.031 C 
ATOM     65  C   UNL A   1      46.254  31.196  28.279  1.00  0.00     0.037 A 
BRANCH  52  66
ATOM     66  C   UNL A   1      49.645  26.350  26.471  1.00  0.00     0.058 A 
ATOM     67  C   UNL A   1      50.134  26.388  25.154  1.00  0.00     0.135 A 
ATOM     68  C   UNL A   1      50.488  25.823  27.464  1.00  0.00     0.135 A 
ATOM     69  F   UNL A   1      49.367  26.864  24.162  1.00  0.00    -0.206 F 
ATOM     70  C   UNL A   1      51.395  25.900  24.831  1.00  0.00     0.059 A 
ATOM     71  C   UNL A   1      51.767  25.358  27.169  1.00  0.00     0.059 A 
ATOM     72  F   UNL A   1      50.073  25.758  28.739  1.00  0.00    -0.206 F 
ATOM     73  C   UNL A   1      52.206  25.389  25.846  1.00  0.00     0.060 A 
BRANCH  73  74
ATOM     74  S   UNL A   1      53.845  24.771  25.411  1.00  0.00     0.124 S 
ATOM     75  O   UNL A   1      54.199  25.644  24.296  1.00  0.00    -0.237 OA
ATOM     76  O   UNL A   1      54.595  24.984  26.645  1.00  0.00    -0.237 OA
ATOM     77  O   UNL A   1      53.602  23.376  25.061  1.00  0.00    -0.744 OA
ENDBRANCH  73  74
ENDBRANCH  52  66
BRANCH  53  78
ATOM     78  C   UNL A   1      40.507  29.458  29.132  1.00  0.00     0.058 A 
ATOM     79  C   UNL A   1      39.464  29.624  28.207  1.00  0.00     0.135 A 
ATOM     80  C   UNL A   1      40.231  29.731  30.481  1.00  0.00     0.135 A 
ATOM     81  F   UNL A   1      39.677  29.380  26.905  1.00  0.00    -0.206 F 
ATOM     82  C   UNL A   1      38.204  30.065  28.599  1.00  0.00     0.059 A 
ATOM     83  C   UNL A   1      38.971  30.145  30.902  1.00  0.00     0.059 A 
ATOM     84  F   UNL A   1      41.188  29.571  31.409  1.00  0.00    -0.206 F 
ATOM     85  C   UNL A   1      37.968  30.321  29.951  1.00  0.00     0.060 A 
BRANCH  85  86
ATOM     86  S   UNL A   1      36.317  30.855  30.456  1.00  0.00     0.124 S 
ATOM     87  O   UNL A   1      36.600  32.150  31.060  1.00  0.00    -0.237 OA
ATOM     88  O   UNL A   1      35.604  30.885  29.182  1.00  0.00    -0.237 OA
ATOM     89  O   UNL A   1      35.894  29.805  31.378  1.00  0.00    -0.744 OA
ENDBRANCH  85  86
ENDBRANCH  53  78
BRANCH  65  90
ATOM     90  C   UNL A   1      46.700  32.619  28.487  1.00  0.00     0.058 A 
ATOM     91  C   UNL A   1      47.233  33.057  29.709  1.00  0.00     0.135 A 
ATOM     92  C   UNL A   1      46.644  33.540  27.428  1.00  0.00     0.135 A 
ATOM     93  F   UNL A   1      47.303  32.218  30.755  1.00  0.00    -0.206 F 
ATOM     94  C   UNL A   1      47.671  34.365  29.883  1.00  0.00     0.059 A 
ATOM     95  C   UNL A   1      47.107  34.844  27.570  1.00  0.00     0.059 A 
ATOM     96  F   UNL A   1      46.153  33.170  26.234  1.00  0.00    -0.206 F 
ATOM     97  C   UNL A   1      47.607  35.251  28.805  1.00  0.00     0.060 A 
BRANCH  97  98
ATOM     98  S   UNL A   1      48.211  36.936  29.034  1.00  0.00     0.124 S 
ATOM     99  O   UNL A   1      46.973  37.659  29.301  1.00  0.00    -0.237 OA
ATOM    100  O   UNL A   1      49.117  36.789  30.170  1.00  0.00    -0.237 OA
ATOM    101  O   UNL A   1      48.857  37.242  27.761  1.00  0.00    -0.744 OA
ENDBRANCH  97  98
ENDBRANCH  65  90
ENDBRANCH  39  40
ENDBRANCH  31  34
ENDBRANCH  29  30
ENDBRANCH  28  29
ENDBRANCH   1  28
TORSDOF 20
ENDMDL
