MODEL 1
REMARK VINA RESULT:     -10.3      0.000      0.000
REMARK SMILES C#CCN(CC(=O)NCCCCCCNC(=O)c1ccc(-c2c3nc(c(-c4c(F)cc(S(=O)(=O)[O-])cc4F)c4ccc([nH]4)c(-c4c(F)cc(S(=O)(=O)[O-])cc4F)c4nc(c(-c5c(F)cc(S(=O)(=O)[O-])cc5F)c5ccc2[nH]5)C=C4)C=C3)cc1)C(=O)N1CC[N@@H+]2CCC[C@H]2C1
REMARK SMILES IDX 11 1 10 2 9 3 8 4 6 5 7 6 5 8 4 9 3 10 2 11 1 12 84 13 85 14
REMARK SMILES IDX 86 15 87 16 94 17 88 18 93 19 89 20 92 21 90 22 91 24 12 25
REMARK SMILES IDX 13 26 14 27 15 28 16 29 17 31 18 32 19 33 83 34 20 35 82 36
REMARK SMILES IDX 21 37 22 38 23 39 76 40 24 41 81 42 75 43 77 44 25 45 80 46
REMARK SMILES IDX 74 47 73 48 26 50 60 51 39 52 59 53 40 54 43 55 58 56 78 57
REMARK SMILES IDX 41 58 42 59 57 61 79 62 44 63 27 64 28 65 37 66 29 67 30 68
REMARK SMILES IDX 36 69 38 70 31 71 32 72 33 73 34 74 35 75 61 76 62 77 71 78
REMARK SMILES IDX 63 79 64 80 70 81 72 82 65 83 66 84 67 85 68 86 69 87 45 88
REMARK SMILES IDX 46 89 55 90 47 91 48 92 54 93 56 94 49 95 50 96 51 97 52 98
REMARK SMILES IDX 53 99
REMARK H PARENT 8 7 89 23 15 30 77 49 43 60
REMARK Flexibility Score: inf
ROOT
ATOM      1  C   UNL A   1      31.023  28.105  24.358  1.00  0.00     0.002 C 
ENDROOT
BRANCH   1   2
ATOM      2  C   UNL A   1      30.946  26.906  25.310  1.00  0.00     0.021 C 
BRANCH   2   3
ATOM      3  C   UNL A   1      30.424  25.614  24.678  1.00  0.00     0.116 C 
BRANCH   3   4
ATOM      4  N   UNL A   1      29.986  24.631  25.641  1.00  0.00    -0.355 N 
ATOM      5  C   UNL A   1      30.695  23.876  26.525  1.00  0.00     0.239 C 
ATOM      6  O   UNL A   1      30.044  23.300  27.407  1.00  0.00    -0.273 OA
ATOM      7  H   UNL A   1      29.013  24.482  25.662  1.00  0.00     0.163 HD
BRANCH   5   8
ATOM      8  C   UNL A   1      32.233  23.801  26.538  1.00  0.00     0.222 C 
BRANCH   8   9
ATOM      9  N   UNL A   1      32.906  23.047  25.477  1.00  0.00    -0.304 N 
BRANCH   9  10
ATOM     10  C   UNL A   1      32.358  21.722  25.153  1.00  0.00     0.211 C 
BRANCH  10  11
ATOM     11  C   UNL A   1      32.209  21.503  23.657  1.00  0.00    -0.085 C 
ATOM     12  C   UNL A   1      32.081  21.315  22.374  1.00  0.00     0.006 C 
ENDBRANCH  10  11
ENDBRANCH   9  10
BRANCH   9  13
ATOM     13  C   UNL A   1      33.898  23.572  24.648  1.00  0.00     0.321 C 
ATOM     14  O   UNL A   1      33.660  24.444  23.812  1.00  0.00    -0.248 OA
BRANCH  13  15
ATOM     15  N   UNL A   1      35.200  23.159  24.871  1.00  0.00    -0.313 N 
ATOM     16  C   UNL A   1      35.906  22.280  23.928  1.00  0.00     0.183 C 
ATOM     17  C   UNL A   1      36.118  24.103  25.538  1.00  0.00     0.186 C 
ATOM     18  C   UNL A   1      37.045  21.497  24.623  1.00  0.00     0.284 C 
ATOM     19  C   UNL A   1      37.274  23.326  26.190  1.00  0.00     0.204 C 
ATOM     20  N   UNL A   1      37.973  22.459  25.221  1.00  0.00    -0.330 N 
ATOM     21  C   UNL A   1      38.444  24.135  26.730  1.00  0.00     0.073 C 
ATOM     22  C   UNL A   1      39.097  21.910  25.960  1.00  0.00     0.262 C 
ATOM     23  H   UNL A   1      38.336  22.944  24.400  1.00  0.00     0.348 HD
ATOM     24  C   UNL A   1      39.636  23.167  26.645  1.00  0.00     0.068 C 
ENDBRANCH  13  15
ENDBRANCH   9  13
ENDBRANCH   8   9
ENDBRANCH   5   8
ENDBRANCH   3   4
ENDBRANCH   2   3
ENDBRANCH   1   2
BRANCH   1  25
ATOM     25  C   UNL A   1      32.271  28.981  24.501  1.00  0.00     0.002 C 
BRANCH  25  26
ATOM     26  C   UNL A   1      33.551  28.240  24.903  1.00  0.00     0.021 C 
BRANCH  26  27
ATOM     27  C   UNL A   1      34.076  28.584  26.292  1.00  0.00     0.116 C 
BRANCH  27  28
ATOM     28  N   UNL A   1      33.905  29.995  26.600  1.00  0.00    -0.352 N 
ATOM     29  C   UNL A   1      34.590  30.781  27.494  1.00  0.00     0.251 C 
ATOM     30  H   UNL A   1      33.196  30.452  26.094  1.00  0.00     0.163 HD
ATOM     31  O   UNL A   1      34.157  31.892  27.784  1.00  0.00    -0.269 OA
BRANCH  29  32
ATOM     32  C   UNL A   1      35.835  30.282  28.120  1.00  0.00     0.039 A 
ATOM     33  C   UNL A   1      37.045  30.440  27.440  1.00  0.00     0.014 A 
ATOM     34  C   UNL A   1      35.809  29.644  29.364  1.00  0.00     0.014 A 
ATOM     35  C   UNL A   1      38.235  30.012  28.035  1.00  0.00     0.010 A 
ATOM     36  C   UNL A   1      37.002  29.288  29.987  1.00  0.00     0.010 A 
ATOM     37  C   UNL A   1      38.228  29.463  29.328  1.00  0.00    -0.014 A 
BRANCH  37  38
ATOM     38  C   UNL A   1      39.490  29.065  30.003  1.00  0.00     0.031 A 
ATOM     39  C   UNL A   1      39.961  29.806  31.226  1.00  0.00     0.074 A 
ATOM     40  C   UNL A   1      40.241  28.073  29.482  1.00  0.00     0.049 A 
ATOM     41  N   UNL A   1      41.065  29.650  31.912  1.00  0.00    -0.248 NA
ATOM     42  C   UNL A   1      39.089  30.879  31.732  1.00  0.00     0.031 C 
ATOM     43  C   UNL A   1      39.914  27.308  28.277  1.00  0.00     0.029 A 
ATOM     44  N   UNL A   1      41.439  27.542  29.894  1.00  0.00    -0.354 N 
ATOM     45  C   UNL A   1      41.024  30.607  32.921  1.00  0.00     0.074 A 
ATOM     46  C   UNL A   1      39.815  31.376  32.724  1.00  0.00     0.031 C 
ATOM     47  C   UNL A   1      40.874  26.395  28.059  1.00  0.00     0.029 A 
ATOM     48  C   UNL A   1      41.906  26.535  29.080  1.00  0.00     0.049 A 
ATOM     49  H   UNL A   1      41.918  27.853  30.695  1.00  0.00     0.167 HD
ATOM     50  C   UNL A   1      41.902  30.810  33.932  1.00  0.00     0.037 A 
ATOM     51  C   UNL A   1      43.043  25.815  29.144  1.00  0.00     0.037 A 
ATOM     52  C   UNL A   1      43.093  30.026  34.134  1.00  0.00     0.049 A 
ATOM     53  C   UNL A   1      44.011  26.072  30.268  1.00  0.00     0.074 A 
ATOM     54  C   UNL A   1      44.020  30.120  35.157  1.00  0.00     0.029 A 
ATOM     55  N   UNL A   1      43.525  29.007  33.297  1.00  0.00    -0.354 N 
ATOM     56  N   UNL A   1      43.924  26.940  31.248  1.00  0.00    -0.248 NA
ATOM     57  C   UNL A   1      45.228  25.249  30.301  1.00  0.00     0.031 C 
ATOM     58  C   UNL A   1      45.037  29.193  34.912  1.00  0.00     0.029 A 
ATOM     59  C   UNL A   1      44.716  28.480  33.769  1.00  0.00     0.049 A 
ATOM     60  H   UNL A   1      43.053  28.702  32.489  1.00  0.00     0.167 HD
ATOM     61  C   UNL A   1      45.058  26.744  32.030  1.00  0.00     0.074 A 
ATOM     62  C   UNL A   1      45.807  25.668  31.418  1.00  0.00     0.031 C 
ATOM     63  C   UNL A   1      45.445  27.398  33.154  1.00  0.00     0.037 A 
BRANCH  50  64
ATOM     64  C   UNL A   1      41.606  31.916  34.909  1.00  0.00     0.058 A 
ATOM     65  C   UNL A   1      42.128  33.209  34.738  1.00  0.00     0.135 A 
ATOM     66  C   UNL A   1      40.743  31.699  35.995  1.00  0.00     0.135 A 
ATOM     67  F   UNL A   1      42.970  33.469  33.726  1.00  0.00    -0.206 F 
ATOM     68  C   UNL A   1      41.823  34.239  35.621  1.00  0.00     0.059 A 
ATOM     69  C   UNL A   1      40.401  32.723  36.875  1.00  0.00     0.059 A 
ATOM     70  F   UNL A   1      40.216  30.482  36.208  1.00  0.00    -0.206 F 
ATOM     71  C   UNL A   1      40.955  33.988  36.685  1.00  0.00     0.060 A 
BRANCH  71  72
ATOM     72  S   UNL A   1      40.551  35.344  37.805  1.00  0.00     0.124 S 
ATOM     73  O   UNL A   1      40.983  36.502  37.028  1.00  0.00    -0.237 OA
ATOM     74  O   UNL A   1      39.107  35.194  37.966  1.00  0.00    -0.237 OA
ATOM     75  O   UNL A   1      41.344  35.054  38.994  1.00  0.00    -0.744 OA
ENDBRANCH  71  72
ENDBRANCH  50  64
BRANCH  51  76
ATOM     76  C   UNL A   1      43.330  24.775  28.117  1.00  0.00     0.058 A 
ATOM     77  C   UNL A   1      42.956  23.438  28.318  1.00  0.00     0.135 A 
ATOM     78  C   UNL A   1      43.991  25.094  26.921  1.00  0.00     0.135 A 
ATOM     79  F   UNL A   1      42.326  23.080  29.447  1.00  0.00    -0.206 F 
ATOM     80  C   UNL A   1      43.252  22.448  27.385  1.00  0.00     0.059 A 
ATOM     81  C   UNL A   1      44.272  24.129  25.959  1.00  0.00     0.059 A 
ATOM     82  F   UNL A   1      44.354  26.362  26.670  1.00  0.00    -0.206 F 
ATOM     83  C   UNL A   1      43.913  22.806  26.207  1.00  0.00     0.060 A 
BRANCH  83  84
ATOM     84  S   UNL A   1      44.270  21.520  24.991  1.00  0.00     0.124 S 
ATOM     85  O   UNL A   1      43.197  20.567  25.247  1.00  0.00    -0.237 OA
ATOM     86  O   UNL A   1      44.185  22.256  23.733  1.00  0.00    -0.237 OA
ATOM     87  O   UNL A   1      45.611  21.075  25.358  1.00  0.00    -0.744 OA
ENDBRANCH  83  84
ENDBRANCH  51  76
BRANCH  63  88
ATOM     88  C   UNL A   1      46.714  26.942  33.821  1.00  0.00     0.058 A 
ATOM     89  C   UNL A   1      46.722  25.911  34.774  1.00  0.00     0.135 A 
ATOM     90  C   UNL A   1      47.947  27.511  33.462  1.00  0.00     0.135 A 
ATOM     91  F   UNL A   1      45.571  25.338  35.159  1.00  0.00    -0.206 F 
ATOM     92  C   UNL A   1      47.904  25.479  35.366  1.00  0.00     0.059 A 
ATOM     93  C   UNL A   1      49.145  27.072  34.017  1.00  0.00     0.059 A 
ATOM     94  F   UNL A   1      47.998  28.493  32.547  1.00  0.00    -0.206 F 
ATOM     95  C   UNL A   1      49.111  26.063  34.978  1.00  0.00     0.060 A 
BRANCH  95  96
ATOM     96  S   UNL A   1      50.641  25.468  35.729  1.00  0.00     0.124 S 
ATOM     97  O   UNL A   1      50.627  26.160  37.014  1.00  0.00    -0.237 OA
ATOM     98  O   UNL A   1      50.420  24.026  35.783  1.00  0.00    -0.237 OA
ATOM     99  O   UNL A   1      51.673  25.903  34.793  1.00  0.00    -0.744 OA
ENDBRANCH  95  96
ENDBRANCH  63  88
ENDBRANCH  37  38
ENDBRANCH  29  32
ENDBRANCH  27  28
ENDBRANCH  26  27
ENDBRANCH  25  26
ENDBRANCH   1  25
TORSDOF 21
ENDMDL
MODEL 2
REMARK VINA RESULT:     -10.2      2.299      2.896
REMARK SMILES C#CCN(CC(=O)NCCCCCCNC(=O)c1ccc(-c2c3nc(c(-c4c(F)cc(S(=O)(=O)[O-])cc4F)c4ccc([nH]4)c(-c4c(F)cc(S(=O)(=O)[O-])cc4F)c4nc(c(-c5c(F)cc(S(=O)(=O)[O-])cc5F)c5ccc2[nH]5)C=C4)C=C3)cc1)C(=O)N1CC[N@@H+]2CCC[C@H]2C1
REMARK SMILES IDX 11 1 10 2 9 3 8 4 6 5 7 6 5 8 4 9 3 10 2 11 1 12 84 13 85 14
REMARK SMILES IDX 86 15 87 16 94 17 88 18 93 19 89 20 92 21 90 22 91 24 12 25
REMARK SMILES IDX 13 26 14 27 15 28 16 29 17 31 18 32 19 33 83 34 20 35 82 36
REMARK SMILES IDX 21 37 22 38 23 39 76 40 24 41 81 42 75 43 77 44 25 45 80 46
REMARK SMILES IDX 74 47 73 48 26 50 60 51 39 52 59 53 40 54 43 55 58 56 78 57
REMARK SMILES IDX 41 58 42 59 57 61 79 62 44 63 27 64 28 65 37 66 29 67 30 68
REMARK SMILES IDX 36 69 38 70 31 71 32 72 33 73 34 74 35 75 61 76 62 77 71 78
REMARK SMILES IDX 63 79 64 80 70 81 72 82 65 83 66 84 67 85 68 86 69 87 45 88
REMARK SMILES IDX 46 89 55 90 47 91 48 92 54 93 56 94 49 95 50 96 51 97 52 98
REMARK SMILES IDX 53 99
REMARK H PARENT 8 7 89 23 15 30 77 49 43 60
REMARK Flexibility Score: inf
ROOT
ATOM      1  C   UNL A   1      31.275  28.489  24.825  1.00  0.00     0.002 C 
ENDROOT
BRANCH   1   2
ATOM      2  C   UNL A   1      30.955  27.239  25.652  1.00  0.00     0.021 C 
BRANCH   2   3
ATOM      3  C   UNL A   1      30.013  26.242  24.972  1.00  0.00     0.116 C 
BRANCH   3   4
ATOM      4  N   UNL A   1      29.686  25.099  25.793  1.00  0.00    -0.355 N 
ATOM      5  C   UNL A   1      30.490  24.185  26.403  1.00  0.00     0.239 C 
ATOM      6  O   UNL A   1      29.956  23.459  27.252  1.00  0.00    -0.273 OA
ATOM      7  H   UNL A   1      28.722  24.957  25.934  1.00  0.00     0.163 HD
BRANCH   5   8
ATOM      8  C   UNL A   1      32.009  24.095  26.166  1.00  0.00     0.222 C 
BRANCH   8   9
ATOM      9  N   UNL A   1      32.488  23.656  24.854  1.00  0.00    -0.304 N 
BRANCH   9  10
ATOM     10  C   UNL A   1      31.648  22.693  24.128  1.00  0.00     0.211 C 
BRANCH  10  11
ATOM     11  C   UNL A   1      32.248  21.296  24.106  1.00  0.00    -0.085 C 
ATOM     12  C   UNL A   1      32.762  20.099  24.088  1.00  0.00     0.006 C 
ENDBRANCH  10  11
ENDBRANCH   9  10
BRANCH   9  13
ATOM     13  C   UNL A   1      33.574  24.222  24.184  1.00  0.00     0.321 C 
ATOM     14  O   UNL A   1      33.461  25.228  23.484  1.00  0.00    -0.248 OA
BRANCH  13  15
ATOM     15  N   UNL A   1      34.824  23.676  24.422  1.00  0.00    -0.313 N 
ATOM     16  C   UNL A   1      35.557  22.939  23.382  1.00  0.00     0.183 C 
ATOM     17  C   UNL A   1      35.734  24.406  25.326  1.00  0.00     0.186 C 
ATOM     18  C   UNL A   1      36.581  21.955  23.998  1.00  0.00     0.284 C 
ATOM     19  C   UNL A   1      36.778  23.435  25.901  1.00  0.00     0.204 C 
ATOM     20  N   UNL A   1      37.508  22.715  24.838  1.00  0.00    -0.330 N 
ATOM     21  C   UNL A   1      37.942  24.037  26.675  1.00  0.00     0.073 C 
ATOM     22  C   UNL A   1      38.526  21.954  25.541  1.00  0.00     0.262 C 
ATOM     23  H   UNL A   1      37.971  23.317  24.157  1.00  0.00     0.348 HD
ATOM     24  C   UNL A   1      39.076  23.014  26.495  1.00  0.00     0.068 C 
ENDBRANCH  13  15
ENDBRANCH   9  13
ENDBRANCH   8   9
ENDBRANCH   5   8
ENDBRANCH   3   4
ENDBRANCH   2   3
ENDBRANCH   1   2
BRANCH   1  25
ATOM     25  C   UNL A   1      32.713  29.004  24.939  1.00  0.00     0.002 C 
BRANCH  25  26
ATOM     26  C   UNL A   1      33.683  28.082  25.684  1.00  0.00     0.021 C 
BRANCH  26  27
ATOM     27  C   UNL A   1      33.789  28.345  27.182  1.00  0.00     0.116 C 
BRANCH  27  28
ATOM     28  N   UNL A   1      33.634  29.757  27.495  1.00  0.00    -0.352 N 
ATOM     29  C   UNL A   1      34.490  30.603  28.156  1.00  0.00     0.251 C 
ATOM     30  H   UNL A   1      32.793  30.165  27.187  1.00  0.00     0.163 HD
ATOM     31  O   UNL A   1      34.094  31.703  28.527  1.00  0.00    -0.269 OA
BRANCH  29  32
ATOM     32  C   UNL A   1      35.881  30.180  28.435  1.00  0.00     0.039 A 
ATOM     33  C   UNL A   1      36.832  30.263  27.415  1.00  0.00     0.014 A 
ATOM     34  C   UNL A   1      36.244  29.688  29.693  1.00  0.00     0.014 A 
ATOM     35  C   UNL A   1      38.158  29.907  27.675  1.00  0.00     0.010 A 
ATOM     36  C   UNL A   1      37.579  29.407  29.970  1.00  0.00     0.010 A 
ATOM     37  C   UNL A   1      38.551  29.508  28.964  1.00  0.00    -0.014 A 
BRANCH  37  38
ATOM     38  C   UNL A   1      39.969  29.193  29.274  1.00  0.00     0.031 A 
ATOM     39  C   UNL A   1      40.855  30.231  29.910  1.00  0.00     0.074 A 
ATOM     40  C   UNL A   1      40.475  27.989  28.933  1.00  0.00     0.049 A 
ATOM     41  N   UNL A   1      42.130  30.166  30.196  1.00  0.00    -0.248 NA
ATOM     42  C   UNL A   1      40.231  31.521  30.249  1.00  0.00     0.031 C 
ATOM     43  C   UNL A   1      39.729  26.915  28.273  1.00  0.00     0.029 A 
ATOM     44  N   UNL A   1      41.737  27.470  29.085  1.00  0.00    -0.354 N 
ATOM     45  C   UNL A   1      42.463  31.403  30.737  1.00  0.00     0.074 A 
ATOM     46  C   UNL A   1      41.269  32.219  30.689  1.00  0.00     0.031 C 
ATOM     47  C   UNL A   1      40.540  25.860  28.096  1.00  0.00     0.029 A 
ATOM     48  C   UNL A   1      41.872  26.193  28.589  1.00  0.00     0.049 A 
ATOM     49  H   UNL A   1      42.475  27.964  29.507  1.00  0.00     0.167 HD
ATOM     50  C   UNL A   1      43.647  31.813  31.250  1.00  0.00     0.037 A 
ATOM     51  C   UNL A   1      42.951  25.388  28.527  1.00  0.00     0.037 A 
ATOM     52  C   UNL A   1      44.826  30.988  31.313  1.00  0.00     0.049 A 
ATOM     53  C   UNL A   1      44.261  25.874  29.088  1.00  0.00     0.074 A 
ATOM     54  C   UNL A   1      46.060  31.293  31.859  1.00  0.00     0.029 A 
ATOM     55  N   UNL A   1      44.919  29.697  30.813  1.00  0.00    -0.354 N 
ATOM     56  N   UNL A   1      44.539  27.025  29.652  1.00  0.00    -0.248 NA
ATOM     57  C   UNL A   1      45.401  24.951  29.011  1.00  0.00     0.031 C 
ATOM     58  C   UNL A   1      46.914  30.207  31.645  1.00  0.00     0.029 A 
ATOM     59  C   UNL A   1      46.197  29.202  31.019  1.00  0.00     0.049 A 
ATOM     60  H   UNL A   1      44.186  29.205  30.379  1.00  0.00     0.167 HD
ATOM     61  C   UNL A   1      45.877  26.951  30.025  1.00  0.00     0.074 A 
ATOM     62  C   UNL A   1      46.348  25.639  29.635  1.00  0.00     0.031 C 
ATOM     63  C   UNL A   1      46.648  27.886  30.635  1.00  0.00     0.037 A 
BRANCH  50  64
ATOM     64  C   UNL A   1      43.731  33.213  31.794  1.00  0.00     0.058 A 
ATOM     65  C   UNL A   1      44.032  34.309  30.968  1.00  0.00     0.135 A 
ATOM     66  C   UNL A   1      43.450  33.474  33.145  1.00  0.00     0.135 A 
ATOM     67  F   UNL A   1      44.325  34.117  29.672  1.00  0.00    -0.206 F 
ATOM     68  C   UNL A   1      44.073  35.606  31.465  1.00  0.00     0.059 A 
ATOM     69  C   UNL A   1      43.455  34.768  33.658  1.00  0.00     0.059 A 
ATOM     70  F   UNL A   1      43.157  32.464  33.982  1.00  0.00    -0.206 F 
ATOM     71  C   UNL A   1      43.778  35.827  32.812  1.00  0.00     0.060 A 
BRANCH  71  72
ATOM     72  S   UNL A   1      43.810  37.521  33.433  1.00  0.00     0.124 S 
ATOM     73  O   UNL A   1      44.982  37.491  34.302  1.00  0.00    -0.237 OA
ATOM     74  O   UNL A   1      43.951  38.300  32.205  1.00  0.00    -0.237 OA
ATOM     75  O   UNL A   1      42.528  37.660  34.115  1.00  0.00    -0.744 OA
ENDBRANCH  71  72
ENDBRANCH  50  64
BRANCH  51  76
ATOM     76  C   UNL A   1      42.840  24.034  27.918  1.00  0.00     0.058 A 
ATOM     77  C   UNL A   1      42.935  23.854  26.529  1.00  0.00     0.135 A 
ATOM     78  C   UNL A   1      42.627  22.893  28.709  1.00  0.00     0.135 A 
ATOM     79  F   UNL A   1      43.134  24.913  25.729  1.00  0.00    -0.206 F 
ATOM     80  C   UNL A   1      42.795  22.600  25.943  1.00  0.00     0.059 A 
ATOM     81  C   UNL A   1      42.513  21.624  28.149  1.00  0.00     0.059 A 
ATOM     82  F   UNL A   1      42.547  23.006  30.043  1.00  0.00    -0.206 F 
ATOM     83  C   UNL A   1      42.583  21.490  26.764  1.00  0.00     0.060 A 
BRANCH  83  84
ATOM     84  S   UNL A   1      42.427  19.863  25.996  1.00  0.00     0.124 S 
ATOM     85  O   UNL A   1      43.473  19.915  24.982  1.00  0.00    -0.237 OA
ATOM     86  O   UNL A   1      42.672  18.968  27.123  1.00  0.00    -0.237 OA
ATOM     87  O   UNL A   1      41.057  19.861  25.491  1.00  0.00    -0.744 OA
ENDBRANCH  83  84
ENDBRANCH  51  76
BRANCH  63  88
ATOM     88  C   UNL A   1      48.069  27.513  30.958  1.00  0.00     0.058 A 
ATOM     89  C   UNL A   1      48.403  26.802  32.121  1.00  0.00     0.135 A 
ATOM     90  C   UNL A   1      49.104  27.826  30.062  1.00  0.00     0.135 A 
ATOM     91  F   UNL A   1      47.453  26.483  33.015  1.00  0.00    -0.206 F 
ATOM     92  C   UNL A   1      49.717  26.438  32.398  1.00  0.00     0.059 A 
ATOM     93  C   UNL A   1      50.421  27.444  30.303  1.00  0.00     0.059 A 
ATOM     94  F   UNL A   1      48.839  28.495  28.928  1.00  0.00    -0.206 F 
ATOM     95  C   UNL A   1      50.718  26.761  31.480  1.00  0.00     0.060 A 
BRANCH  95  96
ATOM     96  S   UNL A   1      52.413  26.252  31.836  1.00  0.00     0.124 S 
ATOM     97  O   UNL A   1      52.208  25.260  32.887  1.00  0.00    -0.237 OA
ATOM     98  O   UNL A   1      52.858  25.727  30.548  1.00  0.00    -0.237 OA
ATOM     99  O   UNL A   1      53.060  27.490  32.258  1.00  0.00    -0.744 OA
ENDBRANCH  95  96
ENDBRANCH  63  88
ENDBRANCH  37  38
ENDBRANCH  29  32
ENDBRANCH  27  28
ENDBRANCH  26  27
ENDBRANCH  25  26
ENDBRANCH   1  25
TORSDOF 21
ENDMDL
MODEL 3
REMARK VINA RESULT:     -10.1      3.125      9.647
REMARK SMILES C#CCN(CC(=O)NCCCCCCNC(=O)c1ccc(-c2c3nc(c(-c4c(F)cc(S(=O)(=O)[O-])cc4F)c4ccc([nH]4)c(-c4c(F)cc(S(=O)(=O)[O-])cc4F)c4nc(c(-c5c(F)cc(S(=O)(=O)[O-])cc5F)c5ccc2[nH]5)C=C4)C=C3)cc1)C(=O)N1CC[N@@H+]2CCC[C@H]2C1
REMARK SMILES IDX 11 1 10 2 9 3 8 4 6 5 7 6 5 8 4 9 3 10 2 11 1 12 84 13 85 14
REMARK SMILES IDX 86 15 87 16 94 17 88 18 93 19 89 20 92 21 90 22 91 24 12 25
REMARK SMILES IDX 13 26 14 27 15 28 16 29 17 31 18 32 19 33 83 34 20 35 82 36
REMARK SMILES IDX 21 37 22 38 23 39 76 40 24 41 81 42 75 43 77 44 25 45 80 46
REMARK SMILES IDX 74 47 73 48 26 50 60 51 39 52 59 53 40 54 43 55 58 56 78 57
REMARK SMILES IDX 41 58 42 59 57 61 79 62 44 63 27 64 28 65 37 66 29 67 30 68
REMARK SMILES IDX 36 69 38 70 31 71 32 72 33 73 34 74 35 75 61 76 62 77 71 78
REMARK SMILES IDX 63 79 64 80 70 81 72 82 65 83 66 84 67 85 68 86 69 87 45 88
REMARK SMILES IDX 46 89 55 90 47 91 48 92 54 93 56 94 49 95 50 96 51 97 52 98
REMARK SMILES IDX 53 99
REMARK H PARENT 8 7 89 23 15 30 77 49 43 60
REMARK Flexibility Score: inf
ROOT
ATOM      1  C   UNL A   1      40.457  22.245  27.507  1.00  0.00     0.002 C 
ENDROOT
BRANCH   1   2
ATOM      2  C   UNL A   1      39.482  22.770  26.446  1.00  0.00     0.021 C 
BRANCH   2   3
ATOM      3  C   UNL A   1      38.610  21.699  25.787  1.00  0.00     0.116 C 
BRANCH   3   4
ATOM      4  N   UNL A   1      37.772  22.205  24.725  1.00  0.00    -0.355 N 
ATOM      5  C   UNL A   1      36.478  21.925  24.405  1.00  0.00     0.239 C 
ATOM      6  O   UNL A   1      35.929  22.690  23.601  1.00  0.00    -0.273 OA
ATOM      7  H   UNL A   1      38.207  22.861  24.135  1.00  0.00     0.163 HD
BRANCH   5   8
ATOM      8  C   UNL A   1      35.663  20.796  25.065  1.00  0.00     0.222 C 
BRANCH   8   9
ATOM      9  N   UNL A   1      34.266  21.056  25.419  1.00  0.00    -0.304 N 
BRANCH   9  10
ATOM     10  C   UNL A   1      33.239  20.385  24.608  1.00  0.00     0.211 C 
BRANCH  10  11
ATOM     11  C   UNL A   1      33.622  18.960  24.246  1.00  0.00    -0.085 C 
ATOM     12  C   UNL A   1      33.950  17.738  23.935  1.00  0.00     0.006 C 
ENDBRANCH  10  11
ENDBRANCH   9  10
BRANCH   9  13
ATOM     13  C   UNL A   1      33.860  21.739  26.566  1.00  0.00     0.321 C 
ATOM     14  O   UNL A   1      34.164  21.360  27.697  1.00  0.00    -0.248 OA
BRANCH  13  15
ATOM     15  N   UNL A   1      33.188  22.937  26.391  1.00  0.00    -0.313 N 
ATOM     16  C   UNL A   1      31.939  23.236  27.105  1.00  0.00     0.183 C 
ATOM     17  C   UNL A   1      33.995  24.151  26.158  1.00  0.00     0.186 C 
ATOM     18  C   UNL A   1      31.091  24.288  26.351  1.00  0.00     0.284 C 
ATOM     19  C   UNL A   1      33.137  25.212  25.449  1.00  0.00     0.204 C 
ATOM     20  N   UNL A   1      31.893  25.503  26.191  1.00  0.00    -0.330 N 
ATOM     21  C   UNL A   1      33.717  26.613  25.326  1.00  0.00     0.073 C 
ATOM     22  C   UNL A   1      31.278  26.601  25.464  1.00  0.00     0.262 C 
ATOM     23  H   UNL A   1      32.033  25.797  27.158  1.00  0.00     0.348 HD
ATOM     24  C   UNL A   1      32.480  27.524  25.262  1.00  0.00     0.068 C 
ENDBRANCH  13  15
ENDBRANCH   9  13
ENDBRANCH   8   9
ENDBRANCH   5   8
ENDBRANCH   3   4
ENDBRANCH   2   3
ENDBRANCH   1   2
BRANCH   1  25
ATOM     25  C   UNL A   1      41.832  21.820  26.984  1.00  0.00     0.002 C 
BRANCH  25  26
ATOM     26  C   UNL A   1      43.021  22.227  27.859  1.00  0.00     0.021 C 
BRANCH  26  27
ATOM     27  C   UNL A   1      43.496  23.662  27.662  1.00  0.00     0.116 C 
BRANCH  27  28
ATOM     28  N   UNL A   1      43.046  24.209  26.392  1.00  0.00    -0.352 N 
ATOM     29  C   UNL A   1      42.256  25.305  26.145  1.00  0.00     0.251 C 
ATOM     30  H   UNL A   1      43.353  23.723  25.593  1.00  0.00     0.163 HD
ATOM     31  O   UNL A   1      41.794  25.482  25.023  1.00  0.00    -0.269 OA
BRANCH  29  32
ATOM     32  C   UNL A   1      41.950  26.259  27.235  1.00  0.00     0.039 A 
ATOM     33  C   UNL A   1      40.930  25.949  28.139  1.00  0.00     0.014 A 
ATOM     34  C   UNL A   1      42.653  27.461  27.357  1.00  0.00     0.014 A 
ATOM     35  C   UNL A   1      40.656  26.819  29.198  1.00  0.00     0.010 A 
ATOM     36  C   UNL A   1      42.430  28.287  28.455  1.00  0.00     0.010 A 
ATOM     37  C   UNL A   1      41.426  27.979  29.385  1.00  0.00    -0.014 A 
BRANCH  37  38
ATOM     38  C   UNL A   1      41.194  28.879  30.545  1.00  0.00     0.031 A 
ATOM     39  C   UNL A   1      42.037  28.748  31.786  1.00  0.00     0.074 A 
ATOM     40  C   UNL A   1      40.188  29.776  30.501  1.00  0.00     0.049 A 
ATOM     41  N   UNL A   1      41.943  29.395  32.920  1.00  0.00    -0.248 NA
ATOM     42  C   UNL A   1      43.113  27.743  31.758  1.00  0.00     0.031 C 
ATOM     43  C   UNL A   1      39.275  29.968  29.373  1.00  0.00     0.029 A 
ATOM     44  N   UNL A   1      39.758  30.689  31.433  1.00  0.00    -0.354 N 
ATOM     45  C   UNL A   1      42.936  28.871  33.740  1.00  0.00     0.074 A 
ATOM     46  C   UNL A   1      43.585  27.815  32.994  1.00  0.00     0.031 C 
ATOM     47  C   UNL A   1      38.407  30.950  29.669  1.00  0.00     0.029 A 
ATOM     48  C   UNL A   1      38.673  31.428  31.021  1.00  0.00     0.049 A 
ATOM     49  H   UNL A   1      40.185  30.802  32.312  1.00  0.00     0.167 HD
ATOM     50  C   UNL A   1      43.291  29.252  34.990  1.00  0.00     0.037 A 
ATOM     51  C   UNL A   1      37.965  32.377  31.666  1.00  0.00     0.037 A 
ATOM     52  C   UNL A   1      42.653  30.319  35.718  1.00  0.00     0.049 A 
ATOM     53  C   UNL A   1      38.368  32.770  33.063  1.00  0.00     0.074 A 
ATOM     54  C   UNL A   1      42.972  30.814  36.970  1.00  0.00     0.029 A 
ATOM     55  N   UNL A   1      41.568  31.053  35.263  1.00  0.00    -0.354 N 
ATOM     56  N   UNL A   1      39.351  32.305  33.798  1.00  0.00    -0.248 NA
ATOM     57  C   UNL A   1      37.574  33.819  33.715  1.00  0.00     0.031 C 
ATOM     58  C   UNL A   1      42.049  31.814  37.293  1.00  0.00     0.029 A 
ATOM     59  C   UNL A   1      41.191  31.982  36.219  1.00  0.00     0.049 A 
ATOM     60  H   UNL A   1      41.131  30.933  34.389  1.00  0.00     0.167 HD
ATOM     61  C   UNL A   1      39.310  33.028  34.985  1.00  0.00     0.074 A 
ATOM     62  C   UNL A   1      38.217  33.970  34.865  1.00  0.00     0.031 C 
ATOM     63  C   UNL A   1      40.107  32.923  36.079  1.00  0.00     0.037 A 
BRANCH  50  64
ATOM     64  C   UNL A   1      44.427  28.521  35.652  1.00  0.00     0.058 A 
ATOM     65  C   UNL A   1      45.763  28.914  35.469  1.00  0.00     0.135 A 
ATOM     66  C   UNL A   1      44.176  27.450  36.526  1.00  0.00     0.135 A 
ATOM     67  F   UNL A   1      46.063  29.920  34.633  1.00  0.00    -0.206 F 
ATOM     68  C   UNL A   1      46.809  28.260  36.112  1.00  0.00     0.059 A 
ATOM     69  C   UNL A   1      45.205  26.800  37.203  1.00  0.00     0.059 A 
ATOM     70  F   UNL A   1      42.918  27.030  36.737  1.00  0.00    -0.206 F 
ATOM     71  C   UNL A   1      46.520  27.206  36.980  1.00  0.00     0.060 A 
BRANCH  71  72
ATOM     72  S   UNL A   1      47.888  26.387  37.825  1.00  0.00     0.124 S 
ATOM     73  O   UNL A   1      49.041  26.957  37.133  1.00  0.00    -0.237 OA
ATOM     74  O   UNL A   1      47.703  26.819  39.208  1.00  0.00    -0.237 OA
ATOM     75  O   UNL A   1      47.645  24.970  37.576  1.00  0.00    -0.744 OA
ENDBRANCH  71  72
ENDBRANCH  50  64
BRANCH  51  76
ATOM     76  C   UNL A   1      36.804  33.028  30.999  1.00  0.00     0.058 A 
ATOM     77  C   UNL A   1      36.993  33.990  29.995  1.00  0.00     0.135 A 
ATOM     78  C   UNL A   1      35.484  32.712  31.358  1.00  0.00     0.135 A 
ATOM     79  F   UNL A   1      38.235  34.331  29.619  1.00  0.00    -0.206 F 
ATOM     80  C   UNL A   1      35.919  34.636  29.390  1.00  0.00     0.059 A 
ATOM     81  C   UNL A   1      34.393  33.322  30.747  1.00  0.00     0.059 A 
ATOM     82  F   UNL A   1      35.247  31.785  32.299  1.00  0.00    -0.206 F 
ATOM     83  C   UNL A   1      34.621  34.294  29.775  1.00  0.00     0.060 A 
BRANCH  83  84
ATOM     84  S   UNL A   1      33.232  35.119  28.966  1.00  0.00     0.124 S 
ATOM     85  O   UNL A   1      32.762  34.080  28.058  1.00  0.00    -0.237 OA
ATOM     86  O   UNL A   1      32.359  35.425  30.095  1.00  0.00    -0.237 OA
ATOM     87  O   UNL A   1      33.854  36.278  28.333  1.00  0.00    -0.744 OA
ENDBRANCH  83  84
ENDBRANCH  51  76
BRANCH  63  88
ATOM     88  C   UNL A   1      39.855  33.874  37.217  1.00  0.00     0.058 A 
ATOM     89  C   UNL A   1      40.387  35.173  37.229  1.00  0.00     0.135 A 
ATOM     90  C   UNL A   1      39.025  33.496  38.286  1.00  0.00     0.135 A 
ATOM     91  F   UNL A   1      41.192  35.583  36.236  1.00  0.00    -0.206 F 
ATOM     92  C   UNL A   1      40.126  36.054  38.273  1.00  0.00     0.059 A 
ATOM     93  C   UNL A   1      38.726  34.372  39.324  1.00  0.00     0.059 A 
ATOM     94  F   UNL A   1      38.481  32.269  38.319  1.00  0.00    -0.206 F 
ATOM     95  C   UNL A   1      39.291  35.645  39.315  1.00  0.00     0.060 A 
BRANCH  95  96
ATOM     96  S   UNL A   1      38.935  36.812  40.645  1.00  0.00     0.124 S 
ATOM     97  O   UNL A   1      38.133  35.993  41.549  1.00  0.00    -0.237 OA
ATOM     98  O   UNL A   1      40.270  37.159  41.121  1.00  0.00    -0.237 OA
ATOM     99  O   UNL A   1      38.217  37.889  39.971  1.00  0.00    -0.744 OA
ENDBRANCH  95  96
ENDBRANCH  63  88
ENDBRANCH  37  38
ENDBRANCH  29  32
ENDBRANCH  27  28
ENDBRANCH  26  27
ENDBRANCH  25  26
ENDBRANCH   1  25
TORSDOF 21
ENDMDL
