MODEL 1
REMARK VINA RESULT:      -9.3      0.000      0.000
REMARK SMILES CC[N@@H+](C/C(Cl)=C/Cl)C[C@@H](C)C(=O)NCCCCCCNC(=O)c1ccc(-c2c3nc(c(-c4c(F)cc(S(=O)(=O)[O-])cc4F)c4ccc([nH]4)c(-c4c(F)cc(S(=O)(=O)[O-])cc4F)c4nc(c(-c5c(F)cc(S(=O)(=O)[O-])cc5F)c5ccc2[nH]5)C=C4)C=C3)cc1
REMARK SMILES IDX 17 1 16 2 15 3 14 4 12 5 13 6 10 8 11 9 9 10 3 11 2 13 1 14
REMARK SMILES IDX 4 15 5 16 6 17 7 18 8 19 18 20 19 21 20 22 21 23 22 24 23 26
REMARK SMILES IDX 24 27 25 28 89 29 26 30 88 31 27 32 28 33 29 34 82 35 30 36
REMARK SMILES IDX 87 37 81 38 83 39 31 40 86 41 80 42 79 43 32 45 66 46 45 47
REMARK SMILES IDX 65 48 46 49 49 50 64 51 84 52 47 53 48 54 63 56 85 57 50 58
REMARK SMILES IDX 33 59 34 60 43 61 35 62 36 63 42 64 44 65 37 66 38 67 39 68
REMARK SMILES IDX 40 69 41 70 67 71 68 72 77 73 69 74 70 75 76 76 78 77 71 78
REMARK SMILES IDX 72 79 73 80 74 81 75 82 51 83 52 84 61 85 53 86 54 87 60 88
REMARK SMILES IDX 62 89 55 90 56 91 57 92 58 93 59 94
REMARK H PARENT 14 7 3 12 21 25 83 44 49 55
REMARK Flexibility Score: inf
ROOT
ATOM      1  C   UNL A   1      30.908  26.667  25.719  1.00  0.00     0.002 C 
ENDROOT
BRANCH   1   2
ATOM      2  C   UNL A   1      30.411  26.890  24.288  1.00  0.00     0.021 C 
BRANCH   2   3
ATOM      3  C   UNL A   1      30.890  25.818  23.315  1.00  0.00     0.116 C 
BRANCH   3   4
ATOM      4  N   UNL A   1      32.331  25.691  23.364  1.00  0.00    -0.356 N 
ATOM      5  C   UNL A   1      33.111  24.634  23.712  1.00  0.00     0.228 C 
ATOM      6  O   UNL A   1      34.328  24.823  23.786  1.00  0.00    -0.275 OA
ATOM      7  H   UNL A   1      32.826  26.501  23.104  1.00  0.00     0.163 HD
BRANCH   5   8
ATOM      8  C   UNL A   1      32.516  23.255  23.972  1.00  0.00     0.130 C 
ATOM      9  C   UNL A   1      31.962  23.186  25.393  1.00  0.00     0.024 C 
BRANCH   8  10
ATOM     10  C   UNL A   1      33.476  22.138  23.501  1.00  0.00     0.275 C 
BRANCH  10  11
ATOM     11  N   UNL A   1      34.351  21.450  24.455  1.00  0.00    -0.330 N 
ATOM     12  H   UNL A   1      34.007  21.899  25.304  1.00  0.00     0.348 HD
BRANCH  11  13
ATOM     13  C   UNL A   1      34.069  20.066  24.821  1.00  0.00     0.259 C 
ATOM     14  C   UNL A   1      32.619  19.631  24.628  1.00  0.00     0.071 C 
ENDBRANCH  11  13
BRANCH  11  15
ATOM     15  C   UNL A   1      35.770  21.814  24.403  1.00  0.00     0.312 C 
BRANCH  15  16
ATOM     16  C   UNL A   1      36.329  22.702  25.490  1.00  0.00     0.083 C 
ATOM     17  Cl  UNL A   1      35.174  23.179  26.701  1.00  0.00    -0.082 Cl
ATOM     18  C   UNL A   1      37.610  23.084  25.558  1.00  0.00     0.102 C 
ATOM     19  Cl  UNL A   1      38.292  24.129  26.733  1.00  0.00    -0.091 Cl
ENDBRANCH  15  16
ENDBRANCH  11  15
ENDBRANCH  10  11
ENDBRANCH   8  10
ENDBRANCH   5   8
ENDBRANCH   3   4
ENDBRANCH   2   3
ENDBRANCH   1   2
BRANCH   1  20
ATOM     20  C   UNL A   1      31.601  27.884  26.342  1.00  0.00     0.002 C 
BRANCH  20  21
ATOM     21  C   UNL A   1      33.055  27.644  26.759  1.00  0.00     0.021 C 
BRANCH  21  22
ATOM     22  C   UNL A   1      34.059  28.557  26.066  1.00  0.00     0.116 C 
BRANCH  22  23
ATOM     23  N   UNL A   1      33.820  29.954  26.385  1.00  0.00    -0.352 N 
ATOM     24  C   UNL A   1      34.431  30.742  27.327  1.00  0.00     0.251 C 
ATOM     25  H   UNL A   1      33.122  30.397  25.851  1.00  0.00     0.163 HD
ATOM     26  O   UNL A   1      33.944  31.825  27.630  1.00  0.00    -0.269 OA
BRANCH  24  27
ATOM     27  C   UNL A   1      35.668  30.267  27.977  1.00  0.00     0.039 A 
ATOM     28  C   UNL A   1      36.889  30.463  27.331  1.00  0.00     0.014 A 
ATOM     29  C   UNL A   1      35.619  29.630  29.221  1.00  0.00     0.014 A 
ATOM     30  C   UNL A   1      38.070  30.065  27.959  1.00  0.00     0.010 A 
ATOM     31  C   UNL A   1      36.800  29.305  29.878  1.00  0.00     0.010 A 
ATOM     32  C   UNL A   1      38.037  29.512  29.250  1.00  0.00    -0.014 A 
BRANCH  32  33
ATOM     33  C   UNL A   1      39.290  29.152  29.959  1.00  0.00     0.031 A 
ATOM     34  C   UNL A   1      39.702  29.899  31.198  1.00  0.00     0.074 A 
ATOM     35  C   UNL A   1      40.081  28.186  29.452  1.00  0.00     0.049 A 
ATOM     36  N   UNL A   1      40.778  29.754  31.928  1.00  0.00    -0.248 NA
ATOM     37  C   UNL A   1      38.802  30.966  31.662  1.00  0.00     0.031 C 
ATOM     38  C   UNL A   1      39.809  27.427  28.229  1.00  0.00     0.029 A 
ATOM     39  N   UNL A   1      41.275  27.678  29.899  1.00  0.00    -0.354 N 
ATOM     40  C   UNL A   1      40.688  30.712  32.931  1.00  0.00     0.074 A 
ATOM     41  C   UNL A   1      39.483  31.473  32.679  1.00  0.00     0.031 C 
ATOM     42  C   UNL A   1      40.793  26.533  28.038  1.00  0.00     0.029 A 
ATOM     43  C   UNL A   1      41.784  26.682  29.098  1.00  0.00     0.049 A 
ATOM     44  H   UNL A   1      41.725  27.997  30.714  1.00  0.00     0.167 HD
ATOM     45  C   UNL A   1      41.521  30.923  33.978  1.00  0.00     0.037 A 
ATOM     46  C   UNL A   1      42.924  25.972  29.205  1.00  0.00     0.037 A 
ATOM     47  C   UNL A   1      42.710  30.149  34.226  1.00  0.00     0.049 A 
ATOM     48  C   UNL A   1      43.839  26.231  30.370  1.00  0.00     0.074 A 
ATOM     49  C   UNL A   1      43.591  30.243  35.288  1.00  0.00     0.029 A 
ATOM     50  N   UNL A   1      43.189  29.141  33.399  1.00  0.00    -0.354 N 
ATOM     51  N   UNL A   1      43.704  27.095  31.349  1.00  0.00    -0.248 NA
ATOM     52  C   UNL A   1      45.057  25.415  30.451  1.00  0.00     0.031 C 
ATOM     53  C   UNL A   1      44.632  29.333  35.076  1.00  0.00     0.029 A 
ATOM     54  C   UNL A   1      44.368  28.627  33.912  1.00  0.00     0.049 A 
ATOM     55  H   UNL A   1      42.754  28.838  32.569  1.00  0.00     0.167 HD
ATOM     56  C   UNL A   1      44.806  26.908  32.176  1.00  0.00     0.074 A 
ATOM     57  C   UNL A   1      45.589  25.839  31.591  1.00  0.00     0.031 C 
ATOM     58  C   UNL A   1      45.138  27.562  33.317  1.00  0.00     0.037 A 
BRANCH  45  59
ATOM     59  C   UNL A   1      41.177  32.035  34.932  1.00  0.00     0.058 A 
ATOM     60  C   UNL A   1      40.259  31.854  35.980  1.00  0.00     0.135 A 
ATOM     61  C   UNL A   1      41.797  33.290  34.819  1.00  0.00     0.135 A 
ATOM     62  F   UNL A   1      39.624  30.680  36.127  1.00  0.00    -0.206 F 
ATOM     63  C   UNL A   1      39.943  32.885  36.858  1.00  0.00     0.059 A 
ATOM     64  C   UNL A   1      41.519  34.326  35.706  1.00  0.00     0.059 A 
ATOM     65  F   UNL A   1      42.683  33.522  33.837  1.00  0.00    -0.206 F 
ATOM     66  C   UNL A   1      40.579  34.118  36.713  1.00  0.00     0.060 A 
BRANCH  66  67
ATOM     67  S   UNL A   1      40.157  35.445  37.862  1.00  0.00     0.124 S 
ATOM     68  O   UNL A   1      39.042  34.851  38.596  1.00  0.00    -0.237 OA
ATOM     69  O   UNL A   1      41.396  35.608  38.616  1.00  0.00    -0.237 OA
ATOM     70  O   UNL A   1      39.808  36.558  36.986  1.00  0.00    -0.744 OA
ENDBRANCH  66  67
ENDBRANCH  45  59
BRANCH  46  71
ATOM     71  C   UNL A   1      43.248  24.935  28.189  1.00  0.00     0.058 A 
ATOM     72  C   UNL A   1      42.911  23.590  28.395  1.00  0.00     0.135 A 
ATOM     73  C   UNL A   1      43.880  25.272  26.981  1.00  0.00     0.135 A 
ATOM     74  F   UNL A   1      42.311  23.217  29.535  1.00  0.00    -0.206 F 
ATOM     75  C   UNL A   1      43.200  22.612  27.449  1.00  0.00     0.059 A 
ATOM     76  C   UNL A   1      44.155  24.317  26.007  1.00  0.00     0.059 A 
ATOM     77  F   UNL A   1      44.208  26.548  26.725  1.00  0.00    -0.206 F 
ATOM     78  C   UNL A   1      43.820  22.987  26.255  1.00  0.00     0.060 A 
BRANCH  78  79
ATOM     79  S   UNL A   1      44.141  21.717  25.011  1.00  0.00     0.124 S 
ATOM     80  O   UNL A   1      43.893  22.449  23.774  1.00  0.00    -0.237 OA
ATOM     81  O   UNL A   1      45.532  21.369  25.283  1.00  0.00    -0.237 OA
ATOM     82  O   UNL A   1      43.167  20.678  25.335  1.00  0.00    -0.744 OA
ENDBRANCH  78  79
ENDBRANCH  46  71
BRANCH  58  83
ATOM     83  C   UNL A   1      46.388  27.120  34.028  1.00  0.00     0.058 A 
ATOM     84  C   UNL A   1      46.372  26.095  34.986  1.00  0.00     0.135 A 
ATOM     85  C   UNL A   1      47.628  27.698  33.708  1.00  0.00     0.135 A 
ATOM     86  F   UNL A   1      45.213  25.513  35.335  1.00  0.00    -0.206 F 
ATOM     87  C   UNL A   1      47.536  25.677  35.623  1.00  0.00     0.059 A 
ATOM     88  C   UNL A   1      48.809  27.273  34.308  1.00  0.00     0.059 A 
ATOM     89  F   UNL A   1      47.703  28.675  32.790  1.00  0.00    -0.206 F 
ATOM     90  C   UNL A   1      48.751  26.270  35.274  1.00  0.00     0.060 A 
BRANCH  90  91
ATOM     91  S   UNL A   1      50.258  25.696  36.085  1.00  0.00     0.124 S 
ATOM     92  O   UNL A   1      50.219  24.266  35.799  1.00  0.00    -0.237 OA
ATOM     93  O   UNL A   1      51.294  26.455  35.390  1.00  0.00    -0.237 OA
ATOM     94  O   UNL A   1      50.053  26.062  37.484  1.00  0.00    -0.744 OA
ENDBRANCH  90  91
ENDBRANCH  58  83
ENDBRANCH  32  33
ENDBRANCH  24  27
ENDBRANCH  22  23
ENDBRANCH  21  22
ENDBRANCH  20  21
ENDBRANCH   1  20
TORSDOF 21
ENDMDL
MODEL 2
REMARK VINA RESULT:      -9.2      5.113      6.768
REMARK SMILES CC[N@@H+](C/C(Cl)=C/Cl)C[C@@H](C)C(=O)NCCCCCCNC(=O)c1ccc(-c2c3nc(c(-c4c(F)cc(S(=O)(=O)[O-])cc4F)c4ccc([nH]4)c(-c4c(F)cc(S(=O)(=O)[O-])cc4F)c4nc(c(-c5c(F)cc(S(=O)(=O)[O-])cc5F)c5ccc2[nH]5)C=C4)C=C3)cc1
REMARK SMILES IDX 17 1 16 2 15 3 14 4 12 5 13 6 10 8 11 9 9 10 3 11 2 13 1 14
REMARK SMILES IDX 4 15 5 16 6 17 7 18 8 19 18 20 19 21 20 22 21 23 22 24 23 26
REMARK SMILES IDX 24 27 25 28 89 29 26 30 88 31 27 32 28 33 29 34 82 35 30 36
REMARK SMILES IDX 87 37 81 38 83 39 31 40 86 41 80 42 79 43 32 45 66 46 45 47
REMARK SMILES IDX 65 48 46 49 49 50 64 51 84 52 47 53 48 54 63 56 85 57 50 58
REMARK SMILES IDX 33 59 34 60 43 61 35 62 36 63 42 64 44 65 37 66 38 67 39 68
REMARK SMILES IDX 40 69 41 70 67 71 68 72 77 73 69 74 70 75 76 76 78 77 71 78
REMARK SMILES IDX 72 79 73 80 74 81 75 82 51 83 52 84 61 85 53 86 54 87 60 88
REMARK SMILES IDX 62 89 55 90 56 91 57 92 58 93 59 94
REMARK H PARENT 14 7 3 12 21 25 83 44 49 55
REMARK Flexibility Score: inf
ROOT
ATOM      1  C   UNL A   1      34.863  29.256  26.895  1.00  0.00     0.002 C 
ENDROOT
BRANCH   1   2
ATOM      2  C   UNL A   1      33.926  28.107  26.514  1.00  0.00     0.021 C 
BRANCH   2   3
ATOM      3  C   UNL A   1      32.458  28.516  26.484  1.00  0.00     0.116 C 
BRANCH   3   4
ATOM      4  N   UNL A   1      31.603  27.368  26.700  1.00  0.00    -0.356 N 
ATOM      5  C   UNL A   1      30.883  26.628  25.818  1.00  0.00     0.228 C 
ATOM      6  O   UNL A   1      30.132  25.764  26.278  1.00  0.00    -0.275 OA
ATOM      7  H   UNL A   1      31.532  27.078  27.638  1.00  0.00     0.163 HD
BRANCH   5   8
ATOM      8  C   UNL A   1      31.015  26.828  24.313  1.00  0.00     0.130 C 
ATOM      9  C   UNL A   1      30.036  27.901  23.842  1.00  0.00     0.024 C 
BRANCH   8  10
ATOM     10  C   UNL A   1      31.034  25.471  23.571  1.00  0.00     0.275 C 
BRANCH  10  11
ATOM     11  N   UNL A   1      32.299  24.879  23.124  1.00  0.00    -0.330 N 
ATOM     12  H   UNL A   1      31.908  24.201  22.470  1.00  0.00     0.348 HD
BRANCH  11  13
ATOM     13  C   UNL A   1      33.144  25.611  22.187  1.00  0.00     0.259 C 
ATOM     14  C   UNL A   1      32.625  25.661  20.753  1.00  0.00     0.071 C 
ENDBRANCH  11  13
BRANCH  11  15
ATOM     15  C   UNL A   1      33.009  24.061  24.112  1.00  0.00     0.312 C 
BRANCH  15  16
ATOM     16  C   UNL A   1      32.955  22.557  23.978  1.00  0.00     0.083 C 
ATOM     17  Cl  UNL A   1      33.895  21.691  25.159  1.00  0.00    -0.082 Cl
ATOM     18  C   UNL A   1      32.231  21.915  23.054  1.00  0.00     0.102 C 
ATOM     19  Cl  UNL A   1      32.170  20.218  22.818  1.00  0.00    -0.091 Cl
ENDBRANCH  15  16
ENDBRANCH  11  15
ENDBRANCH  10  11
ENDBRANCH   8  10
ENDBRANCH   5   8
ENDBRANCH   3   4
ENDBRANCH   2   3
ENDBRANCH   1   2
BRANCH   1  20
ATOM     20  C   UNL A   1      34.214  30.331  27.775  1.00  0.00     0.002 C 
BRANCH  20  21
ATOM     21  C   UNL A   1      34.858  31.717  27.665  1.00  0.00     0.021 C 
BRANCH  21  22
ATOM     22  C   UNL A   1      35.987  31.959  28.659  1.00  0.00     0.116 C 
BRANCH  22  23
ATOM     23  N   UNL A   1      35.736  31.290  29.924  1.00  0.00    -0.352 N 
ATOM     24  C   UNL A   1      36.485  30.332  30.558  1.00  0.00     0.251 C 
ATOM     25  H   UNL A   1      34.915  31.563  30.392  1.00  0.00     0.163 HD
ATOM     26  O   UNL A   1      36.010  29.702  31.496  1.00  0.00    -0.269 OA
BRANCH  24  27
ATOM     27  C   UNL A   1      37.859  30.061  30.092  1.00  0.00     0.039 A 
ATOM     28  C   UNL A   1      38.887  29.971  31.032  1.00  0.00     0.014 A 
ATOM     29  C   UNL A   1      38.129  29.896  28.730  1.00  0.00     0.014 A 
ATOM     30  C   UNL A   1      40.180  29.664  30.608  1.00  0.00     0.010 A 
ATOM     31  C   UNL A   1      39.401  29.514  28.318  1.00  0.00     0.010 A 
ATOM     32  C   UNL A   1      40.441  29.402  29.253  1.00  0.00    -0.014 A 
BRANCH  32  33
ATOM     33  C   UNL A   1      41.796  29.003  28.798  1.00  0.00     0.031 A 
ATOM     34  C   UNL A   1      42.900  30.022  28.717  1.00  0.00     0.074 A 
ATOM     35  C   UNL A   1      42.014  27.732  28.407  1.00  0.00     0.049 A 
ATOM     36  N   UNL A   1      44.133  29.871  28.307  1.00  0.00    -0.248 NA
ATOM     37  C   UNL A   1      42.567  31.396  29.124  1.00  0.00     0.031 C 
ATOM     38  C   UNL A   1      41.007  26.668  28.393  1.00  0.00     0.029 A 
ATOM     39  N   UNL A   1      43.150  27.119  27.942  1.00  0.00    -0.354 N 
ATOM     40  C   UNL A   1      44.720  31.127  28.401  1.00  0.00     0.074 A 
ATOM     41  C   UNL A   1      43.691  32.041  28.848  1.00  0.00     0.031 C 
ATOM     42  C   UNL A   1      41.577  25.528  27.970  1.00  0.00     0.029 A 
ATOM     43  C   UNL A   1      42.974  25.787  27.643  1.00  0.00     0.049 A 
ATOM     44  H   UNL A   1      44.008  27.587  27.833  1.00  0.00     0.167 HD
ATOM     45  C   UNL A   1      46.005  31.481  28.159  1.00  0.00     0.037 A 
ATOM     46  C   UNL A   1      43.842  24.880  27.154  1.00  0.00     0.037 A 
ATOM     47  C   UNL A   1      47.024  30.558  27.728  1.00  0.00     0.049 A 
ATOM     48  C   UNL A   1      45.261  25.299  26.883  1.00  0.00     0.074 A 
ATOM     49  C   UNL A   1      48.368  30.803  27.510  1.00  0.00     0.029 A 
ATOM     50  N   UNL A   1      46.811  29.216  27.444  1.00  0.00    -0.354 N 
ATOM     51  N   UNL A   1      45.818  26.476  27.042  1.00  0.00    -0.248 NA
ATOM     52  C   UNL A   1      46.171  24.265  26.372  1.00  0.00     0.031 C 
ATOM     53  C   UNL A   1      48.957  29.624  27.041  1.00  0.00     0.029 A 
ATOM     54  C   UNL A   1      47.993  28.627  27.025  1.00  0.00     0.049 A 
ATOM     55  H   UNL A   1      45.948  28.751  27.528  1.00  0.00     0.167 HD
ATOM     56  C   UNL A   1      47.150  26.319  26.677  1.00  0.00     0.074 A 
ATOM     57  C   UNL A   1      47.318  24.930  26.302  1.00  0.00     0.031 C 
ATOM     58  C   UNL A   1      48.145  27.241  26.655  1.00  0.00     0.037 A 
BRANCH  45  59
ATOM     59  C   UNL A   1      46.380  32.925  28.351  1.00  0.00     0.058 A 
ATOM     60  C   UNL A   1      46.311  33.854  27.299  1.00  0.00     0.135 A 
ATOM     61  C   UNL A   1      46.783  33.398  29.611  1.00  0.00     0.135 A 
ATOM     62  F   UNL A   1      45.948  33.457  26.069  1.00  0.00    -0.206 F 
ATOM     63  C   UNL A   1      46.661  35.189  27.481  1.00  0.00     0.059 A 
ATOM     64  C   UNL A   1      47.106  34.735  29.823  1.00  0.00     0.059 A 
ATOM     65  F   UNL A   1      46.868  32.556  30.654  1.00  0.00    -0.206 F 
ATOM     66  C   UNL A   1      47.057  35.619  28.747  1.00  0.00     0.060 A 
BRANCH  66  67
ATOM     67  S   UNL A   1      47.506  37.354  28.965  1.00  0.00     0.124 S 
ATOM     68  O   UNL A   1      46.424  38.026  28.250  1.00  0.00    -0.237 OA
ATOM     69  O   UNL A   1      47.490  37.499  30.417  1.00  0.00    -0.237 OA
ATOM     70  O   UNL A   1      48.822  37.447  28.343  1.00  0.00    -0.744 OA
ENDBRANCH  66  67
ENDBRANCH  45  59
BRANCH  46  71
ATOM     71  C   UNL A   1      43.394  23.482  26.913  1.00  0.00     0.058 A 
ATOM     72  C   UNL A   1      43.153  23.015  25.612  1.00  0.00     0.135 A 
ATOM     73  C   UNL A   1      43.220  22.580  27.974  1.00  0.00     0.135 A 
ATOM     74  F   UNL A   1      43.300  23.840  24.566  1.00  0.00    -0.206 F 
ATOM     75  C   UNL A   1      42.742  21.707  25.373  1.00  0.00     0.059 A 
ATOM     76  C   UNL A   1      42.837  21.260  27.757  1.00  0.00     0.059 A 
ATOM     77  F   UNL A   1      43.455  22.971  29.236  1.00  0.00    -0.206 F 
ATOM     78  C   UNL A   1      42.590  20.836  26.452  1.00  0.00     0.060 A 
BRANCH  78  79
ATOM     79  S   UNL A   1      42.110  19.126  26.123  1.00  0.00     0.124 S 
ATOM     80  O   UNL A   1      40.680  19.266  25.873  1.00  0.00    -0.237 OA
ATOM     81  O   UNL A   1      42.934  18.795  24.966  1.00  0.00    -0.237 OA
ATOM     82  O   UNL A   1      42.469  18.434  27.358  1.00  0.00    -0.744 OA
ENDBRANCH  78  79
ENDBRANCH  46  71
BRANCH  58  83
ATOM     83  C   UNL A   1      49.513  26.773  26.240  1.00  0.00     0.058 A 
ATOM     84  C   UNL A   1      49.974  26.908  24.922  1.00  0.00     0.135 A 
ATOM     85  C   UNL A   1      50.394  26.226  27.189  1.00  0.00     0.135 A 
ATOM     86  F   UNL A   1      49.172  27.418  23.974  1.00  0.00    -0.206 F 
ATOM     87  C   UNL A   1      51.249  26.493  24.551  1.00  0.00     0.059 A 
ATOM     88  C   UNL A   1      51.684  25.834  26.848  1.00  0.00     0.059 A 
ATOM     89  F   UNL A   1      50.008  26.084  28.467  1.00  0.00    -0.206 F 
ATOM     90  C   UNL A   1      52.098  25.960  25.523  1.00  0.00     0.060 A 
BRANCH  90  91
ATOM     91  S   UNL A   1      53.761  25.455  25.035  1.00  0.00     0.124 S 
ATOM     92  O   UNL A   1      53.777  25.822  23.624  1.00  0.00    -0.237 OA
ATOM     93  O   UNL A   1      54.602  26.264  25.911  1.00  0.00    -0.237 OA
ATOM     94  O   UNL A   1      53.776  24.021  25.311  1.00  0.00    -0.744 OA
ENDBRANCH  90  91
ENDBRANCH  58  83
ENDBRANCH  32  33
ENDBRANCH  24  27
ENDBRANCH  22  23
ENDBRANCH  21  22
ENDBRANCH  20  21
ENDBRANCH   1  20
TORSDOF 21
ENDMDL
MODEL 3
REMARK VINA RESULT:      -9.0      5.365      7.309
REMARK SMILES CC[N@@H+](C/C(Cl)=C/Cl)C[C@@H](C)C(=O)NCCCCCCNC(=O)c1ccc(-c2c3nc(c(-c4c(F)cc(S(=O)(=O)[O-])cc4F)c4ccc([nH]4)c(-c4c(F)cc(S(=O)(=O)[O-])cc4F)c4nc(c(-c5c(F)cc(S(=O)(=O)[O-])cc5F)c5ccc2[nH]5)C=C4)C=C3)cc1
REMARK SMILES IDX 17 1 16 2 15 3 14 4 12 5 13 6 10 8 11 9 9 10 3 11 2 13 1 14
REMARK SMILES IDX 4 15 5 16 6 17 7 18 8 19 18 20 19 21 20 22 21 23 22 24 23 26
REMARK SMILES IDX 24 27 25 28 89 29 26 30 88 31 27 32 28 33 29 34 82 35 30 36
REMARK SMILES IDX 87 37 81 38 83 39 31 40 86 41 80 42 79 43 32 45 66 46 45 47
REMARK SMILES IDX 65 48 46 49 49 50 64 51 84 52 47 53 48 54 63 56 85 57 50 58
REMARK SMILES IDX 33 59 34 60 43 61 35 62 36 63 42 64 44 65 37 66 38 67 39 68
REMARK SMILES IDX 40 69 41 70 67 71 68 72 77 73 69 74 70 75 76 76 78 77 71 78
REMARK SMILES IDX 72 79 73 80 74 81 75 82 51 83 52 84 61 85 53 86 54 87 60 88
REMARK SMILES IDX 62 89 55 90 56 91 57 92 58 93 59 94
REMARK H PARENT 14 7 3 12 21 25 83 44 49 55
REMARK Flexibility Score: inf
ROOT
ATOM      1  C   UNL A   1      35.383  31.825  27.776  1.00  0.00     0.002 C 
ENDROOT
BRANCH   1   2
ATOM      2  C   UNL A   1      33.863  31.859  27.957  1.00  0.00     0.021 C 
BRANCH   2   3
ATOM      3  C   UNL A   1      33.131  30.877  27.051  1.00  0.00     0.116 C 
BRANCH   3   4
ATOM      4  N   UNL A   1      33.979  29.749  26.729  1.00  0.00    -0.356 N 
ATOM      5  C   UNL A   1      33.660  28.458  26.450  1.00  0.00     0.228 C 
ATOM      6  O   UNL A   1      34.588  27.655  26.325  1.00  0.00    -0.275 OA
ATOM      7  H   UNL A   1      34.942  29.949  26.710  1.00  0.00     0.163 HD
BRANCH   5   8
ATOM      8  C   UNL A   1      32.213  28.016  26.265  1.00  0.00     0.130 C 
ATOM      9  C   UNL A   1      31.438  28.210  27.566  1.00  0.00     0.024 C 
BRANCH   8  10
ATOM     10  C   UNL A   1      32.138  26.641  25.561  1.00  0.00     0.275 C 
BRANCH  10  11
ATOM     11  N   UNL A   1      31.662  26.531  24.179  1.00  0.00    -0.330 N 
ATOM     12  H   UNL A   1      31.696  27.523  23.944  1.00  0.00     0.348 HD
BRANCH  11  13
ATOM     13  C   UNL A   1      32.564  26.039  23.144  1.00  0.00     0.259 C 
ATOM     14  C   UNL A   1      31.969  25.986  21.741  1.00  0.00     0.071 C 
ENDBRANCH  11  13
BRANCH  11  15
ATOM     15  C   UNL A   1      30.251  26.168  24.014  1.00  0.00     0.312 C 
BRANCH  15  16
ATOM     16  C   UNL A   1      29.257  27.258  23.687  1.00  0.00     0.083 C 
ATOM     17  Cl  UNL A   1      29.972  28.770  23.208  1.00  0.00    -0.082 Cl
ATOM     18  C   UNL A   1      27.929  27.095  23.727  1.00  0.00     0.102 C 
ATOM     19  Cl  UNL A   1      26.753  28.304  23.420  1.00  0.00    -0.091 Cl
ENDBRANCH  15  16
ENDBRANCH  11  15
ENDBRANCH  10  11
ENDBRANCH   8  10
ENDBRANCH   5   8
ENDBRANCH   3   4
ENDBRANCH   2   3
ENDBRANCH   1   2
BRANCH   1  20
ATOM     20  C   UNL A   1      36.076  33.172  28.012  1.00  0.00     0.002 C 
BRANCH  20  21
ATOM     21  C   UNL A   1      35.866  33.759  29.411  1.00  0.00     0.021 C 
BRANCH  21  22
ATOM     22  C   UNL A   1      36.869  33.269  30.449  1.00  0.00     0.116 C 
BRANCH  22  23
ATOM     23  N   UNL A   1      36.354  32.132  31.193  1.00  0.00    -0.352 N 
ATOM     24  C   UNL A   1      36.825  30.845  31.240  1.00  0.00     0.251 C 
ATOM     25  H   UNL A   1      35.555  32.310  31.739  1.00  0.00     0.163 HD
ATOM     26  O   UNL A   1      36.135  29.955  31.724  1.00  0.00    -0.269 OA
BRANCH  24  27
ATOM     27  C   UNL A   1      38.163  30.543  30.693  1.00  0.00     0.039 A 
ATOM     28  C   UNL A   1      39.228  30.355  31.574  1.00  0.00     0.014 A 
ATOM     29  C   UNL A   1      38.361  30.446  29.312  1.00  0.00     0.014 A 
ATOM     30  C   UNL A   1      40.485  30.019  31.071  1.00  0.00     0.010 A 
ATOM     31  C   UNL A   1      39.594  30.035  28.817  1.00  0.00     0.010 A 
ATOM     32  C   UNL A   1      40.670  29.825  29.692  1.00  0.00    -0.014 A 
BRANCH  32  33
ATOM     33  C   UNL A   1      41.983  29.395  29.150  1.00  0.00     0.031 A 
ATOM     34  C   UNL A   1      43.108  30.385  29.016  1.00  0.00     0.074 A 
ATOM     35  C   UNL A   1      42.140  28.125  28.729  1.00  0.00     0.049 A 
ATOM     36  N   UNL A   1      44.309  30.206  28.529  1.00  0.00    -0.248 NA
ATOM     37  C   UNL A   1      42.841  31.761  29.461  1.00  0.00     0.031 C 
ATOM     38  C   UNL A   1      41.105  27.089  28.763  1.00  0.00     0.029 A 
ATOM     39  N   UNL A   1      43.228  27.487  28.187  1.00  0.00    -0.354 N 
ATOM     40  C   UNL A   1      44.937  31.444  28.604  1.00  0.00     0.074 A 
ATOM     41  C   UNL A   1      43.964  32.378  29.125  1.00  0.00     0.031 C 
ATOM     42  C   UNL A   1      41.615  25.941  28.290  1.00  0.00     0.029 A 
ATOM     43  C   UNL A   1      42.997  26.166  27.882  1.00  0.00     0.049 A 
ATOM     44  H   UNL A   1      44.091  27.933  28.032  1.00  0.00     0.167 HD
ATOM     45  C   UNL A   1      46.214  31.765  28.288  1.00  0.00     0.037 A 
ATOM     46  C   UNL A   1      43.807  25.243  27.329  1.00  0.00     0.037 A 
ATOM     47  C   UNL A   1      47.179  30.822  27.783  1.00  0.00     0.049 A 
ATOM     48  C   UNL A   1      45.218  25.626  26.977  1.00  0.00     0.074 A 
ATOM     49  C   UNL A   1      48.513  31.032  27.487  1.00  0.00     0.029 A 
ATOM     50  N   UNL A   1      46.911  29.490  27.495  1.00  0.00    -0.354 N 
ATOM     51  N   UNL A   1      45.817  26.785  27.118  1.00  0.00    -0.248 NA
ATOM     52  C   UNL A   1      46.066  24.576  26.397  1.00  0.00     0.031 C 
ATOM     53  C   UNL A   1      49.039  29.845  26.967  1.00  0.00     0.029 A 
ATOM     54  C   UNL A   1      48.048  28.875  26.997  1.00  0.00     0.049 A 
ATOM     55  H   UNL A   1      46.041  29.048  27.625  1.00  0.00     0.167 HD
ATOM     56  C   UNL A   1      47.120  26.597  26.669  1.00  0.00     0.074 A 
ATOM     57  C   UNL A   1      47.225  25.209  26.267  1.00  0.00     0.031 C 
ATOM     58  C   UNL A   1      48.137  27.491  26.599  1.00  0.00     0.037 A 
BRANCH  45  59
ATOM     59  C   UNL A   1      46.641  33.196  28.477  1.00  0.00     0.058 A 
ATOM     60  C   UNL A   1      46.517  34.147  27.450  1.00  0.00     0.135 A 
ATOM     61  C   UNL A   1      47.152  33.633  29.710  1.00  0.00     0.135 A 
ATOM     62  F   UNL A   1      46.049  33.784  26.245  1.00  0.00    -0.206 F 
ATOM     63  C   UNL A   1      46.915  35.468  27.628  1.00  0.00     0.059 A 
ATOM     64  C   UNL A   1      47.527  34.957  29.920  1.00  0.00     0.059 A 
ATOM     65  F   UNL A   1      47.294  32.769  30.728  1.00  0.00    -0.206 F 
ATOM     66  C   UNL A   1      47.418  35.864  28.867  1.00  0.00     0.060 A 
BRANCH  66  67
ATOM     67  S   UNL A   1      47.929  37.582  29.081  1.00  0.00     0.124 S 
ATOM     68  O   UNL A   1      46.666  38.287  28.880  1.00  0.00    -0.237 OA
ATOM     69  O   UNL A   1      48.446  37.585  30.445  1.00  0.00    -0.237 OA
ATOM     70  O   UNL A   1      48.927  37.774  28.035  1.00  0.00    -0.744 OA
ENDBRANCH  66  67
ENDBRANCH  45  59
BRANCH  46  71
ATOM     71  C   UNL A   1      43.305  23.862  27.096  1.00  0.00     0.058 A 
ATOM     72  C   UNL A   1      42.685  23.512  25.888  1.00  0.00     0.135 A 
ATOM     73  C   UNL A   1      43.456  22.859  28.067  1.00  0.00     0.135 A 
ATOM     74  F   UNL A   1      42.512  24.435  24.931  1.00  0.00    -0.206 F 
ATOM     75  C   UNL A   1      42.219  22.221  25.655  1.00  0.00     0.059 A 
ATOM     76  C   UNL A   1      43.024  21.555  27.846  1.00  0.00     0.059 A 
ATOM     77  F   UNL A   1      44.059  23.136  29.234  1.00  0.00    -0.206 F 
ATOM     78  C   UNL A   1      42.397  21.249  26.639  1.00  0.00     0.060 A 
BRANCH  78  79
ATOM     79  S   UNL A   1      41.838  19.564  26.303  1.00  0.00     0.124 S 
ATOM     80  O   UNL A   1      40.417  19.772  26.050  1.00  0.00    -0.237 OA
ATOM     81  O   UNL A   1      42.649  19.199  25.146  1.00  0.00    -0.237 OA
ATOM     82  O   UNL A   1      42.161  18.852  27.536  1.00  0.00    -0.744 OA
ENDBRANCH  78  79
ENDBRANCH  46  71
BRANCH  58  83
ATOM     83  C   UNL A   1      49.463  26.992  26.095  1.00  0.00     0.058 A 
ATOM     84  C   UNL A   1      49.813  27.059  24.738  1.00  0.00     0.135 A 
ATOM     85  C   UNL A   1      50.418  26.483  26.993  1.00  0.00     0.135 A 
ATOM     86  F   UNL A   1      48.937  27.530  23.836  1.00  0.00    -0.206 F 
ATOM     87  C   UNL A   1      51.051  26.616  24.283  1.00  0.00     0.059 A 
ATOM     88  C   UNL A   1      51.673  26.065  26.565  1.00  0.00     0.059 A 
ATOM     89  F   UNL A   1      50.140  26.407  28.304  1.00  0.00    -0.206 F 
ATOM     90  C   UNL A   1      51.976  26.123  25.206  1.00  0.00     0.060 A 
BRANCH  90  91
ATOM     91  S   UNL A   1      53.590  25.580  24.606  1.00  0.00     0.124 S 
ATOM     92  O   UNL A   1      53.517  24.140  24.826  1.00  0.00    -0.237 OA
ATOM     93  O   UNL A   1      53.564  26.011  23.211  1.00  0.00    -0.237 OA
ATOM     94  O   UNL A   1      54.531  26.300  25.460  1.00  0.00    -0.744 OA
ENDBRANCH  90  91
ENDBRANCH  58  83
ENDBRANCH  32  33
ENDBRANCH  24  27
ENDBRANCH  22  23
ENDBRANCH  21  22
ENDBRANCH  20  21
ENDBRANCH   1  20
TORSDOF 21
ENDMDL
