MODEL 1
REMARK VINA RESULT:      -9.3      0.000      0.000
REMARK SMILES C[C@H](Nc1ccc2c(c1)OCCO2)[C@H](C)C(=O)NCCCCCCNC(=O)c1ccc(-c2c3nc(c(-c4c(F)cc(S(=O)(=O)[O-])cc4F)c4ccc([nH]4)c(-c4c(F)cc(S(=O)(=O)[O-])cc4F)c4nc(c(-c5c(F)cc(S(=O)(=O)[O-])cc5F)c5ccc2[nH]5)C=C4)C=C3)cc1
REMARK SMILES IDX 21 1 20 2 19 3 18 4 16 5 17 6 14 8 15 9 2 10 1 11 3 12 4 14
REMARK SMILES IDX 5 15 9 16 6 17 8 18 7 19 10 20 13 21 11 22 12 23 22 24 23 25
REMARK SMILES IDX 24 26 25 27 26 28 27 30 28 31 29 32 93 33 30 34 92 35 31 36
REMARK SMILES IDX 32 37 33 38 86 39 34 40 91 41 85 42 87 43 35 44 90 45 84 46
REMARK SMILES IDX 83 47 36 49 70 50 49 51 69 52 50 53 53 54 68 55 88 56 51 57
REMARK SMILES IDX 52 58 67 60 89 61 54 62 37 63 38 64 47 65 39 66 40 67 46 68
REMARK SMILES IDX 48 69 41 70 42 71 43 72 44 73 45 74 71 75 72 76 81 77 73 78
REMARK SMILES IDX 74 79 80 80 82 81 75 82 76 83 77 84 78 85 79 86 55 87 56 88
REMARK SMILES IDX 65 89 57 90 58 91 64 92 66 93 59 94 60 95 61 96 62 97 63 98
REMARK H PARENT 18 7 3 13 25 29 87 48 53 59
REMARK Flexibility Score: inf
ROOT
ATOM      1  C   UNL A   1      37.224  32.592  31.718  1.00  0.00     0.002 C 
ENDROOT
BRANCH   1   2
ATOM      2  C   UNL A   1      37.087  31.533  32.808  1.00  0.00     0.021 C 
BRANCH   2   3
ATOM      3  C   UNL A   1      37.333  32.035  34.222  1.00  0.00     0.116 C 
BRANCH   3   4
ATOM      4  N   UNL A   1      37.786  31.038  35.162  1.00  0.00    -0.356 N 
ATOM      5  C   UNL A   1      39.022  30.460  35.217  1.00  0.00     0.224 C 
ATOM      6  O   UNL A   1      39.298  29.802  36.226  1.00  0.00    -0.275 OA
ATOM      7  H   UNL A   1      37.134  30.743  35.837  1.00  0.00     0.163 HD
BRANCH   5   8
ATOM      8  C   UNL A   1      40.037  30.564  34.069  1.00  0.00     0.097 C 
ATOM      9  C   UNL A   1      41.003  31.747  34.222  1.00  0.00     0.020 C 
BRANCH   8  10
ATOM     10  C   UNL A   1      40.692  29.244  33.570  1.00  0.00     0.088 C 
ATOM     11  C   UNL A   1      39.639  28.413  32.808  1.00  0.00     0.031 C 
BRANCH  10  12
ATOM     12  N   UNL A   1      41.254  28.360  34.591  1.00  0.00    -0.382 N 
ATOM     13  H   UNL A   1      40.918  28.458  35.511  1.00  0.00     0.160 HD
BRANCH  12  14
ATOM     14  C   UNL A   1      42.223  27.393  34.365  1.00  0.00     0.038 A 
ATOM     15  C   UNL A   1      43.213  27.622  33.400  1.00  0.00     0.030 A 
ATOM     16  C   UNL A   1      42.250  26.165  35.032  1.00  0.00     0.076 A 
ATOM     17  C   UNL A   1      44.145  26.631  33.063  1.00  0.00     0.052 A 
ATOM     18  C   UNL A   1      43.108  25.139  34.632  1.00  0.00     0.163 A 
ATOM     19  C   UNL A   1      44.059  25.372  33.645  1.00  0.00     0.161 A 
ATOM     20  O   UNL A   1      42.901  23.914  35.213  1.00  0.00    -0.486 OA
ATOM     21  O   UNL A   1      44.929  24.416  33.202  1.00  0.00    -0.486 OA
ATOM     22  C   UNL A   1      43.961  22.994  34.931  1.00  0.00     0.271 C 
ATOM     23  C   UNL A   1      44.447  23.099  33.492  1.00  0.00     0.271 C 
ENDBRANCH  12  14
ENDBRANCH  10  12
ENDBRANCH   8  10
ENDBRANCH   5   8
ENDBRANCH   3   4
ENDBRANCH   2   3
ENDBRANCH   1   2
BRANCH   1  24
ATOM     24  C   UNL A   1      36.000  33.495  31.518  1.00  0.00     0.002 C 
BRANCH  24  25
ATOM     25  C   UNL A   1      34.837  32.884  30.731  1.00  0.00     0.021 C 
BRANCH  25  26
ATOM     26  C   UNL A   1      35.058  32.778  29.226  1.00  0.00     0.116 C 
BRANCH  26  27
ATOM     27  N   UNL A   1      34.245  31.732  28.621  1.00  0.00    -0.352 N 
ATOM     28  C   UNL A   1      34.621  30.508  28.129  1.00  0.00     0.251 C 
ATOM     29  H   UNL A   1      33.283  31.933  28.555  1.00  0.00     0.163 HD
ATOM     30  O   UNL A   1      33.824  29.833  27.480  1.00  0.00    -0.269 OA
BRANCH  28  31
ATOM     31  C   UNL A   1      35.990  30.011  28.371  1.00  0.00     0.039 A 
ATOM     32  C   UNL A   1      36.943  30.113  27.355  1.00  0.00     0.014 A 
ATOM     33  C   UNL A   1      36.330  29.442  29.602  1.00  0.00     0.014 A 
ATOM     34  C   UNL A   1      38.257  29.707  27.597  1.00  0.00     0.010 A 
ATOM     35  C   UNL A   1      37.653  29.106  29.864  1.00  0.00     0.010 A 
ATOM     36  C   UNL A   1      38.630  29.233  28.865  1.00  0.00    -0.014 A 
BRANCH  36  37
ATOM     37  C   UNL A   1      40.032  28.854  29.179  1.00  0.00     0.031 A 
ATOM     38  C   UNL A   1      40.960  29.868  29.788  1.00  0.00     0.074 A 
ATOM     39  C   UNL A   1      40.489  27.634  28.837  1.00  0.00     0.049 A 
ATOM     40  N   UNL A   1      42.246  29.784  30.009  1.00  0.00    -0.248 NA
ATOM     41  C   UNL A   1      40.368  31.161  30.170  1.00  0.00     0.031 C 
ATOM     42  C   UNL A   1      39.691  26.573  28.217  1.00  0.00     0.029 A 
ATOM     43  N   UNL A   1      41.741  27.083  28.945  1.00  0.00    -0.354 N 
ATOM     44  C   UNL A   1      42.619  31.013  30.540  1.00  0.00     0.074 A 
ATOM     45  C   UNL A   1      41.435  31.845  30.554  1.00  0.00     0.031 C 
ATOM     46  C   UNL A   1      40.468  25.498  28.016  1.00  0.00     0.029 A 
ATOM     47  C   UNL A   1      41.830  25.806  28.444  1.00  0.00     0.049 A 
ATOM     48  H   UNL A   1      42.506  27.559  29.343  1.00  0.00     0.167 HD
ATOM     49  C   UNL A   1      43.835  31.406  30.992  1.00  0.00     0.037 A 
ATOM     50  C   UNL A   1      42.890  24.981  28.327  1.00  0.00     0.037 A 
ATOM     51  C   UNL A   1      45.002  30.563  30.990  1.00  0.00     0.049 A 
ATOM     52  C   UNL A   1      44.239  25.450  28.807  1.00  0.00     0.074 A 
ATOM     53  C   UNL A   1      46.269  30.851  31.464  1.00  0.00     0.029 A 
ATOM     54  N   UNL A   1      45.045  29.270  30.488  1.00  0.00    -0.354 N 
ATOM     55  N   UNL A   1      44.566  26.601  29.345  1.00  0.00    -0.248 NA
ATOM     56  C   UNL A   1      45.360  24.512  28.666  1.00  0.00     0.031 C 
ATOM     57  C   UNL A   1      47.093  29.752  31.199  1.00  0.00     0.029 A 
ATOM     58  C   UNL A   1      46.324  28.756  30.620  1.00  0.00     0.049 A 
ATOM     59  H   UNL A   1      44.281  28.790  30.097  1.00  0.00     0.167 HD
ATOM     60  C   UNL A   1      45.922  26.510  29.644  1.00  0.00     0.074 A 
ATOM     61  C   UNL A   1      46.353  25.193  29.224  1.00  0.00     0.031 C 
ATOM     62  C   UNL A   1      46.733  27.431  30.217  1.00  0.00     0.037 A 
BRANCH  49  63
ATOM     63  C   UNL A   1      43.962  32.808  31.522  1.00  0.00     0.058 A 
ATOM     64  C   UNL A   1      44.091  33.071  32.897  1.00  0.00     0.135 A 
ATOM     65  C   UNL A   1      43.982  33.904  30.644  1.00  0.00     0.135 A 
ATOM     66  F   UNL A   1      44.064  32.064  33.783  1.00  0.00    -0.206 F 
ATOM     67  C   UNL A   1      44.197  34.371  33.382  1.00  0.00     0.059 A 
ATOM     68  C   UNL A   1      44.121  35.211  31.106  1.00  0.00     0.059 A 
ATOM     69  F   UNL A   1      43.863  33.713  29.321  1.00  0.00    -0.206 F 
ATOM     70  C   UNL A   1      44.209  35.434  32.479  1.00  0.00     0.060 A 
BRANCH  70  71
ATOM     71  S   UNL A   1      44.340  37.113  33.128  1.00  0.00     0.124 S 
ATOM     72  O   UNL A   1      42.975  37.354  33.584  1.00  0.00    -0.237 OA
ATOM     73  O   UNL A   1      45.341  36.964  34.179  1.00  0.00    -0.237 OA
ATOM     74  O   UNL A   1      44.761  37.895  31.970  1.00  0.00    -0.744 OA
ENDBRANCH  70  71
ENDBRANCH  49  63
BRANCH  50  75
ATOM     75  C   UNL A   1      42.716  23.623  27.746  1.00  0.00     0.058 A 
ATOM     76  C   UNL A   1      42.475  22.513  28.569  1.00  0.00     0.135 A 
ATOM     77  C   UNL A   1      42.769  23.407  26.360  1.00  0.00     0.135 A 
ATOM     78  F   UNL A   1      42.423  22.666  29.902  1.00  0.00    -0.206 F 
ATOM     79  C   UNL A   1      42.310  21.236  28.043  1.00  0.00     0.059 A 
ATOM     80  C   UNL A   1      42.578  22.144  25.807  1.00  0.00     0.059 A 
ATOM     81  F   UNL A   1      42.981  24.437  25.526  1.00  0.00    -0.206 F 
ATOM     82  C   UNL A   1      42.359  21.062  26.660  1.00  0.00     0.060 A 
BRANCH  82  83
ATOM     83  S   UNL A   1      42.095  19.406  25.988  1.00  0.00     0.124 S 
ATOM     84  O   UNL A   1      42.548  18.567  27.091  1.00  0.00    -0.237 OA
ATOM     85  O   UNL A   1      40.658  19.406  25.733  1.00  0.00    -0.237 OA
ATOM     86  O   UNL A   1      42.937  19.390  24.795  1.00  0.00    -0.744 OA
ENDBRANCH  82  83
ENDBRANCH  50  75
BRANCH  62  87
ATOM     87  C   UNL A   1      48.162  27.041  30.486  1.00  0.00     0.058 A 
ATOM     88  C   UNL A   1      49.195  27.343  29.587  1.00  0.00     0.135 A 
ATOM     89  C   UNL A   1      48.508  26.440  31.708  1.00  0.00     0.135 A 
ATOM     90  F   UNL A   1      48.918  27.908  28.402  1.00  0.00    -0.206 F 
ATOM     91  C   UNL A   1      50.524  27.056  29.888  1.00  0.00     0.059 A 
ATOM     92  C   UNL A   1      49.831  26.172  32.042  1.00  0.00     0.059 A 
ATOM     93  F   UNL A   1      47.557  26.139  32.607  1.00  0.00    -0.206 F 
ATOM     94  C   UNL A   1      50.833  26.481  31.122  1.00  0.00     0.060 A 
BRANCH  94  95
ATOM     95  S   UNL A   1      52.567  26.182  31.527  1.00  0.00     0.124 S 
ATOM     96  O   UNL A   1      53.199  26.292  30.217  1.00  0.00    -0.237 OA
ATOM     97  O   UNL A   1      52.857  27.263  32.464  1.00  0.00    -0.237 OA
ATOM     98  O   UNL A   1      52.555  24.843  32.108  1.00  0.00    -0.744 OA
ENDBRANCH  94  95
ENDBRANCH  62  87
ENDBRANCH  36  37
ENDBRANCH  28  31
ENDBRANCH  26  27
ENDBRANCH  25  26
ENDBRANCH  24  25
ENDBRANCH   1  24
TORSDOF 19
ENDMDL
MODEL 2
REMARK VINA RESULT:      -8.8      3.712      6.893
REMARK SMILES C[C@H](Nc1ccc2c(c1)OCCO2)[C@H](C)C(=O)NCCCCCCNC(=O)c1ccc(-c2c3nc(c(-c4c(F)cc(S(=O)(=O)[O-])cc4F)c4ccc([nH]4)c(-c4c(F)cc(S(=O)(=O)[O-])cc4F)c4nc(c(-c5c(F)cc(S(=O)(=O)[O-])cc5F)c5ccc2[nH]5)C=C4)C=C3)cc1
REMARK SMILES IDX 21 1 20 2 19 3 18 4 16 5 17 6 14 8 15 9 2 10 1 11 3 12 4 14
REMARK SMILES IDX 5 15 9 16 6 17 8 18 7 19 10 20 13 21 11 22 12 23 22 24 23 25
REMARK SMILES IDX 24 26 25 27 26 28 27 30 28 31 29 32 93 33 30 34 92 35 31 36
REMARK SMILES IDX 32 37 33 38 86 39 34 40 91 41 85 42 87 43 35 44 90 45 84 46
REMARK SMILES IDX 83 47 36 49 70 50 49 51 69 52 50 53 53 54 68 55 88 56 51 57
REMARK SMILES IDX 52 58 67 60 89 61 54 62 37 63 38 64 47 65 39 66 40 67 46 68
REMARK SMILES IDX 48 69 41 70 42 71 43 72 44 73 45 74 71 75 72 76 81 77 73 78
REMARK SMILES IDX 74 79 80 80 82 81 75 82 76 83 77 84 78 85 79 86 55 87 56 88
REMARK SMILES IDX 65 89 57 90 58 91 64 92 66 93 59 94 60 95 61 96 62 97 63 98
REMARK H PARENT 18 7 3 13 25 29 87 48 53 59
REMARK Flexibility Score: inf
ROOT
ATOM      1  C   UNL A   1      31.628  29.313  24.743  1.00  0.00     0.002 C 
ENDROOT
BRANCH   1   2
ATOM      2  C   UNL A   1      30.413  29.472  23.833  1.00  0.00     0.021 C 
BRANCH   2   3
ATOM      3  C   UNL A   1      30.400  28.557  22.618  1.00  0.00     0.116 C 
BRANCH   3   4
ATOM      4  N   UNL A   1      30.143  27.164  22.896  1.00  0.00    -0.356 N 
ATOM      5  C   UNL A   1      31.061  26.155  22.959  1.00  0.00     0.224 C 
ATOM      6  O   UNL A   1      30.689  25.076  23.434  1.00  0.00    -0.275 OA
ATOM      7  H   UNL A   1      29.205  26.915  23.058  1.00  0.00     0.163 HD
BRANCH   5   8
ATOM      8  C   UNL A   1      32.494  26.303  22.427  1.00  0.00     0.097 C 
ATOM      9  C   UNL A   1      33.522  26.590  23.531  1.00  0.00     0.020 C 
BRANCH   8  10
ATOM     10  C   UNL A   1      32.964  25.293  21.341  1.00  0.00     0.088 C 
ATOM     11  C   UNL A   1      32.262  25.620  20.008  1.00  0.00     0.031 C 
BRANCH  10  12
ATOM     12  N   UNL A   1      32.708  23.877  21.605  1.00  0.00    -0.382 N 
ATOM     13  H   UNL A   1      31.961  23.454  21.125  1.00  0.00     0.160 HD
BRANCH  12  14
ATOM     14  C   UNL A   1      33.438  23.082  22.478  1.00  0.00     0.038 A 
ATOM     15  C   UNL A   1      32.773  22.125  23.257  1.00  0.00     0.030 A 
ATOM     16  C   UNL A   1      34.819  23.207  22.655  1.00  0.00     0.076 A 
ATOM     17  C   UNL A   1      33.452  21.377  24.228  1.00  0.00     0.052 A 
ATOM     18  C   UNL A   1      35.482  22.541  23.688  1.00  0.00     0.163 A 
ATOM     19  C   UNL A   1      34.798  21.622  24.476  1.00  0.00     0.161 A 
ATOM     20  O   UNL A   1      36.788  22.900  23.901  1.00  0.00    -0.486 OA
ATOM     21  O   UNL A   1      35.380  20.937  25.504  1.00  0.00    -0.486 OA
ATOM     22  C   UNL A   1      37.455  22.012  24.805  1.00  0.00     0.271 C 
ATOM     23  C   UNL A   1      36.563  21.598  25.967  1.00  0.00     0.271 C 
ENDBRANCH  12  14
ENDBRANCH  10  12
ENDBRANCH   8  10
ENDBRANCH   5   8
ENDBRANCH   3   4
ENDBRANCH   2   3
ENDBRANCH   1   2
BRANCH   1  24
ATOM     24  C   UNL A   1      31.335  28.759  26.143  1.00  0.00     0.002 C 
BRANCH  24  25
ATOM     25  C   UNL A   1      32.370  27.781  26.707  1.00  0.00     0.021 C 
BRANCH  25  26
ATOM     26  C   UNL A   1      33.712  28.402  27.081  1.00  0.00     0.116 C 
BRANCH  26  27
ATOM     27  N   UNL A   1      33.590  29.810  27.432  1.00  0.00    -0.352 N 
ATOM     28  C   UNL A   1      34.473  30.626  28.092  1.00  0.00     0.251 C 
ATOM     29  H   UNL A   1      32.749  30.241  27.154  1.00  0.00     0.163 HD
ATOM     30  O   UNL A   1      34.119  31.742  28.469  1.00  0.00    -0.269 OA
BRANCH  28  31
ATOM     31  C   UNL A   1      35.846  30.153  28.361  1.00  0.00     0.039 A 
ATOM     32  C   UNL A   1      36.807  30.235  27.350  1.00  0.00     0.014 A 
ATOM     33  C   UNL A   1      36.182  29.628  29.611  1.00  0.00     0.014 A 
ATOM     34  C   UNL A   1      38.123  29.852  27.615  1.00  0.00     0.010 A 
ATOM     35  C   UNL A   1      37.507  29.315  29.895  1.00  0.00     0.010 A 
ATOM     36  C   UNL A   1      38.491  29.423  28.900  1.00  0.00    -0.014 A 
BRANCH  36  37
ATOM     37  C   UNL A   1      39.894  29.071  29.237  1.00  0.00     0.031 A 
ATOM     38  C   UNL A   1      40.792  30.101  29.864  1.00  0.00     0.074 A 
ATOM     39  C   UNL A   1      40.381  27.861  28.900  1.00  0.00     0.049 A 
ATOM     40  N   UNL A   1      42.075  30.042  30.107  1.00  0.00    -0.248 NA
ATOM     41  C   UNL A   1      40.168  31.381  30.239  1.00  0.00     0.031 C 
ATOM     42  C   UNL A   1      39.615  26.786  28.263  1.00  0.00     0.029 A 
ATOM     43  N   UNL A   1      41.642  27.335  29.028  1.00  0.00    -0.354 N 
ATOM     44  C   UNL A   1      42.415  31.276  30.647  1.00  0.00     0.074 A 
ATOM     45  C   UNL A   1      41.215  32.085  30.643  1.00  0.00     0.031 C 
ATOM     46  C   UNL A   1      40.417  25.727  28.073  1.00  0.00     0.029 A 
ATOM     47  C   UNL A   1      41.764  26.060  28.526  1.00  0.00     0.049 A 
ATOM     48  H   UNL A   1      42.390  27.824  29.440  1.00  0.00     0.167 HD
ATOM     49  C   UNL A   1      43.615  31.692  31.121  1.00  0.00     0.037 A 
ATOM     50  C   UNL A   1      42.842  25.257  28.425  1.00  0.00     0.037 A 
ATOM     51  C   UNL A   1      44.798  30.872  31.137  1.00  0.00     0.049 A 
ATOM     52  C   UNL A   1      44.173  25.751  28.929  1.00  0.00     0.074 A 
ATOM     53  C   UNL A   1      46.051  31.184  31.633  1.00  0.00     0.029 A 
ATOM     54  N   UNL A   1      44.875  29.582  30.633  1.00  0.00    -0.354 N 
ATOM     55  N   UNL A   1      44.469  26.907  29.475  1.00  0.00    -0.248 NA
ATOM     56  C   UNL A   1      45.315  24.836  28.805  1.00  0.00     0.031 C 
ATOM     57  C   UNL A   1      46.901  30.102  31.380  1.00  0.00     0.029 A 
ATOM     58  C   UNL A   1      46.162  29.092  30.786  1.00  0.00     0.049 A 
ATOM     59  H   UNL A   1      44.127  29.087  30.228  1.00  0.00     0.167 HD
ATOM     60  C   UNL A   1      45.821  26.841  29.797  1.00  0.00     0.074 A 
ATOM     61  C   UNL A   1      46.284  25.534  29.382  1.00  0.00     0.031 C 
ATOM     62  C   UNL A   1      46.604  27.777  30.386  1.00  0.00     0.037 A 
BRANCH  49  63
ATOM     63  C   UNL A   1      43.705  33.095  31.657  1.00  0.00     0.058 A 
ATOM     64  C   UNL A   1      43.532  33.379  33.022  1.00  0.00     0.135 A 
ATOM     65  C   UNL A   1      43.995  34.169  30.799  1.00  0.00     0.135 A 
ATOM     66  F   UNL A   1      43.240  32.394  33.886  1.00  0.00    -0.206 F 
ATOM     67  C   UNL A   1      43.606  34.680  33.510  1.00  0.00     0.059 A 
ATOM     68  C   UNL A   1      44.107  35.474  31.272  1.00  0.00     0.059 A 
ATOM     69  F   UNL A   1      44.171  33.957  29.486  1.00  0.00    -0.206 F 
ATOM     70  C   UNL A   1      43.892  35.721  32.627  1.00  0.00     0.060 A 
BRANCH  70  71
ATOM     71  S   UNL A   1      43.976  37.403  33.277  1.00  0.00     0.124 S 
ATOM     72  O   UNL A   1      43.870  38.192  32.054  1.00  0.00    -0.237 OA
ATOM     73  O   UNL A   1      42.819  37.452  34.164  1.00  0.00    -0.237 OA
ATOM     74  O   UNL A   1      45.275  37.447  33.940  1.00  0.00    -0.744 OA
ENDBRANCH  70  71
ENDBRANCH  49  63
BRANCH  50  75
ATOM     75  C   UNL A   1      42.705  23.897  27.838  1.00  0.00     0.058 A 
ATOM     76  C   UNL A   1      42.548  22.771  28.659  1.00  0.00     0.135 A 
ATOM     77  C   UNL A   1      42.711  23.695  26.448  1.00  0.00     0.135 A 
ATOM     78  F   UNL A   1      42.545  22.910  29.994  1.00  0.00    -0.206 F 
ATOM     79  C   UNL A   1      42.419  21.492  28.127  1.00  0.00     0.059 A 
ATOM     80  C   UNL A   1      42.553  22.430  25.892  1.00  0.00     0.059 A 
ATOM     81  F   UNL A   1      42.842  24.741  25.618  1.00  0.00    -0.206 F 
ATOM     82  C   UNL A   1      42.418  21.332  26.741  1.00  0.00     0.060 A 
BRANCH  82  83
ATOM     83  S   UNL A   1      42.200  19.672  26.064  1.00  0.00     0.124 S 
ATOM     84  O   UNL A   1      40.791  19.690  25.690  1.00  0.00    -0.237 OA
ATOM     85  O   UNL A   1      43.154  19.665  24.960  1.00  0.00    -0.237 OA
ATOM     86  O   UNL A   1      42.545  18.804  27.186  1.00  0.00    -0.744 OA
ENDBRANCH  82  83
ENDBRANCH  50  75
BRANCH  62  87
ATOM     87  C   UNL A   1      48.035  27.415  30.679  1.00  0.00     0.058 A 
ATOM     88  C   UNL A   1      48.410  26.772  31.867  1.00  0.00     0.135 A 
ATOM     89  C   UNL A   1      49.028  27.633  29.708  1.00  0.00     0.135 A 
ATOM     90  F   UNL A   1      47.503  26.548  32.831  1.00  0.00    -0.206 F 
ATOM     91  C   UNL A   1      49.722  26.362  32.087  1.00  0.00     0.059 A 
ATOM     92  C   UNL A   1      50.338  27.206  29.894  1.00  0.00     0.059 A 
ATOM     93  F   UNL A   1      48.719  28.236  28.549  1.00  0.00    -0.206 F 
ATOM     94  C   UNL A   1      50.676  26.574  31.090  1.00  0.00     0.060 A 
BRANCH  94  95
ATOM     95  S   UNL A   1      52.357  25.972  31.360  1.00  0.00     0.124 S 
ATOM     96  O   UNL A   1      52.110  24.641  31.904  1.00  0.00    -0.237 OA
ATOM     97  O   UNL A   1      52.920  26.013  30.015  1.00  0.00    -0.237 OA
ATOM     98  O   UNL A   1      52.919  26.939  32.299  1.00  0.00    -0.744 OA
ENDBRANCH  94  95
ENDBRANCH  62  87
ENDBRANCH  36  37
ENDBRANCH  28  31
ENDBRANCH  26  27
ENDBRANCH  25  26
ENDBRANCH  24  25
ENDBRANCH   1  24
TORSDOF 19
ENDMDL
MODEL 3
REMARK VINA RESULT:      -8.6      4.017     10.946
REMARK SMILES C[C@H](Nc1ccc2c(c1)OCCO2)[C@H](C)C(=O)NCCCCCCNC(=O)c1ccc(-c2c3nc(c(-c4c(F)cc(S(=O)(=O)[O-])cc4F)c4ccc([nH]4)c(-c4c(F)cc(S(=O)(=O)[O-])cc4F)c4nc(c(-c5c(F)cc(S(=O)(=O)[O-])cc5F)c5ccc2[nH]5)C=C4)C=C3)cc1
REMARK SMILES IDX 21 1 20 2 19 3 18 4 16 5 17 6 14 8 15 9 2 10 1 11 3 12 4 14
REMARK SMILES IDX 5 15 9 16 6 17 8 18 7 19 10 20 13 21 11 22 12 23 22 24 23 25
REMARK SMILES IDX 24 26 25 27 26 28 27 30 28 31 29 32 93 33 30 34 92 35 31 36
REMARK SMILES IDX 32 37 33 38 86 39 34 40 91 41 85 42 87 43 35 44 90 45 84 46
REMARK SMILES IDX 83 47 36 49 70 50 49 51 69 52 50 53 53 54 68 55 88 56 51 57
REMARK SMILES IDX 52 58 67 60 89 61 54 62 37 63 38 64 47 65 39 66 40 67 46 68
REMARK SMILES IDX 48 69 41 70 42 71 43 72 44 73 45 74 71 75 72 76 81 77 73 78
REMARK SMILES IDX 74 79 80 80 82 81 75 82 76 83 77 84 78 85 79 86 55 87 56 88
REMARK SMILES IDX 65 89 57 90 58 91 64 92 66 93 59 94 60 95 61 96 62 97 63 98
REMARK H PARENT 18 7 3 13 25 29 87 48 53 59
REMARK Flexibility Score: inf
ROOT
ATOM      1  C   UNL A   1      33.525  22.976  24.098  1.00  0.00     0.002 C 
ENDROOT
BRANCH   1   2
ATOM      2  C   UNL A   1      32.406  23.334  23.124  1.00  0.00     0.021 C 
BRANCH   2   3
ATOM      3  C   UNL A   1      31.001  23.223  23.696  1.00  0.00     0.116 C 
BRANCH   3   4
ATOM      4  N   UNL A   1      30.789  23.905  24.951  1.00  0.00    -0.356 N 
ATOM      5  C   UNL A   1      30.206  25.125  25.136  1.00  0.00     0.224 C 
ATOM      6  O   UNL A   1      29.904  25.442  26.292  1.00  0.00    -0.275 OA
ATOM      7  H   UNL A   1      31.098  23.438  25.760  1.00  0.00     0.163 HD
BRANCH   5   8
ATOM      8  C   UNL A   1      29.964  26.112  23.984  1.00  0.00     0.097 C 
ATOM      9  C   UNL A   1      28.513  26.609  23.910  1.00  0.00     0.020 C 
BRANCH   8  10
ATOM     10  C   UNL A   1      31.044  27.203  23.736  1.00  0.00     0.088 C 
ATOM     11  C   UNL A   1      31.655  27.001  22.334  1.00  0.00     0.031 C 
BRANCH  10  12
ATOM     12  N   UNL A   1      32.167  27.244  24.673  1.00  0.00    -0.382 N 
ATOM     13  H   UNL A   1      32.759  26.458  24.705  1.00  0.00     0.160 HD
BRANCH  12  14
ATOM     14  C   UNL A   1      32.464  28.302  25.519  1.00  0.00     0.038 A 
ATOM     15  C   UNL A   1      31.606  29.410  25.564  1.00  0.00     0.030 A 
ATOM     16  C   UNL A   1      33.610  28.346  26.319  1.00  0.00     0.076 A 
ATOM     17  C   UNL A   1      31.922  30.547  26.321  1.00  0.00     0.052 A 
ATOM     18  C   UNL A   1      33.982  29.510  26.993  1.00  0.00     0.163 A 
ATOM     19  C   UNL A   1      33.136  30.614  26.995  1.00  0.00     0.161 A 
ATOM     20  O   UNL A   1      35.226  29.506  27.569  1.00  0.00    -0.486 OA
ATOM     21  O   UNL A   1      33.435  31.786  27.630  1.00  0.00    -0.486 OA
ATOM     22  C   UNL A   1      35.428  30.632  28.432  1.00  0.00     0.271 C 
ATOM     23  C   UNL A   1      34.844  31.912  27.853  1.00  0.00     0.271 C 
ENDBRANCH  12  14
ENDBRANCH  10  12
ENDBRANCH   8  10
ENDBRANCH   5   8
ENDBRANCH   3   4
ENDBRANCH   2   3
ENDBRANCH   1   2
BRANCH   1  24
ATOM     24  C   UNL A   1      34.516  24.106  24.409  1.00  0.00     0.002 C 
BRANCH  24  25
ATOM     25  C   UNL A   1      35.989  23.698  24.510  1.00  0.00     0.021 C 
BRANCH  25  26
ATOM     26  C   UNL A   1      36.528  23.563  25.930  1.00  0.00     0.116 C 
BRANCH  26  27
ATOM     27  N   UNL A   1      37.573  22.554  26.031  1.00  0.00    -0.352 N 
ATOM     28  C   UNL A   1      38.908  22.703  26.308  1.00  0.00     0.251 C 
ATOM     29  H   UNL A   1      37.277  21.627  25.877  1.00  0.00     0.163 HD
ATOM     30  O   UNL A   1      39.677  21.755  26.162  1.00  0.00    -0.269 OA
BRANCH  28  31
ATOM     31  C   UNL A   1      39.418  24.010  26.768  1.00  0.00     0.039 A 
ATOM     32  C   UNL A   1      39.343  24.333  28.125  1.00  0.00     0.014 A 
ATOM     33  C   UNL A   1      39.969  24.916  25.857  1.00  0.00     0.014 A 
ATOM     34  C   UNL A   1      39.883  25.538  28.579  1.00  0.00     0.010 A 
ATOM     35  C   UNL A   1      40.570  26.081  26.321  1.00  0.00     0.010 A 
ATOM     36  C   UNL A   1      40.532  26.405  27.686  1.00  0.00    -0.014 A 
BRANCH  36  37
ATOM     37  C   UNL A   1      41.176  27.663  28.143  1.00  0.00     0.031 A 
ATOM     38  C   UNL A   1      42.676  27.778  28.137  1.00  0.00     0.074 A 
ATOM     39  C   UNL A   1      40.420  28.660  28.642  1.00  0.00     0.049 A 
ATOM     40  N   UNL A   1      43.434  28.728  28.620  1.00  0.00    -0.248 NA
ATOM     41  C   UNL A   1      43.422  26.661  27.535  1.00  0.00     0.031 C 
ATOM     42  C   UNL A   1      38.958  28.654  28.725  1.00  0.00     0.029 A 
ATOM     43  N   UNL A   1      40.777  29.866  29.192  1.00  0.00    -0.354 N 
ATOM     44  C   UNL A   1      44.743  28.318  28.396  1.00  0.00     0.074 A 
ATOM     45  C   UNL A   1      44.676  27.008  27.785  1.00  0.00     0.031 C 
ATOM     46  C   UNL A   1      38.543  29.806  29.275  1.00  0.00     0.029 A 
ATOM     47  C   UNL A   1      39.708  30.611  29.632  1.00  0.00     0.049 A 
ATOM     48  H   UNL A   1      41.711  30.168  29.266  1.00  0.00     0.167 HD
ATOM     49  C   UNL A   1      45.894  28.982  28.657  1.00  0.00     0.037 A 
ATOM     50  C   UNL A   1      39.670  31.801  30.265  1.00  0.00     0.037 A 
ATOM     51  C   UNL A   1      45.947  30.293  29.248  1.00  0.00     0.049 A 
ATOM     52  C   UNL A   1      40.965  32.507  30.575  1.00  0.00     0.074 A 
ATOM     53  C   UNL A   1      47.060  31.069  29.516  1.00  0.00     0.029 A 
ATOM     54  N   UNL A   1      44.842  31.020  29.665  1.00  0.00    -0.354 N 
ATOM     55  N   UNL A   1      42.193  32.123  30.319  1.00  0.00    -0.248 NA
ATOM     56  C   UNL A   1      40.870  33.803  31.259  1.00  0.00     0.031 C 
ATOM     57  C   UNL A   1      46.633  32.243  30.145  1.00  0.00     0.029 A 
ATOM     58  C   UNL A   1      45.248  32.227  30.209  1.00  0.00     0.049 A 
ATOM     59  H   UNL A   1      43.907  30.723  29.585  1.00  0.00     0.167 HD
ATOM     60  C   UNL A   1      43.015  33.151  30.772  1.00  0.00     0.074 A 
ATOM     61  C   UNL A   1      42.144  34.169  31.321  1.00  0.00     0.031 C 
ATOM     62  C   UNL A   1      44.366  33.243  30.733  1.00  0.00     0.037 A 
BRANCH  49  63
ATOM     63  C   UNL A   1      47.188  28.297  28.308  1.00  0.00     0.058 A 
ATOM     64  C   UNL A   1      47.796  28.460  27.052  1.00  0.00     0.135 A 
ATOM     65  C   UNL A   1      47.845  27.490  29.251  1.00  0.00     0.135 A 
ATOM     66  F   UNL A   1      47.207  29.209  26.107  1.00  0.00    -0.206 F 
ATOM     67  C   UNL A   1      48.987  27.816  26.731  1.00  0.00     0.059 A 
ATOM     68  C   UNL A   1      49.055  26.864  28.963  1.00  0.00     0.059 A 
ATOM     69  F   UNL A   1      47.312  27.300  30.468  1.00  0.00    -0.206 F 
ATOM     70  C   UNL A   1      49.608  27.018  27.692  1.00  0.00     0.060 A 
BRANCH  70  71
ATOM     71  S   UNL A   1      51.148  26.185  27.255  1.00  0.00     0.124 S 
ATOM     72  O   UNL A   1      52.021  26.598  28.349  1.00  0.00    -0.237 OA
ATOM     73  O   UNL A   1      50.754  24.780  27.256  1.00  0.00    -0.237 OA
ATOM     74  O   UNL A   1      51.477  26.741  25.947  1.00  0.00    -0.744 OA
ENDBRANCH  70  71
ENDBRANCH  49  63
BRANCH  50  75
ATOM     75  C   UNL A   1      38.362  32.406  30.634  1.00  0.00     0.058 A 
ATOM     76  C   UNL A   1      37.728  32.071  31.839  1.00  0.00     0.135 A 
ATOM     77  C   UNL A   1      37.728  33.342  29.801  1.00  0.00     0.135 A 
ATOM     78  F   UNL A   1      38.290  31.175  32.665  1.00  0.00    -0.206 F 
ATOM     79  C   UNL A   1      36.505  32.627  32.200  1.00  0.00     0.059 A 
ATOM     80  C   UNL A   1      36.519  33.934  30.154  1.00  0.00     0.059 A 
ATOM     81  F   UNL A   1      38.300  33.709  28.644  1.00  0.00    -0.206 F 
ATOM     82  C   UNL A   1      35.909  33.562  31.351  1.00  0.00     0.060 A 
BRANCH  82  83
ATOM     83  S   UNL A   1      34.346  34.311  31.855  1.00  0.00     0.124 S 
ATOM     84  O   UNL A   1      33.837  33.323  32.799  1.00  0.00    -0.237 OA
ATOM     85  O   UNL A   1      34.786  35.578  32.430  1.00  0.00    -0.237 OA
ATOM     86  O   UNL A   1      33.608  34.424  30.599  1.00  0.00    -0.744 OA
ENDBRANCH  82  83
ENDBRANCH  50  75
BRANCH  62  87
ATOM     87  C   UNL A   1      45.000  34.509  31.242  1.00  0.00     0.058 A 
ATOM     88  C   UNL A   1      45.437  34.639  32.568  1.00  0.00     0.135 A 
ATOM     89  C   UNL A   1      45.258  35.571  30.358  1.00  0.00     0.135 A 
ATOM     90  F   UNL A   1      45.208  33.658  33.456  1.00  0.00    -0.206 F 
ATOM     91  C   UNL A   1      46.102  35.782  33.004  1.00  0.00     0.059 A 
ATOM     92  C   UNL A   1      45.946  36.709  30.764  1.00  0.00     0.059 A 
ATOM     93  F   UNL A   1      44.868  35.492  29.075  1.00  0.00    -0.206 F 
ATOM     94  C   UNL A   1      46.362  36.806  32.091  1.00  0.00     0.060 A 
BRANCH  94  95
ATOM     95  S   UNL A   1      47.290  38.250  32.653  1.00  0.00     0.124 S 
ATOM     96  O   UNL A   1      47.380  39.037  31.428  1.00  0.00    -0.237 OA
ATOM     97  O   UNL A   1      46.420  38.791  33.692  1.00  0.00    -0.237 OA
ATOM     98  O   UNL A   1      48.548  37.682  33.129  1.00  0.00    -0.744 OA
ENDBRANCH  94  95
ENDBRANCH  62  87
ENDBRANCH  36  37
ENDBRANCH  28  31
ENDBRANCH  26  27
ENDBRANCH  25  26
ENDBRANCH  24  25
ENDBRANCH   1  24
TORSDOF 19
ENDMDL
