MODEL 1
REMARK VINA RESULT:     -11.5      0.000      0.000
REMARK SMILES O=C(C[C@H](c1ccsc1)n1cccc1)NCCCCCCNC(=O)c1ccc(-c2c3nc(c(-c4c(F)cc(S(=O)(=O)[O-])cc4F)c4ccc([nH]4)c(-c4c(F)cc(S(=O)(=O)[O-])cc4F)c4nc(c(-c5c(F)cc(S(=O)(=O)[O-])cc5F)c5ccc2[nH]5)C=C4)C=C3)cc1
REMARK SMILES IDX 19 1 18 2 17 3 16 4 15 5 1 6 2 7 3 9 4 10 10 11 11 12 14 13
REMARK SMILES IDX 12 14 13 15 5 16 6 17 9 18 7 19 8 20 20 21 21 22 22 23 23 24
REMARK SMILES IDX 24 26 25 27 26 28 90 29 27 30 89 31 28 32 29 33 30 34 83 35
REMARK SMILES IDX 31 36 88 37 82 38 84 39 32 40 87 41 81 42 80 43 33 45 67 46
REMARK SMILES IDX 46 47 66 48 47 49 50 50 65 51 85 52 48 53 49 54 64 56 86 57
REMARK SMILES IDX 51 58 34 59 35 60 44 61 36 62 37 63 43 64 45 65 38 66 39 67
REMARK SMILES IDX 40 68 41 69 42 70 68 71 69 72 78 73 70 74 71 75 77 76 79 77
REMARK SMILES IDX 72 78 73 79 74 80 75 81 76 82 52 83 53 84 62 85 54 86 55 87
REMARK SMILES IDX 61 88 63 89 56 90 57 91 58 92 59 93 60 94
REMARK H PARENT 15 8 22 25 84 44 50 55
REMARK Flexibility Score: inf
ROOT
ATOM      1  C   UNL A   1      32.872  27.997  25.229  1.00  0.00     0.002 C 
ENDROOT
BRANCH   1   2
ATOM      2  C   UNL A   1      31.376  27.770  24.986  1.00  0.00     0.002 C 
BRANCH   2   3
ATOM      3  C   UNL A   1      30.973  26.337  24.611  1.00  0.00     0.021 C 
BRANCH   3   4
ATOM      4  C   UNL A   1      30.904  25.358  25.783  1.00  0.00     0.116 C 
BRANCH   4   5
ATOM      5  N   UNL A   1      31.998  24.404  25.748  1.00  0.00    -0.356 N 
ATOM      6  O   UNL A   1      31.411  23.279  27.665  1.00  0.00    -0.275 OA
ATOM      7  C   UNL A   1      32.162  23.431  26.707  1.00  0.00     0.222 C 
ATOM      8  H   UNL A   1      32.647  24.455  25.009  1.00  0.00     0.163 HD
BRANCH   7   9
ATOM      9  C   UNL A   1      33.373  22.551  26.505  1.00  0.00     0.130 C 
BRANCH   9  10
ATOM     10  C   UNL A   1      33.489  22.080  25.056  1.00  0.00     0.127 C 
BRANCH  10  11
ATOM     11  N   UNL A   1      34.838  22.324  24.518  1.00  0.00    -0.346 N 
ATOM     12  C   UNL A   1      36.003  21.861  25.086  1.00  0.00     0.086 A 
ATOM     13  C   UNL A   1      35.150  23.017  23.373  1.00  0.00     0.086 A 
ATOM     14  C   UNL A   1      37.059  22.301  24.320  1.00  0.00     0.019 A 
ATOM     15  C   UNL A   1      36.521  23.038  23.240  1.00  0.00     0.019 A 
ENDBRANCH  10  11
BRANCH  10  16
ATOM     16  C   UNL A   1      33.080  20.640  24.811  1.00  0.00    -0.014 A 
ATOM     17  C   UNL A   1      32.618  20.093  23.565  1.00  0.00     0.017 A 
ATOM     18  C   UNL A   1      33.131  19.648  25.778  1.00  0.00     0.070 A 
ATOM     19  C   UNL A   1      32.312  18.753  23.647  1.00  0.00     0.065 A 
ATOM     20  S   UNL A   1      32.602  18.126  25.208  1.00  0.00    -0.152 S 
ENDBRANCH  10  16
ENDBRANCH   9  10
ENDBRANCH   7   9
ENDBRANCH   4   5
ENDBRANCH   3   4
ENDBRANCH   2   3
ENDBRANCH   1   2
BRANCH   1  21
ATOM     21  C   UNL A   1      33.245  28.492  26.633  1.00  0.00     0.021 C 
BRANCH  21  22
ATOM     22  C   UNL A   1      34.746  28.662  26.854  1.00  0.00     0.116 C 
BRANCH  22  23
ATOM     23  N   UNL A   1      35.099  30.063  27.021  1.00  0.00    -0.352 N 
ATOM     24  C   UNL A   1      36.121  30.620  27.747  1.00  0.00     0.251 C 
ATOM     25  H   UNL A   1      34.522  30.704  26.545  1.00  0.00     0.163 HD
ATOM     26  O   UNL A   1      36.057  31.806  28.065  1.00  0.00    -0.269 OA
BRANCH  24  27
ATOM     27  C   UNL A   1      37.283  29.811  28.166  1.00  0.00     0.039 A 
ATOM     28  C   UNL A   1      38.410  29.788  27.336  1.00  0.00     0.014 A 
ATOM     29  C   UNL A   1      37.237  29.023  29.322  1.00  0.00     0.014 A 
ATOM     30  C   UNL A   1      39.515  29.024  27.697  1.00  0.00     0.010 A 
ATOM     31  C   UNL A   1      38.351  28.288  29.704  1.00  0.00     0.010 A 
ATOM     32  C   UNL A   1      39.492  28.294  28.893  1.00  0.00    -0.014 A 
BRANCH  32  33
ATOM     33  C   UNL A   1      40.726  27.613  29.344  1.00  0.00     0.031 A 
ATOM     34  C   UNL A   1      41.010  26.340  28.515  1.00  0.00     0.074 A 
ATOM     35  C   UNL A   1      41.384  28.195  30.394  1.00  0.00     0.049 A 
ATOM     36  N   UNL A   1      41.567  25.218  28.858  1.00  0.00    -0.248 NA
ATOM     37  C   UNL A   1      40.506  26.273  27.114  1.00  0.00     0.031 C 
ATOM     38  C   UNL A   1      40.964  29.454  31.052  1.00  0.00     0.029 A 
ATOM     39  N   UNL A   1      42.516  27.882  31.120  1.00  0.00    -0.354 N 
ATOM     40  C   UNL A   1      41.670  24.413  27.695  1.00  0.00     0.074 A 
ATOM     41  C   UNL A   1      40.877  25.060  26.693  1.00  0.00     0.031 C 
ATOM     42  C   UNL A   1      41.767  29.750  32.096  1.00  0.00     0.029 A 
ATOM     43  C   UNL A   1      42.789  28.732  32.229  1.00  0.00     0.049 A 
ATOM     44  H   UNL A   1      43.096  27.122  30.886  1.00  0.00     0.167 HD
ATOM     45  C   UNL A   1      42.519  23.344  27.586  1.00  0.00     0.037 A 
ATOM     46  C   UNL A   1      43.733  28.592  33.215  1.00  0.00     0.037 A 
ATOM     47  C   UNL A   1      43.266  23.209  28.792  1.00  0.00     0.049 A 
ATOM     48  C   UNL A   1      44.521  27.416  32.817  1.00  0.00     0.074 A 
ATOM     49  C   UNL A   1      42.938  22.779  30.049  1.00  0.00     0.029 A 
ATOM     50  N   UNL A   1      44.461  23.887  28.844  1.00  0.00    -0.354 N 
ATOM     51  N   UNL A   1      45.366  27.380  31.831  1.00  0.00    -0.248 NA
ATOM     52  C   UNL A   1      44.264  26.143  33.503  1.00  0.00     0.031 C 
ATOM     53  C   UNL A   1      43.689  23.627  30.888  1.00  0.00     0.029 A 
ATOM     54  C   UNL A   1      44.586  24.379  30.119  1.00  0.00     0.049 A 
ATOM     55  H   UNL A   1      45.104  23.999  28.107  1.00  0.00     0.167 HD
ATOM     56  C   UNL A   1      45.476  26.034  31.583  1.00  0.00     0.074 A 
ATOM     57  C   UNL A   1      45.052  25.351  32.786  1.00  0.00     0.031 C 
ATOM     58  C   UNL A   1      45.379  25.573  30.311  1.00  0.00     0.037 A 
BRANCH  45  59
ATOM     59  C   UNL A   1      42.990  22.506  26.421  1.00  0.00     0.058 A 
ATOM     60  C   UNL A   1      42.573  21.149  26.372  1.00  0.00     0.135 A 
ATOM     61  C   UNL A   1      44.067  22.844  25.591  1.00  0.00     0.135 A 
ATOM     62  F   UNL A   1      41.502  20.733  27.071  1.00  0.00    -0.206 F 
ATOM     63  C   UNL A   1      43.275  20.167  25.679  1.00  0.00     0.059 A 
ATOM     64  C   UNL A   1      44.762  21.879  24.849  1.00  0.00     0.059 A 
ATOM     65  F   UNL A   1      44.528  24.100  25.538  1.00  0.00    -0.206 F 
ATOM     66  C   UNL A   1      44.397  20.538  24.950  1.00  0.00     0.060 A 
BRANCH  66  67
ATOM     67  S   UNL A   1      45.386  19.234  24.185  1.00  0.00     0.124 S 
ATOM     68  O   UNL A   1      46.711  19.840  24.161  1.00  0.00    -0.237 OA
ATOM     69  O   UNL A   1      45.215  18.126  25.120  1.00  0.00    -0.237 OA
ATOM     70  O   UNL A   1      44.747  19.048  22.884  1.00  0.00    -0.744 OA
ENDBRANCH  66  67
ENDBRANCH  45  59
BRANCH  46  71
ATOM     71  C   UNL A   1      44.041  29.180  34.584  1.00  0.00     0.058 A 
ATOM     72  C   UNL A   1      43.292  29.012  35.756  1.00  0.00     0.135 A 
ATOM     73  C   UNL A   1      45.277  29.864  34.788  1.00  0.00     0.135 A 
ATOM     74  F   UNL A   1      42.039  28.544  35.718  1.00  0.00    -0.206 F 
ATOM     75  C   UNL A   1      43.803  29.320  37.032  1.00  0.00     0.059 A 
ATOM     76  C   UNL A   1      45.827  30.129  36.040  1.00  0.00     0.059 A 
ATOM     77  F   UNL A   1      46.035  30.274  33.762  1.00  0.00    -0.206 F 
ATOM     78  C   UNL A   1      45.098  29.817  37.166  1.00  0.00     0.060 A 
BRANCH  78  79
ATOM     79  S   UNL A   1      45.886  29.933  38.788  1.00  0.00     0.124 S 
ATOM     80  O   UNL A   1      44.740  29.894  39.688  1.00  0.00    -0.237 OA
ATOM     81  O   UNL A   1      46.749  28.755  38.803  1.00  0.00    -0.237 OA
ATOM     82  O   UNL A   1      46.595  31.209  38.722  1.00  0.00    -0.744 OA
ENDBRANCH  78  79
ENDBRANCH  46  71
BRANCH  58  83
ATOM     83  C   UNL A   1      45.779  26.569  29.236  1.00  0.00     0.058 A 
ATOM     84  C   UNL A   1      44.792  27.237  28.495  1.00  0.00     0.135 A 
ATOM     85  C   UNL A   1      47.107  26.834  28.860  1.00  0.00     0.135 A 
ATOM     86  F   UNL A   1      43.495  27.040  28.782  1.00  0.00    -0.206 F 
ATOM     87  C   UNL A   1      45.106  28.120  27.457  1.00  0.00     0.059 A 
ATOM     88  C   UNL A   1      47.453  27.720  27.835  1.00  0.00     0.059 A 
ATOM     89  F   UNL A   1      48.117  26.224  29.479  1.00  0.00    -0.206 F 
ATOM     90  C   UNL A   1      46.441  28.363  27.136  1.00  0.00     0.060 A 
BRANCH  90  91
ATOM     91  S   UNL A   1      46.831  29.536  25.818  1.00  0.00     0.124 S 
ATOM     92  O   UNL A   1      48.138  30.042  26.226  1.00  0.00    -0.237 OA
ATOM     93  O   UNL A   1      46.825  28.681  24.636  1.00  0.00    -0.237 OA
ATOM     94  O   UNL A   1      45.744  30.510  25.887  1.00  0.00    -0.744 OA
ENDBRANCH  90  91
ENDBRANCH  58  83
ENDBRANCH  32  33
ENDBRANCH  24  27
ENDBRANCH  22  23
ENDBRANCH  21  22
ENDBRANCH   1  21
TORSDOF 19
ENDMDL
MODEL 2
REMARK VINA RESULT:     -11.4      1.520      2.587
REMARK SMILES O=C(C[C@H](c1ccsc1)n1cccc1)NCCCCCCNC(=O)c1ccc(-c2c3nc(c(-c4c(F)cc(S(=O)(=O)[O-])cc4F)c4ccc([nH]4)c(-c4c(F)cc(S(=O)(=O)[O-])cc4F)c4nc(c(-c5c(F)cc(S(=O)(=O)[O-])cc5F)c5ccc2[nH]5)C=C4)C=C3)cc1
REMARK SMILES IDX 19 1 18 2 17 3 16 4 15 5 1 6 2 7 3 9 4 10 10 11 11 12 14 13
REMARK SMILES IDX 12 14 13 15 5 16 6 17 9 18 7 19 8 20 20 21 21 22 22 23 23 24
REMARK SMILES IDX 24 26 25 27 26 28 90 29 27 30 89 31 28 32 29 33 30 34 83 35
REMARK SMILES IDX 31 36 88 37 82 38 84 39 32 40 87 41 81 42 80 43 33 45 67 46
REMARK SMILES IDX 46 47 66 48 47 49 50 50 65 51 85 52 48 53 49 54 64 56 86 57
REMARK SMILES IDX 51 58 34 59 35 60 44 61 36 62 37 63 43 64 45 65 38 66 39 67
REMARK SMILES IDX 40 68 41 69 42 70 68 71 69 72 78 73 70 74 71 75 77 76 79 77
REMARK SMILES IDX 72 78 73 79 74 80 75 81 76 82 52 83 53 84 62 85 54 86 55 87
REMARK SMILES IDX 61 88 63 89 56 90 57 91 58 92 59 93 60 94
REMARK H PARENT 15 8 22 25 84 44 50 55
REMARK Flexibility Score: inf
ROOT
ATOM      1  C   UNL A   1      32.061  28.718  26.271  1.00  0.00     0.002 C 
ENDROOT
BRANCH   1   2
ATOM      2  C   UNL A   1      32.209  28.521  24.758  1.00  0.00     0.002 C 
BRANCH   2   3
ATOM      3  C   UNL A   1      30.971  27.968  24.037  1.00  0.00     0.021 C 
BRANCH   3   4
ATOM      4  C   UNL A   1      31.265  27.204  22.746  1.00  0.00     0.116 C 
BRANCH   4   5
ATOM      5  N   UNL A   1      31.879  25.916  23.014  1.00  0.00    -0.356 N 
ATOM      6  O   UNL A   1      33.926  26.419  22.096  1.00  0.00    -0.275 OA
ATOM      7  C   UNL A   1      33.177  25.628  22.659  1.00  0.00     0.222 C 
ATOM      8  H   UNL A   1      31.347  25.223  23.466  1.00  0.00     0.163 HD
BRANCH   7   9
ATOM      9  C   UNL A   1      33.624  24.228  23.005  1.00  0.00     0.130 C 
BRANCH   9  10
ATOM     10  C   UNL A   1      34.099  24.131  24.455  1.00  0.00     0.127 C 
BRANCH  10  11
ATOM     11  N   UNL A   1      33.053  23.571  25.327  1.00  0.00    -0.346 N 
ATOM     12  C   UNL A   1      33.202  23.332  26.673  1.00  0.00     0.086 A 
ATOM     13  C   UNL A   1      31.776  23.225  24.955  1.00  0.00     0.086 A 
ATOM     14  C   UNL A   1      32.027  22.791  27.147  1.00  0.00     0.019 A 
ATOM     15  C   UNL A   1      31.127  22.717  26.059  1.00  0.00     0.019 A 
ENDBRANCH  10  11
BRANCH  10  16
ATOM     16  C   UNL A   1      35.405  23.386  24.657  1.00  0.00    -0.014 A 
ATOM     17  C   UNL A   1      36.606  23.929  25.230  1.00  0.00     0.017 A 
ATOM     18  C   UNL A   1      35.592  22.053  24.331  1.00  0.00     0.070 A 
ATOM     19  C   UNL A   1      37.636  23.017  25.280  1.00  0.00     0.065 A 
ATOM     20  S   UNL A   1      37.171  21.493  24.669  1.00  0.00    -0.152 S 
ENDBRANCH  10  16
ENDBRANCH   9  10
ENDBRANCH   7   9
ENDBRANCH   4   5
ENDBRANCH   3   4
ENDBRANCH   2   3
ENDBRANCH   1   2
BRANCH   1  21
ATOM     21  C   UNL A   1      33.214  28.169  27.122  1.00  0.00     0.021 C 
BRANCH  21  22
ATOM     22  C   UNL A   1      34.600  28.590  26.637  1.00  0.00     0.116 C 
BRANCH  22  23
ATOM     23  N   UNL A   1      34.857  29.992  26.926  1.00  0.00    -0.352 N 
ATOM     24  C   UNL A   1      35.814  30.550  27.735  1.00  0.00     0.251 C 
ATOM     25  H   UNL A   1      34.259  30.633  26.476  1.00  0.00     0.163 HD
ATOM     26  O   UNL A   1      35.662  31.701  28.140  1.00  0.00    -0.269 OA
BRANCH  24  27
ATOM     27  C   UNL A   1      37.008  29.782  28.140  1.00  0.00     0.039 A 
ATOM     28  C   UNL A   1      38.133  29.818  27.309  1.00  0.00     0.014 A 
ATOM     29  C   UNL A   1      36.995  28.974  29.283  1.00  0.00     0.014 A 
ATOM     30  C   UNL A   1      39.269  29.094  27.656  1.00  0.00     0.010 A 
ATOM     31  C   UNL A   1      38.139  28.279  29.652  1.00  0.00     0.010 A 
ATOM     32  C   UNL A   1      39.278  28.344  28.840  1.00  0.00    -0.014 A 
BRANCH  32  33
ATOM     33  C   UNL A   1      40.538  27.707  29.278  1.00  0.00     0.031 A 
ATOM     34  C   UNL A   1      40.848  26.432  28.461  1.00  0.00     0.074 A 
ATOM     35  C   UNL A   1      41.195  28.321  30.310  1.00  0.00     0.049 A 
ATOM     36  N   UNL A   1      41.443  25.332  28.808  1.00  0.00    -0.248 NA
ATOM     37  C   UNL A   1      40.323  26.332  27.069  1.00  0.00     0.031 C 
ATOM     38  C   UNL A   1      40.749  29.575  30.960  1.00  0.00     0.029 A 
ATOM     39  N   UNL A   1      42.348  28.051  31.021  1.00  0.00    -0.354 N 
ATOM     40  C   UNL A   1      41.551  24.516  27.653  1.00  0.00     0.074 A 
ATOM     41  C   UNL A   1      40.723  25.126  26.657  1.00  0.00     0.031 C 
ATOM     42  C   UNL A   1      41.560  29.908  31.986  1.00  0.00     0.029 A 
ATOM     43  C   UNL A   1      42.614  28.924  32.115  1.00  0.00     0.049 A 
ATOM     44  H   UNL A   1      42.947  27.307  30.787  1.00  0.00     0.167 HD
ATOM     45  C   UNL A   1      42.431  23.471  27.544  1.00  0.00     0.037 A 
ATOM     46  C   UNL A   1      43.577  28.825  33.087  1.00  0.00     0.037 A 
ATOM     47  C   UNL A   1      43.202  23.374  28.738  1.00  0.00     0.049 A 
ATOM     48  C   UNL A   1      44.394  27.667  32.690  1.00  0.00     0.074 A 
ATOM     49  C   UNL A   1      42.907  22.951  30.005  1.00  0.00     0.029 A 
ATOM     50  N   UNL A   1      44.376  24.088  28.762  1.00  0.00    -0.354 N 
ATOM     51  N   UNL A   1      45.223  27.645  31.690  1.00  0.00    -0.248 NA
ATOM     52  C   UNL A   1      44.187  26.397  33.396  1.00  0.00     0.031 C 
ATOM     53  C   UNL A   1      43.645  23.832  30.821  1.00  0.00     0.029 A 
ATOM     54  C   UNL A   1      44.507  24.600  30.028  1.00  0.00     0.049 A 
ATOM     55  H   UNL A   1      45.003  24.210  28.013  1.00  0.00     0.167 HD
ATOM     56  C   UNL A   1      45.370  26.300  31.457  1.00  0.00     0.074 A 
ATOM     57  C   UNL A   1      44.987  25.619  32.675  1.00  0.00     0.031 C 
ATOM     58  C   UNL A   1      45.266  25.819  30.193  1.00  0.00     0.037 A 
BRANCH  45  59
ATOM     59  C   UNL A   1      42.908  22.633  26.381  1.00  0.00     0.058 A 
ATOM     60  C   UNL A   1      42.479  21.280  26.322  1.00  0.00     0.135 A 
ATOM     61  C   UNL A   1      43.998  22.964  25.565  1.00  0.00     0.135 A 
ATOM     62  F   UNL A   1      41.396  20.871  27.007  1.00  0.00    -0.206 F 
ATOM     63  C   UNL A   1      43.181  20.294  25.634  1.00  0.00     0.059 A 
ATOM     64  C   UNL A   1      44.692  21.996  24.828  1.00  0.00     0.059 A 
ATOM     65  F   UNL A   1      44.471  24.216  25.522  1.00  0.00    -0.206 F 
ATOM     66  C   UNL A   1      44.314  20.657  24.919  1.00  0.00     0.060 A 
BRANCH  66  67
ATOM     67  S   UNL A   1      45.300  19.347  24.161  1.00  0.00     0.124 S 
ATOM     68  O   UNL A   1      45.073  18.235  25.076  1.00  0.00    -0.237 OA
ATOM     69  O   UNL A   1      44.684  19.218  22.844  1.00  0.00    -0.237 OA
ATOM     70  O   UNL A   1      46.651  19.903  24.159  1.00  0.00    -0.744 OA
ENDBRANCH  66  67
ENDBRANCH  45  59
BRANCH  46  71
ATOM     71  C   UNL A   1      43.890  29.439  34.443  1.00  0.00     0.058 A 
ATOM     72  C   UNL A   1      44.880  30.390  34.723  1.00  0.00     0.135 A 
ATOM     73  C   UNL A   1      43.034  29.161  35.549  1.00  0.00     0.135 A 
ATOM     74  F   UNL A   1      45.866  30.643  33.855  1.00  0.00    -0.206 F 
ATOM     75  C   UNL A   1      44.899  31.132  35.921  1.00  0.00     0.059 A 
ATOM     76  C   UNL A   1      42.998  29.915  36.720  1.00  0.00     0.059 A 
ATOM     77  F   UNL A   1      42.152  28.152  35.525  1.00  0.00    -0.206 F 
ATOM     78  C   UNL A   1      43.913  30.932  36.884  1.00  0.00     0.060 A 
BRANCH  78  79
ATOM     79  S   UNL A   1      43.732  32.066  38.279  1.00  0.00     0.124 S 
ATOM     80  O   UNL A   1      43.740  33.365  37.619  1.00  0.00    -0.237 OA
ATOM     81  O   UNL A   1      42.456  31.651  38.857  1.00  0.00    -0.237 OA
ATOM     82  O   UNL A   1      44.901  31.767  39.103  1.00  0.00    -0.744 OA
ENDBRANCH  78  79
ENDBRANCH  46  71
BRANCH  58  83
ATOM     83  C   UNL A   1      45.618  26.813  29.099  1.00  0.00     0.058 A 
ATOM     84  C   UNL A   1      46.947  27.232  28.931  1.00  0.00     0.135 A 
ATOM     85  C   UNL A   1      44.675  27.426  28.254  1.00  0.00     0.135 A 
ATOM     86  F   UNL A   1      47.914  26.704  29.698  1.00  0.00    -0.206 F 
ATOM     87  C   UNL A   1      47.316  28.187  27.978  1.00  0.00     0.059 A 
ATOM     88  C   UNL A   1      45.014  28.374  27.285  1.00  0.00     0.059 A 
ATOM     89  F   UNL A   1      43.382  27.123  28.357  1.00  0.00    -0.206 F 
ATOM     90  C   UNL A   1      46.344  28.750  27.152  1.00  0.00     0.060 A 
BRANCH  90  91
ATOM     91  S   UNL A   1      46.841  29.954  25.899  1.00  0.00     0.124 S 
ATOM     92  O   UNL A   1      45.826  30.993  26.043  1.00  0.00    -0.237 OA
ATOM     93  O   UNL A   1      48.184  30.316  26.340  1.00  0.00    -0.237 OA
ATOM     94  O   UNL A   1      46.779  29.199  24.649  1.00  0.00    -0.744 OA
ENDBRANCH  90  91
ENDBRANCH  58  83
ENDBRANCH  32  33
ENDBRANCH  24  27
ENDBRANCH  22  23
ENDBRANCH  21  22
ENDBRANCH   1  21
TORSDOF 19
ENDMDL
MODEL 3
REMARK VINA RESULT:     -11.2      3.025      8.918
REMARK SMILES O=C(C[C@H](c1ccsc1)n1cccc1)NCCCCCCNC(=O)c1ccc(-c2c3nc(c(-c4c(F)cc(S(=O)(=O)[O-])cc4F)c4ccc([nH]4)c(-c4c(F)cc(S(=O)(=O)[O-])cc4F)c4nc(c(-c5c(F)cc(S(=O)(=O)[O-])cc5F)c5ccc2[nH]5)C=C4)C=C3)cc1
REMARK SMILES IDX 19 1 18 2 17 3 16 4 15 5 1 6 2 7 3 9 4 10 10 11 11 12 14 13
REMARK SMILES IDX 12 14 13 15 5 16 6 17 9 18 7 19 8 20 20 21 21 22 22 23 23 24
REMARK SMILES IDX 24 26 25 27 26 28 90 29 27 30 89 31 28 32 29 33 30 34 83 35
REMARK SMILES IDX 31 36 88 37 82 38 84 39 32 40 87 41 81 42 80 43 33 45 67 46
REMARK SMILES IDX 46 47 66 48 47 49 50 50 65 51 85 52 48 53 49 54 64 56 86 57
REMARK SMILES IDX 51 58 34 59 35 60 44 61 36 62 37 63 43 64 45 65 38 66 39 67
REMARK SMILES IDX 40 68 41 69 42 70 68 71 69 72 78 73 70 74 71 75 77 76 79 77
REMARK SMILES IDX 72 78 73 79 74 80 75 81 76 82 52 83 53 84 62 85 54 86 55 87
REMARK SMILES IDX 61 88 63 89 56 90 57 91 58 92 59 93 60 94
REMARK H PARENT 15 8 22 25 84 44 50 55
REMARK Flexibility Score: inf
ROOT
ATOM      1  C   UNL A   1      32.449  28.379  25.232  1.00  0.00     0.002 C 
ENDROOT
BRANCH   1   2
ATOM      2  C   UNL A   1      31.062  28.043  24.671  1.00  0.00     0.002 C 
BRANCH   2   3
ATOM      3  C   UNL A   1      30.672  26.559  24.708  1.00  0.00     0.021 C 
BRANCH   3   4
ATOM      4  C   UNL A   1      30.738  25.908  26.090  1.00  0.00     0.116 C 
BRANCH   4   5
ATOM      5  N   UNL A   1      31.807  24.928  26.169  1.00  0.00    -0.356 N 
ATOM      6  O   UNL A   1      30.602  23.335  27.306  1.00  0.00    -0.275 OA
ATOM      7  C   UNL A   1      31.646  23.707  26.781  1.00  0.00     0.222 C 
ATOM      8  H   UNL A   1      32.679  25.147  25.769  1.00  0.00     0.163 HD
BRANCH   7   9
ATOM      9  C   UNL A   1      32.881  22.838  26.778  1.00  0.00     0.130 C 
BRANCH   9  10
ATOM     10  C   UNL A   1      33.315  22.483  25.357  1.00  0.00     0.127 C 
BRANCH  10  11
ATOM     11  N   UNL A   1      34.729  22.822  25.125  1.00  0.00    -0.346 N 
ATOM     12  C   UNL A   1      35.497  23.592  25.968  1.00  0.00     0.086 A 
ATOM     13  C   UNL A   1      35.506  22.415  24.068  1.00  0.00     0.086 A 
ATOM     14  C   UNL A   1      36.754  23.709  25.418  1.00  0.00     0.019 A 
ATOM     15  C   UNL A   1      36.758  22.970  24.213  1.00  0.00     0.019 A 
ENDBRANCH  10  11
BRANCH  10  16
ATOM     16  C   UNL A   1      33.044  21.050  24.938  1.00  0.00    -0.014 A 
ATOM     17  C   UNL A   1      32.494  20.627  23.680  1.00  0.00     0.017 A 
ATOM     18  C   UNL A   1      33.327  19.949  25.730  1.00  0.00     0.070 A 
ATOM     19  C   UNL A   1      32.355  19.260  23.587  1.00  0.00     0.065 A 
ATOM     20  S   UNL A   1      32.908  18.465  24.992  1.00  0.00    -0.152 S 
ENDBRANCH  10  16
ENDBRANCH   9  10
ENDBRANCH   7   9
ENDBRANCH   4   5
ENDBRANCH   3   4
ENDBRANCH   2   3
ENDBRANCH   1   2
BRANCH   1  21
ATOM     21  C   UNL A   1      32.487  28.743  26.722  1.00  0.00     0.021 C 
BRANCH  21  22
ATOM     22  C   UNL A   1      33.884  29.063  27.247  1.00  0.00     0.116 C 
BRANCH  22  23
ATOM     23  N   UNL A   1      33.928  30.384  27.856  1.00  0.00    -0.352 N 
ATOM     24  C   UNL A   1      34.875  30.924  28.690  1.00  0.00     0.251 C 
ATOM     25  H   UNL A   1      33.171  30.975  27.638  1.00  0.00     0.163 HD
ATOM     26  O   UNL A   1      34.581  31.895  29.384  1.00  0.00    -0.269 OA
BRANCH  24  27
ATOM     27  C   UNL A   1      36.229  30.343  28.778  1.00  0.00     0.039 A 
ATOM     28  C   UNL A   1      37.060  30.423  27.654  1.00  0.00     0.014 A 
ATOM     29  C   UNL A   1      36.650  29.660  29.925  1.00  0.00     0.014 A 
ATOM     30  C   UNL A   1      38.337  29.874  27.702  1.00  0.00     0.010 A 
ATOM     31  C   UNL A   1      37.937  29.142  29.989  1.00  0.00     0.010 A 
ATOM     32  C   UNL A   1      38.781  29.254  28.878  1.00  0.00    -0.014 A 
BRANCH  32  33
ATOM     33  C   UNL A   1      40.191  28.814  28.970  1.00  0.00     0.031 A 
ATOM     34  C   UNL A   1      41.117  29.960  29.437  1.00  0.00     0.074 A 
ATOM     35  C   UNL A   1      40.438  27.512  28.626  1.00  0.00     0.049 A 
ATOM     36  N   UNL A   1      42.355  30.217  29.143  1.00  0.00    -0.248 NA
ATOM     37  C   UNL A   1      40.541  31.041  30.287  1.00  0.00     0.031 C 
ATOM     38  C   UNL A   1      39.396  26.540  28.222  1.00  0.00     0.029 A 
ATOM     39  N   UNL A   1      41.574  26.732  28.545  1.00  0.00    -0.354 N 
ATOM     40  C   UNL A   1      42.760  31.335  29.914  1.00  0.00     0.074 A 
ATOM     41  C   UNL A   1      41.565  31.876  30.487  1.00  0.00     0.031 C 
ATOM     42  C   UNL A   1      39.942  25.354  27.880  1.00  0.00     0.029 A 
ATOM     43  C   UNL A   1      41.381  25.419  28.025  1.00  0.00     0.049 A 
ATOM     44  H   UNL A   1      42.457  27.059  28.827  1.00  0.00     0.167 HD
ATOM     45  C   UNL A   1      44.070  31.657  30.150  1.00  0.00     0.037 A 
ATOM     46  C   UNL A   1      42.319  24.478  27.683  1.00  0.00     0.037 A 
ATOM     47  C   UNL A   1      44.914  30.692  29.530  1.00  0.00     0.049 A 
ATOM     48  C   UNL A   1      43.606  25.062  28.092  1.00  0.00     0.074 A 
ATOM     49  C   UNL A   1      45.245  30.444  28.225  1.00  0.00     0.029 A 
ATOM     50  N   UNL A   1      45.260  29.605  30.298  1.00  0.00    -0.354 N 
ATOM     51  N   UNL A   1      44.008  25.198  29.320  1.00  0.00    -0.248 NA
ATOM     52  C   UNL A   1      44.465  25.645  27.054  1.00  0.00     0.031 C 
ATOM     53  C   UNL A   1      45.325  29.037  28.173  1.00  0.00     0.029 A 
ATOM     54  C   UNL A   1      45.252  28.512  29.469  1.00  0.00     0.049 A 
ATOM     55  H   UNL A   1      45.472  29.611  31.260  1.00  0.00     0.167 HD
ATOM     56  C   UNL A   1      44.983  26.159  29.207  1.00  0.00     0.074 A 
ATOM     57  C   UNL A   1      45.416  26.156  27.827  1.00  0.00     0.031 C 
ATOM     58  C   UNL A   1      44.989  27.217  30.056  1.00  0.00     0.037 A 
BRANCH  45  59
ATOM     59  C   UNL A   1      44.749  32.610  31.107  1.00  0.00     0.058 A 
ATOM     60  C   UNL A   1      44.564  32.393  32.498  1.00  0.00     0.135 A 
ATOM     61  C   UNL A   1      45.243  33.871  30.745  1.00  0.00     0.135 A 
ATOM     62  F   UNL A   1      44.165  31.195  32.960  1.00  0.00    -0.206 F 
ATOM     63  C   UNL A   1      44.700  33.404  33.445  1.00  0.00     0.059 A 
ATOM     64  C   UNL A   1      45.431  34.890  31.688  1.00  0.00     0.059 A 
ATOM     65  F   UNL A   1      45.479  34.177  29.464  1.00  0.00    -0.206 F 
ATOM     66  C   UNL A   1      45.098  34.665  33.023  1.00  0.00     0.060 A 
BRANCH  66  67
ATOM     67  S   UNL A   1      45.120  36.003  34.237  1.00  0.00     0.124 S 
ATOM     68  O   UNL A   1      46.336  36.719  33.869  1.00  0.00    -0.237 OA
ATOM     69  O   UNL A   1      43.868  36.699  33.954  1.00  0.00    -0.237 OA
ATOM     70  O   UNL A   1      45.159  35.296  35.514  1.00  0.00    -0.744 OA
ENDBRANCH  66  67
ENDBRANCH  45  59
BRANCH  46  71
ATOM     71  C   UNL A   1      42.388  23.175  26.901  1.00  0.00     0.058 A 
ATOM     72  C   UNL A   1      42.866  23.007  25.595  1.00  0.00     0.135 A 
ATOM     73  C   UNL A   1      42.078  21.948  27.559  1.00  0.00     0.135 A 
ATOM     74  F   UNL A   1      43.044  24.053  24.780  1.00  0.00    -0.206 F 
ATOM     75  C   UNL A   1      43.187  21.742  25.063  1.00  0.00     0.059 A 
ATOM     76  C   UNL A   1      42.434  20.690  27.079  1.00  0.00     0.059 A 
ATOM     77  F   UNL A   1      41.440  21.920  28.738  1.00  0.00    -0.206 F 
ATOM     78  C   UNL A   1      43.028  20.596  25.839  1.00  0.00     0.060 A 
BRANCH  78  79
ATOM     79  S   UNL A   1      43.709  19.010  25.305  1.00  0.00     0.124 S 
ATOM     80  O   UNL A   1      42.669  18.076  25.719  1.00  0.00    -0.237 OA
ATOM     81  O   UNL A   1      43.857  19.201  23.865  1.00  0.00    -0.237 OA
ATOM     82  O   UNL A   1      44.967  18.923  26.042  1.00  0.00    -0.744 OA
ENDBRANCH  78  79
ENDBRANCH  46  71
BRANCH  58  83
ATOM     83  C   UNL A   1      44.344  26.957  31.407  1.00  0.00     0.058 A 
ATOM     84  C   UNL A   1      44.918  26.033  32.294  1.00  0.00     0.135 A 
ATOM     85  C   UNL A   1      43.134  27.536  31.830  1.00  0.00     0.135 A 
ATOM     86  F   UNL A   1      46.071  25.427  31.970  1.00  0.00    -0.206 F 
ATOM     87  C   UNL A   1      44.334  25.715  33.524  1.00  0.00     0.059 A 
ATOM     88  C   UNL A   1      42.532  27.247  33.058  1.00  0.00     0.059 A 
ATOM     89  F   UNL A   1      42.491  28.400  31.045  1.00  0.00    -0.206 F 
ATOM     90  C   UNL A   1      43.143  26.332  33.904  1.00  0.00     0.060 A 
BRANCH  90  91
ATOM     91  S   UNL A   1      42.421  25.940  35.514  1.00  0.00     0.124 S 
ATOM     92  O   UNL A   1      42.965  26.993  36.366  1.00  0.00    -0.237 OA
ATOM     93  O   UNL A   1      40.992  26.026  35.237  1.00  0.00    -0.237 OA
ATOM     94  O   UNL A   1      42.921  24.596  35.800  1.00  0.00    -0.744 OA
ENDBRANCH  90  91
ENDBRANCH  58  83
ENDBRANCH  32  33
ENDBRANCH  24  27
ENDBRANCH  22  23
ENDBRANCH  21  22
ENDBRANCH   1  21
TORSDOF 19
ENDMDL
