MODEL 1
REMARK VINA RESULT:     -12.2      0.000      0.000
REMARK SMILES CC(C)c1cc2c(cc1Cl)C=C(C(=O)NCCCCCCNC(=O)c1ccc(-c3c4nc(c(-c5c(F)cc(S(=O)(=O)[O-])cc5F)c5ccc([nH]5)c(-c5c(F)cc(S(=O)(=O)[O-])cc5F)c5nc(c(-c6c(F)cc(S(=O)(=O)[O-])cc6F)c6ccc3[nH]6)C=C5)C=C4)cc1)[C@@H](C(F)(F)F)O2
REMARK SMILES IDX 19 1 18 2 17 3 16 4 15 5 13 6 14 7 12 9 4 10 5 11 9 12 6 13
REMARK SMILES IDX 8 14 10 15 7 16 96 17 11 18 91 19 2 20 1 21 3 22 92 23 93 24
REMARK SMILES IDX 94 25 95 26 20 27 21 28 22 29 23 30 24 32 25 33 26 34 90 35
REMARK SMILES IDX 27 36 89 37 28 38 29 39 30 40 83 41 31 42 88 43 82 44 84 45
REMARK SMILES IDX 32 46 87 47 81 48 80 49 33 51 67 52 46 53 66 54 47 55 50 56
REMARK SMILES IDX 65 57 85 58 48 59 49 60 64 62 86 63 51 64 34 65 35 66 44 67
REMARK SMILES IDX 36 68 37 69 43 70 45 71 38 72 39 73 40 74 41 75 42 76 68 77
REMARK SMILES IDX 69 78 78 79 70 80 71 81 77 82 79 83 72 84 73 85 74 86 75 87
REMARK SMILES IDX 76 88 52 89 53 90 62 91 54 92 55 93 61 94 63 95 56 96 57 97
REMARK SMILES IDX 58 98 59 99 60 100
REMARK H PARENT 15 8 22 31 84 50 50 61
REMARK Flexibility Score: inf
ROOT
ATOM      1  C   UNL A   1      38.115  23.711  26.147  1.00  0.00     0.002 C 
ENDROOT
BRANCH   1   2
ATOM      2  C   UNL A   1      37.172  23.345  24.994  1.00  0.00     0.002 C 
BRANCH   2   3
ATOM      3  C   UNL A   1      36.915  21.848  24.792  1.00  0.00     0.021 C 
BRANCH   3   4
ATOM      4  C   UNL A   1      35.778  21.284  25.641  1.00  0.00     0.116 C 
BRANCH   4   5
ATOM      5  N   UNL A   1      34.565  21.099  24.865  1.00  0.00    -0.352 N 
ATOM      6  C   UNL A   1      33.630  21.881  24.276  1.00  0.00     0.251 C 
ATOM      7  O   UNL A   1      32.742  21.267  23.673  1.00  0.00    -0.270 OA
ATOM      8  H   UNL A   1      34.369  20.143  24.729  1.00  0.00     0.163 HD
BRANCH   6   9
ATOM      9  C   UNL A   1      33.599  23.374  24.306  1.00  0.00     0.067 C 
ATOM     10  C   UNL A   1      32.923  28.202  25.715  1.00  0.00    -0.023 A 
ATOM     11  C   UNL A   1      33.615  27.549  24.675  1.00  0.00     0.052 A 
ATOM     12  C   UNL A   1      32.257  27.395  26.655  1.00  0.00     0.045 A 
ATOM     13  C   UNL A   1      33.639  26.160  24.580  1.00  0.00     0.128 A 
ATOM     14  C   UNL A   1      32.311  25.994  26.568  1.00  0.00     0.032 A 
ATOM     15  Cl  UNL A   1      31.319  28.037  27.957  1.00  0.00    -0.084 Cl
ATOM     16  C   UNL A   1      33.003  25.372  25.530  1.00  0.00     0.019 A 
ATOM     17  O   UNL A   1      34.346  25.634  23.541  1.00  0.00    -0.475 OA
ATOM     18  C   UNL A   1      33.101  23.920  25.433  1.00  0.00     0.025 C 
ATOM     19  C   UNL A   1      34.030  24.264  23.170  1.00  0.00     0.314 C 
BRANCH  10  20
ATOM     20  C   UNL A   1      32.944  29.724  25.693  1.00  0.00     0.014 C 
ATOM     21  C   UNL A   1      31.555  30.309  25.426  1.00  0.00     0.012 C 
ATOM     22  C   UNL A   1      33.617  30.371  26.906  1.00  0.00     0.012 C 
ENDBRANCH  10  20
BRANCH  19  23
ATOM     23  C   UNL A   1      33.016  24.271  22.012  1.00  0.00     0.429 C 
ATOM     24  F   UNL A   1      33.229  23.221  21.182  1.00  0.00    -0.167 F 
ATOM     25  F   UNL A   1      31.737  24.167  22.444  1.00  0.00    -0.167 F 
ATOM     26  F   UNL A   1      33.090  25.400  21.269  1.00  0.00    -0.167 F 
ENDBRANCH  19  23
ENDBRANCH   6   9
ENDBRANCH   4   5
ENDBRANCH   3   4
ENDBRANCH   2   3
ENDBRANCH   1   2
BRANCH   1  27
ATOM     27  C   UNL A   1      39.141  22.645  26.536  1.00  0.00     0.021 C 
BRANCH  27  28
ATOM     28  C   UNL A   1      40.485  23.181  27.014  1.00  0.00     0.116 C 
BRANCH  28  29
ATOM     29  N   UNL A   1      41.169  23.968  26.001  1.00  0.00    -0.352 N 
ATOM     30  C   UNL A   1      41.571  25.282  26.054  1.00  0.00     0.251 C 
ATOM     31  H   UNL A   1      41.371  23.496  25.161  1.00  0.00     0.163 HD
ATOM     32  O   UNL A   1      42.013  25.832  25.049  1.00  0.00    -0.269 OA
BRANCH  30  33
ATOM     33  C   UNL A   1      41.435  26.037  27.319  1.00  0.00     0.039 A 
ATOM     34  C   UNL A   1      40.309  25.873  28.129  1.00  0.00     0.014 A 
ATOM     35  C   UNL A   1      42.438  26.940  27.683  1.00  0.00     0.014 A 
ATOM     36  C   UNL A   1      40.116  26.714  29.220  1.00  0.00     0.010 A 
ATOM     37  C   UNL A   1      42.275  27.734  28.823  1.00  0.00     0.010 A 
ATOM     38  C   UNL A   1      41.093  27.659  29.575  1.00  0.00    -0.014 A 
BRANCH  38  39
ATOM     39  C   UNL A   1      40.852  28.558  30.734  1.00  0.00     0.031 A 
ATOM     40  C   UNL A   1      41.761  28.523  31.934  1.00  0.00     0.074 A 
ATOM     41  C   UNL A   1      39.843  29.449  30.676  1.00  0.00     0.049 A 
ATOM     42  N   UNL A   1      41.715  29.249  33.022  1.00  0.00    -0.248 NA
ATOM     43  C   UNL A   1      42.862  27.548  31.913  1.00  0.00     0.031 C 
ATOM     44  C   UNL A   1      38.904  29.585  29.561  1.00  0.00     0.029 A 
ATOM     45  N   UNL A   1      39.457  30.426  31.556  1.00  0.00    -0.354 N 
ATOM     46  C   UNL A   1      42.765  28.811  33.819  1.00  0.00     0.074 A 
ATOM     47  C   UNL A   1      43.418  27.737  33.102  1.00  0.00     0.031 C 
ATOM     48  C   UNL A   1      38.087  30.621  29.798  1.00  0.00     0.029 A 
ATOM     49  C   UNL A   1      38.405  31.187  31.106  1.00  0.00     0.049 A 
ATOM     50  H   UNL A   1      39.890  30.569  32.429  1.00  0.00     0.167 HD
ATOM     51  C   UNL A   1      43.157  29.271  35.033  1.00  0.00     0.037 A 
ATOM     52  C   UNL A   1      37.762  32.222  31.680  1.00  0.00     0.037 A 
ATOM     53  C   UNL A   1      42.518  30.353  35.735  1.00  0.00     0.049 A 
ATOM     54  C   UNL A   1      38.195  32.691  33.039  1.00  0.00     0.074 A 
ATOM     55  C   UNL A   1      42.849  30.898  36.963  1.00  0.00     0.029 A 
ATOM     56  N   UNL A   1      41.419  31.061  35.268  1.00  0.00    -0.354 N 
ATOM     57  N   UNL A   1      39.184  32.256  33.781  1.00  0.00    -0.248 NA
ATOM     58  C   UNL A   1      37.417  33.779  33.645  1.00  0.00     0.031 C 
ATOM     59  C   UNL A   1      41.932  31.914  37.254  1.00  0.00     0.029 A 
ATOM     60  C   UNL A   1      41.051  32.027  36.191  1.00  0.00     0.049 A 
ATOM     61  H   UNL A   1      40.967  30.900  34.408  1.00  0.00     0.167 HD
ATOM     62  C   UNL A   1      39.150  33.019  34.942  1.00  0.00     0.074 A 
ATOM     63  C   UNL A   1      38.054  33.956  34.794  1.00  0.00     0.031 C 
ATOM     64  C   UNL A   1      39.951  32.945  36.033  1.00  0.00     0.037 A 
BRANCH  51  65
ATOM     65  C   UNL A   1      44.333  28.599  35.686  1.00  0.00     0.058 A 
ATOM     66  C   UNL A   1      44.167  27.510  36.557  1.00  0.00     0.135 A 
ATOM     67  C   UNL A   1      45.643  29.020  35.406  1.00  0.00     0.135 A 
ATOM     68  F   UNL A   1      42.935  27.078  36.871  1.00  0.00    -0.206 F 
ATOM     69  C   UNL A   1      45.258  26.876  37.143  1.00  0.00     0.059 A 
ATOM     70  C   UNL A   1      46.750  28.387  35.966  1.00  0.00     0.059 A 
ATOM     71  F   UNL A   1      45.858  30.056  34.581  1.00  0.00    -0.206 F 
ATOM     72  C   UNL A   1      46.545  27.323  36.843  1.00  0.00     0.060 A 
BRANCH  72  73
ATOM     73  S   UNL A   1      47.949  26.488  37.613  1.00  0.00     0.124 S 
ATOM     74  O   UNL A   1      48.863  27.603  37.837  1.00  0.00    -0.237 OA
ATOM     75  O   UNL A   1      47.350  25.909  38.810  1.00  0.00    -0.237 OA
ATOM     76  O   UNL A   1      48.370  25.526  36.598  1.00  0.00    -0.744 OA
ENDBRANCH  72  73
ENDBRANCH  51  65
BRANCH  52  77
ATOM     77  C   UNL A   1      36.644  32.881  30.957  1.00  0.00     0.058 A 
ATOM     78  C   UNL A   1      35.319  32.717  31.382  1.00  0.00     0.135 A 
ATOM     79  C   UNL A   1      36.885  33.730  29.866  1.00  0.00     0.135 A 
ATOM     80  F   UNL A   1      35.041  31.910  32.417  1.00  0.00    -0.206 F 
ATOM     81  C   UNL A   1      34.268  33.378  30.754  1.00  0.00     0.059 A 
ATOM     82  C   UNL A   1      35.854  34.418  29.235  1.00  0.00     0.059 A 
ATOM     83  F   UNL A   1      38.140  33.928  29.432  1.00  0.00    -0.206 F 
ATOM     84  C   UNL A   1      34.548  34.233  29.686  1.00  0.00     0.060 A 
BRANCH  84  85
ATOM     85  S   UNL A   1      33.187  35.151  28.933  1.00  0.00     0.124 S 
ATOM     86  O   UNL A   1      32.757  34.233  27.886  1.00  0.00    -0.237 OA
ATOM     87  O   UNL A   1      32.269  35.315  30.056  1.00  0.00    -0.237 OA
ATOM     88  O   UNL A   1      33.827  36.380  28.474  1.00  0.00    -0.744 OA
ENDBRANCH  84  85
ENDBRANCH  52  77
BRANCH  64  89
ATOM     89  C   UNL A   1      39.676  33.903  37.154  1.00  0.00     0.058 A 
ATOM     90  C   UNL A   1      38.851  33.546  38.232  1.00  0.00     0.135 A 
ATOM     91  C   UNL A   1      40.287  35.166  37.183  1.00  0.00     0.135 A 
ATOM     92  F   UNL A   1      38.239  32.351  38.246  1.00  0.00    -0.206 F 
ATOM     93  C   UNL A   1      38.633  34.414  39.297  1.00  0.00     0.059 A 
ATOM     94  C   UNL A   1      40.099  36.043  38.247  1.00  0.00     0.059 A 
ATOM     95  F   UNL A   1      41.090  35.553  36.178  1.00  0.00    -0.206 F 
ATOM     96  C   UNL A   1      39.262  35.660  39.295  1.00  0.00     0.060 A 
BRANCH  96  97
ATOM     97  S   UNL A   1      39.003  36.760  40.704  1.00  0.00     0.124 S 
ATOM     98  O   UNL A   1      40.371  36.984  41.157  1.00  0.00    -0.237 OA
ATOM     99  O   UNL A   1      38.342  37.907  40.088  1.00  0.00    -0.237 OA
ATOM    100  O   UNL A   1      38.165  35.970  41.601  1.00  0.00    -0.744 OA
ENDBRANCH  96  97
ENDBRANCH  64  89
ENDBRANCH  38  39
ENDBRANCH  30  33
ENDBRANCH  28  29
ENDBRANCH  27  28
ENDBRANCH   1  27
TORSDOF 18
ENDMDL
MODEL 2
REMARK VINA RESULT:     -11.9      1.484      2.057
REMARK SMILES CC(C)c1cc2c(cc1Cl)C=C(C(=O)NCCCCCCNC(=O)c1ccc(-c3c4nc(c(-c5c(F)cc(S(=O)(=O)[O-])cc5F)c5ccc([nH]5)c(-c5c(F)cc(S(=O)(=O)[O-])cc5F)c5nc(c(-c6c(F)cc(S(=O)(=O)[O-])cc6F)c6ccc3[nH]6)C=C5)C=C4)cc1)[C@@H](C(F)(F)F)O2
REMARK SMILES IDX 19 1 18 2 17 3 16 4 15 5 13 6 14 7 12 9 4 10 5 11 9 12 6 13
REMARK SMILES IDX 8 14 10 15 7 16 96 17 11 18 91 19 2 20 1 21 3 22 92 23 93 24
REMARK SMILES IDX 94 25 95 26 20 27 21 28 22 29 23 30 24 32 25 33 26 34 90 35
REMARK SMILES IDX 27 36 89 37 28 38 29 39 30 40 83 41 31 42 88 43 82 44 84 45
REMARK SMILES IDX 32 46 87 47 81 48 80 49 33 51 67 52 46 53 66 54 47 55 50 56
REMARK SMILES IDX 65 57 85 58 48 59 49 60 64 62 86 63 51 64 34 65 35 66 44 67
REMARK SMILES IDX 36 68 37 69 43 70 45 71 38 72 39 73 40 74 41 75 42 76 68 77
REMARK SMILES IDX 69 78 78 79 70 80 71 81 77 82 79 83 72 84 73 85 74 86 75 87
REMARK SMILES IDX 76 88 52 89 53 90 62 91 54 92 55 93 61 94 63 95 56 96 57 97
REMARK SMILES IDX 58 98 59 99 60 100
REMARK H PARENT 15 8 22 31 84 50 50 61
REMARK Flexibility Score: inf
ROOT
ATOM      1  C   UNL A   1      38.177  23.966  26.295  1.00  0.00     0.002 C 
ENDROOT
BRANCH   1   2
ATOM      2  C   UNL A   1      36.820  23.524  25.732  1.00  0.00     0.002 C 
BRANCH   2   3
ATOM      3  C   UNL A   1      36.545  22.016  25.762  1.00  0.00     0.021 C 
BRANCH   3   4
ATOM      4  C   UNL A   1      35.175  21.638  26.319  1.00  0.00     0.116 C 
BRANCH   4   5
ATOM      5  N   UNL A   1      34.349  20.981  25.321  1.00  0.00    -0.352 N 
ATOM      6  C   UNL A   1      33.321  21.312  24.505  1.00  0.00     0.251 C 
ATOM      7  O   UNL A   1      32.925  20.400  23.770  1.00  0.00    -0.270 OA
ATOM      8  H   UNL A   1      34.607  20.038  25.206  1.00  0.00     0.163 HD
BRANCH   6   9
ATOM      9  C   UNL A   1      32.658  22.649  24.437  1.00  0.00     0.067 C 
ATOM     10  C   UNL A   1      31.612  27.522  23.482  1.00  0.00    -0.023 A 
ATOM     11  C   UNL A   1      30.881  26.413  23.954  1.00  0.00     0.052 A 
ATOM     12  C   UNL A   1      32.959  27.308  23.137  1.00  0.00     0.045 A 
ATOM     13  C   UNL A   1      31.466  25.155  24.074  1.00  0.00     0.128 A 
ATOM     14  C   UNL A   1      33.534  26.029  23.234  1.00  0.00     0.032 A 
ATOM     15  Cl  UNL A   1      34.008  28.570  22.595  1.00  0.00    -0.084 Cl
ATOM     16  C   UNL A   1      32.787  24.948  23.703  1.00  0.00     0.019 A 
ATOM     17  O   UNL A   1      30.663  24.154  24.532  1.00  0.00    -0.475 OA
ATOM     18  C   UNL A   1      33.349  23.605  23.786  1.00  0.00     0.025 C 
ATOM     19  C   UNL A   1      31.335  22.983  25.073  1.00  0.00     0.314 C 
BRANCH  10  20
ATOM     20  C   UNL A   1      30.871  28.850  23.424  1.00  0.00     0.014 C 
ATOM     21  C   UNL A   1      29.390  28.662  23.087  1.00  0.00     0.012 C 
ATOM     22  C   UNL A   1      31.071  29.747  24.648  1.00  0.00     0.012 C 
ENDBRANCH  10  20
BRANCH  19  23
ATOM     23  C   UNL A   1      31.437  23.118  26.604  1.00  0.00     0.429 C 
ATOM     24  F   UNL A   1      32.336  24.074  26.941  1.00  0.00    -0.167 F 
ATOM     25  F   UNL A   1      30.261  23.477  27.170  1.00  0.00    -0.167 F 
ATOM     26  F   UNL A   1      31.824  21.965  27.198  1.00  0.00    -0.167 F 
ENDBRANCH  19  23
ENDBRANCH   6   9
ENDBRANCH   4   5
ENDBRANCH   3   4
ENDBRANCH   2   3
ENDBRANCH   1   2
BRANCH   1  27
ATOM     27  C   UNL A   1      39.206  22.854  26.511  1.00  0.00     0.021 C 
BRANCH  27  28
ATOM     28  C   UNL A   1      40.593  23.325  26.928  1.00  0.00     0.116 C 
BRANCH  28  29
ATOM     29  N   UNL A   1      41.239  24.139  25.911  1.00  0.00    -0.352 N 
ATOM     30  C   UNL A   1      41.606  25.463  25.969  1.00  0.00     0.251 C 
ATOM     31  H   UNL A   1      41.442  23.679  25.064  1.00  0.00     0.163 HD
ATOM     32  O   UNL A   1      42.017  26.033  24.962  1.00  0.00    -0.269 OA
BRANCH  30  33
ATOM     33  C   UNL A   1      41.469  26.204  27.243  1.00  0.00     0.039 A 
ATOM     34  C   UNL A   1      40.370  25.989  28.077  1.00  0.00     0.014 A 
ATOM     35  C   UNL A   1      42.443  27.144  27.590  1.00  0.00     0.014 A 
ATOM     36  C   UNL A   1      40.168  26.815  29.178  1.00  0.00     0.010 A 
ATOM     37  C   UNL A   1      42.274  27.924  28.738  1.00  0.00     0.010 A 
ATOM     38  C   UNL A   1      41.114  27.797  29.517  1.00  0.00    -0.014 A 
BRANCH  38  39
ATOM     39  C   UNL A   1      40.864  28.678  30.687  1.00  0.00     0.031 A 
ATOM     40  C   UNL A   1      41.759  28.619  31.897  1.00  0.00     0.074 A 
ATOM     41  C   UNL A   1      39.860  29.574  30.633  1.00  0.00     0.049 A 
ATOM     42  N   UNL A   1      41.704  29.327  32.997  1.00  0.00    -0.248 NA
ATOM     43  C   UNL A   1      42.856  27.639  31.873  1.00  0.00     0.031 C 
ATOM     44  C   UNL A   1      38.935  29.732  29.509  1.00  0.00     0.029 A 
ATOM     45  N   UNL A   1      39.468  30.539  31.524  1.00  0.00    -0.354 N 
ATOM     46  C   UNL A   1      42.743  28.871  33.798  1.00  0.00     0.074 A 
ATOM     47  C   UNL A   1      43.399  27.806  33.071  1.00  0.00     0.031 C 
ATOM     48  C   UNL A   1      38.120  30.769  29.754  1.00  0.00     0.029 A 
ATOM     49  C   UNL A   1      38.425  31.312  31.074  1.00  0.00     0.049 A 
ATOM     50  H   UNL A   1      39.892  30.665  32.404  1.00  0.00     0.167 HD
ATOM     51  C   UNL A   1      43.123  29.309  35.023  1.00  0.00     0.037 A 
ATOM     52  C   UNL A   1      37.780  32.340  31.658  1.00  0.00     0.037 A 
ATOM     53  C   UNL A   1      42.481  30.384  35.735  1.00  0.00     0.049 A 
ATOM     54  C   UNL A   1      38.200  32.785  33.029  1.00  0.00     0.074 A 
ATOM     55  C   UNL A   1      42.801  30.907  36.976  1.00  0.00     0.029 A 
ATOM     56  N   UNL A   1      41.391  31.104  35.268  1.00  0.00    -0.354 N 
ATOM     57  N   UNL A   1      39.179  32.334  33.775  1.00  0.00    -0.248 NA
ATOM     58  C   UNL A   1      37.420  33.867  33.643  1.00  0.00     0.031 C 
ATOM     59  C   UNL A   1      41.885  31.922  37.273  1.00  0.00     0.029 A 
ATOM     60  C   UNL A   1      41.016  32.056  36.202  1.00  0.00     0.049 A 
ATOM     61  H   UNL A   1      40.948  30.959  34.400  1.00  0.00     0.167 HD
ATOM     62  C   UNL A   1      39.134  33.078  34.948  1.00  0.00     0.074 A 
ATOM     63  C   UNL A   1      38.045  34.023  34.803  1.00  0.00     0.031 C 
ATOM     64  C   UNL A   1      39.923  32.982  36.046  1.00  0.00     0.037 A 
BRANCH  51  65
ATOM     65  C   UNL A   1      44.288  28.622  35.679  1.00  0.00     0.058 A 
ATOM     66  C   UNL A   1      45.608  29.049  35.468  1.00  0.00     0.135 A 
ATOM     67  C   UNL A   1      44.080  27.551  36.563  1.00  0.00     0.135 A 
ATOM     68  F   UNL A   1      45.864  30.058  34.621  1.00  0.00    -0.206 F 
ATOM     69  C   UNL A   1      46.683  28.425  36.094  1.00  0.00     0.059 A 
ATOM     70  C   UNL A   1      45.138  26.924  37.216  1.00  0.00     0.059 A 
ATOM     71  F   UNL A   1      42.837  27.102  36.800  1.00  0.00    -0.206 F 
ATOM     72  C   UNL A   1      46.438  27.362  36.965  1.00  0.00     0.060 A 
BRANCH  72  73
ATOM     73  S   UNL A   1      47.844  26.564  37.768  1.00  0.00     0.124 S 
ATOM     74  O   UNL A   1      47.538  25.153  37.555  1.00  0.00    -0.237 OA
ATOM     75  O   UNL A   1      48.975  27.088  37.011  1.00  0.00    -0.237 OA
ATOM     76  O   UNL A   1      47.752  27.024  39.151  1.00  0.00    -0.744 OA
ENDBRANCH  72  73
ENDBRANCH  51  65
BRANCH  52  77
ATOM     77  C   UNL A   1      36.674  33.017  30.932  1.00  0.00     0.058 A 
ATOM     78  C   UNL A   1      35.338  32.788  31.288  1.00  0.00     0.135 A 
ATOM     79  C   UNL A   1      36.934  33.945  29.913  1.00  0.00     0.135 A 
ATOM     80  F   UNL A   1      35.042  31.904  32.253  1.00  0.00    -0.206 F 
ATOM     81  C   UNL A   1      34.295  33.460  30.660  1.00  0.00     0.059 A 
ATOM     82  C   UNL A   1      35.910  34.645  29.286  1.00  0.00     0.059 A 
ATOM     83  F   UNL A   1      38.199  34.207  29.548  1.00  0.00    -0.206 F 
ATOM     84  C   UNL A   1      34.592  34.394  29.666  1.00  0.00     0.060 A 
BRANCH  84  85
ATOM     85  S   UNL A   1      33.236  35.324  28.917  1.00  0.00     0.124 S 
ATOM     86  O   UNL A   1      32.619  34.312  28.070  1.00  0.00    -0.237 OA
ATOM     87  O   UNL A   1      32.465  35.736  30.087  1.00  0.00    -0.237 OA
ATOM     88  O   UNL A   1      33.921  36.406  28.216  1.00  0.00    -0.744 OA
ENDBRANCH  84  85
ENDBRANCH  52  77
BRANCH  64  89
ATOM     89  C   UNL A   1      39.639  33.924  37.180  1.00  0.00     0.058 A 
ATOM     90  C   UNL A   1      38.880  33.520  38.289  1.00  0.00     0.135 A 
ATOM     91  C   UNL A   1      40.179  35.219  37.187  1.00  0.00     0.135 A 
ATOM     92  F   UNL A   1      38.336  32.293  38.326  1.00  0.00    -0.206 F 
ATOM     93  C   UNL A   1      38.655  34.375  39.364  1.00  0.00     0.059 A 
ATOM     94  C   UNL A   1      39.984  36.084  38.259  1.00  0.00     0.059 A 
ATOM     95  F   UNL A   1      40.917  35.650  36.151  1.00  0.00    -0.206 F 
ATOM     96  C   UNL A   1      39.213  35.654  39.340  1.00  0.00     0.060 A 
BRANCH  96  97
ATOM     97  S   UNL A   1      38.949  36.738  40.760  1.00  0.00     0.124 S 
ATOM     98  O   UNL A   1      38.338  37.903  40.129  1.00  0.00    -0.237 OA
ATOM     99  O   UNL A   1      38.067  35.939  41.605  1.00  0.00    -0.237 OA
ATOM    100  O   UNL A   1      40.296  36.942  41.286  1.00  0.00    -0.744 OA
ENDBRANCH  96  97
ENDBRANCH  64  89
ENDBRANCH  38  39
ENDBRANCH  30  33
ENDBRANCH  28  29
ENDBRANCH  27  28
ENDBRANCH   1  27
TORSDOF 18
ENDMDL
MODEL 3
REMARK VINA RESULT:     -11.9      4.288     10.517
REMARK SMILES CC(C)c1cc2c(cc1Cl)C=C(C(=O)NCCCCCCNC(=O)c1ccc(-c3c4nc(c(-c5c(F)cc(S(=O)(=O)[O-])cc5F)c5ccc([nH]5)c(-c5c(F)cc(S(=O)(=O)[O-])cc5F)c5nc(c(-c6c(F)cc(S(=O)(=O)[O-])cc6F)c6ccc3[nH]6)C=C5)C=C4)cc1)[C@@H](C(F)(F)F)O2
REMARK SMILES IDX 19 1 18 2 17 3 16 4 15 5 13 6 14 7 12 9 4 10 5 11 9 12 6 13
REMARK SMILES IDX 8 14 10 15 7 16 96 17 11 18 91 19 2 20 1 21 3 22 92 23 93 24
REMARK SMILES IDX 94 25 95 26 20 27 21 28 22 29 23 30 24 32 25 33 26 34 90 35
REMARK SMILES IDX 27 36 89 37 28 38 29 39 30 40 83 41 31 42 88 43 82 44 84 45
REMARK SMILES IDX 32 46 87 47 81 48 80 49 33 51 67 52 46 53 66 54 47 55 50 56
REMARK SMILES IDX 65 57 85 58 48 59 49 60 64 62 86 63 51 64 34 65 35 66 44 67
REMARK SMILES IDX 36 68 37 69 43 70 45 71 38 72 39 73 40 74 41 75 42 76 68 77
REMARK SMILES IDX 69 78 78 79 70 80 71 81 77 82 79 83 72 84 73 85 74 86 75 87
REMARK SMILES IDX 76 88 52 89 53 90 62 91 54 92 55 93 61 94 63 95 56 96 57 97
REMARK SMILES IDX 58 98 59 99 60 100
REMARK H PARENT 15 8 22 31 84 50 50 61
REMARK Flexibility Score: inf
ROOT
ATOM      1  C   UNL A   1      42.605  22.521  27.517  1.00  0.00     0.002 C 
ENDROOT
BRANCH   1   2
ATOM      2  C   UNL A   1      43.445  23.773  27.231  1.00  0.00     0.002 C 
BRANCH   2   3
ATOM      3  C   UNL A   1      43.870  23.971  25.772  1.00  0.00     0.021 C 
BRANCH   3   4
ATOM      4  C   UNL A   1      44.576  25.296  25.496  1.00  0.00     0.116 C 
BRANCH   4   5
ATOM      5  N   UNL A   1      43.651  26.314  25.029  1.00  0.00    -0.352 N 
ATOM      6  C   UNL A   1      43.369  27.608  25.309  1.00  0.00     0.251 C 
ATOM      7  O   UNL A   1      42.477  28.108  24.614  1.00  0.00    -0.270 OA
ATOM      8  H   UNL A   1      43.071  25.968  24.311  1.00  0.00     0.163 HD
BRANCH   6   9
ATOM      9  C   UNL A   1      44.034  28.437  26.359  1.00  0.00     0.067 C 
ATOM     10  C   UNL A   1      44.980  31.859  29.984  1.00  0.00    -0.023 A 
ATOM     11  C   UNL A   1      45.649  30.728  29.474  1.00  0.00     0.052 A 
ATOM     12  C   UNL A   1      43.723  32.169  29.434  1.00  0.00     0.045 A 
ATOM     13  C   UNL A   1      45.089  29.947  28.466  1.00  0.00     0.128 A 
ATOM     14  C   UNL A   1      43.152  31.359  28.438  1.00  0.00     0.032 A 
ATOM     15  Cl  UNL A   1      42.798  33.550  29.908  1.00  0.00    -0.084 Cl
ATOM     16  C   UNL A   1      43.834  30.244  27.951  1.00  0.00     0.019 A 
ATOM     17  O   UNL A   1      45.818  28.872  28.055  1.00  0.00    -0.475 OA
ATOM     18  C   UNL A   1      43.253  29.370  26.939  1.00  0.00     0.025 C 
ATOM     19  C   UNL A   1      45.483  28.323  26.751  1.00  0.00     0.314 C 
BRANCH  10  20
ATOM     20  C   UNL A   1      45.708  32.649  31.062  1.00  0.00     0.014 C 
ATOM     21  C   UNL A   1      46.977  31.936  31.532  1.00  0.00     0.012 C 
ATOM     22  C   UNL A   1      45.969  34.116  30.712  1.00  0.00     0.012 C 
ENDBRANCH  10  20
BRANCH  19  23
ATOM     23  C   UNL A   1      46.427  28.918  25.691  1.00  0.00     0.429 C 
ATOM     24  F   UNL A   1      47.708  28.909  26.132  1.00  0.00    -0.167 F 
ATOM     25  F   UNL A   1      46.413  28.216  24.533  1.00  0.00    -0.167 F 
ATOM     26  F   UNL A   1      46.112  30.197  25.380  1.00  0.00    -0.167 F 
ENDBRANCH  19  23
ENDBRANCH   6   9
ENDBRANCH   4   5
ENDBRANCH   3   4
ENDBRANCH   2   3
ENDBRANCH   1   2
BRANCH   1  27
ATOM     27  C   UNL A   1      41.705  22.044  26.376  1.00  0.00     0.021 C 
BRANCH  27  28
ATOM     28  C   UNL A   1      40.274  21.707  26.776  1.00  0.00     0.116 C 
BRANCH  28  29
ATOM     29  N   UNL A   1      39.288  22.298  25.885  1.00  0.00    -0.352 N 
ATOM     30  C   UNL A   1      38.778  23.575  25.888  1.00  0.00     0.251 C 
ATOM     31  H   UNL A   1      38.938  21.703  25.184  1.00  0.00     0.163 HD
ATOM     32  O   UNL A   1      37.844  23.867  25.147  1.00  0.00    -0.269 OA
BRANCH  30  33
ATOM     33  C   UNL A   1      39.340  24.584  26.814  1.00  0.00     0.039 A 
ATOM     34  C   UNL A   1      38.955  24.611  28.156  1.00  0.00     0.014 A 
ATOM     35  C   UNL A   1      40.243  25.530  26.322  1.00  0.00     0.014 A 
ATOM     36  C   UNL A   1      39.356  25.668  28.967  1.00  0.00     0.010 A 
ATOM     37  C   UNL A   1      40.702  26.551  27.160  1.00  0.00     0.010 A 
ATOM     38  C   UNL A   1      40.228  26.654  28.476  1.00  0.00    -0.014 A 
BRANCH  38  39
ATOM     39  C   UNL A   1      40.625  27.782  29.358  1.00  0.00     0.031 A 
ATOM     40  C   UNL A   1      39.721  28.974  29.534  1.00  0.00     0.074 A 
ATOM     41  C   UNL A   1      41.780  27.703  30.046  1.00  0.00     0.049 A 
ATOM     42  N   UNL A   1      39.896  30.036  30.279  1.00  0.00    -0.248 NA
ATOM     43  C   UNL A   1      38.460  28.976  28.778  1.00  0.00     0.031 C 
ATOM     44  C   UNL A   1      42.732  26.593  29.966  1.00  0.00     0.029 A 
ATOM     45  N   UNL A   1      42.337  28.552  30.968  1.00  0.00    -0.354 N 
ATOM     46  C   UNL A   1      38.780  30.838  30.071  1.00  0.00     0.074 A 
ATOM     47  C   UNL A   1      37.944  30.152  29.109  1.00  0.00     0.031 C 
ATOM     48  C   UNL A   1      43.724  26.802  30.843  1.00  0.00     0.029 A 
ATOM     49  C   UNL A   1      43.512  28.085  31.506  1.00  0.00     0.049 A 
ATOM     50  H   UNL A   1      41.934  29.414  31.219  1.00  0.00     0.167 HD
ATOM     51  C   UNL A   1      38.475  32.030  30.639  1.00  0.00     0.037 A 
ATOM     52  C   UNL A   1      44.332  28.628  32.426  1.00  0.00     0.037 A 
ATOM     53  C   UNL A   1      39.300  32.699  31.611  1.00  0.00     0.049 A 
ATOM     54  C   UNL A   1      43.988  29.965  33.016  1.00  0.00     0.074 A 
ATOM     55  C   UNL A   1      39.070  33.904  32.252  1.00  0.00     0.029 A 
ATOM     56  N   UNL A   1      40.512  32.218  32.088  1.00  0.00    -0.354 N 
ATOM     57  N   UNL A   1      42.933  30.712  32.798  1.00  0.00    -0.248 NA
ATOM     58  C   UNL A   1      44.950  30.539  33.965  1.00  0.00     0.031 C 
ATOM     59  C   UNL A   1      40.157  34.167  33.093  1.00  0.00     0.029 A 
ATOM     60  C   UNL A   1      41.048  33.110  33.003  1.00  0.00     0.049 A 
ATOM     61  H   UNL A   1      40.929  31.369  31.816  1.00  0.00     0.167 HD
ATOM     62  C   UNL A   1      43.103  31.845  33.583  1.00  0.00     0.074 A 
ATOM     63  C   UNL A   1      44.352  31.675  34.298  1.00  0.00     0.031 C 
ATOM     64  C   UNL A   1      42.298  32.930  33.698  1.00  0.00     0.037 A 
BRANCH  51  65
ATOM     65  C   UNL A   1      37.195  32.695  30.219  1.00  0.00     0.058 A 
ATOM     66  C   UNL A   1      35.973  32.398  30.842  1.00  0.00     0.135 A 
ATOM     67  C   UNL A   1      37.195  33.673  29.211  1.00  0.00     0.135 A 
ATOM     68  F   UNL A   1      35.913  31.459  31.800  1.00  0.00    -0.206 F 
ATOM     69  C   UNL A   1      34.792  33.031  30.466  1.00  0.00     0.059 A 
ATOM     70  C   UNL A   1      36.029  34.334  28.833  1.00  0.00     0.059 A 
ATOM     71  F   UNL A   1      38.336  33.995  28.583  1.00  0.00    -0.206 F 
ATOM     72  C   UNL A   1      34.830  33.997  29.459  1.00  0.00     0.060 A 
BRANCH  72  73
ATOM     73  S   UNL A   1      33.289  34.809  28.985  1.00  0.00     0.124 S 
ATOM     74  O   UNL A   1      32.602  34.901  30.269  1.00  0.00    -0.237 OA
ATOM     75  O   UNL A   1      33.760  36.071  28.426  1.00  0.00    -0.237 OA
ATOM     76  O   UNL A   1      32.698  33.882  28.023  1.00  0.00    -0.744 OA
ENDBRANCH  72  73
ENDBRANCH  51  65
BRANCH  52  77
ATOM     77  C   UNL A   1      45.553  27.893  32.842  1.00  0.00     0.058 A 
ATOM     78  C   UNL A   1      45.543  27.065  33.973  1.00  0.00     0.135 A 
ATOM     79  C   UNL A   1      46.734  27.958  32.086  1.00  0.00     0.135 A 
ATOM     80  F   UNL A   1      44.438  26.976  34.730  1.00  0.00    -0.206 F 
ATOM     81  C   UNL A   1      46.659  26.322  34.340  1.00  0.00     0.059 A 
ATOM     82  C   UNL A   1      47.856  27.209  32.421  1.00  0.00     0.059 A 
ATOM     83  F   UNL A   1      46.787  28.727  30.987  1.00  0.00    -0.206 F 
ATOM     84  C   UNL A   1      47.809  26.394  33.551  1.00  0.00     0.060 A 
BRANCH  84  85
ATOM     85  S   UNL A   1      49.225  25.360  33.987  1.00  0.00     0.124 S 
ATOM     86  O   UNL A   1      49.895  26.184  34.984  1.00  0.00    -0.237 OA
ATOM     87  O   UNL A   1      48.578  24.150  34.486  1.00  0.00    -0.237 OA
ATOM     88  O   UNL A   1      49.929  25.205  32.717  1.00  0.00    -0.744 OA
ENDBRANCH  84  85
ENDBRANCH  52  77
BRANCH  64  89
ATOM     89  C   UNL A   1      42.741  34.019  34.631  1.00  0.00     0.058 A 
ATOM     90  C   UNL A   1      42.457  33.963  36.004  1.00  0.00     0.135 A 
ATOM     91  C   UNL A   1      43.506  35.097  34.160  1.00  0.00     0.135 A 
ATOM     92  F   UNL A   1      41.721  32.955  36.501  1.00  0.00    -0.206 F 
ATOM     93  C   UNL A   1      42.907  34.946  36.878  1.00  0.00     0.059 A 
ATOM     94  C   UNL A   1      43.984  36.082  35.019  1.00  0.00     0.059 A 
ATOM     95  F   UNL A   1      43.811  35.192  32.855  1.00  0.00    -0.206 F 
ATOM     96  C   UNL A   1      43.671  36.001  36.376  1.00  0.00     0.060 A 
BRANCH  96  97
ATOM     97  S   UNL A   1      44.285  37.248  37.529  1.00  0.00     0.124 S 
ATOM     98  O   UNL A   1      44.733  38.295  36.617  1.00  0.00    -0.237 OA
ATOM     99  O   UNL A   1      43.096  37.559  38.317  1.00  0.00    -0.237 OA
ATOM    100  O   UNL A   1      45.343  36.550  38.253  1.00  0.00    -0.744 OA
ENDBRANCH  96  97
ENDBRANCH  64  89
ENDBRANCH  38  39
ENDBRANCH  30  33
ENDBRANCH  28  29
ENDBRANCH  27  28
ENDBRANCH   1  27
TORSDOF 18
ENDMDL
