MODEL 1
REMARK VINA RESULT:     -11.2      0.000      0.000
REMARK SMILES O=C(NCCCCCCNC(=O)[C@H]1CCCN1S(=O)(=O)c1cccc([N+](=O)[O-])c1)c1ccc(-c2c3nc(c(-c4c(F)cc(S(=O)(=O)[O-])cc4F)c4ccc([nH]4)c(-c4c(F)cc(S(=O)(=O)[O-])cc4F)c4nc(c(-c5c(F)cc(S(=O)(=O)[O-])cc5F)c5ccc2[nH]5)C=C4)C=C3)cc1
REMARK SMILES IDX 6 1 5 2 4 3 3 4 1 5 2 6 30 8 31 9 95 10 32 11 94 12 33 13
REMARK SMILES IDX 34 14 35 15 88 16 36 17 93 18 87 19 89 20 37 21 92 22 86 23
REMARK SMILES IDX 85 24 38 26 72 27 51 28 71 29 52 30 55 31 70 32 90 33 53 34
REMARK SMILES IDX 54 35 69 37 91 38 56 39 39 40 40 41 49 42 41 43 42 44 48 45
REMARK SMILES IDX 50 46 43 47 44 48 45 49 46 50 47 51 73 52 74 53 83 54 75 55
REMARK SMILES IDX 76 56 82 57 84 58 77 59 78 60 79 61 80 62 81 63 57 64 58 65
REMARK SMILES IDX 67 66 59 67 60 68 66 69 68 70 61 71 62 72 63 73 64 74 65 75
REMARK SMILES IDX 7 76 8 77 9 78 10 79 11 80 12 82 13 83 14 84 17 85 15 86
REMARK SMILES IDX 16 87 18 88 19 89 20 90 21 91 22 92 29 93 23 94 25 95 24 96
REMARK SMILES IDX 26 97 27 98 28 99
REMARK H PARENT 3 7 89 25 55 36 10 81
REMARK Flexibility Score: inf
ROOT
ATOM      1  C   UNL A   1      38.718  21.673  25.745  1.00  0.00     0.002 C 
ENDROOT
BRANCH   1   2
ATOM      2  C   UNL A   1      38.715  23.047  26.417  1.00  0.00     0.021 C 
BRANCH   2   3
ATOM      3  C   UNL A   1      40.056  23.501  26.983  1.00  0.00     0.116 C 
BRANCH   3   4
ATOM      4  N   UNL A   1      40.904  24.119  25.980  1.00  0.00    -0.352 N 
ATOM      5  O   UNL A   1      41.974  25.793  24.919  1.00  0.00    -0.269 OA
ATOM      6  C   UNL A   1      41.395  25.401  25.928  1.00  0.00     0.251 C 
ATOM      7  H   UNL A   1      41.164  23.537  25.230  1.00  0.00     0.163 HD
BRANCH   6   8
ATOM      8  C   UNL A   1      41.205  26.316  27.077  1.00  0.00     0.039 A 
ATOM      9  C   UNL A   1      41.968  27.479  27.206  1.00  0.00     0.014 A 
ATOM     10  C   UNL A   1      40.229  26.008  28.030  1.00  0.00     0.014 A 
ATOM     11  C   UNL A   1      41.837  28.272  28.343  1.00  0.00     0.010 A 
ATOM     12  C   UNL A   1      40.052  26.842  29.139  1.00  0.00     0.010 A 
ATOM     13  C   UNL A   1      40.873  27.966  29.317  1.00  0.00    -0.014 A 
BRANCH  13  14
ATOM     14  C   UNL A   1      40.697  28.862  30.487  1.00  0.00     0.031 A 
ATOM     15  C   UNL A   1      41.580  28.740  31.697  1.00  0.00     0.074 A 
ATOM     16  C   UNL A   1      39.732  29.801  30.448  1.00  0.00     0.049 A 
ATOM     17  N   UNL A   1      41.558  29.433  32.807  1.00  0.00    -0.248 NA
ATOM     18  C   UNL A   1      42.621  27.700  31.660  1.00  0.00     0.031 C 
ATOM     19  C   UNL A   1      38.802  30.005  29.333  1.00  0.00     0.029 A 
ATOM     20  N   UNL A   1      39.372  30.759  31.359  1.00  0.00    -0.354 N 
ATOM     21  C   UNL A   1      42.563  28.906  33.609  1.00  0.00     0.074 A 
ATOM     22  C   UNL A   1      43.165  27.819  32.865  1.00  0.00     0.031 C 
ATOM     23  C   UNL A   1      38.002  31.043  29.613  1.00  0.00     0.029 A 
ATOM     24  C   UNL A   1      38.325  31.547  30.944  1.00  0.00     0.049 A 
ATOM     25  H   UNL A   1      39.821  30.874  32.228  1.00  0.00     0.167 HD
ATOM     26  C   UNL A   1      42.950  29.296  34.848  1.00  0.00     0.037 A 
ATOM     27  C   UNL A   1      37.685  32.554  31.568  1.00  0.00     0.037 A 
ATOM     28  C   UNL A   1      42.354  30.388  35.577  1.00  0.00     0.049 A 
ATOM     29  C   UNL A   1      38.129  32.963  32.941  1.00  0.00     0.074 A 
ATOM     30  C   UNL A   1      42.699  30.879  36.824  1.00  0.00     0.029 A 
ATOM     31  N   UNL A   1      41.291  31.156  35.126  1.00  0.00    -0.354 N 
ATOM     32  N   UNL A   1      39.098  32.470  33.673  1.00  0.00    -0.248 NA
ATOM     33  C   UNL A   1      37.393  34.065  33.576  1.00  0.00     0.031 C 
ATOM     34  C   UNL A   1      41.822  31.925  37.140  1.00  0.00     0.029 A 
ATOM     35  C   UNL A   1      40.955  32.107  36.075  1.00  0.00     0.049 A 
ATOM     36  H   UNL A   1      40.840  31.041  34.258  1.00  0.00     0.167 HD
ATOM     37  C   UNL A   1      39.096  33.206  34.851  1.00  0.00     0.074 A 
ATOM     38  C   UNL A   1      38.040  34.189  34.727  1.00  0.00     0.031 C 
ATOM     39  C   UNL A   1      39.898  33.077  35.937  1.00  0.00     0.037 A 
BRANCH  26  40
ATOM     40  C   UNL A   1      44.062  28.525  35.502  1.00  0.00     0.058 A 
ATOM     41  C   UNL A   1      43.809  27.398  36.299  1.00  0.00     0.135 A 
ATOM     42  C   UNL A   1      45.402  28.900  35.306  1.00  0.00     0.135 A 
ATOM     43  F   UNL A   1      42.546  27.004  36.530  1.00  0.00    -0.206 F 
ATOM     44  C   UNL A   1      44.841  26.686  36.903  1.00  0.00     0.059 A 
ATOM     45  C   UNL A   1      46.452  28.192  35.883  1.00  0.00     0.059 A 
ATOM     46  F   UNL A   1      45.700  29.969  34.551  1.00  0.00    -0.206 F 
ATOM     47  C   UNL A   1      46.160  27.096  36.695  1.00  0.00     0.060 A 
BRANCH  47  48
ATOM     48  S   UNL A   1      47.490  26.173  37.496  1.00  0.00     0.124 S 
ATOM     49  O   UNL A   1      46.784  24.975  37.939  1.00  0.00    -0.237 OA
ATOM     50  O   UNL A   1      48.441  25.981  36.406  1.00  0.00    -0.237 OA
ATOM     51  O   UNL A   1      47.933  27.071  38.558  1.00  0.00    -0.744 OA
ENDBRANCH  47  48
ENDBRANCH  26  40
BRANCH  27  52
ATOM     52  C   UNL A   1      36.558  33.236  30.883  1.00  0.00     0.058 A 
ATOM     53  C   UNL A   1      35.234  33.024  31.288  1.00  0.00     0.135 A 
ATOM     54  C   UNL A   1      36.791  34.154  29.847  1.00  0.00     0.135 A 
ATOM     55  F   UNL A   1      34.965  32.152  32.272  1.00  0.00    -0.206 F 
ATOM     56  C   UNL A   1      34.174  33.699  30.690  1.00  0.00     0.059 A 
ATOM     57  C   UNL A   1      35.751  34.856  29.248  1.00  0.00     0.059 A 
ATOM     58  F   UNL A   1      38.044  34.403  29.437  1.00  0.00    -0.206 F 
ATOM     59  C   UNL A   1      34.445  34.617  29.674  1.00  0.00     0.060 A 
BRANCH  59  60
ATOM     60  S   UNL A   1      33.072  35.547  28.955  1.00  0.00     0.124 S 
ATOM     61  O   UNL A   1      32.415  34.524  28.152  1.00  0.00    -0.237 OA
ATOM     62  O   UNL A   1      32.347  35.994  30.140  1.00  0.00    -0.237 OA
ATOM     63  O   UNL A   1      33.744  36.606  28.207  1.00  0.00    -0.744 OA
ENDBRANCH  59  60
ENDBRANCH  27  52
BRANCH  39  64
ATOM     64  C   UNL A   1      39.673  34.036  37.070  1.00  0.00     0.058 A 
ATOM     65  C   UNL A   1      38.936  33.667  38.206  1.00  0.00     0.135 A 
ATOM     66  C   UNL A   1      40.231  35.323  37.035  1.00  0.00     0.135 A 
ATOM     67  F   UNL A   1      38.375  32.450  38.282  1.00  0.00    -0.206 F 
ATOM     68  C   UNL A   1      38.746  34.549  39.264  1.00  0.00     0.059 A 
ATOM     69  C   UNL A   1      40.071  36.214  38.091  1.00  0.00     0.059 A 
ATOM     70  F   UNL A   1      40.949  35.720  35.973  1.00  0.00    -0.206 F 
ATOM     71  C   UNL A   1      39.316  35.822  39.196  1.00  0.00     0.060 A 
BRANCH  71  72
ATOM     72  S   UNL A   1      39.091  36.951  40.588  1.00  0.00     0.124 S 
ATOM     73  O   UNL A   1      40.470  37.319  40.892  1.00  0.00    -0.237 OA
ATOM     74  O   UNL A   1      38.266  38.007  40.008  1.00  0.00    -0.237 OA
ATOM     75  O   UNL A   1      38.425  36.124  41.588  1.00  0.00    -0.744 OA
ENDBRANCH  71  72
ENDBRANCH  39  64
ENDBRANCH  13  14
ENDBRANCH   6   8
ENDBRANCH   3   4
ENDBRANCH   2   3
ENDBRANCH   1   2
BRANCH   1  76
ATOM     76  C   UNL A   1      37.436  21.297  24.993  1.00  0.00     0.002 C 
BRANCH  76  77
ATOM     77  C   UNL A   1      36.856  22.386  24.081  1.00  0.00     0.021 C 
BRANCH  77  78
ATOM     78  C   UNL A   1      35.400  22.751  24.360  1.00  0.00     0.116 C 
BRANCH  78  79
ATOM     79  N   UNL A   1      35.076  22.628  25.770  1.00  0.00    -0.355 N 
ATOM     80  C   UNL A   1      33.963  23.053  26.442  1.00  0.00     0.238 C 
ATOM     81  H   UNL A   1      35.754  22.173  26.321  1.00  0.00     0.163 HD
ATOM     82  O   UNL A   1      33.895  22.815  27.650  1.00  0.00    -0.273 OA
BRANCH  80  83
ATOM     83  C   UNL A   1      32.848  23.761  25.660  1.00  0.00     0.162 C 
ATOM     84  C   UNL A   1      32.043  22.752  24.851  1.00  0.00     0.032 C 
ATOM     85  N   UNL A   1      31.838  24.396  26.565  1.00  0.00    -0.185 NA
ATOM     86  C   UNL A   1      31.072  22.193  25.871  1.00  0.00     0.019 C 
ATOM     87  C   UNL A   1      30.810  23.339  26.844  1.00  0.00     0.103 C 
BRANCH  85  88
ATOM     88  S   UNL A   1      31.167  25.875  26.049  1.00  0.00     0.244 S 
ATOM     89  O   UNL A   1      29.839  25.614  25.541  1.00  0.00    -0.207 OA
ATOM     90  O   UNL A   1      31.380  26.845  27.105  1.00  0.00    -0.207 OA
BRANCH  88  91
ATOM     91  C   UNL A   1      32.167  26.389  24.665  1.00  0.00     0.089 A 
ATOM     92  C   UNL A   1      33.156  27.365  24.850  1.00  0.00     0.022 A 
ATOM     93  C   UNL A   1      31.873  25.924  23.380  1.00  0.00     0.107 A 
ATOM     94  C   UNL A   1      33.873  27.854  23.755  1.00  0.00     0.008 A 
ATOM     95  C   UNL A   1      32.636  26.379  22.298  1.00  0.00     0.270 A 
ATOM     96  C   UNL A   1      33.626  27.353  22.474  1.00  0.00     0.086 A 
BRANCH  95  97
ATOM     97  N   UNL A   1      32.408  25.803  20.970  1.00  0.00     0.062 N 
ATOM     98  O   UNL A   1      31.380  26.138  20.366  1.00  0.00    -0.258 OA
ATOM     99  O   UNL A   1      33.278  25.040  20.526  1.00  0.00    -0.258 OA
ENDBRANCH  95  97
ENDBRANCH  88  91
ENDBRANCH  85  88
ENDBRANCH  80  83
ENDBRANCH  78  79
ENDBRANCH  77  78
ENDBRANCH  76  77
ENDBRANCH   1  76
TORSDOF 19
ENDMDL
MODEL 2
REMARK VINA RESULT:     -11.2      6.369     11.931
REMARK SMILES O=C(NCCCCCCNC(=O)[C@H]1CCCN1S(=O)(=O)c1cccc([N+](=O)[O-])c1)c1ccc(-c2c3nc(c(-c4c(F)cc(S(=O)(=O)[O-])cc4F)c4ccc([nH]4)c(-c4c(F)cc(S(=O)(=O)[O-])cc4F)c4nc(c(-c5c(F)cc(S(=O)(=O)[O-])cc5F)c5ccc2[nH]5)C=C4)C=C3)cc1
REMARK SMILES IDX 6 1 5 2 4 3 3 4 1 5 2 6 30 8 31 9 95 10 32 11 94 12 33 13
REMARK SMILES IDX 34 14 35 15 88 16 36 17 93 18 87 19 89 20 37 21 92 22 86 23
REMARK SMILES IDX 85 24 38 26 72 27 51 28 71 29 52 30 55 31 70 32 90 33 53 34
REMARK SMILES IDX 54 35 69 37 91 38 56 39 39 40 40 41 49 42 41 43 42 44 48 45
REMARK SMILES IDX 50 46 43 47 44 48 45 49 46 50 47 51 73 52 74 53 83 54 75 55
REMARK SMILES IDX 76 56 82 57 84 58 77 59 78 60 79 61 80 62 81 63 57 64 58 65
REMARK SMILES IDX 67 66 59 67 60 68 66 69 68 70 61 71 62 72 63 73 64 74 65 75
REMARK SMILES IDX 7 76 8 77 9 78 10 79 11 80 12 82 13 83 14 84 17 85 15 86
REMARK SMILES IDX 16 87 18 88 19 89 20 90 21 91 22 92 29 93 23 94 25 95 24 96
REMARK SMILES IDX 26 97 27 98 28 99
REMARK H PARENT 3 7 89 25 55 36 10 81
REMARK Flexibility Score: inf
ROOT
ATOM      1  C   UNL A   1      34.732  30.930  27.669  1.00  0.00     0.002 C 
ENDROOT
BRANCH   1   2
ATOM      2  C   UNL A   1      35.105  32.377  27.998  1.00  0.00     0.021 C 
BRANCH   2   3
ATOM      3  C   UNL A   1      36.134  32.550  29.110  1.00  0.00     0.116 C 
BRANCH   3   4
ATOM      4  N   UNL A   1      35.810  31.774  30.294  1.00  0.00    -0.352 N 
ATOM      5  O   UNL A   1      35.998  30.100  31.788  1.00  0.00    -0.269 OA
ATOM      6  C   UNL A   1      36.506  30.741  30.872  1.00  0.00     0.251 C 
ATOM      7  H   UNL A   1      34.973  32.026  30.747  1.00  0.00     0.163 HD
BRANCH   6   8
ATOM      8  C   UNL A   1      37.854  30.383  30.375  1.00  0.00     0.039 A 
ATOM      9  C   UNL A   1      38.104  30.245  29.007  1.00  0.00     0.014 A 
ATOM     10  C   UNL A   1      38.888  30.203  31.298  1.00  0.00     0.014 A 
ATOM     11  C   UNL A   1      39.355  29.815  28.571  1.00  0.00     0.010 A 
ATOM     12  C   UNL A   1      40.162  29.836  30.854  1.00  0.00     0.010 A 
ATOM     13  C   UNL A   1      40.399  29.613  29.489  1.00  0.00    -0.014 A 
BRANCH  13  14
ATOM     14  C   UNL A   1      41.745  29.225  28.999  1.00  0.00     0.031 A 
ATOM     15  C   UNL A   1      42.872  30.219  28.961  1.00  0.00     0.074 A 
ATOM     16  C   UNL A   1      41.948  27.958  28.591  1.00  0.00     0.049 A 
ATOM     17  N   UNL A   1      44.104  30.051  28.555  1.00  0.00    -0.248 NA
ATOM     18  C   UNL A   1      42.577  31.580  29.435  1.00  0.00     0.031 C 
ATOM     19  C   UNL A   1      40.925  26.908  28.568  1.00  0.00     0.029 A 
ATOM     20  N   UNL A   1      43.075  27.333  28.125  1.00  0.00    -0.354 N 
ATOM     21  C   UNL A   1      44.729  31.283  28.704  1.00  0.00     0.074 A 
ATOM     22  C   UNL A   1      43.732  32.198  29.221  1.00  0.00     0.031 C 
ATOM     23  C   UNL A   1      41.479  25.764  28.141  1.00  0.00     0.029 A 
ATOM     24  C   UNL A   1      42.880  26.009  27.814  1.00  0.00     0.049 A 
ATOM     25  H   UNL A   1      43.942  27.789  28.022  1.00  0.00     0.167 HD
ATOM     26  C   UNL A   1      46.015  31.619  28.439  1.00  0.00     0.037 A 
ATOM     27  C   UNL A   1      43.729  25.093  27.308  1.00  0.00     0.037 A 
ATOM     28  C   UNL A   1      47.006  30.699  27.938  1.00  0.00     0.049 A 
ATOM     29  C   UNL A   1      45.146  25.491  27.019  1.00  0.00     0.074 A 
ATOM     30  C   UNL A   1      48.343  30.937  27.669  1.00  0.00     0.029 A 
ATOM     31  N   UNL A   1      46.767  29.369  27.628  1.00  0.00    -0.354 N 
ATOM     32  N   UNL A   1      45.725  26.654  27.191  1.00  0.00    -0.248 NA
ATOM     33  C   UNL A   1      46.027  24.453  26.466  1.00  0.00     0.031 C 
ATOM     34  C   UNL A   1      48.905  29.757  27.167  1.00  0.00     0.029 A 
ATOM     35  C   UNL A   1      47.927  28.775  27.156  1.00  0.00     0.049 A 
ATOM     36  H   UNL A   1      45.901  28.912  27.728  1.00  0.00     0.167 HD
ATOM     37  C   UNL A   1      47.040  26.488  26.777  1.00  0.00     0.074 A 
ATOM     38  C   UNL A   1      47.176  25.107  26.361  1.00  0.00     0.031 C 
ATOM     39  C   UNL A   1      48.044  27.399  26.743  1.00  0.00     0.037 A 
BRANCH  26  40
ATOM     40  C   UNL A   1      46.422  33.047  28.672  1.00  0.00     0.058 A 
ATOM     41  C   UNL A   1      46.313  34.019  27.665  1.00  0.00     0.135 A 
ATOM     42  C   UNL A   1      46.900  33.457  29.929  1.00  0.00     0.135 A 
ATOM     43  F   UNL A   1      45.875  33.678  26.443  1.00  0.00    -0.206 F 
ATOM     44  C   UNL A   1      46.690  35.340  27.885  1.00  0.00     0.059 A 
ATOM     45  C   UNL A   1      47.264  34.777  30.177  1.00  0.00     0.059 A 
ATOM     46  F   UNL A   1      47.022  32.568  30.927  1.00  0.00    -0.206 F 
ATOM     47  C   UNL A   1      47.171  35.708  29.143  1.00  0.00     0.060 A 
BRANCH  47  48
ATOM     48  S   UNL A   1      47.672  37.423  29.412  1.00  0.00     0.124 S 
ATOM     49  O   UNL A   1      46.393  38.117  29.302  1.00  0.00    -0.237 OA
ATOM     50  O   UNL A   1      48.254  37.376  30.749  1.00  0.00    -0.237 OA
ATOM     51  O   UNL A   1      48.618  37.673  28.329  1.00  0.00    -0.744 OA
ENDBRANCH  47  48
ENDBRANCH  26  40
BRANCH  27  52
ATOM     52  C   UNL A   1      43.244  23.713  27.052  1.00  0.00     0.058 A 
ATOM     53  C   UNL A   1      42.975  23.275  25.749  1.00  0.00     0.135 A 
ATOM     54  C   UNL A   1      43.093  22.793  28.101  1.00  0.00     0.135 A 
ATOM     55  F   UNL A   1      43.102  24.122  24.716  1.00  0.00    -0.206 F 
ATOM     56  C   UNL A   1      42.573  21.968  25.491  1.00  0.00     0.059 A 
ATOM     57  C   UNL A   1      42.713  21.476  27.867  1.00  0.00     0.059 A 
ATOM     58  F   UNL A   1      43.356  23.163  29.364  1.00  0.00    -0.206 F 
ATOM     59  C   UNL A   1      42.449  21.075  26.558  1.00  0.00     0.060 A 
BRANCH  59  60
ATOM     60  S   UNL A   1      42.002  19.360  26.208  1.00  0.00     0.124 S 
ATOM     61  O   UNL A   1      40.554  19.457  26.073  1.00  0.00    -0.237 OA
ATOM     62  O   UNL A   1      42.742  19.091  24.979  1.00  0.00    -0.237 OA
ATOM     63  O   UNL A   1      42.482  18.645  27.387  1.00  0.00    -0.744 OA
ENDBRANCH  59  60
ENDBRANCH  27  52
BRANCH  39  64
ATOM     64  C   UNL A   1      49.382  26.924  26.257  1.00  0.00     0.058 A 
ATOM     65  C   UNL A   1      50.287  26.281  27.116  1.00  0.00     0.135 A 
ATOM     66  C   UNL A   1      49.747  27.078  24.911  1.00  0.00     0.135 A 
ATOM     67  F   UNL A   1      49.987  26.117  28.415  1.00  0.00    -0.206 F 
ATOM     68  C   UNL A   1      51.518  25.822  26.660  1.00  0.00     0.059 A 
ATOM     69  C   UNL A   1      50.964  26.609  24.428  1.00  0.00     0.059 A 
ATOM     70  F   UNL A   1      48.913  27.681  24.049  1.00  0.00    -0.206 F 
ATOM     71  C   UNL A   1      51.848  25.992  25.314  1.00  0.00     0.060 A 
BRANCH  71  72
ATOM     72  S   UNL A   1      53.435  25.366  24.722  1.00  0.00     0.124 S 
ATOM     73  O   UNL A   1      54.374  26.215  25.446  1.00  0.00    -0.237 OA
ATOM     74  O   UNL A   1      53.397  23.966  25.135  1.00  0.00    -0.237 OA
ATOM     75  O   UNL A   1      53.369  25.587  23.281  1.00  0.00    -0.744 OA
ENDBRANCH  71  72
ENDBRANCH  39  64
ENDBRANCH  13  14
ENDBRANCH   6   8
ENDBRANCH   3   4
ENDBRANCH   2   3
ENDBRANCH   1   2
BRANCH   1  76
ATOM     76  C   UNL A   1      33.276  30.699  27.249  1.00  0.00     0.002 C 
BRANCH  76  77
ATOM     77  C   UNL A   1      32.899  29.248  26.925  1.00  0.00     0.021 C 
BRANCH  77  78
ATOM     78  C   UNL A   1      33.997  28.432  26.248  1.00  0.00     0.116 C 
BRANCH  78  79
ATOM     79  N   UNL A   1      34.148  28.792  24.849  1.00  0.00    -0.355 N 
ATOM     80  C   UNL A   1      33.619  28.191  23.740  1.00  0.00     0.238 C 
ATOM     81  H   UNL A   1      34.710  29.581  24.674  1.00  0.00     0.163 HD
ATOM     82  O   UNL A   1      33.868  28.691  22.641  1.00  0.00    -0.273 OA
BRANCH  80  83
ATOM     83  C   UNL A   1      32.720  26.959  23.919  1.00  0.00     0.162 C 
ATOM     84  C   UNL A   1      31.768  26.821  22.737  1.00  0.00     0.032 C 
ATOM     85  N   UNL A   1      33.501  25.682  23.912  1.00  0.00    -0.185 NA
ATOM     86  C   UNL A   1      32.622  26.136  21.689  1.00  0.00     0.019 C 
ATOM     87  C   UNL A   1      33.594  25.261  22.475  1.00  0.00     0.103 C 
BRANCH  85  88
ATOM     88  S   UNL A   1      32.957  24.445  24.949  1.00  0.00     0.244 S 
ATOM     89  O   UNL A   1      32.819  24.999  26.277  1.00  0.00    -0.207 OA
ATOM     90  O   UNL A   1      31.839  23.788  24.301  1.00  0.00    -0.207 OA
BRANCH  88  91
ATOM     91  C   UNL A   1      34.288  23.260  25.010  1.00  0.00     0.089 A 
ATOM     92  C   UNL A   1      34.043  21.925  24.658  1.00  0.00     0.022 A 
ATOM     93  C   UNL A   1      35.529  23.631  25.536  1.00  0.00     0.107 A 
ATOM     94  C   UNL A   1      35.049  20.967  24.804  1.00  0.00     0.008 A 
ATOM     95  C   UNL A   1      36.546  22.674  25.623  1.00  0.00     0.270 A 
ATOM     96  C   UNL A   1      36.311  21.338  25.274  1.00  0.00     0.086 A 
BRANCH  95  97
ATOM     97  N   UNL A   1      37.882  23.087  26.062  1.00  0.00     0.062 N 
ATOM     98  O   UNL A   1      38.799  22.261  25.971  1.00  0.00    -0.258 OA
ATOM     99  O   UNL A   1      38.010  24.252  26.469  1.00  0.00    -0.258 OA
ENDBRANCH  95  97
ENDBRANCH  88  91
ENDBRANCH  85  88
ENDBRANCH  80  83
ENDBRANCH  78  79
ENDBRANCH  77  78
ENDBRANCH  76  77
ENDBRANCH   1  76
TORSDOF 19
ENDMDL
MODEL 3
REMARK VINA RESULT:     -11.2      6.877     11.411
REMARK SMILES O=C(NCCCCCCNC(=O)[C@H]1CCCN1S(=O)(=O)c1cccc([N+](=O)[O-])c1)c1ccc(-c2c3nc(c(-c4c(F)cc(S(=O)(=O)[O-])cc4F)c4ccc([nH]4)c(-c4c(F)cc(S(=O)(=O)[O-])cc4F)c4nc(c(-c5c(F)cc(S(=O)(=O)[O-])cc5F)c5ccc2[nH]5)C=C4)C=C3)cc1
REMARK SMILES IDX 6 1 5 2 4 3 3 4 1 5 2 6 30 8 31 9 95 10 32 11 94 12 33 13
REMARK SMILES IDX 34 14 35 15 88 16 36 17 93 18 87 19 89 20 37 21 92 22 86 23
REMARK SMILES IDX 85 24 38 26 72 27 51 28 71 29 52 30 55 31 70 32 90 33 53 34
REMARK SMILES IDX 54 35 69 37 91 38 56 39 39 40 40 41 49 42 41 43 42 44 48 45
REMARK SMILES IDX 50 46 43 47 44 48 45 49 46 50 47 51 73 52 74 53 83 54 75 55
REMARK SMILES IDX 76 56 82 57 84 58 77 59 78 60 79 61 80 62 81 63 57 64 58 65
REMARK SMILES IDX 67 66 59 67 60 68 66 69 68 70 61 71 62 72 63 73 64 74 65 75
REMARK SMILES IDX 7 76 8 77 9 78 10 79 11 80 12 82 13 83 14 84 17 85 15 86
REMARK SMILES IDX 16 87 18 88 19 89 20 90 21 91 22 92 29 93 23 94 25 95 24 96
REMARK SMILES IDX 26 97 27 98 28 99
REMARK H PARENT 3 7 89 25 55 36 10 81
REMARK Flexibility Score: inf
ROOT
ATOM      1  C   UNL A   1      40.627  21.537  26.964  1.00  0.00     0.002 C 
ENDROOT
BRANCH   1   2
ATOM      2  C   UNL A   1      40.811  20.029  26.779  1.00  0.00     0.021 C 
BRANCH   2   3
ATOM      3  C   UNL A   1      42.212  19.502  27.072  1.00  0.00     0.116 C 
BRANCH   3   4
ATOM      4  N   UNL A   1      42.923  19.111  25.868  1.00  0.00    -0.352 N 
ATOM      5  O   UNL A   1      44.097  19.405  23.969  1.00  0.00    -0.269 OA
ATOM      6  C   UNL A   1      43.697  19.876  25.030  1.00  0.00     0.251 C 
ATOM      7  H   UNL A   1      42.841  18.162  25.618  1.00  0.00     0.163 HD
BRANCH   6   8
ATOM      8  C   UNL A   1      44.025  21.274  25.392  1.00  0.00     0.039 A 
ATOM      9  C   UNL A   1      43.489  22.348  24.676  1.00  0.00     0.014 A 
ATOM     10  C   UNL A   1      44.870  21.509  26.481  1.00  0.00     0.014 A 
ATOM     11  C   UNL A   1      43.888  23.648  24.975  1.00  0.00     0.010 A 
ATOM     12  C   UNL A   1      45.217  22.819  26.822  1.00  0.00     0.010 A 
ATOM     13  C   UNL A   1      44.750  23.898  26.056  1.00  0.00    -0.014 A 
BRANCH  13  14
ATOM     14  C   UNL A   1      45.107  25.296  26.405  1.00  0.00     0.031 A 
ATOM     15  C   UNL A   1      44.084  26.238  26.972  1.00  0.00     0.074 A 
ATOM     16  C   UNL A   1      46.374  25.710  26.212  1.00  0.00     0.049 A 
ATOM     17  N   UNL A   1      44.222  27.492  27.322  1.00  0.00    -0.248 NA
ATOM     18  C   UNL A   1      42.724  25.709  27.167  1.00  0.00     0.031 C 
ATOM     19  C   UNL A   1      47.452  24.889  25.653  1.00  0.00     0.029 A 
ATOM     20  N   UNL A   1      46.974  26.917  26.465  1.00  0.00    -0.354 N 
ATOM     21  C   UNL A   1      42.971  27.909  27.760  1.00  0.00     0.074 A 
ATOM     22  C   UNL A   1      42.078  26.779  27.613  1.00  0.00     0.031 C 
ATOM     23  C   UNL A   1      48.586  25.605  25.636  1.00  0.00     0.029 A 
ATOM     24  C   UNL A   1      48.307  26.947  26.134  1.00  0.00     0.049 A 
ATOM     25  H   UNL A   1      46.495  27.687  26.849  1.00  0.00     0.167 HD
ATOM     26  C   UNL A   1      42.604  29.121  28.243  1.00  0.00     0.037 A 
ATOM     27  C   UNL A   1      49.205  27.948  26.208  1.00  0.00     0.037 A 
ATOM     28  C   UNL A   1      43.502  30.237  28.400  1.00  0.00     0.049 A 
ATOM     29  C   UNL A   1      48.772  29.282  26.743  1.00  0.00     0.074 A 
ATOM     30  C   UNL A   1      43.231  31.495  28.911  1.00  0.00     0.029 A 
ATOM     31  N   UNL A   1      44.843  30.232  28.045  1.00  0.00    -0.354 N 
ATOM     32  N   UNL A   1      47.591  29.650  27.175  1.00  0.00    -0.248 NA
ATOM     33  C   UNL A   1      49.792  30.337  26.798  1.00  0.00     0.031 C 
ATOM     34  C   UNL A   1      44.402  32.260  28.836  1.00  0.00     0.029 A 
ATOM     35  C   UNL A   1      45.410  31.467  28.311  1.00  0.00     0.049 A 
ATOM     36  H   UNL A   1      45.322  29.462  27.660  1.00  0.00     0.167 HD
ATOM     37  C   UNL A   1      47.726  30.976  27.565  1.00  0.00     0.074 A 
ATOM     38  C   UNL A   1      49.109  31.341  27.330  1.00  0.00     0.031 C 
ATOM     39  C   UNL A   1      46.788  31.815  28.069  1.00  0.00     0.037 A 
BRANCH  26  40
ATOM     40  C   UNL A   1      41.162  29.308  28.625  1.00  0.00     0.058 A 
ATOM     41  C   UNL A   1      40.149  29.401  27.658  1.00  0.00     0.135 A 
ATOM     42  C   UNL A   1      40.783  29.364  29.977  1.00  0.00     0.135 A 
ATOM     43  F   UNL A   1      40.458  29.366  26.352  1.00  0.00    -0.206 F 
ATOM     44  C   UNL A   1      38.816  29.573  28.015  1.00  0.00     0.059 A 
ATOM     45  C   UNL A   1      39.454  29.515  30.358  1.00  0.00     0.059 A 
ATOM     46  F   UNL A   1      41.712  29.278  30.942  1.00  0.00    -0.206 F 
ATOM     47  C   UNL A   1      38.478  29.636  29.369  1.00  0.00     0.060 A 
BRANCH  47  48
ATOM     48  S   UNL A   1      36.746  29.875  29.820  1.00  0.00     0.124 S 
ATOM     49  O   UNL A   1      36.642  29.048  31.017  1.00  0.00    -0.237 OA
ATOM     50  O   UNL A   1      36.672  31.316  30.038  1.00  0.00    -0.237 OA
ATOM     51  O   UNL A   1      36.021  29.384  28.651  1.00  0.00    -0.744 OA
ENDBRANCH  47  48
ENDBRANCH  26  40
BRANCH  27  52
ATOM     52  C   UNL A   1      50.601  27.709  25.763  1.00  0.00     0.058 A 
ATOM     53  C   UNL A   1      51.606  27.389  26.685  1.00  0.00     0.135 A 
ATOM     54  C   UNL A   1      50.942  27.743  24.402  1.00  0.00     0.135 A 
ATOM     55  F   UNL A   1      51.326  27.349  27.997  1.00  0.00    -0.206 F 
ATOM     56  C   UNL A   1      52.906  27.110  26.274  1.00  0.00     0.059 A 
ATOM     57  C   UNL A   1      52.229  27.447  23.965  1.00  0.00     0.059 A 
ATOM     58  F   UNL A   1      50.009  28.028  23.481  1.00  0.00    -0.206 F 
ATOM     59  C   UNL A   1      53.205  27.136  24.911  1.00  0.00     0.060 A 
BRANCH  59  60
ATOM     60  S   UNL A   1      54.875  26.697  24.379  1.00  0.00     0.124 S 
ATOM     61  O   UNL A   1      54.774  26.860  22.934  1.00  0.00    -0.237 OA
ATOM     62  O   UNL A   1      55.693  27.682  25.078  1.00  0.00    -0.237 OA
ATOM     63  O   UNL A   1      55.024  25.323  24.852  1.00  0.00    -0.744 OA
ENDBRANCH  59  60
ENDBRANCH  27  52
BRANCH  39  64
ATOM     64  C   UNL A   1      47.233  33.206  28.419  1.00  0.00     0.058 A 
ATOM     65  C   UNL A   1      47.163  34.253  27.487  1.00  0.00     0.135 A 
ATOM     66  C   UNL A   1      47.697  33.502  29.709  1.00  0.00     0.135 A 
ATOM     67  F   UNL A   1      46.733  34.018  26.236  1.00  0.00    -0.206 F 
ATOM     68  C   UNL A   1      47.555  35.545  27.818  1.00  0.00     0.059 A 
ATOM     69  C   UNL A   1      48.076  34.791  30.069  1.00  0.00     0.059 A 
ATOM     70  F   UNL A   1      47.777  32.535  30.637  1.00  0.00    -0.206 F 
ATOM     71  C   UNL A   1      48.013  35.804  29.112  1.00  0.00     0.060 A 
BRANCH  71  72
ATOM     72  S   UNL A   1      48.491  37.491  29.544  1.00  0.00     0.124 S 
ATOM     73  O   UNL A   1      49.460  37.798  28.497  1.00  0.00    -0.237 OA
ATOM     74  O   UNL A   1      47.223  38.210  29.465  1.00  0.00    -0.237 OA
ATOM     75  O   UNL A   1      49.041  37.351  30.889  1.00  0.00    -0.744 OA
ENDBRANCH  71  72
ENDBRANCH  39  64
ENDBRANCH  13  14
ENDBRANCH   6   8
ENDBRANCH   3   4
ENDBRANCH   2   3
ENDBRANCH   1   2
BRANCH   1  76
ATOM     76  C   UNL A   1      39.489  22.171  26.156  1.00  0.00     0.002 C 
BRANCH  76  77
ATOM     77  C   UNL A   1      38.979  23.523  26.672  1.00  0.00     0.021 C 
BRANCH  77  78
ATOM     78  C   UNL A   1      37.634  23.965  26.101  1.00  0.00     0.116 C 
BRANCH  78  79
ATOM     79  N   UNL A   1      37.501  23.605  24.700  1.00  0.00    -0.355 N 
ATOM     80  C   UNL A   1      36.403  23.148  24.025  1.00  0.00     0.238 C 
ATOM     81  H   UNL A   1      38.318  23.705  24.159  1.00  0.00     0.163 HD
ATOM     82  O   UNL A   1      36.521  22.926  22.819  1.00  0.00    -0.273 OA
BRANCH  80  83
ATOM     83  C   UNL A   1      35.082  22.972  24.787  1.00  0.00     0.162 C 
ATOM     84  C   UNL A   1      34.320  24.290  24.840  1.00  0.00     0.032 C 
ATOM     85  N   UNL A   1      34.146  22.035  24.090  1.00  0.00    -0.185 NA
ATOM     86  C   UNL A   1      33.623  24.335  23.495  1.00  0.00     0.019 C 
ATOM     87  C   UNL A   1      33.350  22.877  23.137  1.00  0.00     0.103 C 
BRANCH  85  88
ATOM     88  S   UNL A   1      33.185  21.033  25.077  1.00  0.00     0.244 S 
ATOM     89  O   UNL A   1      33.808  20.953  26.379  1.00  0.00    -0.207 OA
ATOM     90  O   UNL A   1      31.809  21.470  24.940  1.00  0.00    -0.207 OA
BRANCH  88  91
ATOM     91  C   UNL A   1      33.287  19.410  24.346  1.00  0.00     0.089 A 
ATOM     92  C   UNL A   1      32.613  19.149  23.145  1.00  0.00     0.022 A 
ATOM     93  C   UNL A   1      33.918  18.372  25.036  1.00  0.00     0.107 A 
ATOM     94  C   UNL A   1      32.596  17.855  22.618  1.00  0.00     0.008 A 
ATOM     95  C   UNL A   1      33.944  17.092  24.470  1.00  0.00     0.270 A 
ATOM     96  C   UNL A   1      33.274  16.822  23.270  1.00  0.00     0.086 A 
BRANCH  95  97
ATOM     97  N   UNL A   1      34.707  16.031  25.133  1.00  0.00     0.062 N 
ATOM     98  O   UNL A   1      35.863  16.290  25.490  1.00  0.00    -0.258 OA
ATOM     99  O   UNL A   1      34.129  14.950  25.319  1.00  0.00    -0.258 OA
ENDBRANCH  95  97
ENDBRANCH  88  91
ENDBRANCH  85  88
ENDBRANCH  80  83
ENDBRANCH  78  79
ENDBRANCH  77  78
ENDBRANCH  76  77
ENDBRANCH   1  76
TORSDOF 19
ENDMDL
