MODEL 1
REMARK VINA RESULT:     -10.4      0.000      0.000
REMARK SMILES CC[C@H]1CN(C(=O)N(CC(=O)NCCCCCCNC(=O)c2ccc(-c3c4nc(c(-c5c(F)cc(S(=O)(=O)[O-])cc5F)c5ccc([nH]5)c(-c5c(F)cc(S(=O)(=O)[O-])cc5F)c5nc(c(-c6c(F)cc(S(=O)(=O)[O-])cc6F)c6ccc3[nH]6)C=C5)C=C4)cc2)C(C)(C)C)CC[N@@H+]1C
REMARK SMILES IDX 15 1 14 2 13 3 12 4 10 5 11 6 9 8 8 9 6 10 7 11 5 12 3 13
REMARK SMILES IDX 4 14 94 15 93 16 95 17 92 19 2 20 1 21 88 22 89 23 90 24
REMARK SMILES IDX 91 25 16 26 17 27 18 28 19 29 20 30 21 32 22 33 23 34 87 35
REMARK SMILES IDX 24 36 86 37 25 38 26 39 27 40 80 41 28 42 85 43 79 44 81 45
REMARK SMILES IDX 29 46 84 47 78 48 77 49 30 51 64 52 43 53 63 54 44 55 47 56
REMARK SMILES IDX 62 57 82 58 45 59 46 60 61 62 83 63 48 64 31 65 32 66 41 67
REMARK SMILES IDX 33 68 34 69 40 70 42 71 35 72 36 73 37 74 38 75 39 76 65 77
REMARK SMILES IDX 66 78 75 79 67 80 68 81 74 82 76 83 69 84 70 85 71 86 72 87
REMARK SMILES IDX 73 88 49 89 50 90 59 91 51 92 52 93 58 94 60 95 53 96 54 97
REMARK SMILES IDX 55 98 56 99 57 100
REMARK H PARENT 12 7 94 18 19 31 81 50 47 61
REMARK Flexibility Score: inf
ROOT
ATOM      1  C   UNL A   1      40.313  22.113  26.502  1.00  0.00     0.002 C 
ENDROOT
BRANCH   1   2
ATOM      2  C   UNL A   1      39.497  20.870  26.131  1.00  0.00     0.021 C 
BRANCH   2   3
ATOM      3  C   UNL A   1      38.231  21.191  25.350  1.00  0.00     0.116 C 
BRANCH   3   4
ATOM      4  N   UNL A   1      37.342  22.042  26.114  1.00  0.00    -0.355 N 
ATOM      5  C   UNL A   1      35.993  22.184  26.005  1.00  0.00     0.239 C 
ATOM      6  O   UNL A   1      35.412  22.892  26.833  1.00  0.00    -0.273 OA
ATOM      7  H   UNL A   1      37.772  22.591  26.808  1.00  0.00     0.163 HD
BRANCH   5   8
ATOM      8  C   UNL A   1      35.214  21.367  24.971  1.00  0.00     0.221 C 
BRANCH   8   9
ATOM      9  N   UNL A   1      34.268  22.050  24.066  1.00  0.00    -0.311 N 
BRANCH   9  10
ATOM     10  C   UNL A   1      34.590  23.222  23.383  1.00  0.00     0.321 C 
ATOM     11  O   UNL A   1      35.420  23.218  22.469  1.00  0.00    -0.248 OA
BRANCH  10  12
ATOM     12  N   UNL A   1      33.964  24.418  23.705  1.00  0.00    -0.313 N 
ATOM     13  C   UNL A   1      33.161  26.264  25.226  1.00  0.00     0.203 C 
ATOM     14  C   UNL A   1      34.315  25.286  24.842  1.00  0.00     0.186 C 
ATOM     15  N   UNL A   1      32.699  27.075  24.076  1.00  0.00    -0.332 N 
ATOM     16  C   UNL A   1      32.344  26.207  22.937  1.00  0.00     0.284 C 
ATOM     17  C   UNL A   1      33.671  28.095  23.688  1.00  0.00     0.333 C 
ATOM     18  H   UNL A   1      31.860  27.573  24.375  1.00  0.00     0.348 HD
ATOM     19  C   UNL A   1      33.403  25.157  22.560  1.00  0.00     0.183 C 
BRANCH  13  20
ATOM     20  C   UNL A   1      31.976  25.504  25.879  1.00  0.00     0.063 C 
ATOM     21  C   UNL A   1      30.725  26.358  26.077  1.00  0.00     0.010 C 
ENDBRANCH  13  20
ENDBRANCH  10  12
ENDBRANCH   9  10
BRANCH   9  22
ATOM     22  C   UNL A   1      32.836  21.548  23.980  1.00  0.00     0.037 C 
ATOM     23  C   UNL A   1      32.184  21.848  22.611  1.00  0.00     0.034 C 
ATOM     24  C   UNL A   1      32.800  20.021  24.238  1.00  0.00     0.034 C 
ATOM     25  C   UNL A   1      31.883  22.164  25.036  1.00  0.00     0.034 C 
ENDBRANCH   9  22
ENDBRANCH   8   9
ENDBRANCH   5   8
ENDBRANCH   3   4
ENDBRANCH   2   3
ENDBRANCH   1   2
BRANCH   1  26
ATOM     26  C   UNL A   1      41.768  21.816  26.877  1.00  0.00     0.002 C 
BRANCH  26  27
ATOM     27  C   UNL A   1      42.424  22.885  27.753  1.00  0.00     0.021 C 
BRANCH  27  28
ATOM     28  C   UNL A   1      43.378  23.805  26.999  1.00  0.00     0.116 C 
BRANCH  28  29
ATOM     29  N   UNL A   1      42.693  24.543  25.948  1.00  0.00    -0.352 N 
ATOM     30  C   UNL A   1      41.834  25.606  26.067  1.00  0.00     0.251 C 
ATOM     31  H   UNL A   1      42.870  24.238  25.028  1.00  0.00     0.163 HD
ATOM     32  O   UNL A   1      41.155  25.970  25.113  1.00  0.00    -0.269 OA
BRANCH  30  33
ATOM     33  C   UNL A   1      41.726  26.293  27.370  1.00  0.00     0.039 A 
ATOM     34  C   UNL A   1      42.627  27.312  27.681  1.00  0.00     0.014 A 
ATOM     35  C   UNL A   1      40.702  25.952  28.258  1.00  0.00     0.014 A 
ATOM     36  C   UNL A   1      42.454  28.043  28.858  1.00  0.00     0.010 A 
ATOM     37  C   UNL A   1      40.491  26.726  29.393  1.00  0.00     0.010 A 
ATOM     38  C   UNL A   1      41.361  27.782  29.701  1.00  0.00    -0.014 A 
BRANCH  38  39
ATOM     39  C   UNL A   1      41.086  28.620  30.894  1.00  0.00     0.031 A 
ATOM     40  C   UNL A   1      39.983  29.639  30.863  1.00  0.00     0.074 A 
ATOM     41  C   UNL A   1      41.883  28.515  31.975  1.00  0.00     0.049 A 
ATOM     42  N   UNL A   1      39.644  30.516  31.771  1.00  0.00    -0.248 NA
ATOM     43  C   UNL A   1      39.172  29.695  29.638  1.00  0.00     0.031 C 
ATOM     44  C   UNL A   1      43.004  27.582  32.111  1.00  0.00     0.029 A 
ATOM     45  N   UNL A   1      41.880  29.205  33.160  1.00  0.00    -0.354 N 
ATOM     46  C   UNL A   1      38.586  31.234  31.226  1.00  0.00     0.074 A 
ATOM     47  C   UNL A   1      38.381  30.728  29.886  1.00  0.00     0.031 C 
ATOM     48  C   UNL A   1      43.560  27.738  33.323  1.00  0.00     0.029 A 
ATOM     49  C   UNL A   1      42.871  28.813  34.029  1.00  0.00     0.049 A 
ATOM     50  H   UNL A   1      41.230  29.914  33.370  1.00  0.00     0.167 HD
ATOM     51  C   UNL A   1      37.840  32.210  31.799  1.00  0.00     0.037 A 
ATOM     52  C   UNL A   1      43.195  29.275  35.253  1.00  0.00     0.037 A 
ATOM     53  C   UNL A   1      38.056  32.707  33.133  1.00  0.00     0.049 A 
ATOM     54  C   UNL A   1      42.396  30.404  35.845  1.00  0.00     0.074 A 
ATOM     55  C   UNL A   1      37.326  33.655  33.828  1.00  0.00     0.029 A 
ATOM     56  N   UNL A   1      39.091  32.308  33.969  1.00  0.00    -0.354 N 
ATOM     57  N   UNL A   1      41.354  31.026  35.345  1.00  0.00    -0.248 NA
ATOM     58  C   UNL A   1      42.824  30.902  37.159  1.00  0.00     0.031 C 
ATOM     59  C   UNL A   1      37.953  33.872  35.060  1.00  0.00     0.029 A 
ATOM     60  C   UNL A   1      39.044  33.021  35.157  1.00  0.00     0.049 A 
ATOM     61  H   UNL A   1      39.759  31.620  33.751  1.00  0.00     0.167 HD
ATOM     62  C   UNL A   1      40.990  31.977  36.292  1.00  0.00     0.074 A 
ATOM     63  C   UNL A   1      41.915  31.838  37.400  1.00  0.00     0.031 C 
ATOM     64  C   UNL A   1      39.980  32.881  36.247  1.00  0.00     0.037 A 
BRANCH  51  65
ATOM     65  C   UNL A   1      36.737  32.809  30.968  1.00  0.00     0.058 A 
ATOM     66  C   UNL A   1      36.995  33.783  29.988  1.00  0.00     0.135 A 
ATOM     67  C   UNL A   1      35.402  32.416  31.161  1.00  0.00     0.135 A 
ATOM     68  F   UNL A   1      38.251  34.204  29.767  1.00  0.00    -0.206 F 
ATOM     69  C   UNL A   1      35.965  34.390  29.276  1.00  0.00     0.059 A 
ATOM     70  C   UNL A   1      34.360  32.985  30.435  1.00  0.00     0.059 A 
ATOM     71  F   UNL A   1      35.097  31.484  32.077  1.00  0.00    -0.206 F 
ATOM     72  C   UNL A   1      34.650  33.992  29.514  1.00  0.00     0.060 A 
BRANCH  72  73
ATOM     73  S   UNL A   1      33.322  34.825  28.619  1.00  0.00     0.124 S 
ATOM     74  O   UNL A   1      32.466  35.267  29.716  1.00  0.00    -0.237 OA
ATOM     75  O   UNL A   1      34.037  35.880  27.909  1.00  0.00    -0.237 OA
ATOM     76  O   UNL A   1      32.767  33.771  27.776  1.00  0.00    -0.744 OA
ENDBRANCH  72  73
ENDBRANCH  51  65
BRANCH  52  77
ATOM     77  C   UNL A   1      44.310  28.644  36.006  1.00  0.00     0.058 A 
ATOM     78  C   UNL A   1      45.618  29.138  35.891  1.00  0.00     0.135 A 
ATOM     79  C   UNL A   1      44.091  27.576  36.890  1.00  0.00     0.135 A 
ATOM     80  F   UNL A   1      45.879  30.151  35.051  1.00  0.00    -0.206 F 
ATOM     81  C   UNL A   1      46.668  28.600  36.626  1.00  0.00     0.059 A 
ATOM     82  C   UNL A   1      45.120  27.036  37.655  1.00  0.00     0.059 A 
ATOM     83  F   UNL A   1      42.856  27.074  37.046  1.00  0.00    -0.206 F 
ATOM     84  C   UNL A   1      46.407  27.555  37.514  1.00  0.00     0.060 A 
BRANCH  84  85
ATOM     85  S   UNL A   1      47.765  26.923  38.524  1.00  0.00     0.124 S 
ATOM     86  O   UNL A   1      47.737  25.502  38.198  1.00  0.00    -0.237 OA
ATOM     87  O   UNL A   1      48.903  27.676  38.008  1.00  0.00    -0.237 OA
ATOM     88  O   UNL A   1      47.360  27.267  39.883  1.00  0.00    -0.744 OA
ENDBRANCH  84  85
ENDBRANCH  52  77
BRANCH  64  89
ATOM     89  C   UNL A   1      39.815  33.797  37.428  1.00  0.00     0.058 A 
ATOM     90  C   UNL A   1      40.425  35.061  37.466  1.00  0.00     0.135 A 
ATOM     91  C   UNL A   1      38.979  33.441  38.499  1.00  0.00     0.135 A 
ATOM     92  F   UNL A   1      41.245  35.446  36.474  1.00  0.00    -0.206 F 
ATOM     93  C   UNL A   1      40.216  35.938  38.526  1.00  0.00     0.059 A 
ATOM     94  C   UNL A   1      38.734  34.314  39.556  1.00  0.00     0.059 A 
ATOM     95  F   UNL A   1      38.367  32.247  38.510  1.00  0.00    -0.206 F 
ATOM     96  C   UNL A   1      39.360  35.558  39.562  1.00  0.00     0.060 A 
BRANCH  96  97
ATOM     97  S   UNL A   1      39.047  36.734  40.896  1.00  0.00     0.124 S 
ATOM     98  O   UNL A   1      40.397  36.984  41.391  1.00  0.00    -0.237 OA
ATOM     99  O   UNL A   1      38.416  37.844  40.189  1.00  0.00    -0.237 OA
ATOM    100  O   UNL A   1      38.174  35.996  41.802  1.00  0.00    -0.744 OA
ENDBRANCH  96  97
ENDBRANCH  64  89
ENDBRANCH  38  39
ENDBRANCH  30  33
ENDBRANCH  28  29
ENDBRANCH  27  28
ENDBRANCH  26  27
ENDBRANCH   1  26
TORSDOF 21
ENDMDL
MODEL 2
REMARK VINA RESULT:     -10.3      6.468     12.112
REMARK SMILES CC[C@H]1CN(C(=O)N(CC(=O)NCCCCCCNC(=O)c2ccc(-c3c4nc(c(-c5c(F)cc(S(=O)(=O)[O-])cc5F)c5ccc([nH]5)c(-c5c(F)cc(S(=O)(=O)[O-])cc5F)c5nc(c(-c6c(F)cc(S(=O)(=O)[O-])cc6F)c6ccc3[nH]6)C=C5)C=C4)cc2)C(C)(C)C)CC[N@@H+]1C
REMARK SMILES IDX 15 1 14 2 13 3 12 4 10 5 11 6 9 8 8 9 6 10 7 11 5 12 3 13
REMARK SMILES IDX 4 14 94 15 93 16 95 17 92 19 2 20 1 21 88 22 89 23 90 24
REMARK SMILES IDX 91 25 16 26 17 27 18 28 19 29 20 30 21 32 22 33 23 34 87 35
REMARK SMILES IDX 24 36 86 37 25 38 26 39 27 40 80 41 28 42 85 43 79 44 81 45
REMARK SMILES IDX 29 46 84 47 78 48 77 49 30 51 64 52 43 53 63 54 44 55 47 56
REMARK SMILES IDX 62 57 82 58 45 59 46 60 61 62 83 63 48 64 31 65 32 66 41 67
REMARK SMILES IDX 33 68 34 69 40 70 42 71 35 72 36 73 37 74 38 75 39 76 65 77
REMARK SMILES IDX 66 78 75 79 67 80 68 81 74 82 76 83 69 84 70 85 71 86 72 87
REMARK SMILES IDX 73 88 49 89 50 90 59 91 51 92 52 93 58 94 60 95 53 96 54 97
REMARK SMILES IDX 55 98 56 99 57 100
REMARK H PARENT 12 7 94 18 19 31 81 50 47 61
REMARK Flexibility Score: inf
ROOT
ATOM      1  C   UNL A   1      35.392  31.638  27.691  1.00  0.00     0.002 C 
ENDROOT
BRANCH   1   2
ATOM      2  C   UNL A   1      33.877  31.440  27.806  1.00  0.00     0.021 C 
BRANCH   2   3
ATOM      3  C   UNL A   1      33.334  30.376  26.862  1.00  0.00     0.116 C 
BRANCH   3   4
ATOM      4  N   UNL A   1      32.684  29.308  27.592  1.00  0.00    -0.355 N 
ATOM      5  C   UNL A   1      31.770  28.402  27.148  1.00  0.00     0.239 C 
ATOM      6  O   UNL A   1      31.419  27.503  27.916  1.00  0.00    -0.273 OA
ATOM      7  H   UNL A   1      32.938  29.224  28.540  1.00  0.00     0.163 HD
BRANCH   5   8
ATOM      8  C   UNL A   1      31.313  28.425  25.687  1.00  0.00     0.221 C 
BRANCH   8   9
ATOM      9  N   UNL A   1      32.170  27.821  24.647  1.00  0.00    -0.311 N 
BRANCH   9  10
ATOM     10  C   UNL A   1      33.316  27.085  24.947  1.00  0.00     0.321 C 
ATOM     11  O   UNL A   1      34.364  27.646  25.278  1.00  0.00    -0.248 OA
BRANCH  10  12
ATOM     12  N   UNL A   1      33.293  25.698  24.899  1.00  0.00    -0.313 N 
ATOM     13  C   UNL A   1      32.708  23.373  25.683  1.00  0.00     0.203 C 
ATOM     14  C   UNL A   1      32.234  24.841  25.457  1.00  0.00     0.186 C 
ATOM     15  N   UNL A   1      33.275  22.765  24.457  1.00  0.00    -0.332 N 
ATOM     16  C   UNL A   1      34.340  23.620  23.898  1.00  0.00     0.284 C 
ATOM     17  C   UNL A   1      32.250  22.466  23.459  1.00  0.00     0.333 C 
ATOM     18  H   UNL A   1      33.688  21.872  24.725  1.00  0.00     0.348 HD
ATOM     19  C   UNL A   1      33.968  25.104  23.730  1.00  0.00     0.183 C 
BRANCH  13  20
ATOM     20  C   UNL A   1      33.716  23.284  26.860  1.00  0.00     0.063 C 
ATOM     21  C   UNL A   1      33.492  22.084  27.779  1.00  0.00     0.010 C 
ENDBRANCH  13  20
ENDBRANCH  10  12
ENDBRANCH   9  10
BRANCH   9  22
ATOM     22  C   UNL A   1      31.886  28.129  23.186  1.00  0.00     0.037 C 
ATOM     23  C   UNL A   1      33.173  28.425  22.381  1.00  0.00     0.034 C 
ATOM     24  C   UNL A   1      31.140  26.939  22.536  1.00  0.00     0.034 C 
ATOM     25  C   UNL A   1      30.968  29.359  22.964  1.00  0.00     0.034 C 
ENDBRANCH   9  22
ENDBRANCH   8   9
ENDBRANCH   5   8
ENDBRANCH   3   4
ENDBRANCH   2   3
ENDBRANCH   1   2
BRANCH   1  26
ATOM     26  C   UNL A   1      35.862  33.059  28.014  1.00  0.00     0.002 C 
BRANCH  26  27
ATOM     27  C   UNL A   1      35.743  33.443  29.490  1.00  0.00     0.021 C 
BRANCH  27  28
ATOM     28  C   UNL A   1      36.822  32.831  30.378  1.00  0.00     0.116 C 
BRANCH  28  29
ATOM     29  N   UNL A   1      36.375  31.585  30.983  1.00  0.00    -0.352 N 
ATOM     30  C   UNL A   1      36.939  30.337  30.892  1.00  0.00     0.251 C 
ATOM     31  H   UNL A   1      35.559  31.645  31.531  1.00  0.00     0.163 HD
ATOM     32  O   UNL A   1      36.320  29.345  31.260  1.00  0.00    -0.269 OA
BRANCH  30  33
ATOM     33  C   UNL A   1      38.295  30.208  30.323  1.00  0.00     0.039 A 
ATOM     34  C   UNL A   1      39.393  30.151  31.183  1.00  0.00     0.014 A 
ATOM     35  C   UNL A   1      38.467  30.098  28.940  1.00  0.00     0.014 A 
ATOM     36  C   UNL A   1      40.663  29.908  30.657  1.00  0.00     0.010 A 
ATOM     37  C   UNL A   1      39.720  29.787  28.426  1.00  0.00     0.010 A 
ATOM     38  C   UNL A   1      40.829  29.683  29.279  1.00  0.00    -0.014 A 
BRANCH  38  39
ATOM     39  C   UNL A   1      42.146  29.307  28.709  1.00  0.00     0.031 A 
ATOM     40  C   UNL A   1      42.399  27.896  28.261  1.00  0.00     0.074 A 
ATOM     41  C   UNL A   1      43.138  30.219  28.672  1.00  0.00     0.049 A 
ATOM     42  N   UNL A   1      43.504  27.357  27.815  1.00  0.00    -0.248 NA
ATOM     43  C   UNL A   1      41.266  26.963  28.350  1.00  0.00     0.031 C 
ATOM     44  C   UNL A   1      43.020  31.613  29.107  1.00  0.00     0.029 A 
ATOM     45  N   UNL A   1      44.441  30.109  28.258  1.00  0.00    -0.354 N 
ATOM     46  C   UNL A   1      43.202  26.021  27.578  1.00  0.00     0.074 A 
ATOM     47  C   UNL A   1      41.828  25.821  27.987  1.00  0.00     0.031 C 
ATOM     48  C   UNL A   1      44.193  32.235  28.908  1.00  0.00     0.029 A 
ATOM     49  C   UNL A   1      45.158  31.275  28.381  1.00  0.00     0.049 A 
ATOM     50  H   UNL A   1      44.826  29.274  27.906  1.00  0.00     0.167 HD
ATOM     51  C   UNL A   1      43.992  25.056  27.048  1.00  0.00     0.037 A 
ATOM     52  C   UNL A   1      46.452  31.540  28.111  1.00  0.00     0.037 A 
ATOM     53  C   UNL A   1      45.358  25.267  26.647  1.00  0.00     0.049 A 
ATOM     54  C   UNL A   1      47.329  30.437  27.585  1.00  0.00     0.074 A 
ATOM     55  C   UNL A   1      46.230  24.372  26.050  1.00  0.00     0.029 A 
ATOM     56  N   UNL A   1      46.061  26.453  26.819  1.00  0.00    -0.354 N 
ATOM     57  N   UNL A   1      47.012  29.196  27.300  1.00  0.00    -0.248 NA
ATOM     58  C   UNL A   1      48.742  30.767  27.355  1.00  0.00     0.031 C 
ATOM     59  C   UNL A   1      47.474  24.999  25.916  1.00  0.00     0.029 A 
ATOM     60  C   UNL A   1      47.366  26.301  26.379  1.00  0.00     0.049 A 
ATOM     61  H   UNL A   1      45.686  27.280  27.197  1.00  0.00     0.167 HD
ATOM     62  C   UNL A   1      48.181  28.601  26.840  1.00  0.00     0.074 A 
ATOM     63  C   UNL A   1      49.209  29.622  26.872  1.00  0.00     0.031 C 
ATOM     64  C   UNL A   1      48.383  27.324  26.428  1.00  0.00     0.037 A 
BRANCH  51  65
ATOM     65  C   UNL A   1      43.390  23.684  26.892  1.00  0.00     0.058 A 
ATOM     66  C   UNL A   1      43.226  22.821  27.989  1.00  0.00     0.135 A 
ATOM     67  C   UNL A   1      42.987  23.219  25.631  1.00  0.00     0.135 A 
ATOM     68  F   UNL A   1      43.603  23.209  29.219  1.00  0.00    -0.206 F 
ATOM     69  C   UNL A   1      42.741  21.526  27.831  1.00  0.00     0.059 A 
ATOM     70  C   UNL A   1      42.468  21.939  25.455  1.00  0.00     0.059 A 
ATOM     71  F   UNL A   1      43.113  24.002  24.548  1.00  0.00    -0.206 F 
ATOM     72  C   UNL A   1      42.375  21.091  26.558  1.00  0.00     0.060 A 
BRANCH  72  73
ATOM     73  S   UNL A   1      41.797  19.392  26.361  1.00  0.00     0.124 S 
ATOM     74  O   UNL A   1      40.368  19.596  26.141  1.00  0.00    -0.237 OA
ATOM     75  O   UNL A   1      42.557  18.936  25.202  1.00  0.00    -0.237 OA
ATOM     76  O   UNL A   1      42.153  18.763  27.628  1.00  0.00    -0.744 OA
ENDBRANCH  72  73
ENDBRANCH  51  65
BRANCH  52  77
ATOM     77  C   UNL A   1      46.978  32.915  28.306  1.00  0.00     0.058 A 
ATOM     78  C   UNL A   1      46.921  33.855  27.267  1.00  0.00     0.135 A 
ATOM     79  C   UNL A   1      47.500  33.336  29.539  1.00  0.00     0.135 A 
ATOM     80  F   UNL A   1      46.440  33.498  26.067  1.00  0.00    -0.206 F 
ATOM     81  C   UNL A   1      47.357  35.164  27.442  1.00  0.00     0.059 A 
ATOM     82  C   UNL A   1      47.920  34.646  29.747  1.00  0.00     0.059 A 
ATOM     83  F   UNL A   1      47.565  32.479  30.571  1.00  0.00    -0.206 F 
ATOM     84  C   UNL A   1      47.846  35.553  28.691  1.00  0.00     0.060 A 
BRANCH  84  85
ATOM     85  S   UNL A   1      48.330  37.277  28.927  1.00  0.00     0.124 S 
ATOM     86  O   UNL A   1      49.358  37.436  27.906  1.00  0.00    -0.237 OA
ATOM     87  O   UNL A   1      47.074  37.981  28.685  1.00  0.00    -0.237 OA
ATOM     88  O   UNL A   1      48.800  37.307  30.308  1.00  0.00    -0.744 OA
ENDBRANCH  84  85
ENDBRANCH  52  77
BRANCH  64  89
ATOM     89  C   UNL A   1      49.768  26.952  25.976  1.00  0.00     0.058 A 
ATOM     90  C   UNL A   1      50.162  27.085  24.635  1.00  0.00     0.135 A 
ATOM     91  C   UNL A   1      50.735  26.531  26.904  1.00  0.00     0.135 A 
ATOM     92  F   UNL A   1      49.274  27.471  23.705  1.00  0.00    -0.206 F 
ATOM     93  C   UNL A   1      51.464  26.809  24.229  1.00  0.00     0.059 A 
ATOM     94  C   UNL A   1      52.050  26.276  26.524  1.00  0.00     0.059 A 
ATOM     95  F   UNL A   1      50.413  26.392  28.199  1.00  0.00    -0.206 F 
ATOM     96  C   UNL A   1      52.403  26.413  25.184  1.00  0.00     0.060 A 
BRANCH  96  97
ATOM     97  S   UNL A   1      54.104  26.124  24.650  1.00  0.00     0.124 S 
ATOM     98  O   UNL A   1      54.239  24.687  24.863  1.00  0.00    -0.237 OA
ATOM     99  O   UNL A   1      54.071  26.558  23.258  1.00  0.00    -0.237 OA
ATOM    100  O   UNL A   1      54.889  26.967  25.547  1.00  0.00    -0.744 OA
ENDBRANCH  96  97
ENDBRANCH  64  89
ENDBRANCH  38  39
ENDBRANCH  30  33
ENDBRANCH  28  29
ENDBRANCH  27  28
ENDBRANCH  26  27
ENDBRANCH   1  26
TORSDOF 21
ENDMDL
MODEL 3
REMARK VINA RESULT:     -10.3      6.252     11.762
REMARK SMILES CC[C@H]1CN(C(=O)N(CC(=O)NCCCCCCNC(=O)c2ccc(-c3c4nc(c(-c5c(F)cc(S(=O)(=O)[O-])cc5F)c5ccc([nH]5)c(-c5c(F)cc(S(=O)(=O)[O-])cc5F)c5nc(c(-c6c(F)cc(S(=O)(=O)[O-])cc6F)c6ccc3[nH]6)C=C5)C=C4)cc2)C(C)(C)C)CC[N@@H+]1C
REMARK SMILES IDX 15 1 14 2 13 3 12 4 10 5 11 6 9 8 8 9 6 10 7 11 5 12 3 13
REMARK SMILES IDX 4 14 94 15 93 16 95 17 92 19 2 20 1 21 88 22 89 23 90 24
REMARK SMILES IDX 91 25 16 26 17 27 18 28 19 29 20 30 21 32 22 33 23 34 87 35
REMARK SMILES IDX 24 36 86 37 25 38 26 39 27 40 80 41 28 42 85 43 79 44 81 45
REMARK SMILES IDX 29 46 84 47 78 48 77 49 30 51 64 52 43 53 63 54 44 55 47 56
REMARK SMILES IDX 62 57 82 58 45 59 46 60 61 62 83 63 48 64 31 65 32 66 41 67
REMARK SMILES IDX 33 68 34 69 40 70 42 71 35 72 36 73 37 74 38 75 39 76 65 77
REMARK SMILES IDX 66 78 75 79 67 80 68 81 74 82 76 83 69 84 70 85 71 86 72 87
REMARK SMILES IDX 73 88 49 89 50 90 59 91 51 92 52 93 58 94 60 95 53 96 54 97
REMARK SMILES IDX 55 98 56 99 57 100
REMARK H PARENT 12 7 94 18 19 31 81 50 47 61
REMARK Flexibility Score: inf
ROOT
ATOM      1  C   UNL A   1      33.711  31.608  27.601  1.00  0.00     0.002 C 
ENDROOT
BRANCH   1   2
ATOM      2  C   UNL A   1      34.644  30.393  27.597  1.00  0.00     0.021 C 
BRANCH   2   3
ATOM      3  C   UNL A   1      34.076  29.198  26.845  1.00  0.00     0.116 C 
BRANCH   3   4
ATOM      4  N   UNL A   1      32.815  28.769  27.414  1.00  0.00    -0.355 N 
ATOM      5  C   UNL A   1      31.977  27.784  26.990  1.00  0.00     0.239 C 
ATOM      6  O   UNL A   1      30.996  27.511  27.687  1.00  0.00    -0.273 OA
ATOM      7  H   UNL A   1      32.524  29.257  28.218  1.00  0.00     0.163 HD
BRANCH   5   8
ATOM      8  C   UNL A   1      32.336  26.947  25.759  1.00  0.00     0.221 C 
BRANCH   8   9
ATOM      9  N   UNL A   1      31.496  25.787  25.398  1.00  0.00    -0.311 N 
BRANCH   9  10
ATOM     10  C   UNL A   1      31.609  24.548  26.029  1.00  0.00     0.321 C 
ATOM     11  O   UNL A   1      31.059  24.334  27.113  1.00  0.00    -0.248 OA
BRANCH  10  12
ATOM     12  N   UNL A   1      32.329  23.520  25.436  1.00  0.00    -0.313 N 
ATOM     13  C   UNL A   1      34.105  22.499  23.964  1.00  0.00     0.203 C 
ATOM     14  C   UNL A   1      33.735  23.599  25.007  1.00  0.00     0.186 C 
ATOM     15  N   UNL A   1      33.783  21.134  24.441  1.00  0.00    -0.332 N 
ATOM     16  C   UNL A   1      32.373  21.052  24.868  1.00  0.00     0.284 C 
ATOM     17  C   UNL A   1      34.689  20.686  25.497  1.00  0.00     0.333 C 
ATOM     18  H   UNL A   1      33.919  20.499  23.655  1.00  0.00     0.348 HD
ATOM     19  C   UNL A   1      31.915  22.161  25.831  1.00  0.00     0.183 C 
BRANCH  13  20
ATOM     20  C   UNL A   1      33.434  22.778  22.593  1.00  0.00     0.063 C 
ATOM     21  C   UNL A   1      33.572  24.223  22.117  1.00  0.00     0.010 C 
ENDBRANCH  13  20
ENDBRANCH  10  12
ENDBRANCH   9  10
BRANCH   9  22
ATOM     22  C   UNL A   1      30.571  25.890  24.197  1.00  0.00     0.037 C 
ATOM     23  C   UNL A   1      29.171  26.430  24.571  1.00  0.00     0.034 C 
ATOM     24  C   UNL A   1      31.205  26.813  23.127  1.00  0.00     0.034 C 
ATOM     25  C   UNL A   1      30.314  24.542  23.475  1.00  0.00     0.034 C 
ENDBRANCH   9  22
ENDBRANCH   8   9
ENDBRANCH   5   8
ENDBRANCH   3   4
ENDBRANCH   2   3
ENDBRANCH   1   2
BRANCH   1  26
ATOM     26  C   UNL A   1      34.062  32.663  28.654  1.00  0.00     0.002 C 
BRANCH  26  27
ATOM     27  C   UNL A   1      35.413  33.346  28.435  1.00  0.00     0.021 C 
BRANCH  27  28
ATOM     28  C   UNL A   1      36.478  32.957  29.456  1.00  0.00     0.116 C 
BRANCH  28  29
ATOM     29  N   UNL A   1      35.989  31.944  30.379  1.00  0.00    -0.352 N 
ATOM     30  C   UNL A   1      36.580  30.760  30.744  1.00  0.00     0.251 C 
ATOM     31  H   UNL A   1      35.119  32.133  30.799  1.00  0.00     0.163 HD
ATOM     32  O   UNL A   1      35.942  29.904  31.348  1.00  0.00    -0.269 OA
BRANCH  30  33
ATOM     33  C   UNL A   1      37.991  30.526  30.379  1.00  0.00     0.039 A 
ATOM     34  C   UNL A   1      38.940  30.366  31.390  1.00  0.00     0.014 A 
ATOM     35  C   UNL A   1      38.358  30.419  29.034  1.00  0.00     0.014 A 
ATOM     36  C   UNL A   1      40.251  30.026  31.051  1.00  0.00     0.010 A 
ATOM     37  C   UNL A   1      39.645  30.011  28.704  1.00  0.00     0.010 A 
ATOM     38  C   UNL A   1      40.602  29.805  29.708  1.00  0.00    -0.014 A 
BRANCH  38  39
ATOM     39  C   UNL A   1      41.955  29.328  29.330  1.00  0.00     0.031 A 
ATOM     40  C   UNL A   1      43.121  30.274  29.349  1.00  0.00     0.074 A 
ATOM     41  C   UNL A   1      42.113  28.064  28.891  1.00  0.00     0.049 A 
ATOM     42  N   UNL A   1      44.358  30.068  28.977  1.00  0.00    -0.248 NA
ATOM     43  C   UNL A   1      42.855  31.639  29.828  1.00  0.00     0.031 C 
ATOM     44  C   UNL A   1      41.049  27.062  28.799  1.00  0.00     0.029 A 
ATOM     45  N   UNL A   1      43.227  27.408  28.431  1.00  0.00    -0.354 N 
ATOM     46  C   UNL A   1      45.015  31.277  29.167  1.00  0.00     0.074 A 
ATOM     47  C   UNL A   1      44.026  32.226  29.632  1.00  0.00     0.031 C 
ATOM     48  C   UNL A   1      41.567  25.911  28.343  1.00  0.00     0.029 A 
ATOM     49  C   UNL A   1      42.987  26.106  28.061  1.00  0.00     0.049 A 
ATOM     50  H   UNL A   1      44.114  27.830  28.372  1.00  0.00     0.167 HD
ATOM     51  C   UNL A   1      46.329  31.564  28.992  1.00  0.00     0.037 A 
ATOM     52  C   UNL A   1      43.813  25.177  27.543  1.00  0.00     0.037 A 
ATOM     53  C   UNL A   1      47.303  30.611  28.527  1.00  0.00     0.049 A 
ATOM     54  C   UNL A   1      45.253  25.535  27.294  1.00  0.00     0.074 A 
ATOM     55  C   UNL A   1      48.667  30.783  28.366  1.00  0.00     0.029 A 
ATOM     56  N   UNL A   1      47.015  29.312  28.131  1.00  0.00    -0.354 N 
ATOM     57  N   UNL A   1      45.877  26.662  27.545  1.00  0.00    -0.248 NA
ATOM     58  C   UNL A   1      46.097  24.501  26.682  1.00  0.00     0.031 C 
ATOM     59  C   UNL A   1      49.193  29.608  27.817  1.00  0.00     0.029 A 
ATOM     60  C   UNL A   1      48.167  28.684  27.685  1.00  0.00     0.049 A 
ATOM     61  H   UNL A   1      46.123  28.897  28.162  1.00  0.00     0.167 HD
ATOM     62  C   UNL A   1      47.192  26.467  27.138  1.00  0.00     0.074 A 
ATOM     63  C   UNL A   1      47.276  25.109  26.637  1.00  0.00     0.031 C 
ATOM     64  C   UNL A   1      48.234  27.334  27.177  1.00  0.00     0.037 A 
BRANCH  51  65
ATOM     65  C   UNL A   1      46.770  32.971  29.292  1.00  0.00     0.058 A 
ATOM     66  C   UNL A   1      46.757  33.975  28.308  1.00  0.00     0.135 A 
ATOM     67  C   UNL A   1      47.227  33.321  30.573  1.00  0.00     0.135 A 
ATOM     68  F   UNL A   1      46.340  33.697  27.063  1.00  0.00    -0.206 F 
ATOM     69  C   UNL A   1      47.239  35.255  28.567  1.00  0.00     0.059 A 
ATOM     70  C   UNL A   1      47.681  34.604  30.863  1.00  0.00     0.059 A 
ATOM     71  F   UNL A   1      47.255  32.405  31.554  1.00  0.00    -0.206 F 
ATOM     72  C   UNL A   1      47.708  35.557  29.845  1.00  0.00     0.060 A 
BRANCH  72  73
ATOM     73  S   UNL A   1      48.376  37.206  30.151  1.00  0.00     0.124 S 
ATOM     74  O   UNL A   1      47.583  37.631  31.301  1.00  0.00    -0.237 OA
ATOM     75  O   UNL A   1      49.783  36.928  30.421  1.00  0.00    -0.237 OA
ATOM     76  O   UNL A   1      48.109  37.917  28.906  1.00  0.00    -0.744 OA
ENDBRANCH  72  73
ENDBRANCH  51  65
BRANCH  52  77
ATOM     77  C   UNL A   1      43.299  23.812  27.257  1.00  0.00     0.058 A 
ATOM     78  C   UNL A   1      42.971  23.435  25.946  1.00  0.00     0.135 A 
ATOM     79  C   UNL A   1      43.173  22.845  28.266  1.00  0.00     0.135 A 
ATOM     80  F   UNL A   1      43.065  24.327  24.949  1.00  0.00    -0.206 F 
ATOM     81  C   UNL A   1      42.539  22.148  25.645  1.00  0.00     0.059 A 
ATOM     82  C   UNL A   1      42.767  21.544  27.987  1.00  0.00     0.059 A 
ATOM     83  F   UNL A   1      43.487  23.152  29.535  1.00  0.00    -0.206 F 
ATOM     84  C   UNL A   1      42.451  21.205  26.671  1.00  0.00     0.060 A 
BRANCH  84  85
ATOM     85  S   UNL A   1      41.971  19.516  26.251  1.00  0.00     0.124 S 
ATOM     86  O   UNL A   1      42.415  18.782  27.430  1.00  0.00    -0.237 OA
ATOM     87  O   UNL A   1      40.527  19.643  26.083  1.00  0.00    -0.237 OA
ATOM     88  O   UNL A   1      42.716  19.251  25.024  1.00  0.00    -0.744 OA
ENDBRANCH  84  85
ENDBRANCH  52  77
BRANCH  64  89
ATOM     89  C   UNL A   1      49.562  26.848  26.665  1.00  0.00     0.058 A 
ATOM     90  C   UNL A   1      50.435  26.110  27.479  1.00  0.00     0.135 A 
ATOM     91  C   UNL A   1      49.930  27.054  25.325  1.00  0.00     0.135 A 
ATOM     92  F   UNL A   1      50.137  25.895  28.771  1.00  0.00    -0.206 F 
ATOM     93  C   UNL A   1      51.631  25.598  26.985  1.00  0.00     0.059 A 
ATOM     94  C   UNL A   1      51.109  26.527  24.803  1.00  0.00     0.059 A 
ATOM     95  F   UNL A   1      49.129  27.748  24.503  1.00  0.00    -0.206 F 
ATOM     96  C   UNL A   1      51.955  25.805  25.642  1.00  0.00     0.060 A 
BRANCH  96  97
ATOM     97  S   UNL A   1      53.477  25.076  25.001  1.00  0.00     0.124 S 
ATOM     98  O   UNL A   1      53.241  23.654  25.227  1.00  0.00    -0.237 OA
ATOM     99  O   UNL A   1      53.465  25.507  23.607  1.00  0.00    -0.237 OA
ATOM    100  O   UNL A   1      54.517  25.679  25.829  1.00  0.00    -0.744 OA
ENDBRANCH  96  97
ENDBRANCH  64  89
ENDBRANCH  38  39
ENDBRANCH  30  33
ENDBRANCH  28  29
ENDBRANCH  27  28
ENDBRANCH  26  27
ENDBRANCH   1  26
TORSDOF 21
ENDMDL
