MODEL 1
REMARK VINA RESULT:     -11.3      0.000      0.000
REMARK SMILES O=C(Cc1ccccc1-c1ccn(C(F)F)c(=O)c1)NCCCCCCNC(=O)c1ccc(-c2c3nc(c(-c4c(F)cc(S(=O)(=O)[O-])cc4F)c4ccc([nH]4)c(-c4c(F)cc(S(=O)(=O)[O-])cc4F)c4nc(c(-c5c(F)cc(S(=O)(=O)[O-])cc5F)c5ccc2[nH]5)C=C4)C=C3)cc1
REMARK SMILES IDX 23 1 22 2 21 3 20 4 1 5 2 6 3 8 4 9 5 10 9 11 6 12 8 13 7 14
REMARK SMILES IDX 10 15 11 16 19 17 12 18 17 19 13 20 18 21 14 22 15 23 16 24
REMARK SMILES IDX 24 25 25 26 26 27 27 28 28 29 29 31 30 32 31 33 95 34 32 35
REMARK SMILES IDX 94 36 33 37 34 38 35 39 88 40 36 41 93 42 87 43 89 44 37 45
REMARK SMILES IDX 92 46 86 47 85 48 38 50 72 51 51 52 71 53 52 54 55 55 70 56
REMARK SMILES IDX 90 57 53 58 54 59 69 61 91 62 56 63 39 64 40 65 49 66 41 67
REMARK SMILES IDX 42 68 48 69 50 70 43 71 44 72 45 73 46 74 47 75 73 76 74 77
REMARK SMILES IDX 83 78 75 79 76 80 82 81 84 82 77 83 78 84 79 85 80 86 81 87
REMARK SMILES IDX 57 88 58 89 67 90 59 91 60 92 66 93 68 94 61 95 62 96 63 97
REMARK SMILES IDX 64 98 65 99
REMARK H PARENT 20 7 27 30 89 49 55 60
REMARK Flexibility Score: inf
ROOT
ATOM      1  C   UNL A   1      41.712  21.309  26.756  1.00  0.00     0.002 C 
ENDROOT
BRANCH   1   2
ATOM      2  C   UNL A   1      40.500  22.244  26.852  1.00  0.00     0.021 C 
BRANCH   2   3
ATOM      3  C   UNL A   1      39.267  21.774  26.083  1.00  0.00     0.116 C 
BRANCH   3   4
ATOM      4  N   UNL A   1      38.186  22.734  26.177  1.00  0.00    -0.356 N 
ATOM      5  O   UNL A   1      36.952  21.917  24.417  1.00  0.00    -0.275 OA
ATOM      6  C   UNL A   1      37.103  22.724  25.329  1.00  0.00     0.224 C 
ATOM      7  H   UNL A   1      38.230  23.423  26.878  1.00  0.00     0.163 HD
BRANCH   6   8
ATOM      8  C   UNL A   1      36.106  23.836  25.592  1.00  0.00     0.136 C 
BRANCH   8   9
ATOM      9  C   UNL A   1      34.787  23.445  26.240  1.00  0.00    -0.031 A 
ATOM     10  C   UNL A   1      34.692  22.340  27.108  1.00  0.00     0.005 A 
ATOM     11  C   UNL A   1      33.615  24.203  25.985  1.00  0.00    -0.014 A 
ATOM     12  C   UNL A   1      33.487  22.009  27.730  1.00  0.00     0.000 A 
ATOM     13  C   UNL A   1      32.405  23.840  26.604  1.00  0.00     0.009 A 
ATOM     14  C   UNL A   1      32.344  22.757  27.479  1.00  0.00     0.001 A 
BRANCH  11  15
ATOM     15  C   UNL A   1      33.614  25.381  25.084  1.00  0.00    -0.011 A 
ATOM     16  C   UNL A   1      33.557  26.748  25.569  1.00  0.00     0.027 A 
ATOM     17  C   UNL A   1      33.643  25.166  23.758  1.00  0.00     0.080 A 
ATOM     18  C   UNL A   1      33.451  27.772  24.714  1.00  0.00     0.095 A 
ATOM     19  C   UNL A   1      33.591  26.299  22.792  1.00  0.00     0.255 A 
ATOM     20  N   UNL A   1      33.447  27.559  23.349  1.00  0.00    -0.258 N 
ATOM     21  O   UNL A   1      33.664  26.051  21.593  1.00  0.00    -0.269 OA
BRANCH  20  22
ATOM     22  C   UNL A   1      33.322  28.666  22.436  1.00  0.00     0.451 C 
ATOM     23  F   UNL A   1      32.060  29.162  22.442  1.00  0.00    -0.185 F 
ATOM     24  F   UNL A   1      34.169  29.672  22.764  1.00  0.00    -0.185 F 
ENDBRANCH  20  22
ENDBRANCH  11  15
ENDBRANCH   8   9
ENDBRANCH   6   8
ENDBRANCH   3   4
ENDBRANCH   2   3
ENDBRANCH   1   2
BRANCH   1  25
ATOM     25  C   UNL A   1      42.978  21.931  26.159  1.00  0.00     0.002 C 
BRANCH  25  26
ATOM     26  C   UNL A   1      43.846  22.717  27.142  1.00  0.00     0.021 C 
BRANCH  26  27
ATOM     27  C   UNL A   1      44.056  24.185  26.786  1.00  0.00     0.116 C 
BRANCH  27  28
ATOM     28  N   UNL A   1      43.103  24.664  25.796  1.00  0.00    -0.352 N 
ATOM     29  C   UNL A   1      42.076  25.562  25.957  1.00  0.00     0.251 C 
ATOM     30  H   UNL A   1      43.209  24.294  24.890  1.00  0.00     0.163 HD
ATOM     31  O   UNL A   1      41.268  25.747  25.050  1.00  0.00    -0.269 OA
BRANCH  29  32
ATOM     32  C   UNL A   1      41.931  26.283  27.241  1.00  0.00     0.039 A 
ATOM     33  C   UNL A   1      42.641  27.470  27.439  1.00  0.00     0.014 A 
ATOM     34  C   UNL A   1      41.079  25.798  28.237  1.00  0.00     0.014 A 
ATOM     35  C   UNL A   1      42.444  28.208  28.609  1.00  0.00     0.010 A 
ATOM     36  C   UNL A   1      40.835  26.566  29.372  1.00  0.00     0.010 A 
ATOM     37  C   UNL A   1      41.513  27.780  29.569  1.00  0.00    -0.014 A 
BRANCH  37  38
ATOM     38  C   UNL A   1      41.228  28.578  30.792  1.00  0.00     0.031 A 
ATOM     39  C   UNL A   1      40.092  29.566  30.790  1.00  0.00     0.074 A 
ATOM     40  C   UNL A   1      42.042  28.481  31.863  1.00  0.00     0.049 A 
ATOM     41  N   UNL A   1      39.768  30.451  31.697  1.00  0.00    -0.248 NA
ATOM     42  C   UNL A   1      39.225  29.581  29.601  1.00  0.00     0.031 C 
ATOM     43  C   UNL A   1      43.200  27.590  31.971  1.00  0.00     0.029 A 
ATOM     44  N   UNL A   1      42.034  29.155  33.058  1.00  0.00    -0.354 N 
ATOM     45  C   UNL A   1      38.683  31.147  31.176  1.00  0.00     0.074 A 
ATOM     46  C   UNL A   1      38.422  30.603  29.862  1.00  0.00     0.031 C 
ATOM     47  C   UNL A   1      43.784  27.770  33.167  1.00  0.00     0.029 A 
ATOM     48  C   UNL A   1      43.072  28.815  33.895  1.00  0.00     0.049 A 
ATOM     49  H   UNL A   1      41.348  29.822  33.296  1.00  0.00     0.167 HD
ATOM     50  C   UNL A   1      37.961  32.138  31.750  1.00  0.00     0.037 A 
ATOM     51  C   UNL A   1      43.420  29.302  35.103  1.00  0.00     0.037 A 
ATOM     52  C   UNL A   1      38.192  32.637  33.080  1.00  0.00     0.049 A 
ATOM     53  C   UNL A   1      42.588  30.394  35.722  1.00  0.00     0.074 A 
ATOM     54  C   UNL A   1      37.460  33.582  33.780  1.00  0.00     0.029 A 
ATOM     55  N   UNL A   1      39.222  32.232  33.913  1.00  0.00    -0.354 N 
ATOM     56  N   UNL A   1      41.524  30.993  35.242  1.00  0.00    -0.248 NA
ATOM     57  C   UNL A   1      43.000  30.877  37.049  1.00  0.00     0.031 C 
ATOM     58  C   UNL A   1      38.073  33.777  35.021  1.00  0.00     0.029 A 
ATOM     59  C   UNL A   1      39.157  32.920  35.112  1.00  0.00     0.049 A 
ATOM     60  H   UNL A   1      39.899  31.554  33.685  1.00  0.00     0.167 HD
ATOM     61  C   UNL A   1      41.119  31.891  36.224  1.00  0.00     0.074 A 
ATOM     62  C   UNL A   1      42.048  31.758  37.325  1.00  0.00     0.031 C 
ATOM     63  C   UNL A   1      40.070  32.749  36.213  1.00  0.00     0.037 A 
BRANCH  50  64
ATOM     64  C   UNL A   1      36.841  32.751  30.957  1.00  0.00     0.058 A 
ATOM     65  C   UNL A   1      35.502  32.395  31.179  1.00  0.00     0.135 A 
ATOM     66  C   UNL A   1      37.104  33.770  30.028  1.00  0.00     0.135 A 
ATOM     67  F   UNL A   1      35.196  31.415  32.043  1.00  0.00    -0.206 F 
ATOM     68  C   UNL A   1      34.462  33.023  30.501  1.00  0.00     0.059 A 
ATOM     69  C   UNL A   1      36.080  34.430  29.357  1.00  0.00     0.059 A 
ATOM     70  F   UNL A   1      38.369  34.146  29.777  1.00  0.00    -0.206 F 
ATOM     71  C   UNL A   1      34.761  34.045  29.597  1.00  0.00     0.060 A 
BRANCH  71  72
ATOM     72  S   UNL A   1      33.397  34.884  28.763  1.00  0.00     0.124 S 
ATOM     73  O   UNL A   1      32.932  33.846  27.849  1.00  0.00    -0.237 OA
ATOM     74  O   UNL A   1      32.502  35.199  29.871  1.00  0.00    -0.237 OA
ATOM     75  O   UNL A   1      34.039  36.033  28.132  1.00  0.00    -0.744 OA
ENDBRANCH  71  72
ENDBRANCH  50  64
BRANCH  51  76
ATOM     76  C   UNL A   1      44.612  28.769  35.819  1.00  0.00     0.058 A 
ATOM     77  C   UNL A   1      44.488  27.725  36.747  1.00  0.00     0.135 A 
ATOM     78  C   UNL A   1      45.889  29.316  35.618  1.00  0.00     0.135 A 
ATOM     79  F   UNL A   1      43.287  27.172  36.977  1.00  0.00    -0.206 F 
ATOM     80  C   UNL A   1      45.577  27.267  37.480  1.00  0.00     0.059 A 
ATOM     81  C   UNL A   1      46.999  28.856  36.319  1.00  0.00     0.059 A 
ATOM     82  F   UNL A   1      46.066  30.304  34.727  1.00  0.00    -0.206 F 
ATOM     83  C   UNL A   1      46.830  27.845  37.264  1.00  0.00     0.060 A 
BRANCH  83  84
ATOM     84  S   UNL A   1      48.240  27.245  38.219  1.00  0.00     0.124 S 
ATOM     85  O   UNL A   1      48.725  28.477  38.829  1.00  0.00    -0.237 OA
ATOM     86  O   UNL A   1      47.615  26.286  39.124  1.00  0.00    -0.237 OA
ATOM     87  O   UNL A   1      49.107  26.659  37.200  1.00  0.00    -0.744 OA
ENDBRANCH  83  84
ENDBRANCH  51  76
BRANCH  63  88
ATOM     88  C   UNL A   1      39.823  33.568  37.448  1.00  0.00     0.058 A 
ATOM     89  C   UNL A   1      40.487  34.783  37.674  1.00  0.00     0.135 A 
ATOM     90  C   UNL A   1      38.850  33.167  38.378  1.00  0.00     0.135 A 
ATOM     91  F   UNL A   1      41.431  35.207  36.820  1.00  0.00    -0.206 F 
ATOM     92  C   UNL A   1      40.203  35.567  38.788  1.00  0.00     0.059 A 
ATOM     93  C   UNL A   1      38.531  33.948  39.485  1.00  0.00     0.059 A 
ATOM     94  F   UNL A   1      38.180  32.017  38.202  1.00  0.00    -0.206 F 
ATOM     95  C   UNL A   1      39.220  35.144  39.685  1.00  0.00     0.060 A 
BRANCH  95  96
ATOM     96  S   UNL A   1      38.819  36.198  41.094  1.00  0.00     0.124 S 
ATOM     97  O   UNL A   1      37.687  35.487  41.681  1.00  0.00    -0.237 OA
ATOM     98  O   UNL A   1      40.056  36.170  41.869  1.00  0.00    -0.237 OA
ATOM     99  O   UNL A   1      38.502  37.483  40.478  1.00  0.00    -0.744 OA
ENDBRANCH  95  96
ENDBRANCH  63  88
ENDBRANCH  37  38
ENDBRANCH  29  32
ENDBRANCH  27  28
ENDBRANCH  26  27
ENDBRANCH  25  26
ENDBRANCH   1  25
TORSDOF 19
ENDMDL
MODEL 2
REMARK VINA RESULT:     -11.1      5.116      9.712
REMARK SMILES O=C(Cc1ccccc1-c1ccn(C(F)F)c(=O)c1)NCCCCCCNC(=O)c1ccc(-c2c3nc(c(-c4c(F)cc(S(=O)(=O)[O-])cc4F)c4ccc([nH]4)c(-c4c(F)cc(S(=O)(=O)[O-])cc4F)c4nc(c(-c5c(F)cc(S(=O)(=O)[O-])cc5F)c5ccc2[nH]5)C=C4)C=C3)cc1
REMARK SMILES IDX 23 1 22 2 21 3 20 4 1 5 2 6 3 8 4 9 5 10 9 11 6 12 8 13 7 14
REMARK SMILES IDX 10 15 11 16 19 17 12 18 17 19 13 20 18 21 14 22 15 23 16 24
REMARK SMILES IDX 24 25 25 26 26 27 27 28 28 29 29 31 30 32 31 33 95 34 32 35
REMARK SMILES IDX 94 36 33 37 34 38 35 39 88 40 36 41 93 42 87 43 89 44 37 45
REMARK SMILES IDX 92 46 86 47 85 48 38 50 72 51 51 52 71 53 52 54 55 55 70 56
REMARK SMILES IDX 90 57 53 58 54 59 69 61 91 62 56 63 39 64 40 65 49 66 41 67
REMARK SMILES IDX 42 68 48 69 50 70 43 71 44 72 45 73 46 74 47 75 73 76 74 77
REMARK SMILES IDX 83 78 75 79 76 80 82 81 84 82 77 83 78 84 79 85 80 86 81 87
REMARK SMILES IDX 57 88 58 89 67 90 59 91 60 92 66 93 68 94 61 95 62 96 63 97
REMARK SMILES IDX 64 98 65 99
REMARK H PARENT 20 7 27 30 89 49 55 60
REMARK Flexibility Score: inf
ROOT
ATOM      1  C   UNL A   1      33.468  23.073  25.167  1.00  0.00     0.002 C 
ENDROOT
BRANCH   1   2
ATOM      2  C   UNL A   1      33.056  22.858  26.629  1.00  0.00     0.021 C 
BRANCH   2   3
ATOM      3  C   UNL A   1      31.842  23.667  27.077  1.00  0.00     0.116 C 
BRANCH   3   4
ATOM      4  N   UNL A   1      31.648  24.838  26.246  1.00  0.00    -0.356 N 
ATOM      5  O   UNL A   1      29.403  25.094  26.667  1.00  0.00    -0.275 OA
ATOM      6  C   UNL A   1      30.432  25.465  26.111  1.00  0.00     0.224 C 
ATOM      7  H   UNL A   1      32.422  25.199  25.757  1.00  0.00     0.163 HD
BRANCH   6   8
ATOM      8  C   UNL A   1      30.455  26.654  25.170  1.00  0.00     0.136 C 
BRANCH   8   9
ATOM      9  C   UNL A   1      31.398  26.577  23.979  1.00  0.00    -0.031 A 
ATOM     10  C   UNL A   1      31.180  25.670  22.925  1.00  0.00     0.005 A 
ATOM     11  C   UNL A   1      32.523  27.437  23.904  1.00  0.00    -0.014 A 
ATOM     12  C   UNL A   1      32.026  25.630  21.815  1.00  0.00     0.000 A 
ATOM     13  C   UNL A   1      33.379  27.367  22.790  1.00  0.00     0.009 A 
ATOM     14  C   UNL A   1      33.125  26.477  21.747  1.00  0.00     0.001 A 
BRANCH  11  15
ATOM     15  C   UNL A   1      32.839  28.424  24.966  1.00  0.00    -0.011 A 
ATOM     16  C   UNL A   1      32.025  29.598  25.222  1.00  0.00     0.027 A 
ATOM     17  C   UNL A   1      33.943  28.228  25.707  1.00  0.00     0.080 A 
ATOM     18  C   UNL A   1      32.410  30.513  26.120  1.00  0.00     0.095 A 
ATOM     19  C   UNL A   1      34.351  29.205  26.755  1.00  0.00     0.255 A 
ATOM     20  N   UNL A   1      33.562  30.338  26.863  1.00  0.00    -0.258 N 
ATOM     21  O   UNL A   1      35.344  28.958  27.432  1.00  0.00    -0.269 OA
BRANCH  20  22
ATOM     22  C   UNL A   1      33.973  31.333  27.819  1.00  0.00     0.451 C 
ATOM     23  F   UNL A   1      35.265  31.695  27.619  1.00  0.00    -0.185 F 
ATOM     24  F   UNL A   1      33.207  32.447  27.730  1.00  0.00    -0.185 F 
ENDBRANCH  20  22
ENDBRANCH  11  15
ENDBRANCH   8   9
ENDBRANCH   6   8
ENDBRANCH   3   4
ENDBRANCH   2   3
ENDBRANCH   1   2
BRANCH   1  25
ATOM     25  C   UNL A   1      34.418  24.248  24.917  1.00  0.00     0.002 C 
BRANCH  25  26
ATOM     26  C   UNL A   1      35.897  23.878  24.794  1.00  0.00     0.021 C 
BRANCH  26  27
ATOM     27  C   UNL A   1      36.640  23.738  26.119  1.00  0.00     0.116 C 
BRANCH  27  28
ATOM     28  N   UNL A   1      37.511  22.572  26.153  1.00  0.00    -0.352 N 
ATOM     29  C   UNL A   1      38.867  22.521  26.370  1.00  0.00     0.251 C 
ATOM     30  H   UNL A   1      37.069  21.706  26.001  1.00  0.00     0.163 HD
ATOM     31  O   UNL A   1      39.477  21.466  26.219  1.00  0.00    -0.269 OA
BRANCH  29  32
ATOM     32  C   UNL A   1      39.592  23.751  26.756  1.00  0.00     0.039 A 
ATOM     33  C   UNL A   1      39.829  24.733  25.790  1.00  0.00     0.014 A 
ATOM     34  C   UNL A   1      40.015  23.944  28.074  1.00  0.00     0.014 A 
ATOM     35  C   UNL A   1      40.432  25.938  26.161  1.00  0.00     0.010 A 
ATOM     36  C   UNL A   1      40.555  25.169  28.454  1.00  0.00     0.010 A 
ATOM     37  C   UNL A   1      40.767  26.180  27.503  1.00  0.00    -0.014 A 
BRANCH  37  38
ATOM     38  C   UNL A   1      41.344  27.478  27.942  1.00  0.00     0.031 A 
ATOM     39  C   UNL A   1      42.837  27.674  27.928  1.00  0.00     0.074 A 
ATOM     40  C   UNL A   1      40.538  28.440  28.436  1.00  0.00     0.049 A 
ATOM     41  N   UNL A   1      43.543  28.669  28.399  1.00  0.00    -0.248 NA
ATOM     42  C   UNL A   1      43.644  26.595  27.334  1.00  0.00     0.031 C 
ATOM     43  C   UNL A   1      39.079  28.354  28.541  1.00  0.00     0.029 A 
ATOM     44  N   UNL A   1      40.833  29.671  28.967  1.00  0.00    -0.354 N 
ATOM     45  C   UNL A   1      44.873  28.325  28.186  1.00  0.00     0.074 A 
ATOM     46  C   UNL A   1      44.879  27.016  27.573  1.00  0.00     0.031 C 
ATOM     47  C   UNL A   1      38.609  29.485  29.093  1.00  0.00     0.029 A 
ATOM     48  C   UNL A   1      39.731  30.359  29.421  1.00  0.00     0.049 A 
ATOM     49  H   UNL A   1      41.749  30.031  29.017  1.00  0.00     0.167 HD
ATOM     50  C   UNL A   1      45.985  29.044  28.464  1.00  0.00     0.037 A 
ATOM     51  C   UNL A   1      39.638  31.549  30.048  1.00  0.00     0.037 A 
ATOM     52  C   UNL A   1      45.971  30.369  29.024  1.00  0.00     0.049 A 
ATOM     53  C   UNL A   1      40.893  32.332  30.329  1.00  0.00     0.074 A 
ATOM     54  C   UNL A   1      47.045  31.210  29.264  1.00  0.00     0.029 A 
ATOM     55  N   UNL A   1      44.832  31.049  29.425  1.00  0.00    -0.354 N 
ATOM     56  N   UNL A   1      42.138  32.019  30.059  1.00  0.00    -0.248 NA
ATOM     57  C   UNL A   1      40.734  33.633  30.997  1.00  0.00     0.031 C 
ATOM     58  C   UNL A   1      46.557  32.384  29.848  1.00  0.00     0.029 A 
ATOM     59  C   UNL A   1      45.178  32.292  29.928  1.00  0.00     0.049 A 
ATOM     60  H   UNL A   1      43.914  30.700  29.361  1.00  0.00     0.167 HD
ATOM     61  C   UNL A   1      42.903  33.099  30.487  1.00  0.00     0.074 A 
ATOM     62  C   UNL A   1      41.983  34.075  31.031  1.00  0.00     0.031 C 
ATOM     63  C   UNL A   1      44.247  33.267  30.433  1.00  0.00     0.037 A 
BRANCH  50  64
ATOM     64  C   UNL A   1      47.323  28.428  28.159  1.00  0.00     0.058 A 
ATOM     65  C   UNL A   1      48.008  27.651  29.106  1.00  0.00     0.135 A 
ATOM     66  C   UNL A   1      47.881  28.543  26.877  1.00  0.00     0.135 A 
ATOM     67  F   UNL A   1      47.526  27.522  30.352  1.00  0.00    -0.206 F 
ATOM     68  C   UNL A   1      49.205  27.015  28.794  1.00  0.00     0.059 A 
ATOM     69  C   UNL A   1      49.065  27.897  26.534  1.00  0.00     0.059 A 
ATOM     70  F   UNL A   1      47.267  29.279  25.935  1.00  0.00    -0.206 F 
ATOM     71  C   UNL A   1      49.722  27.139  27.502  1.00  0.00     0.060 A 
BRANCH  71  72
ATOM     72  S   UNL A   1      51.251  26.267  27.099  1.00  0.00     0.124 S 
ATOM     73  O   UNL A   1      51.391  26.567  25.678  1.00  0.00    -0.237 OA
ATOM     74  O   UNL A   1      52.219  26.911  27.980  1.00  0.00    -0.237 OA
ATOM     75  O   UNL A   1      50.945  24.877  27.419  1.00  0.00    -0.744 OA
ENDBRANCH  71  72
ENDBRANCH  50  64
BRANCH  51  76
ATOM     76  C   UNL A   1      38.311  32.085  30.457  1.00  0.00     0.058 A 
ATOM     77  C   UNL A   1      37.649  33.044  29.677  1.00  0.00     0.135 A 
ATOM     78  C   UNL A   1      37.697  31.680  31.653  1.00  0.00     0.135 A 
ATOM     79  F   UNL A   1      38.197  33.468  28.527  1.00  0.00    -0.206 F 
ATOM     80  C   UNL A   1      36.446  33.613  30.083  1.00  0.00     0.059 A 
ATOM     81  C   UNL A   1      36.480  32.214  32.067  1.00  0.00     0.059 A 
ATOM     82  F   UNL A   1      38.279  30.751  32.428  1.00  0.00    -0.206 F 
ATOM     83  C   UNL A   1      35.872  33.195  31.285  1.00  0.00     0.060 A 
BRANCH  83  84
ATOM     84  S   UNL A   1      34.310  33.936  31.806  1.00  0.00     0.124 S 
ATOM     85  O   UNL A   1      33.736  32.868  32.616  1.00  0.00    -0.237 OA
ATOM     86  O   UNL A   1      34.756  35.120  32.533  1.00  0.00    -0.237 OA
ATOM     87  O   UNL A   1      33.631  34.205  30.542  1.00  0.00    -0.744 OA
ENDBRANCH  83  84
ENDBRANCH  51  76
BRANCH  63  88
ATOM     88  C   UNL A   1      44.808  34.575  30.914  1.00  0.00     0.058 A 
ATOM     89  C   UNL A   1      44.923  35.686  30.065  1.00  0.00     0.135 A 
ATOM     90  C   UNL A   1      45.162  34.738  32.263  1.00  0.00     0.135 A 
ATOM     91  F   UNL A   1      44.605  35.580  28.765  1.00  0.00    -0.206 F 
ATOM     92  C   UNL A   1      45.382  36.912  30.536  1.00  0.00     0.059 A 
ATOM     93  C   UNL A   1      45.598  35.962  32.761  1.00  0.00     0.059 A 
ATOM     94  F   UNL A   1      45.060  33.708  33.118  1.00  0.00    -0.206 F 
ATOM     95  C   UNL A   1      45.712  37.042  31.887  1.00  0.00     0.060 A 
BRANCH  95  96
ATOM     96  S   UNL A   1      46.249  38.653  32.498  1.00  0.00     0.124 S 
ATOM     97  O   UNL A   1      47.381  38.284  33.343  1.00  0.00    -0.237 OA
ATOM     98  O   UNL A   1      46.583  39.361  31.265  1.00  0.00    -0.237 OA
ATOM     99  O   UNL A   1      45.076  39.157  33.204  1.00  0.00    -0.744 OA
ENDBRANCH  95  96
ENDBRANCH  63  88
ENDBRANCH  37  38
ENDBRANCH  29  32
ENDBRANCH  27  28
ENDBRANCH  26  27
ENDBRANCH  25  26
ENDBRANCH   1  25
TORSDOF 19
ENDMDL
MODEL 3
REMARK VINA RESULT:     -11.1      6.413     12.048
REMARK SMILES O=C(Cc1ccccc1-c1ccn(C(F)F)c(=O)c1)NCCCCCCNC(=O)c1ccc(-c2c3nc(c(-c4c(F)cc(S(=O)(=O)[O-])cc4F)c4ccc([nH]4)c(-c4c(F)cc(S(=O)(=O)[O-])cc4F)c4nc(c(-c5c(F)cc(S(=O)(=O)[O-])cc5F)c5ccc2[nH]5)C=C4)C=C3)cc1
REMARK SMILES IDX 23 1 22 2 21 3 20 4 1 5 2 6 3 8 4 9 5 10 9 11 6 12 8 13 7 14
REMARK SMILES IDX 10 15 11 16 19 17 12 18 17 19 13 20 18 21 14 22 15 23 16 24
REMARK SMILES IDX 24 25 25 26 26 27 27 28 28 29 29 31 30 32 31 33 95 34 32 35
REMARK SMILES IDX 94 36 33 37 34 38 35 39 88 40 36 41 93 42 87 43 89 44 37 45
REMARK SMILES IDX 92 46 86 47 85 48 38 50 72 51 51 52 71 53 52 54 55 55 70 56
REMARK SMILES IDX 90 57 53 58 54 59 69 61 91 62 56 63 39 64 40 65 49 66 41 67
REMARK SMILES IDX 42 68 48 69 50 70 43 71 44 72 45 73 46 74 47 75 73 76 74 77
REMARK SMILES IDX 83 78 75 79 76 80 82 81 84 82 77 83 78 84 79 85 80 86 81 87
REMARK SMILES IDX 57 88 58 89 67 90 59 91 60 92 66 93 68 94 61 95 62 96 63 97
REMARK SMILES IDX 64 98 65 99
REMARK H PARENT 20 7 27 30 89 49 55 60
REMARK Flexibility Score: inf
ROOT
ATOM      1  C   UNL A   1      35.514  32.105  27.814  1.00  0.00     0.002 C 
ENDROOT
BRANCH   1   2
ATOM      2  C   UNL A   1      34.289  31.188  27.916  1.00  0.00     0.021 C 
BRANCH   2   3
ATOM      3  C   UNL A   1      34.489  29.787  27.343  1.00  0.00     0.116 C 
BRANCH   3   4
ATOM      4  N   UNL A   1      33.223  29.116  27.130  1.00  0.00    -0.356 N 
ATOM      5  O   UNL A   1      33.310  29.111  24.832  1.00  0.00    -0.275 OA
ATOM      6  C   UNL A   1      32.733  28.826  25.877  1.00  0.00     0.224 C 
ATOM      7  H   UNL A   1      32.690  28.857  27.916  1.00  0.00     0.163 HD
BRANCH   6   8
ATOM      8  C   UNL A   1      31.379  28.145  25.890  1.00  0.00     0.136 C 
BRANCH   8   9
ATOM      9  C   UNL A   1      31.294  26.760  25.266  1.00  0.00    -0.031 A 
ATOM     10  C   UNL A   1      31.929  25.648  25.851  1.00  0.00     0.005 A 
ATOM     11  C   UNL A   1      30.554  26.561  24.072  1.00  0.00    -0.014 A 
ATOM     12  C   UNL A   1      31.816  24.373  25.295  1.00  0.00     0.000 A 
ATOM     13  C   UNL A   1      30.470  25.272  23.513  1.00  0.00     0.009 A 
ATOM     14  C   UNL A   1      31.088  24.184  24.127  1.00  0.00     0.001 A 
BRANCH  11  15
ATOM     15  C   UNL A   1      29.852  27.670  23.380  1.00  0.00    -0.011 A 
ATOM     16  C   UNL A   1      30.531  28.626  22.526  1.00  0.00     0.027 A 
ATOM     17  C   UNL A   1      28.529  27.803  23.575  1.00  0.00     0.080 A 
ATOM     18  C   UNL A   1      29.872  29.670  22.010  1.00  0.00     0.095 A 
ATOM     19  C   UNL A   1      27.767  28.922  22.955  1.00  0.00     0.255 A 
ATOM     20  N   UNL A   1      28.518  29.834  22.232  1.00  0.00    -0.258 N 
ATOM     21  O   UNL A   1      26.554  28.974  23.130  1.00  0.00    -0.269 OA
BRANCH  20  22
ATOM     22  C   UNL A   1      27.819  30.967  21.681  1.00  0.00     0.451 C 
ATOM     23  F   UNL A   1      28.472  32.123  21.955  1.00  0.00    -0.185 F 
ATOM     24  F   UNL A   1      27.697  30.862  20.336  1.00  0.00    -0.185 F 
ENDBRANCH  20  22
ENDBRANCH  11  15
ENDBRANCH   8   9
ENDBRANCH   6   8
ENDBRANCH   3   4
ENDBRANCH   2   3
ENDBRANCH   1   2
BRANCH   1  25
ATOM     25  C   UNL A   1      35.580  33.233  28.848  1.00  0.00     0.002 C 
BRANCH  25  26
ATOM     26  C   UNL A   1      36.984  33.585  29.343  1.00  0.00     0.021 C 
BRANCH  26  27
ATOM     27  C   UNL A   1      37.385  32.935  30.663  1.00  0.00     0.116 C 
BRANCH  27  28
ATOM     28  N   UNL A   1      36.530  31.813  31.018  1.00  0.00    -0.352 N 
ATOM     29  C   UNL A   1      36.727  30.474  30.778  1.00  0.00     0.251 C 
ATOM     30  H   UNL A   1      35.699  32.044  31.493  1.00  0.00     0.163 HD
ATOM     31  O   UNL A   1      35.832  29.666  31.014  1.00  0.00    -0.269 OA
BRANCH  29  32
ATOM     32  C   UNL A   1      38.011  30.016  30.205  1.00  0.00     0.039 A 
ATOM     33  C   UNL A   1      38.173  30.005  28.817  1.00  0.00     0.014 A 
ATOM     34  C   UNL A   1      39.062  29.620  31.039  1.00  0.00     0.014 A 
ATOM     35  C   UNL A   1      39.411  29.663  28.266  1.00  0.00     0.010 A 
ATOM     36  C   UNL A   1      40.311  29.342  30.492  1.00  0.00     0.010 A 
ATOM     37  C   UNL A   1      40.500  29.363  29.101  1.00  0.00    -0.014 A 
BRANCH  37  38
ATOM     38  C   UNL A   1      41.848  29.063  28.548  1.00  0.00     0.031 A 
ATOM     39  C   UNL A   1      42.164  27.672  28.067  1.00  0.00     0.074 A 
ATOM     40  C   UNL A   1      42.808  30.010  28.565  1.00  0.00     0.049 A 
ATOM     41  N   UNL A   1      43.311  27.172  27.685  1.00  0.00    -0.248 NA
ATOM     42  C   UNL A   1      41.051  26.708  28.040  1.00  0.00     0.031 C 
ATOM     43  C   UNL A   1      42.636  31.384  29.045  1.00  0.00     0.029 A 
ATOM     44  N   UNL A   1      44.127  29.955  28.190  1.00  0.00    -0.354 N 
ATOM     45  C   UNL A   1      43.066  25.834  27.402  1.00  0.00     0.074 A 
ATOM     46  C   UNL A   1      41.669  25.589  27.686  1.00  0.00     0.031 C 
ATOM     47  C   UNL A   1      43.803  32.040  28.928  1.00  0.00     0.029 A 
ATOM     48  C   UNL A   1      44.815  31.128  28.407  1.00  0.00     0.049 A 
ATOM     49  H   UNL A   1      44.544  29.152  27.801  1.00  0.00     0.167 HD
ATOM     50  C   UNL A   1      43.925  24.899  26.934  1.00  0.00     0.037 A 
ATOM     51  C   UNL A   1      46.116  31.426  28.223  1.00  0.00     0.037 A 
ATOM     52  C   UNL A   1      45.300  25.161  26.601  1.00  0.00     0.049 A 
ATOM     53  C   UNL A   1      47.045  30.369  27.686  1.00  0.00     0.074 A 
ATOM     54  C   UNL A   1      46.227  24.298  26.041  1.00  0.00     0.029 A 
ATOM     55  N   UNL A   1      45.944  26.373  26.789  1.00  0.00    -0.354 N 
ATOM     56  N   UNL A   1      46.778  29.126  27.361  1.00  0.00    -0.248 NA
ATOM     57  C   UNL A   1      48.451  30.753  27.486  1.00  0.00     0.031 C 
ATOM     58  C   UNL A   1      47.444  24.977  25.929  1.00  0.00     0.029 A 
ATOM     59  C   UNL A   1      47.262  26.275  26.373  1.00  0.00     0.049 A 
ATOM     60  H   UNL A   1      45.528  27.183  27.162  1.00  0.00     0.167 HD
ATOM     61  C   UNL A   1      47.972  28.595  26.882  1.00  0.00     0.074 A 
ATOM     62  C   UNL A   1      48.960  29.649  26.957  1.00  0.00     0.031 C 
ATOM     63  C   UNL A   1      48.224  27.345  26.421  1.00  0.00     0.037 A 
BRANCH  50  64
ATOM     64  C   UNL A   1      43.413  23.499  26.736  1.00  0.00     0.058 A 
ATOM     65  C   UNL A   1      43.208  22.964  25.455  1.00  0.00     0.135 A 
ATOM     66  C   UNL A   1      43.210  22.655  27.840  1.00  0.00     0.135 A 
ATOM     67  F   UNL A   1      43.372  23.732  24.367  1.00  0.00    -0.206 F 
ATOM     68  C   UNL A   1      42.813  21.643  25.275  1.00  0.00     0.059 A 
ATOM     69  C   UNL A   1      42.838  21.324  27.684  1.00  0.00     0.059 A 
ATOM     70  F   UNL A   1      43.388  23.120  29.088  1.00  0.00    -0.206 F 
ATOM     71  C   UNL A   1      42.637  20.828  26.396  1.00  0.00     0.060 A 
BRANCH  71  72
ATOM     72  S   UNL A   1      42.172  19.102  26.142  1.00  0.00     0.124 S 
ATOM     73  O   UNL A   1      40.747  19.224  25.853  1.00  0.00    -0.237 OA
ATOM     74  O   UNL A   1      43.015  18.714  25.017  1.00  0.00    -0.237 OA
ATOM     75  O   UNL A   1      42.501  18.470  27.416  1.00  0.00    -0.744 OA
ENDBRANCH  71  72
ENDBRANCH  50  64
BRANCH  51  76
ATOM     76  C   UNL A   1      46.633  32.784  28.546  1.00  0.00     0.058 A 
ATOM     77  C   UNL A   1      47.212  33.057  29.794  1.00  0.00     0.135 A 
ATOM     78  C   UNL A   1      46.526  33.843  27.631  1.00  0.00     0.135 A 
ATOM     79  F   UNL A   1      47.332  32.079  30.705  1.00  0.00    -0.206 F 
ATOM     80  C   UNL A   1      47.630  34.338  30.141  1.00  0.00     0.059 A 
ATOM     81  C   UNL A   1      46.963  35.127  27.944  1.00  0.00     0.059 A 
ATOM     82  F   UNL A   1      45.999  33.632  26.414  1.00  0.00    -0.206 F 
ATOM     83  C   UNL A   1      47.494  35.369  29.210  1.00  0.00     0.060 A 
BRANCH  83  84
ATOM     84  S   UNL A   1      48.040  37.029  29.666  1.00  0.00     0.124 S 
ATOM     85  O   UNL A   1      49.089  36.735  30.636  1.00  0.00    -0.237 OA
ATOM     86  O   UNL A   1      48.487  37.571  28.386  1.00  0.00    -0.237 OA
ATOM     87  O   UNL A   1      46.831  37.641  30.208  1.00  0.00    -0.744 OA
ENDBRANCH  83  84
ENDBRANCH  51  76
BRANCH  63  88
ATOM     88  C   UNL A   1      49.603  27.058  25.899  1.00  0.00     0.058 A 
ATOM     89  C   UNL A   1      49.918  27.178  24.537  1.00  0.00     0.135 A 
ATOM     90  C   UNL A   1      50.641  26.734  26.788  1.00  0.00     0.135 A 
ATOM     91  F   UNL A   1      48.960  27.478  23.646  1.00  0.00    -0.206 F 
ATOM     92  C   UNL A   1      51.213  26.975  24.073  1.00  0.00     0.059 A 
ATOM     93  C   UNL A   1      51.949  26.553  26.349  1.00  0.00     0.059 A 
ATOM     94  F   UNL A   1      50.394  26.617  28.103  1.00  0.00    -0.206 F 
ATOM     95  C   UNL A   1      52.223  26.668  24.987  1.00  0.00     0.060 A 
BRANCH  95  96
ATOM     96  S   UNL A   1      53.911  26.465  24.380  1.00  0.00     0.124 S 
ATOM     97  O   UNL A   1      53.870  27.229  23.137  1.00  0.00    -0.237 OA
ATOM     98  O   UNL A   1      54.705  27.048  25.457  1.00  0.00    -0.237 OA
ATOM     99  O   UNL A   1      54.044  25.020  24.223  1.00  0.00    -0.744 OA
ENDBRANCH  95  96
ENDBRANCH  63  88
ENDBRANCH  37  38
ENDBRANCH  29  32
ENDBRANCH  27  28
ENDBRANCH  26  27
ENDBRANCH  25  26
ENDBRANCH   1  25
TORSDOF 19
ENDMDL
