MODEL 1
REMARK VINA RESULT:     -10.5      0.000      0.000
REMARK SMILES CC(C)C[C@@H](C(=O)NCCCCCCNC(=O)c1ccc(-c2c3nc(c(-c4c(F)cc(S(=O)(=O)[O-])cc4F)c4ccc([nH]4)c(-c4c(F)cc(S(=O)(=O)[O-])cc4F)c4nc(c(-c5c(F)cc(S(=O)(=O)[O-])cc5F)c5ccc2[nH]5)C=C4)C=C3)cc1)[C@@H]1CCC[C@@H](C)C1
REMARK SMILES IDX 12 1 11 2 10 3 9 4 8 5 6 6 7 7 5 9 4 10 2 11 1 12 3 13 84 14
REMARK SMILES IDX 85 15 90 16 86 17 88 18 87 19 89 20 13 21 14 22 15 23 16 24
REMARK SMILES IDX 17 26 18 27 19 28 83 29 20 30 82 31 21 32 22 33 23 34 76 35
REMARK SMILES IDX 24 36 81 37 75 38 77 39 25 40 80 41 74 42 73 43 26 45 60 46
REMARK SMILES IDX 39 47 59 48 40 49 43 50 58 51 78 52 41 53 42 54 57 56 79 57
REMARK SMILES IDX 44 58 27 59 28 60 37 61 29 62 30 63 36 64 38 65 31 66 32 67
REMARK SMILES IDX 33 68 34 69 35 70 61 71 62 72 71 73 63 74 64 75 70 76 72 77
REMARK SMILES IDX 65 78 66 79 67 80 68 81 69 82 45 83 46 84 55 85 47 86 48 87
REMARK SMILES IDX 54 88 56 89 49 90 50 91 51 92 52 93 53 94
REMARK H PARENT 8 8 15 25 77 44 43 55
REMARK Flexibility Score: inf
ROOT
ATOM      1  C   UNL A   1      31.566  28.077  25.730  1.00  0.00     0.002 C 
ENDROOT
BRANCH   1   2
ATOM      2  C   UNL A   1      30.540  27.070  25.200  1.00  0.00     0.002 C 
BRANCH   2   3
ATOM      3  C   UNL A   1      31.005  26.253  23.989  1.00  0.00     0.021 C 
BRANCH   3   4
ATOM      4  C   UNL A   1      30.630  24.775  24.058  1.00  0.00     0.116 C 
BRANCH   4   5
ATOM      5  N   UNL A   1      30.442  24.347  25.429  1.00  0.00    -0.356 N 
ATOM      6  C   UNL A   1      31.149  23.489  26.208  1.00  0.00     0.223 C 
ATOM      7  O   UNL A   1      30.697  23.235  27.329  1.00  0.00    -0.275 OA
ATOM      8  H   UNL A   1      29.663  24.750  25.875  1.00  0.00     0.163 HD
BRANCH   6   9
ATOM      9  C   UNL A   1      32.476  22.874  25.757  1.00  0.00     0.082 C 
BRANCH   9  10
ATOM     10  C   UNL A   1      32.438  21.331  25.909  1.00  0.00     0.016 C 
BRANCH  10  11
ATOM     11  C   UNL A   1      32.314  20.563  24.570  1.00  0.00    -0.017 C 
ATOM     12  C   UNL A   1      32.492  21.493  23.368  1.00  0.00     0.007 C 
ATOM     13  C   UNL A   1      33.346  19.434  24.510  1.00  0.00     0.007 C 
ENDBRANCH  10  11
ENDBRANCH   9  10
BRANCH   9  14
ATOM     14  C   UNL A   1      33.723  23.562  26.398  1.00  0.00     0.002 C 
ATOM     15  C   UNL A   1      34.152  24.842  25.648  1.00  0.00     0.004 C 
ATOM     16  C   UNL A   1      34.951  22.633  26.508  1.00  0.00     0.007 C 
ATOM     17  C   UNL A   1      34.757  24.548  24.278  1.00  0.00     0.001 C 
ATOM     18  C   UNL A   1      35.586  22.306  25.148  1.00  0.00    -0.014 C 
ATOM     19  C   UNL A   1      35.939  23.591  24.385  1.00  0.00     0.003 C 
ATOM     20  C   UNL A   1      36.830  21.439  25.336  1.00  0.00     0.007 C 
ENDBRANCH   9  14
ENDBRANCH   6   9
ENDBRANCH   4   5
ENDBRANCH   3   4
ENDBRANCH   2   3
ENDBRANCH   1   2
BRANCH   1  21
ATOM     21  C   UNL A   1      32.351  27.618  26.963  1.00  0.00     0.021 C 
BRANCH  21  22
ATOM     22  C   UNL A   1      33.708  28.288  27.143  1.00  0.00     0.116 C 
BRANCH  22  23
ATOM     23  N   UNL A   1      33.579  29.697  27.479  1.00  0.00    -0.352 N 
ATOM     24  C   UNL A   1      34.468  30.526  28.110  1.00  0.00     0.251 C 
ATOM     25  H   UNL A   1      32.728  30.115  27.214  1.00  0.00     0.163 HD
ATOM     26  O   UNL A   1      34.099  31.637  28.491  1.00  0.00    -0.269 OA
BRANCH  24  27
ATOM     27  C   UNL A   1      35.858  30.085  28.350  1.00  0.00     0.039 A 
ATOM     28  C   UNL A   1      36.787  30.202  27.313  1.00  0.00     0.014 A 
ATOM     29  C   UNL A   1      36.243  29.541  29.580  1.00  0.00     0.014 A 
ATOM     30  C   UNL A   1      38.114  29.822  27.526  1.00  0.00     0.010 A 
ATOM     31  C   UNL A   1      37.581  29.224  29.811  1.00  0.00     0.010 A 
ATOM     32  C   UNL A   1      38.528  29.357  28.787  1.00  0.00    -0.014 A 
BRANCH  32  33
ATOM     33  C   UNL A   1      39.955  29.034  29.040  1.00  0.00     0.031 A 
ATOM     34  C   UNL A   1      40.881  30.061  29.635  1.00  0.00     0.074 A 
ATOM     35  C   UNL A   1      40.426  27.819  28.694  1.00  0.00     0.049 A 
ATOM     36  N   UNL A   1      42.152  29.954  29.925  1.00  0.00    -0.248 NA
ATOM     37  C   UNL A   1      40.311  31.387  29.920  1.00  0.00     0.031 C 
ATOM     38  C   UNL A   1      39.641  26.762  28.051  1.00  0.00     0.029 A 
ATOM     39  N   UNL A   1      41.675  27.268  28.829  1.00  0.00    -0.354 N 
ATOM     40  C   UNL A   1      42.536  31.195  30.418  1.00  0.00     0.074 A 
ATOM     41  C   UNL A   1      41.376  32.057  30.340  1.00  0.00     0.031 C 
ATOM     42  C   UNL A   1      40.419  25.683  27.874  1.00  0.00     0.029 A 
ATOM     43  C   UNL A   1      41.762  25.978  28.361  1.00  0.00     0.049 A 
ATOM     44  H   UNL A   1      42.436  27.751  29.225  1.00  0.00     0.167 HD
ATOM     45  C   UNL A   1      43.740  31.576  30.912  1.00  0.00     0.037 A 
ATOM     46  C   UNL A   1      42.806  25.128  28.331  1.00  0.00     0.037 A 
ATOM     47  C   UNL A   1      44.886  30.707  31.006  1.00  0.00     0.049 A 
ATOM     48  C   UNL A   1      44.125  25.567  28.904  1.00  0.00     0.074 A 
ATOM     49  C   UNL A   1      46.128  30.977  31.552  1.00  0.00     0.029 A 
ATOM     50  N   UNL A   1      44.932  29.401  30.539  1.00  0.00    -0.354 N 
ATOM     51  N   UNL A   1      44.448  26.721  29.437  1.00  0.00    -0.248 NA
ATOM     52  C   UNL A   1      45.216  24.585  28.882  1.00  0.00     0.031 C 
ATOM     53  C   UNL A   1      46.939  29.849  31.377  1.00  0.00     0.029 A 
ATOM     54  C   UNL A   1      46.187  28.860  30.764  1.00  0.00     0.049 A 
ATOM     55  H   UNL A   1      44.181  28.928  30.110  1.00  0.00     0.167 HD
ATOM     56  C   UNL A   1      45.776  26.599  29.829  1.00  0.00     0.074 A 
ATOM     57  C   UNL A   1      46.187  25.250  29.494  1.00  0.00     0.031 C 
ATOM     58  C   UNL A   1      46.584  27.520  30.412  1.00  0.00     0.037 A 
BRANCH  45  59
ATOM     59  C   UNL A   1      43.879  32.994  31.396  1.00  0.00     0.058 A 
ATOM     60  C   UNL A   1      44.209  34.041  30.520  1.00  0.00     0.135 A 
ATOM     61  C   UNL A   1      43.644  33.317  32.742  1.00  0.00     0.135 A 
ATOM     62  F   UNL A   1      44.459  33.788  29.225  1.00  0.00    -0.206 F 
ATOM     63  C   UNL A   1      44.327  35.354  30.966  1.00  0.00     0.059 A 
ATOM     64  C   UNL A   1      43.730  34.628  33.205  1.00  0.00     0.059 A 
ATOM     65  F   UNL A   1      43.326  32.356  33.623  1.00  0.00    -0.206 F 
ATOM     66  C   UNL A   1      44.085  35.637  32.312  1.00  0.00     0.060 A 
BRANCH  66  67
ATOM     67  S   UNL A   1      44.234  37.347  32.874  1.00  0.00     0.124 S 
ATOM     68  O   UNL A   1      45.509  37.309  33.584  1.00  0.00    -0.237 OA
ATOM     69  O   UNL A   1      44.232  38.090  31.618  1.00  0.00    -0.237 OA
ATOM     70  O   UNL A   1      43.054  37.534  33.712  1.00  0.00    -0.744 OA
ENDBRANCH  66  67
ENDBRANCH  45  59
BRANCH  46  71
ATOM     71  C   UNL A   1      42.635  23.767  27.758  1.00  0.00     0.058 A 
ATOM     72  C   UNL A   1      42.453  22.650  28.588  1.00  0.00     0.135 A 
ATOM     73  C   UNL A   1      42.634  23.557  26.370  1.00  0.00     0.135 A 
ATOM     74  F   UNL A   1      42.452  22.801  29.921  1.00  0.00    -0.206 F 
ATOM     75  C   UNL A   1      42.292  21.372  28.064  1.00  0.00     0.059 A 
ATOM     76  C   UNL A   1      42.450  22.292  25.823  1.00  0.00     0.059 A 
ATOM     77  F   UNL A   1      42.785  24.595  25.533  1.00  0.00    -0.206 F 
ATOM     78  C   UNL A   1      42.289  21.204  26.679  1.00  0.00     0.060 A 
BRANCH  78  79
ATOM     79  S   UNL A   1      42.027  19.547  26.008  1.00  0.00     0.124 S 
ATOM     80  O   UNL A   1      42.893  19.565  24.835  1.00  0.00    -0.237 OA
ATOM     81  O   UNL A   1      42.461  18.696  27.110  1.00  0.00    -0.237 OA
ATOM     82  O   UNL A   1      40.593  19.521  25.734  1.00  0.00    -0.744 OA
ENDBRANCH  78  79
ENDBRANCH  46  71
BRANCH  58  83
ATOM     83  C   UNL A   1      47.989  27.088  30.732  1.00  0.00     0.058 A 
ATOM     84  C   UNL A   1      48.290  26.373  31.902  1.00  0.00     0.135 A 
ATOM     85  C   UNL A   1      49.045  27.382  29.853  1.00  0.00     0.135 A 
ATOM     86  F   UNL A   1      47.319  26.070  32.778  1.00  0.00    -0.206 F 
ATOM     87  C   UNL A   1      49.594  26.000  32.211  1.00  0.00     0.059 A 
ATOM     88  C   UNL A   1      50.352  26.994  30.128  1.00  0.00     0.059 A 
ATOM     89  F   UNL A   1      48.810  28.053  28.714  1.00  0.00    -0.206 F 
ATOM     90  C   UNL A   1      50.619  26.321  31.319  1.00  0.00     0.060 A 
BRANCH  90  91
ATOM     91  S   UNL A   1      52.309  25.834  31.729  1.00  0.00     0.124 S 
ATOM     92  O   UNL A   1      52.982  26.005  30.446  1.00  0.00    -0.237 OA
ATOM     93  O   UNL A   1      52.670  26.796  32.767  1.00  0.00    -0.237 OA
ATOM     94  O   UNL A   1      52.164  24.455  32.184  1.00  0.00    -0.744 OA
ENDBRANCH  90  91
ENDBRANCH  58  83
ENDBRANCH  32  33
ENDBRANCH  24  27
ENDBRANCH  22  23
ENDBRANCH  21  22
ENDBRANCH   1  21
TORSDOF 19
ENDMDL
MODEL 2
REMARK VINA RESULT:     -10.2      2.748      3.236
REMARK SMILES CC(C)C[C@@H](C(=O)NCCCCCCNC(=O)c1ccc(-c2c3nc(c(-c4c(F)cc(S(=O)(=O)[O-])cc4F)c4ccc([nH]4)c(-c4c(F)cc(S(=O)(=O)[O-])cc4F)c4nc(c(-c5c(F)cc(S(=O)(=O)[O-])cc5F)c5ccc2[nH]5)C=C4)C=C3)cc1)[C@@H]1CCC[C@@H](C)C1
REMARK SMILES IDX 12 1 11 2 10 3 9 4 8 5 6 6 7 7 5 9 4 10 2 11 1 12 3 13 84 14
REMARK SMILES IDX 85 15 90 16 86 17 88 18 87 19 89 20 13 21 14 22 15 23 16 24
REMARK SMILES IDX 17 26 18 27 19 28 83 29 20 30 82 31 21 32 22 33 23 34 76 35
REMARK SMILES IDX 24 36 81 37 75 38 77 39 25 40 80 41 74 42 73 43 26 45 60 46
REMARK SMILES IDX 39 47 59 48 40 49 43 50 58 51 78 52 41 53 42 54 57 56 79 57
REMARK SMILES IDX 44 58 27 59 28 60 37 61 29 62 30 63 36 64 38 65 31 66 32 67
REMARK SMILES IDX 33 68 34 69 35 70 61 71 62 72 71 73 63 74 64 75 70 76 72 77
REMARK SMILES IDX 65 78 66 79 67 80 68 81 69 82 45 83 46 84 55 85 47 86 48 87
REMARK SMILES IDX 54 88 56 89 49 90 50 91 51 92 52 93 53 94
REMARK H PARENT 8 8 15 25 77 44 43 55
REMARK Flexibility Score: inf
ROOT
ATOM      1  C   UNL A   1      31.673  27.850  25.634  1.00  0.00     0.002 C 
ENDROOT
BRANCH   1   2
ATOM      2  C   UNL A   1      30.745  26.633  25.569  1.00  0.00     0.002 C 
BRANCH   2   3
ATOM      3  C   UNL A   1      30.824  25.831  24.265  1.00  0.00     0.021 C 
BRANCH   3   4
ATOM      4  C   UNL A   1      30.716  24.321  24.458  1.00  0.00     0.116 C 
BRANCH   4   5
ATOM      5  N   UNL A   1      30.873  23.961  25.853  1.00  0.00    -0.356 N 
ATOM      6  C   UNL A   1      31.788  23.182  26.483  1.00  0.00     0.223 C 
ATOM      7  O   UNL A   1      31.621  22.969  27.688  1.00  0.00    -0.275 OA
ATOM      8  H   UNL A   1      30.193  24.350  26.450  1.00  0.00     0.163 HD
BRANCH   6   9
ATOM      9  C   UNL A   1      33.012  22.608  25.764  1.00  0.00     0.082 C 
BRANCH   9  10
ATOM     10  C   UNL A   1      33.167  21.098  26.079  1.00  0.00     0.016 C 
BRANCH  10  11
ATOM     11  C   UNL A   1      32.651  20.159  24.961  1.00  0.00    -0.017 C 
ATOM     12  C   UNL A   1      32.440  20.911  23.646  1.00  0.00     0.007 C 
ATOM     13  C   UNL A   1      33.632  19.003  24.747  1.00  0.00     0.007 C 
ENDBRANCH  10  11
ENDBRANCH   9  10
BRANCH   9  14
ATOM     14  C   UNL A   1      34.306  23.456  25.978  1.00  0.00     0.002 C 
ATOM     15  C   UNL A   1      34.444  24.605  24.956  1.00  0.00     0.004 C 
ATOM     16  C   UNL A   1      35.603  22.620  25.943  1.00  0.00     0.007 C 
ATOM     17  C   UNL A   1      34.752  24.107  23.546  1.00  0.00     0.001 C 
ATOM     18  C   UNL A   1      35.944  22.093  24.541  1.00  0.00    -0.014 C 
ATOM     19  C   UNL A   1      36.007  23.241  23.523  1.00  0.00     0.003 C 
ATOM     20  C   UNL A   1      37.269  21.331  24.566  1.00  0.00     0.007 C 
ENDBRANCH   9  14
ENDBRANCH   6   9
ENDBRANCH   4   5
ENDBRANCH   3   4
ENDBRANCH   2   3
ENDBRANCH   1   2
BRANCH   1  21
ATOM     21  C   UNL A   1      32.927  27.666  26.495  1.00  0.00     0.021 C 
BRANCH  21  22
ATOM     22  C   UNL A   1      34.102  28.559  26.112  1.00  0.00     0.116 C 
BRANCH  22  23
ATOM     23  N   UNL A   1      33.858  29.952  26.450  1.00  0.00    -0.352 N 
ATOM     24  C   UNL A   1      34.481  30.743  27.380  1.00  0.00     0.251 C 
ATOM     25  H   UNL A   1      33.142  30.390  25.937  1.00  0.00     0.163 HD
ATOM     26  O   UNL A   1      33.999  31.839  27.667  1.00  0.00    -0.269 OA
BRANCH  24  27
ATOM     27  C   UNL A   1      35.715  30.279  28.048  1.00  0.00     0.039 A 
ATOM     28  C   UNL A   1      36.939  30.469  27.402  1.00  0.00     0.014 A 
ATOM     29  C   UNL A   1      35.669  29.644  29.293  1.00  0.00     0.014 A 
ATOM     30  C   UNL A   1      38.121  30.067  28.027  1.00  0.00     0.010 A 
ATOM     31  C   UNL A   1      36.854  29.304  29.944  1.00  0.00     0.010 A 
ATOM     32  C   UNL A   1      38.091  29.509  29.317  1.00  0.00    -0.014 A 
BRANCH  32  33
ATOM     33  C   UNL A   1      39.352  29.161  30.019  1.00  0.00     0.031 A 
ATOM     34  C   UNL A   1      39.770  29.904  31.259  1.00  0.00     0.074 A 
ATOM     35  C   UNL A   1      40.144  28.195  29.510  1.00  0.00     0.049 A 
ATOM     36  N   UNL A   1      40.836  29.735  32.000  1.00  0.00    -0.248 NA
ATOM     37  C   UNL A   1      38.891  30.992  31.714  1.00  0.00     0.031 C 
ATOM     38  C   UNL A   1      39.877  27.449  28.278  1.00  0.00     0.029 A 
ATOM     39  N   UNL A   1      41.332  27.679  29.959  1.00  0.00    -0.354 N 
ATOM     40  C   UNL A   1      40.759  30.697  33.001  1.00  0.00     0.074 A 
ATOM     41  C   UNL A   1      39.570  31.480  32.742  1.00  0.00     0.031 C 
ATOM     42  C   UNL A   1      40.857  26.552  28.086  1.00  0.00     0.029 A 
ATOM     43  C   UNL A   1      41.835  26.679  29.161  1.00  0.00     0.049 A 
ATOM     44  H   UNL A   1      41.781  27.993  30.777  1.00  0.00     0.167 HD
ATOM     45  C   UNL A   1      41.592  30.895  34.052  1.00  0.00     0.037 A 
ATOM     46  C   UNL A   1      42.958  25.944  29.283  1.00  0.00     0.037 A 
ATOM     47  C   UNL A   1      42.764  30.098  34.315  1.00  0.00     0.049 A 
ATOM     48  C   UNL A   1      43.854  26.168  30.470  1.00  0.00     0.074 A 
ATOM     49  C   UNL A   1      43.634  30.175  35.389  1.00  0.00     0.029 A 
ATOM     50  N   UNL A   1      43.233  29.081  33.495  1.00  0.00    -0.354 N 
ATOM     51  N   UNL A   1      43.725  27.032  31.448  1.00  0.00    -0.248 NA
ATOM     52  C   UNL A   1      45.042  25.311  30.574  1.00  0.00     0.031 C 
ATOM     53  C   UNL A   1      44.653  29.234  35.196  1.00  0.00     0.029 A 
ATOM     54  C   UNL A   1      44.392  28.539  34.026  1.00  0.00     0.049 A 
ATOM     55  H   UNL A   1      42.805  28.789  32.658  1.00  0.00     0.167 HD
ATOM     56  C   UNL A   1      44.806  26.812  32.294  1.00  0.00     0.074 A 
ATOM     57  C   UNL A   1      45.565  25.717  31.723  1.00  0.00     0.031 C 
ATOM     58  C   UNL A   1      45.143  27.458  33.438  1.00  0.00     0.037 A 
BRANCH  45  59
ATOM     59  C   UNL A   1      41.264  32.014  35.002  1.00  0.00     0.058 A 
ATOM     60  C   UNL A   1      41.782  33.307  34.825  1.00  0.00     0.135 A 
ATOM     61  C   UNL A   1      40.390  31.803  36.082  1.00  0.00     0.135 A 
ATOM     62  F   UNL A   1      42.633  33.563  33.818  1.00  0.00    -0.206 F 
ATOM     63  C   UNL A   1      41.468  34.344  35.698  1.00  0.00     0.059 A 
ATOM     64  C   UNL A   1      40.041  32.832  36.953  1.00  0.00     0.059 A 
ATOM     65  F   UNL A   1      39.866  30.587  36.300  1.00  0.00    -0.206 F 
ATOM     66  C   UNL A   1      40.597  34.096  36.759  1.00  0.00     0.060 A 
BRANCH  66  67
ATOM     67  S   UNL A   1      40.193  35.454  37.879  1.00  0.00     0.124 S 
ATOM     68  O   UNL A   1      38.887  35.037  38.382  1.00  0.00    -0.237 OA
ATOM     69  O   UNL A   1      41.288  35.402  38.842  1.00  0.00    -0.237 OA
ATOM     70  O   UNL A   1      40.185  36.624  37.007  1.00  0.00    -0.744 OA
ENDBRANCH  66  67
ENDBRANCH  45  59
BRANCH  46  71
ATOM     71  C   UNL A   1      43.281  24.912  28.264  1.00  0.00     0.058 A 
ATOM     72  C   UNL A   1      42.906  23.572  28.449  1.00  0.00     0.135 A 
ATOM     73  C   UNL A   1      43.955  25.244  27.079  1.00  0.00     0.135 A 
ATOM     74  F   UNL A   1      42.265  23.204  29.568  1.00  0.00    -0.206 F 
ATOM     75  C   UNL A   1      43.202  22.596  27.503  1.00  0.00     0.059 A 
ATOM     76  C   UNL A   1      44.239  24.291  26.107  1.00  0.00     0.059 A 
ATOM     77  F   UNL A   1      44.317  26.515  26.846  1.00  0.00    -0.206 F 
ATOM     78  C   UNL A   1      43.867  22.967  26.333  1.00  0.00     0.060 A 
BRANCH  78  79
ATOM     79  S   UNL A   1      44.200  21.702  25.087  1.00  0.00     0.124 S 
ATOM     80  O   UNL A   1      45.558  21.299  25.434  1.00  0.00    -0.237 OA
ATOM     81  O   UNL A   1      43.154  20.721  25.357  1.00  0.00    -0.237 OA
ATOM     82  O   UNL A   1      44.058  22.428  23.828  1.00  0.00    -0.744 OA
ENDBRANCH  78  79
ENDBRANCH  46  71
BRANCH  58  83
ATOM     83  C   UNL A   1      46.380  26.984  34.150  1.00  0.00     0.058 A 
ATOM     84  C   UNL A   1      46.330  25.961  35.110  1.00  0.00     0.135 A 
ATOM     85  C   UNL A   1      47.632  27.550  33.860  1.00  0.00     0.135 A 
ATOM     86  F   UNL A   1      45.157  25.389  35.428  1.00  0.00    -0.206 F 
ATOM     87  C   UNL A   1      47.471  25.544  35.788  1.00  0.00     0.059 A 
ATOM     88  C   UNL A   1      48.790  27.128  34.505  1.00  0.00     0.059 A 
ATOM     89  F   UNL A   1      47.739  28.523  32.941  1.00  0.00    -0.206 F 
ATOM     90  C   UNL A   1      48.696  26.138  35.482  1.00  0.00     0.060 A 
BRANCH  90  91
ATOM     91  S   UNL A   1      50.171  25.591  36.368  1.00  0.00     0.124 S 
ATOM     92  O   UNL A   1      50.986  25.060  35.281  1.00  0.00    -0.237 OA
ATOM     93  O   UNL A   1      50.652  26.830  36.973  1.00  0.00    -0.237 OA
ATOM     94  O   UNL A   1      49.654  24.602  37.308  1.00  0.00    -0.744 OA
ENDBRANCH  90  91
ENDBRANCH  58  83
ENDBRANCH  32  33
ENDBRANCH  24  27
ENDBRANCH  22  23
ENDBRANCH  21  22
ENDBRANCH   1  21
TORSDOF 19
ENDMDL
MODEL 3
REMARK VINA RESULT:     -10.1      4.818     10.469
REMARK SMILES CC(C)C[C@@H](C(=O)NCCCCCCNC(=O)c1ccc(-c2c3nc(c(-c4c(F)cc(S(=O)(=O)[O-])cc4F)c4ccc([nH]4)c(-c4c(F)cc(S(=O)(=O)[O-])cc4F)c4nc(c(-c5c(F)cc(S(=O)(=O)[O-])cc5F)c5ccc2[nH]5)C=C4)C=C3)cc1)[C@@H]1CCC[C@@H](C)C1
REMARK SMILES IDX 12 1 11 2 10 3 9 4 8 5 6 6 7 7 5 9 4 10 2 11 1 12 3 13 84 14
REMARK SMILES IDX 85 15 90 16 86 17 88 18 87 19 89 20 13 21 14 22 15 23 16 24
REMARK SMILES IDX 17 26 18 27 19 28 83 29 20 30 82 31 21 32 22 33 23 34 76 35
REMARK SMILES IDX 24 36 81 37 75 38 77 39 25 40 80 41 74 42 73 43 26 45 60 46
REMARK SMILES IDX 39 47 59 48 40 49 43 50 58 51 78 52 41 53 42 54 57 56 79 57
REMARK SMILES IDX 44 58 27 59 28 60 37 61 29 62 30 63 36 64 38 65 31 66 32 67
REMARK SMILES IDX 33 68 34 69 35 70 61 71 62 72 71 73 63 74 64 75 70 76 72 77
REMARK SMILES IDX 65 78 66 79 67 80 68 81 69 82 45 83 46 84 55 85 47 86 48 87
REMARK SMILES IDX 54 88 56 89 49 90 50 91 51 92 52 93 53 94
REMARK H PARENT 8 8 15 25 77 44 43 55
REMARK Flexibility Score: inf
ROOT
ATOM      1  C   UNL A   1      37.479  23.017  25.741  1.00  0.00     0.002 C 
ENDROOT
BRANCH   1   2
ATOM      2  C   UNL A   1      36.123  23.480  25.200  1.00  0.00     0.002 C 
BRANCH   2   3
ATOM      3  C   UNL A   1      34.915  23.072  26.051  1.00  0.00     0.021 C 
BRANCH   3   4
ATOM      4  C   UNL A   1      33.594  23.059  25.287  1.00  0.00     0.116 C 
BRANCH   4   5
ATOM      5  N   UNL A   1      32.465  23.085  26.196  1.00  0.00    -0.356 N 
ATOM      6  C   UNL A   1      31.523  24.033  26.432  1.00  0.00     0.223 C 
ATOM      7  O   UNL A   1      30.720  23.821  27.347  1.00  0.00    -0.275 OA
ATOM      8  H   UNL A   1      32.364  22.270  26.739  1.00  0.00     0.163 HD
BRANCH   6   9
ATOM      9  C   UNL A   1      31.411  25.307  25.591  1.00  0.00     0.082 C 
BRANCH   9  10
ATOM     10  C   UNL A   1      31.329  26.556  26.507  1.00  0.00     0.016 C 
BRANCH  10  11
ATOM     11  C   UNL A   1      32.657  27.343  26.629  1.00  0.00    -0.017 C 
ATOM     12  C   UNL A   1      33.635  26.977  25.511  1.00  0.00     0.007 C 
ATOM     13  C   UNL A   1      32.383  28.849  26.608  1.00  0.00     0.007 C 
ENDBRANCH  10  11
ENDBRANCH   9  10
BRANCH   9  14
ATOM     14  C   UNL A   1      30.301  25.226  24.496  1.00  0.00     0.002 C 
ATOM     15  C   UNL A   1      30.775  24.508  23.214  1.00  0.00     0.004 C 
ATOM     16  C   UNL A   1      29.730  26.604  24.095  1.00  0.00     0.007 C 
ATOM     17  C   UNL A   1      31.791  25.327  22.421  1.00  0.00     0.001 C 
ATOM     18  C   UNL A   1      30.726  27.462  23.300  1.00  0.00    -0.014 C 
ATOM     19  C   UNL A   1      31.242  26.705  22.069  1.00  0.00     0.003 C 
ATOM     20  C   UNL A   1      30.076  28.781  22.881  1.00  0.00     0.007 C 
ENDBRANCH   9  14
ENDBRANCH   6   9
ENDBRANCH   4   5
ENDBRANCH   3   4
ENDBRANCH   2   3
ENDBRANCH   1   2
BRANCH   1  21
ATOM     21  C   UNL A   1      38.291  24.094  26.467  1.00  0.00     0.021 C 
BRANCH  21  22
ATOM     22  C   UNL A   1      39.706  23.676  26.852  1.00  0.00     0.116 C 
BRANCH  22  23
ATOM     23  N   UNL A   1      40.704  24.254  25.967  1.00  0.00    -0.352 N 
ATOM     24  C   UNL A   1      41.341  25.465  26.047  1.00  0.00     0.251 C 
ATOM     25  H   UNL A   1      40.959  23.695  25.199  1.00  0.00     0.163 HD
ATOM     26  O   UNL A   1      42.004  25.868  25.091  1.00  0.00    -0.269 OA
BRANCH  24  27
ATOM     27  C   UNL A   1      41.221  26.292  27.266  1.00  0.00     0.039 A 
ATOM     28  C   UNL A   1      42.017  27.433  27.383  1.00  0.00     0.014 A 
ATOM     29  C   UNL A   1      40.344  25.939  28.297  1.00  0.00     0.014 A 
ATOM     30  C   UNL A   1      41.898  28.248  28.511  1.00  0.00     0.010 A 
ATOM     31  C   UNL A   1      40.179  26.787  29.391  1.00  0.00     0.010 A 
ATOM     32  C   UNL A   1      40.956  27.947  29.511  1.00  0.00    -0.014 A 
BRANCH  32  33
ATOM     33  C   UNL A   1      40.767  28.858  30.668  1.00  0.00     0.031 A 
ATOM     34  C   UNL A   1      41.613  28.715  31.904  1.00  0.00     0.074 A 
ATOM     35  C   UNL A   1      39.798  29.795  30.617  1.00  0.00     0.049 A 
ATOM     36  N   UNL A   1      41.587  29.419  33.006  1.00  0.00    -0.248 NA
ATOM     37  C   UNL A   1      42.601  27.624  31.914  1.00  0.00     0.031 C 
ATOM     38  C   UNL A   1      38.872  29.989  29.499  1.00  0.00     0.029 A 
ATOM     39  N   UNL A   1      39.429  30.754  31.524  1.00  0.00    -0.354 N 
ATOM     40  C   UNL A   1      42.545  28.856  33.841  1.00  0.00     0.074 A 
ATOM     41  C   UNL A   1      43.099  27.718  33.139  1.00  0.00     0.031 C 
ATOM     42  C   UNL A   1      38.060  31.022  29.775  1.00  0.00     0.029 A 
ATOM     43  C   UNL A   1      38.387  31.544  31.098  1.00  0.00     0.049 A 
ATOM     44  H   UNL A   1      39.869  30.868  32.397  1.00  0.00     0.167 HD
ATOM     45  C   UNL A   1      42.942  29.263  35.072  1.00  0.00     0.037 A 
ATOM     46  C   UNL A   1      37.765  32.574  31.703  1.00  0.00     0.037 A 
ATOM     47  C   UNL A   1      42.401  30.410  35.757  1.00  0.00     0.049 A 
ATOM     48  C   UNL A   1      38.239  33.020  33.059  1.00  0.00     0.074 A 
ATOM     49  C   UNL A   1      42.783  30.943  36.975  1.00  0.00     0.029 A 
ATOM     50  N   UNL A   1      41.359  31.197  35.287  1.00  0.00    -0.354 N 
ATOM     51  N   UNL A   1      39.199  32.522  33.801  1.00  0.00    -0.248 NA
ATOM     52  C   UNL A   1      37.553  34.174  33.654  1.00  0.00     0.031 C 
ATOM     53  C   UNL A   1      41.943  32.027  37.262  1.00  0.00     0.029 A 
ATOM     54  C   UNL A   1      41.070  32.197  36.200  1.00  0.00     0.049 A 
ATOM     55  H   UNL A   1      40.894  31.062  34.429  1.00  0.00     0.167 HD
ATOM     56  C   UNL A   1      39.243  33.312  34.944  1.00  0.00     0.074 A 
ATOM     57  C   UNL A   1      38.230  34.335  34.783  1.00  0.00     0.031 C 
ATOM     58  C   UNL A   1      40.048  33.200  36.030  1.00  0.00     0.037 A 
BRANCH  45  59
ATOM     59  C   UNL A   1      44.021  28.468  35.756  1.00  0.00     0.058 A 
ATOM     60  C   UNL A   1      45.382  28.755  35.563  1.00  0.00     0.135 A 
ATOM     61  C   UNL A   1      43.691  27.432  36.645  1.00  0.00     0.135 A 
ATOM     62  F   UNL A   1      45.756  29.725  34.714  1.00  0.00    -0.206 F 
ATOM     63  C   UNL A   1      46.378  28.026  36.206  1.00  0.00     0.059 A 
ATOM     64  C   UNL A   1      44.671  26.706  37.319  1.00  0.00     0.059 A 
ATOM     65  F   UNL A   1      42.406  27.114  36.866  1.00  0.00    -0.206 F 
ATOM     66  C   UNL A   1      46.012  27.003  37.082  1.00  0.00     0.060 A 
BRANCH  66  67
ATOM     67  S   UNL A   1      47.316  26.072  37.914  1.00  0.00     0.124 S 
ATOM     68  O   UNL A   1      46.702  24.752  38.029  1.00  0.00    -0.237 OA
ATOM     69  O   UNL A   1      48.424  26.174  36.971  1.00  0.00    -0.237 OA
ATOM     70  O   UNL A   1      47.499  26.790  39.171  1.00  0.00    -0.744 OA
ENDBRANCH  66  67
ENDBRANCH  45  59
BRANCH  46  71
ATOM     71  C   UNL A   1      36.644  33.267  31.018  1.00  0.00     0.058 A 
ATOM     72  C   UNL A   1      36.876  34.096  29.909  1.00  0.00     0.135 A 
ATOM     73  C   UNL A   1      35.317  33.105  31.446  1.00  0.00     0.135 A 
ATOM     74  F   UNL A   1      38.128  34.288  29.467  1.00  0.00    -0.206 F 
ATOM     75  C   UNL A   1      35.835  34.751  29.259  1.00  0.00     0.059 A 
ATOM     76  C   UNL A   1      34.257  33.729  30.795  1.00  0.00     0.059 A 
ATOM     77  F   UNL A   1      35.040  32.307  32.489  1.00  0.00    -0.206 F 
ATOM     78  C   UNL A   1      34.528  34.559  29.709  1.00  0.00     0.060 A 
BRANCH  78  79
ATOM     79  S   UNL A   1      33.179  35.372  28.825  1.00  0.00     0.124 S 
ATOM     80  O   UNL A   1      33.899  36.369  28.043  1.00  0.00    -0.237 OA
ATOM     81  O   UNL A   1      32.594  34.267  28.071  1.00  0.00    -0.237 OA
ATOM     82  O   UNL A   1      32.343  35.896  29.902  1.00  0.00    -0.744 OA
ENDBRANCH  78  79
ENDBRANCH  46  71
BRANCH  58  83
ATOM     83  C   UNL A   1      39.867  34.220  37.121  1.00  0.00     0.058 A 
ATOM     84  C   UNL A   1      40.474  35.484  37.052  1.00  0.00     0.135 A 
ATOM     85  C   UNL A   1      39.068  33.936  38.240  1.00  0.00     0.135 A 
ATOM     86  F   UNL A   1      41.252  35.805  36.006  1.00  0.00    -0.206 F 
ATOM     87  C   UNL A   1      40.330  36.416  38.075  1.00  0.00     0.059 A 
ATOM     88  C   UNL A   1      38.887  34.864  39.260  1.00  0.00     0.059 A 
ATOM     89  F   UNL A   1      38.454  32.747  38.349  1.00  0.00    -0.206 F 
ATOM     90  C   UNL A   1      39.537  36.094  39.178  1.00  0.00     0.060 A 
BRANCH  90  91
ATOM     91  S   UNL A   1      39.357  37.309  40.501  1.00  0.00     0.124 S 
ATOM     92  O   UNL A   1      38.504  38.308  39.866  1.00  0.00    -0.237 OA
ATOM     93  O   UNL A   1      38.733  36.527  41.564  1.00  0.00    -0.237 OA
ATOM     94  O   UNL A   1      40.730  37.730  40.764  1.00  0.00    -0.744 OA
ENDBRANCH  90  91
ENDBRANCH  58  83
ENDBRANCH  32  33
ENDBRANCH  24  27
ENDBRANCH  22  23
ENDBRANCH  21  22
ENDBRANCH   1  21
TORSDOF 19
ENDMDL
