MODEL 1
REMARK VINA RESULT:     -10.4      0.000      0.000
REMARK SMILES CC[C@@H](C)CN(C)c1cccc(Cl)c1/C=C/C(=O)NCCCCCCNC(=O)c1ccc(-c2c3nc(c(-c4c(F)cc(S(=O)(=O)[O-])cc4F)c4ccc([nH]4)c(-c4c(F)cc(S(=O)(=O)[O-])cc4F)c4nc(c(-c5c(F)cc(S(=O)(=O)[O-])cc5F)c5ccc2[nH]5)C=C4)C=C3)cc1
REMARK SMILES IDX 21 1 20 2 19 3 17 4 18 5 16 7 15 8 14 9 8 10 9 11 10 12
REMARK SMILES IDX 12 13 11 14 13 15 6 16 7 17 5 18 3 19 4 20 2 21 1 22 22 23
REMARK SMILES IDX 23 24 24 25 25 26 26 27 27 28 28 30 29 31 30 32 94 33 31 34
REMARK SMILES IDX 93 35 32 36 33 37 34 38 87 39 35 40 92 41 86 42 88 43 36 44
REMARK SMILES IDX 91 45 85 46 84 47 37 49 71 50 50 51 70 52 51 53 54 54 69 55
REMARK SMILES IDX 89 56 52 57 53 58 68 60 90 61 55 62 38 63 39 64 48 65 40 66
REMARK SMILES IDX 41 67 47 68 49 69 42 70 43 71 44 72 45 73 46 74 72 75 73 76
REMARK SMILES IDX 82 77 74 78 75 79 81 80 83 81 76 82 77 83 78 84 79 85 80 86
REMARK SMILES IDX 56 87 57 88 66 89 58 90 59 91 65 92 67 93 60 94 61 95 62 96
REMARK SMILES IDX 63 97 64 98
REMARK H PARENT 19 6 26 29 88 48 54 59
REMARK Flexibility Score: inf
ROOT
ATOM      1  C   UNL A   1      33.263  21.662  25.802  1.00  0.00     0.021 C 
ENDROOT
BRANCH   1   2
ATOM      2  C   UNL A   1      31.816  21.692  25.314  1.00  0.00     0.116 C 
BRANCH   2   3
ATOM      3  N   UNL A   1      30.932  22.204  26.346  1.00  0.00    -0.353 N 
ATOM      4  C   UNL A   1      30.388  23.443  26.484  1.00  0.00     0.244 C 
ATOM      5  O   UNL A   1      29.549  23.658  27.355  1.00  0.00    -0.270 OA
ATOM      6  H   UNL A   1      30.689  21.558  27.050  1.00  0.00     0.163 HD
BRANCH   4   7
ATOM      7  C   UNL A   1      30.779  24.527  25.560  1.00  0.00     0.072 C 
ATOM      8  C   UNL A   1      30.367  25.786  25.767  1.00  0.00     0.017 C 
BRANCH   8   9
ATOM      9  C   UNL A   1      30.564  26.916  24.847  1.00  0.00     0.017 A 
ATOM     10  C   UNL A   1      31.793  27.615  24.819  1.00  0.00     0.045 A 
ATOM     11  C   UNL A   1      32.029  28.484  23.743  1.00  0.00     0.026 A 
ATOM     12  C   UNL A   1      31.047  28.779  22.797  1.00  0.00     0.004 A 
ATOM     13  C   UNL A   1      29.571  27.224  23.890  1.00  0.00     0.050 A 
ATOM     14  C   UNL A   1      29.804  28.170  22.891  1.00  0.00     0.021 A 
ATOM     15  Cl  UNL A   1      28.017  26.457  23.893  1.00  0.00    -0.084 Cl
BRANCH  10  16
ATOM     16  N   UNL A   1      32.762  27.515  25.814  1.00  0.00    -0.374 N 
ATOM     17  C   UNL A   1      33.968  26.743  25.562  1.00  0.00     0.143 C 
BRANCH  16  18
ATOM     18  C   UNL A   1      32.423  27.940  27.181  1.00  0.00     0.119 C 
BRANCH  18  19
ATOM     19  C   UNL A   1      32.819  29.413  27.435  1.00  0.00     0.005 C 
ATOM     20  C   UNL A   1      31.874  30.364  26.690  1.00  0.00     0.009 C 
BRANCH  19  21
ATOM     21  C   UNL A   1      34.272  29.709  26.995  1.00  0.00     0.002 C 
ATOM     22  C   UNL A   1      34.775  31.044  27.532  1.00  0.00     0.004 C 
ENDBRANCH  19  21
ENDBRANCH  18  19
ENDBRANCH  16  18
ENDBRANCH  10  16
ENDBRANCH   8   9
ENDBRANCH   4   7
ENDBRANCH   2   3
ENDBRANCH   1   2
BRANCH   1  23
ATOM     23  C   UNL A   1      34.216  20.971  24.819  1.00  0.00     0.002 C 
BRANCH  23  24
ATOM     24  C   UNL A   1      35.553  21.694  24.617  1.00  0.00     0.002 C 
BRANCH  24  25
ATOM     25  C   UNL A   1      35.486  23.215  24.773  1.00  0.00     0.021 C 
BRANCH  25  26
ATOM     26  C   UNL A   1      36.746  23.822  25.377  1.00  0.00     0.116 C 
BRANCH  26  27
ATOM     27  N   UNL A   1      37.786  22.818  25.546  1.00  0.00    -0.352 N 
ATOM     28  C   UNL A   1      39.054  22.976  26.048  1.00  0.00     0.251 C 
ATOM     29  H   UNL A   1      37.548  21.905  25.265  1.00  0.00     0.163 HD
ATOM     30  O   UNL A   1      39.900  22.107  25.893  1.00  0.00    -0.269 OA
BRANCH  28  31
ATOM     31  C   UNL A   1      39.375  24.223  26.772  1.00  0.00     0.039 A 
ATOM     32  C   UNL A   1      38.934  24.387  28.087  1.00  0.00     0.014 A 
ATOM     33  C   UNL A   1      40.140  25.211  26.146  1.00  0.00     0.014 A 
ATOM     34  C   UNL A   1      39.313  25.528  28.798  1.00  0.00     0.010 A 
ATOM     35  C   UNL A   1      40.578  26.305  26.879  1.00  0.00     0.010 A 
ATOM     36  C   UNL A   1      40.163  26.478  28.209  1.00  0.00    -0.014 A 
BRANCH  36  37
ATOM     37  C   UNL A   1      40.629  27.680  28.943  1.00  0.00     0.031 A 
ATOM     38  C   UNL A   1      41.974  27.658  29.618  1.00  0.00     0.074 A 
ATOM     39  C   UNL A   1      39.810  28.740  29.086  1.00  0.00     0.049 A 
ATOM     40  N   UNL A   1      42.502  28.528  30.438  1.00  0.00    -0.248 NA
ATOM     41  C   UNL A   1      42.820  26.482  29.361  1.00  0.00     0.031 C 
ATOM     42  C   UNL A   1      38.473  28.864  28.502  1.00  0.00     0.029 A 
ATOM     43  N   UNL A   1      39.974  29.908  29.788  1.00  0.00    -0.354 N 
ATOM     44  C   UNL A   1      43.731  27.996  30.810  1.00  0.00     0.074 A 
ATOM     45  C   UNL A   1      43.845  26.703  30.170  1.00  0.00     0.031 C 
ATOM     46  C   UNL A   1      37.944  30.045  28.861  1.00  0.00     0.029 A 
ATOM     47  C   UNL A   1      38.879  30.740  29.740  1.00  0.00     0.049 A 
ATOM     48  H   UNL A   1      40.797  30.130  30.280  1.00  0.00     0.167 HD
ATOM     49  C   UNL A   1      44.685  28.545  31.598  1.00  0.00     0.037 A 
ATOM     50  C   UNL A   1      38.649  31.917  30.352  1.00  0.00     0.037 A 
ATOM     51  C   UNL A   1      44.567  29.841  32.213  1.00  0.00     0.049 A 
ATOM     52  C   UNL A   1      39.713  32.498  31.245  1.00  0.00     0.074 A 
ATOM     53  C   UNL A   1      45.492  30.510  32.993  1.00  0.00     0.029 A 
ATOM     54  N   UNL A   1      43.453  30.664  32.118  1.00  0.00    -0.354 N 
ATOM     55  N   UNL A   1      40.889  32.003  31.554  1.00  0.00    -0.248 NA
ATOM     56  C   UNL A   1      39.425  33.796  31.869  1.00  0.00     0.031 C 
ATOM     57  C   UNL A   1      44.919  31.714  33.414  1.00  0.00     0.029 A 
ATOM     58  C   UNL A   1      43.661  31.826  32.842  1.00  0.00     0.049 A 
ATOM     59  H   UNL A   1      42.635  30.453  31.611  1.00  0.00     0.167 HD
ATOM     60  C   UNL A   1      41.497  32.950  32.373  1.00  0.00     0.074 A 
ATOM     61  C   UNL A   1      40.558  34.044  32.513  1.00  0.00     0.031 C 
ATOM     62  C   UNL A   1      42.723  32.917  32.951  1.00  0.00     0.037 A 
BRANCH  49  63
ATOM     63  C   UNL A   1      45.936  27.745  31.841  1.00  0.00     0.058 A 
ATOM     64  C   UNL A   1      46.047  26.854  32.922  1.00  0.00     0.135 A 
ATOM     65  C   UNL A   1      47.032  27.849  30.969  1.00  0.00     0.135 A 
ATOM     66  F   UNL A   1      45.037  26.725  33.798  1.00  0.00    -0.206 F 
ATOM     67  C   UNL A   1      47.208  26.123  33.148  1.00  0.00     0.059 A 
ATOM     68  C   UNL A   1      48.191  27.103  31.157  1.00  0.00     0.059 A 
ATOM     69  F   UNL A   1      46.984  28.686  29.920  1.00  0.00    -0.206 F 
ATOM     70  C   UNL A   1      48.275  26.254  32.259  1.00  0.00     0.060 A 
BRANCH  70  71
ATOM     71  S   UNL A   1      49.774  25.297  32.568  1.00  0.00     0.124 S 
ATOM     72  O   UNL A   1      49.272  24.247  33.450  1.00  0.00    -0.237 OA
ATOM     73  O   UNL A   1      50.153  24.870  31.225  1.00  0.00    -0.237 OA
ATOM     74  O   UNL A   1      50.672  26.263  33.193  1.00  0.00    -0.744 OA
ENDBRANCH  70  71
ENDBRANCH  49  63
BRANCH  50  75
ATOM     75  C   UNL A   1      37.362  32.633  30.129  1.00  0.00     0.058 A 
ATOM     76  C   UNL A   1      36.242  32.365  30.930  1.00  0.00     0.135 A 
ATOM     77  C   UNL A   1      37.230  33.606  29.126  1.00  0.00     0.135 A 
ATOM     78  F   UNL A   1      36.316  31.438  31.898  1.00  0.00    -0.206 F 
ATOM     79  C   UNL A   1      35.032  33.021  30.734  1.00  0.00     0.059 A 
ATOM     80  C   UNL A   1      36.038  34.296  28.930  1.00  0.00     0.059 A 
ATOM     81  F   UNL A   1      38.275  33.913  28.343  1.00  0.00    -0.206 F 
ATOM     82  C   UNL A   1      34.940  33.989  29.732  1.00  0.00     0.060 A 
BRANCH  82  83
ATOM     83  S   UNL A   1      33.376  34.865  29.519  1.00  0.00     0.124 S 
ATOM     84  O   UNL A   1      32.906  34.968  30.896  1.00  0.00    -0.237 OA
ATOM     85  O   UNL A   1      33.807  36.111  28.895  1.00  0.00    -0.237 OA
ATOM     86  O   UNL A   1      32.606  33.973  28.655  1.00  0.00    -0.744 OA
ENDBRANCH  82  83
ENDBRANCH  50  75
BRANCH  62  87
ATOM     87  C   UNL A   1      43.159  34.123  33.737  1.00  0.00     0.058 A 
ATOM     88  C   UNL A   1      43.688  35.266  33.119  1.00  0.00     0.135 A 
ATOM     89  C   UNL A   1      42.966  34.160  35.128  1.00  0.00     0.135 A 
ATOM     90  F   UNL A   1      43.901  35.280  31.793  1.00  0.00    -0.206 F 
ATOM     91  C   UNL A   1      44.022  36.399  33.854  1.00  0.00     0.059 A 
ATOM     92  C   UNL A   1      43.264  35.293  35.878  1.00  0.00     0.059 A 
ATOM     93  F   UNL A   1      42.455  33.096  35.769  1.00  0.00    -0.206 F 
ATOM     94  C   UNL A   1      43.798  36.405  35.232  1.00  0.00     0.060 A 
BRANCH  94  95
ATOM     95  S   UNL A   1      44.179  37.905  36.163  1.00  0.00     0.124 S 
ATOM     96  O   UNL A   1      43.232  37.814  37.269  1.00  0.00    -0.237 OA
ATOM     97  O   UNL A   1      45.582  37.708  36.511  1.00  0.00    -0.237 OA
ATOM     98  O   UNL A   1      43.921  38.976  35.204  1.00  0.00    -0.744 OA
ENDBRANCH  94  95
ENDBRANCH  62  87
ENDBRANCH  36  37
ENDBRANCH  28  31
ENDBRANCH  26  27
ENDBRANCH  25  26
ENDBRANCH  24  25
ENDBRANCH  23  24
ENDBRANCH   1  23
TORSDOF 21
ENDMDL
MODEL 2
REMARK VINA RESULT:     -10.4      2.373      2.982
REMARK SMILES CC[C@@H](C)CN(C)c1cccc(Cl)c1/C=C/C(=O)NCCCCCCNC(=O)c1ccc(-c2c3nc(c(-c4c(F)cc(S(=O)(=O)[O-])cc4F)c4ccc([nH]4)c(-c4c(F)cc(S(=O)(=O)[O-])cc4F)c4nc(c(-c5c(F)cc(S(=O)(=O)[O-])cc5F)c5ccc2[nH]5)C=C4)C=C3)cc1
REMARK SMILES IDX 21 1 20 2 19 3 17 4 18 5 16 7 15 8 14 9 8 10 9 11 10 12
REMARK SMILES IDX 12 13 11 14 13 15 6 16 7 17 5 18 3 19 4 20 2 21 1 22 22 23
REMARK SMILES IDX 23 24 24 25 25 26 26 27 27 28 28 30 29 31 30 32 94 33 31 34
REMARK SMILES IDX 93 35 32 36 33 37 34 38 87 39 35 40 92 41 86 42 88 43 36 44
REMARK SMILES IDX 91 45 85 46 84 47 37 49 71 50 50 51 70 52 51 53 54 54 69 55
REMARK SMILES IDX 89 56 52 57 53 58 68 60 90 61 55 62 38 63 39 64 48 65 40 66
REMARK SMILES IDX 41 67 47 68 49 69 42 70 43 71 44 72 45 73 46 74 72 75 73 76
REMARK SMILES IDX 82 77 74 78 75 79 81 80 83 81 76 82 77 83 78 84 79 85 80 86
REMARK SMILES IDX 56 87 57 88 66 89 58 90 59 91 65 92 67 93 60 94 61 95 62 96
REMARK SMILES IDX 63 97 64 98
REMARK H PARENT 19 6 26 29 88 48 54 59
REMARK Flexibility Score: inf
ROOT
ATOM      1  C   UNL A   1      33.285  21.252  25.765  1.00  0.00     0.021 C 
ENDROOT
BRANCH   1   2
ATOM      2  C   UNL A   1      31.888  21.570  25.237  1.00  0.00     0.116 C 
BRANCH   2   3
ATOM      3  N   UNL A   1      31.045  22.107  26.290  1.00  0.00    -0.353 N 
ATOM      4  C   UNL A   1      30.519  23.355  26.426  1.00  0.00     0.244 C 
ATOM      5  O   UNL A   1      29.713  23.593  27.321  1.00  0.00    -0.270 OA
ATOM      6  H   UNL A   1      30.819  21.476  27.011  1.00  0.00     0.163 HD
BRANCH   4   7
ATOM      7  C   UNL A   1      30.891  24.420  25.472  1.00  0.00     0.072 C 
ATOM      8  C   UNL A   1      30.602  25.703  25.732  1.00  0.00     0.017 C 
BRANCH   8   9
ATOM      9  C   UNL A   1      30.785  26.829  24.803  1.00  0.00     0.017 A 
ATOM     10  C   UNL A   1      32.040  27.468  24.687  1.00  0.00     0.045 A 
ATOM     11  C   UNL A   1      32.238  28.333  23.599  1.00  0.00     0.026 A 
ATOM     12  C   UNL A   1      31.205  28.680  22.730  1.00  0.00     0.004 A 
ATOM     13  C   UNL A   1      29.740  27.190  23.923  1.00  0.00     0.050 A 
ATOM     14  C   UNL A   1      29.944  28.131  22.912  1.00  0.00     0.021 A 
ATOM     15  Cl  UNL A   1      28.155  26.498  24.038  1.00  0.00    -0.084 Cl
BRANCH  10  16
ATOM     16  N   UNL A   1      33.074  27.316  25.607  1.00  0.00    -0.374 N 
ATOM     17  C   UNL A   1      33.968  26.174  25.496  1.00  0.00     0.143 C 
BRANCH  16  18
ATOM     18  C   UNL A   1      33.065  28.137  26.827  1.00  0.00     0.119 C 
BRANCH  18  19
ATOM     19  C   UNL A   1      34.012  29.354  26.703  1.00  0.00     0.005 C 
ATOM     20  C   UNL A   1      35.043  29.356  27.838  1.00  0.00     0.009 C 
BRANCH  19  21
ATOM     21  C   UNL A   1      33.242  30.695  26.726  1.00  0.00     0.002 C 
ATOM     22  C   UNL A   1      31.732  30.490  26.774  1.00  0.00     0.004 C 
ENDBRANCH  19  21
ENDBRANCH  18  19
ENDBRANCH  16  18
ENDBRANCH  10  16
ENDBRANCH   8   9
ENDBRANCH   4   7
ENDBRANCH   2   3
ENDBRANCH   1   2
BRANCH   1  23
ATOM     23  C   UNL A   1      34.239  20.745  24.678  1.00  0.00     0.002 C 
BRANCH  23  24
ATOM     24  C   UNL A   1      35.561  21.517  24.583  1.00  0.00     0.002 C 
BRANCH  24  25
ATOM     25  C   UNL A   1      35.452  23.009  24.905  1.00  0.00     0.021 C 
BRANCH  25  26
ATOM     26  C   UNL A   1      36.557  23.517  25.822  1.00  0.00     0.116 C 
BRANCH  26  27
ATOM     27  N   UNL A   1      37.534  22.474  26.097  1.00  0.00    -0.352 N 
ATOM     28  C   UNL A   1      38.861  22.610  26.427  1.00  0.00     0.251 C 
ATOM     29  H   UNL A   1      37.201  21.550  26.040  1.00  0.00     0.163 HD
ATOM     30  O   UNL A   1      39.618  21.652  26.377  1.00  0.00    -0.269 OA
BRANCH  28  31
ATOM     31  C   UNL A   1      39.352  23.942  26.835  1.00  0.00     0.039 A 
ATOM     32  C   UNL A   1      39.254  24.329  28.173  1.00  0.00     0.014 A 
ATOM     33  C   UNL A   1      39.936  24.786  25.887  1.00  0.00     0.014 A 
ATOM     34  C   UNL A   1      39.798  25.552  28.572  1.00  0.00     0.010 A 
ATOM     35  C   UNL A   1      40.544  25.963  26.301  1.00  0.00     0.010 A 
ATOM     36  C   UNL A   1      40.475  26.362  27.645  1.00  0.00    -0.014 A 
BRANCH  36  37
ATOM     37  C   UNL A   1      41.109  27.645  28.036  1.00  0.00     0.031 A 
ATOM     38  C   UNL A   1      42.606  27.780  27.963  1.00  0.00     0.074 A 
ATOM     39  C   UNL A   1      40.357  28.640  28.544  1.00  0.00     0.049 A 
ATOM     40  N   UNL A   1      43.371  28.744  28.402  1.00  0.00    -0.248 NA
ATOM     41  C   UNL A   1      43.339  26.664  27.343  1.00  0.00     0.031 C 
ATOM     42  C   UNL A   1      38.900  28.612  28.690  1.00  0.00     0.029 A 
ATOM     43  N   UNL A   1      40.717  29.862  29.055  1.00  0.00    -0.354 N 
ATOM     44  C   UNL A   1      44.674  28.342  28.132  1.00  0.00     0.074 A 
ATOM     45  C   UNL A   1      44.598  27.024  27.541  1.00  0.00     0.031 C 
ATOM     46  C   UNL A   1      38.491  29.766  29.242  1.00  0.00     0.029 A 
ATOM     47  C   UNL A   1      39.657  30.594  29.536  1.00  0.00     0.049 A 
ATOM     48  H   UNL A   1      41.647  30.184  29.075  1.00  0.00     0.167 HD
ATOM     49  C   UNL A   1      45.827  29.020  28.340  1.00  0.00     0.037 A 
ATOM     50  C   UNL A   1      39.631  31.786  30.163  1.00  0.00     0.037 A 
ATOM     51  C   UNL A   1      45.887  30.340  28.912  1.00  0.00     0.049 A 
ATOM     52  C   UNL A   1      40.927  32.511  30.407  1.00  0.00     0.074 A 
ATOM     53  C   UNL A   1      46.998  31.135  29.126  1.00  0.00     0.029 A 
ATOM     54  N   UNL A   1      44.788  31.059  29.362  1.00  0.00    -0.354 N 
ATOM     55  N   UNL A   1      42.149  32.139  30.107  1.00  0.00    -0.248 NA
ATOM     56  C   UNL A   1      40.844  33.820  31.070  1.00  0.00     0.031 C 
ATOM     57  C   UNL A   1      46.579  32.312  29.753  1.00  0.00     0.029 A 
ATOM     58  C   UNL A   1      45.199  32.280  29.870  1.00  0.00     0.049 A 
ATOM     59  H   UNL A   1      43.855  30.747  29.326  1.00  0.00     0.167 HD
ATOM     60  C   UNL A   1      42.975  33.185  30.506  1.00  0.00     0.074 A 
ATOM     61  C   UNL A   1      42.114  34.204  31.070  1.00  0.00     0.031 C 
ATOM     62  C   UNL A   1      44.323  33.294  30.407  1.00  0.00     0.037 A 
BRANCH  49  63
ATOM     63  C   UNL A   1      47.115  28.346  27.952  1.00  0.00     0.058 A 
ATOM     64  C   UNL A   1      47.696  28.532  26.686  1.00  0.00     0.135 A 
ATOM     65  C   UNL A   1      47.793  27.522  28.864  1.00  0.00     0.135 A 
ATOM     66  F   UNL A   1      47.085  29.297  25.767  1.00  0.00    -0.206 F 
ATOM     67  C   UNL A   1      48.882  27.900  26.329  1.00  0.00     0.059 A 
ATOM     68  C   UNL A   1      48.998  26.905  28.540  1.00  0.00     0.059 A 
ATOM     69  F   UNL A   1      47.284  27.306  30.088  1.00  0.00    -0.206 F 
ATOM     70  C   UNL A   1      49.526  27.089  27.264  1.00  0.00     0.060 A 
BRANCH  70  71
ATOM     71  S   UNL A   1      51.065  26.276  26.783  1.00  0.00     0.124 S 
ATOM     72  O   UNL A   1      50.906  24.963  27.400  1.00  0.00    -0.237 OA
ATOM     73  O   UNL A   1      50.989  26.304  25.326  1.00  0.00    -0.237 OA
ATOM     74  O   UNL A   1      52.096  27.125  27.371  1.00  0.00    -0.744 OA
ENDBRANCH  70  71
ENDBRANCH  49  63
BRANCH  50  75
ATOM     75  C   UNL A   1      38.331  32.375  30.588  1.00  0.00     0.058 A 
ATOM     76  C   UNL A   1      37.807  32.115  31.863  1.00  0.00     0.135 A 
ATOM     77  C   UNL A   1      37.596  33.217  29.740  1.00  0.00     0.135 A 
ATOM     78  F   UNL A   1      38.469  31.310  32.709  1.00  0.00    -0.206 F 
ATOM     79  C   UNL A   1      36.593  32.654  32.276  1.00  0.00     0.059 A 
ATOM     80  C   UNL A   1      36.394  33.791  30.141  1.00  0.00     0.059 A 
ATOM     81  F   UNL A   1      38.060  33.512  28.516  1.00  0.00    -0.206 F 
ATOM     82  C   UNL A   1      35.895  33.494  31.409  1.00  0.00     0.060 A 
BRANCH  82  83
ATOM     83  S   UNL A   1      34.343  34.223  31.975  1.00  0.00     0.124 S 
ATOM     84  O   UNL A   1      34.815  35.412  32.675  1.00  0.00    -0.237 OA
ATOM     85  O   UNL A   1      33.639  34.458  30.719  1.00  0.00    -0.237 OA
ATOM     86  O   UNL A   1      33.771  33.179  32.821  1.00  0.00    -0.744 OA
ENDBRANCH  82  83
ENDBRANCH  50  75
BRANCH  62  87
ATOM     87  C   UNL A   1      44.957  34.581  30.857  1.00  0.00     0.058 A 
ATOM     88  C   UNL A   1      45.098  35.683  30.000  1.00  0.00     0.135 A 
ATOM     89  C   UNL A   1      45.354  34.737  32.196  1.00  0.00     0.135 A 
ATOM     90  F   UNL A   1      44.743  35.586  28.709  1.00  0.00    -0.206 F 
ATOM     91  C   UNL A   1      45.623  36.891  30.451  1.00  0.00     0.059 A 
ATOM     92  C   UNL A   1      45.852  35.944  32.676  1.00  0.00     0.059 A 
ATOM     93  F   UNL A   1      45.232  33.717  33.061  1.00  0.00    -0.206 F 
ATOM     94  C   UNL A   1      45.989  37.013  31.793  1.00  0.00     0.060 A 
BRANCH  94  95
ATOM     95  S   UNL A   1      46.611  38.604  32.378  1.00  0.00     0.124 S 
ATOM     96  O   UNL A   1      48.022  38.521  32.014  1.00  0.00    -0.237 OA
ATOM     97  O   UNL A   1      45.813  39.552  31.607  1.00  0.00    -0.237 OA
ATOM     98  O   UNL A   1      46.329  38.575  33.810  1.00  0.00    -0.744 OA
ENDBRANCH  94  95
ENDBRANCH  62  87
ENDBRANCH  36  37
ENDBRANCH  28  31
ENDBRANCH  26  27
ENDBRANCH  25  26
ENDBRANCH  24  25
ENDBRANCH  23  24
ENDBRANCH   1  23
TORSDOF 21
ENDMDL
MODEL 3
REMARK VINA RESULT:      -9.9      2.604      3.403
REMARK SMILES CC[C@@H](C)CN(C)c1cccc(Cl)c1/C=C/C(=O)NCCCCCCNC(=O)c1ccc(-c2c3nc(c(-c4c(F)cc(S(=O)(=O)[O-])cc4F)c4ccc([nH]4)c(-c4c(F)cc(S(=O)(=O)[O-])cc4F)c4nc(c(-c5c(F)cc(S(=O)(=O)[O-])cc5F)c5ccc2[nH]5)C=C4)C=C3)cc1
REMARK SMILES IDX 21 1 20 2 19 3 17 4 18 5 16 7 15 8 14 9 8 10 9 11 10 12
REMARK SMILES IDX 12 13 11 14 13 15 6 16 7 17 5 18 3 19 4 20 2 21 1 22 22 23
REMARK SMILES IDX 23 24 24 25 25 26 26 27 27 28 28 30 29 31 30 32 94 33 31 34
REMARK SMILES IDX 93 35 32 36 33 37 34 38 87 39 35 40 92 41 86 42 88 43 36 44
REMARK SMILES IDX 91 45 85 46 84 47 37 49 71 50 50 51 70 52 51 53 54 54 69 55
REMARK SMILES IDX 89 56 52 57 53 58 68 60 90 61 55 62 38 63 39 64 48 65 40 66
REMARK SMILES IDX 41 67 47 68 49 69 42 70 43 71 44 72 45 73 46 74 72 75 73 76
REMARK SMILES IDX 82 77 74 78 75 79 81 80 83 81 76 82 77 83 78 84 79 85 80 86
REMARK SMILES IDX 56 87 57 88 66 89 58 90 59 91 65 92 67 93 60 94 61 95 62 96
REMARK SMILES IDX 63 97 64 98
REMARK H PARENT 19 6 26 29 88 48 54 59
REMARK Flexibility Score: inf
ROOT
ATOM      1  C   UNL A   1      34.024  21.252  26.182  1.00  0.00     0.021 C 
ENDROOT
BRANCH   1   2
ATOM      2  C   UNL A   1      33.893  21.897  27.561  1.00  0.00     0.116 C 
BRANCH   2   3
ATOM      3  N   UNL A   1      32.508  22.217  27.854  1.00  0.00    -0.353 N 
ATOM      4  C   UNL A   1      31.640  23.014  27.174  1.00  0.00     0.244 C 
ATOM      5  O   UNL A   1      30.457  23.062  27.500  1.00  0.00    -0.270 OA
ATOM      6  H   UNL A   1      32.141  21.794  28.665  1.00  0.00     0.163 HD
BRANCH   4   7
ATOM      7  C   UNL A   1      32.113  23.799  26.015  1.00  0.00     0.072 C 
ATOM      8  C   UNL A   1      31.324  23.988  24.949  1.00  0.00     0.017 C 
BRANCH   8   9
ATOM      9  C   UNL A   1      31.728  24.619  23.683  1.00  0.00     0.017 A 
ATOM     10  C   UNL A   1      31.520  26.001  23.469  1.00  0.00     0.045 A 
ATOM     11  C   UNL A   1      32.173  26.602  22.381  1.00  0.00     0.026 A 
ATOM     12  C   UNL A   1      32.889  25.860  21.443  1.00  0.00     0.004 A 
ATOM     13  C   UNL A   1      32.450  23.871  22.725  1.00  0.00     0.050 A 
ATOM     14  C   UNL A   1      33.001  24.486  21.600  1.00  0.00     0.021 A 
ATOM     15  Cl  UNL A   1      32.696  22.163  22.882  1.00  0.00    -0.084 Cl
BRANCH  10  16
ATOM     16  N   UNL A   1      30.681  26.787  24.254  1.00  0.00    -0.374 N 
ATOM     17  C   UNL A   1      29.241  26.700  24.068  1.00  0.00     0.143 C 
BRANCH  16  18
ATOM     18  C   UNL A   1      31.264  27.886  25.038  1.00  0.00     0.119 C 
BRANCH  18  19
ATOM     19  C   UNL A   1      31.952  27.368  26.323  1.00  0.00     0.005 C 
ATOM     20  C   UNL A   1      31.461  28.146  27.550  1.00  0.00     0.009 C 
BRANCH  19  21
ATOM     21  C   UNL A   1      33.493  27.481  26.244  1.00  0.00     0.002 C 
ATOM     22  C   UNL A   1      33.947  28.345  25.074  1.00  0.00     0.004 C 
ENDBRANCH  19  21
ENDBRANCH  18  19
ENDBRANCH  16  18
ENDBRANCH  10  16
ENDBRANCH   8   9
ENDBRANCH   4   7
ENDBRANCH   2   3
ENDBRANCH   1   2
BRANCH   1  23
ATOM     23  C   UNL A   1      35.465  21.234  25.660  1.00  0.00     0.002 C 
BRANCH  23  24
ATOM     24  C   UNL A   1      35.764  22.286  24.585  1.00  0.00     0.002 C 
BRANCH  24  25
ATOM     25  C   UNL A   1      35.781  23.730  25.094  1.00  0.00     0.021 C 
BRANCH  25  26
ATOM     26  C   UNL A   1      36.956  24.038  26.013  1.00  0.00     0.116 C 
BRANCH  26  27
ATOM     27  N   UNL A   1      37.805  22.869  26.192  1.00  0.00    -0.352 N 
ATOM     28  C   UNL A   1      39.158  22.823  26.423  1.00  0.00     0.251 C 
ATOM     29  H   UNL A   1      37.350  21.998  26.142  1.00  0.00     0.163 HD
ATOM     30  O   UNL A   1      39.778  21.776  26.297  1.00  0.00    -0.269 OA
BRANCH  28  31
ATOM     31  C   UNL A   1      39.848  24.067  26.820  1.00  0.00     0.039 A 
ATOM     32  C   UNL A   1      40.177  25.011  25.845  1.00  0.00     0.014 A 
ATOM     33  C   UNL A   1      40.138  24.300  28.167  1.00  0.00     0.014 A 
ATOM     34  C   UNL A   1      40.750  26.224  26.233  1.00  0.00     0.010 A 
ATOM     35  C   UNL A   1      40.635  25.536  28.557  1.00  0.00     0.010 A 
ATOM     36  C   UNL A   1      40.953  26.507  27.594  1.00  0.00    -0.014 A 
BRANCH  36  37
ATOM     37  C   UNL A   1      41.514  27.801  28.054  1.00  0.00     0.031 A 
ATOM     38  C   UNL A   1      43.006  28.002  28.048  1.00  0.00     0.074 A 
ATOM     39  C   UNL A   1      40.699  28.745  28.563  1.00  0.00     0.049 A 
ATOM     40  N   UNL A   1      43.710  28.981  28.551  1.00  0.00    -0.248 NA
ATOM     41  C   UNL A   1      43.811  26.941  27.423  1.00  0.00     0.031 C 
ATOM     42  C   UNL A   1      39.240  28.650  28.646  1.00  0.00     0.029 A 
ATOM     43  N   UNL A   1      40.985  29.962  29.129  1.00  0.00    -0.354 N 
ATOM     44  C   UNL A   1      45.039  28.645  28.322  1.00  0.00     0.074 A 
ATOM     45  C   UNL A   1      45.044  27.347  27.685  1.00  0.00     0.031 C 
ATOM     46  C   UNL A   1      38.760  29.765  29.220  1.00  0.00     0.029 A 
ATOM     47  C   UNL A   1      39.875  30.631  29.590  1.00  0.00     0.049 A 
ATOM     48  H   UNL A   1      41.898  30.322  29.200  1.00  0.00     0.167 HD
ATOM     49  C   UNL A   1      46.152  29.364  28.602  1.00  0.00     0.037 A 
ATOM     50  C   UNL A   1      39.771  31.798  30.255  1.00  0.00     0.037 A 
ATOM     51  C   UNL A   1      46.131  30.664  29.220  1.00  0.00     0.049 A 
ATOM     52  C   UNL A   1      41.024  32.569  30.577  1.00  0.00     0.074 A 
ATOM     53  C   UNL A   1      47.196  31.497  29.506  1.00  0.00     0.029 A 
ATOM     54  N   UNL A   1      44.984  31.319  29.647  1.00  0.00    -0.354 N 
ATOM     55  N   UNL A   1      42.272  32.259  30.317  1.00  0.00    -0.248 NA
ATOM     56  C   UNL A   1      40.857  33.848  31.280  1.00  0.00     0.031 C 
ATOM     57  C   UNL A   1      46.701  32.632  30.155  1.00  0.00     0.029 A 
ATOM     58  C   UNL A   1      45.319  32.538  30.213  1.00  0.00     0.049 A 
ATOM     59  H   UNL A   1      44.067  30.969  29.561  1.00  0.00     0.167 HD
ATOM     60  C   UNL A   1      43.034  33.325  30.785  1.00  0.00     0.074 A 
ATOM     61  C   UNL A   1      42.108  34.285  31.346  1.00  0.00     0.031 C 
ATOM     62  C   UNL A   1      44.379  33.494  30.746  1.00  0.00     0.037 A 
BRANCH  49  63
ATOM     63  C   UNL A   1      47.482  28.759  28.245  1.00  0.00     0.058 A 
ATOM     64  C   UNL A   1      48.040  28.898  26.963  1.00  0.00     0.135 A 
ATOM     65  C   UNL A   1      48.225  28.051  29.204  1.00  0.00     0.135 A 
ATOM     66  F   UNL A   1      47.368  29.552  26.001  1.00  0.00    -0.206 F 
ATOM     67  C   UNL A   1      49.266  28.330  26.636  1.00  0.00     0.059 A 
ATOM     68  C   UNL A   1      49.469  27.502  28.908  1.00  0.00     0.059 A 
ATOM     69  F   UNL A   1      47.741  27.884  30.446  1.00  0.00    -0.206 F 
ATOM     70  C   UNL A   1      49.973  27.634  27.617  1.00  0.00     0.060 A 
BRANCH  70  71
ATOM     71  S   UNL A   1      51.564  26.903  27.174  1.00  0.00     0.124 S 
ATOM     72  O   UNL A   1      51.637  27.208  25.748  1.00  0.00    -0.237 OA
ATOM     73  O   UNL A   1      52.492  27.639  28.027  1.00  0.00    -0.237 OA
ATOM     74  O   UNL A   1      51.395  25.492  27.506  1.00  0.00    -0.744 OA
ENDBRANCH  70  71
ENDBRANCH  49  63
BRANCH  50  75
ATOM     75  C   UNL A   1      38.431  32.316  30.645  1.00  0.00     0.058 A 
ATOM     76  C   UNL A   1      37.916  32.084  31.929  1.00  0.00     0.135 A 
ATOM     77  C   UNL A   1      37.646  33.062  29.752  1.00  0.00     0.135 A 
ATOM     78  F   UNL A   1      38.626  31.371  32.817  1.00  0.00    -0.206 F 
ATOM     79  C   UNL A   1      36.666  32.558  32.310  1.00  0.00     0.059 A 
ATOM     80  C   UNL A   1      36.404  33.570  30.119  1.00  0.00     0.059 A 
ATOM     81  F   UNL A   1      38.098  33.326  28.516  1.00  0.00    -0.206 F 
ATOM     82  C   UNL A   1      35.917  33.304  31.398  1.00  0.00     0.060 A 
BRANCH  82  83
ATOM     83  S   UNL A   1      34.315  33.951  31.921  1.00  0.00     0.124 S 
ATOM     84  O   UNL A   1      33.696  32.767  32.506  1.00  0.00    -0.237 OA
ATOM     85  O   UNL A   1      34.700  35.000  32.857  1.00  0.00    -0.237 OA
ATOM     86  O   UNL A   1      33.719  34.421  30.673  1.00  0.00    -0.744 OA
ENDBRANCH  82  83
ENDBRANCH  50  75
BRANCH  62  87
ATOM     87  C   UNL A   1      44.937  34.790  31.266  1.00  0.00     0.058 A 
ATOM     88  C   UNL A   1      45.413  34.926  32.579  1.00  0.00     0.135 A 
ATOM     89  C   UNL A   1      45.071  35.891  30.403  1.00  0.00     0.135 A 
ATOM     90  F   UNL A   1      45.301  33.908  33.447  1.00  0.00    -0.206 F 
ATOM     91  C   UNL A   1      45.990  36.112  33.023  1.00  0.00     0.059 A 
ATOM     92  C   UNL A   1      45.673  37.075  30.816  1.00  0.00     0.059 A 
ATOM     93  F   UNL A   1      44.642  35.812  29.133  1.00  0.00    -0.206 F 
ATOM     94  C   UNL A   1      46.123  37.178  32.130  1.00  0.00     0.060 A 
BRANCH  94  95
ATOM     95  S   UNL A   1      46.930  38.688  32.703  1.00  0.00     0.124 S 
ATOM     96  O   UNL A   1      47.742  38.188  33.808  1.00  0.00    -0.237 OA
ATOM     97  O   UNL A   1      47.666  39.117  31.518  1.00  0.00    -0.237 OA
ATOM     98  O   UNL A   1      45.813  39.547  33.085  1.00  0.00    -0.744 OA
ENDBRANCH  94  95
ENDBRANCH  62  87
ENDBRANCH  36  37
ENDBRANCH  28  31
ENDBRANCH  26  27
ENDBRANCH  25  26
ENDBRANCH  24  25
ENDBRANCH  23  24
ENDBRANCH   1  23
TORSDOF 21
ENDMDL
