MODEL 1
REMARK VINA RESULT:     -10.4      0.000      0.000
REMARK SMILES Cc1ncccc1C(=O)NCCOCC(=O)NCCCCCCNC(=O)c1ccc(-c2c3nc(c(-c4c(F)cc(S(=O)(=O)[O-])cc4F)c4ccc([nH]4)c(-c4c(F)cc(S(=O)(=O)[O-])cc4F)c4nc(c(-c5c(F)cc(S(=O)(=O)[O-])cc5F)c5ccc2[nH]5)C=C4)C=C3)cc1
REMARK SMILES IDX 19 1 18 2 17 3 15 4 16 5 14 7 13 8 12 9 11 10 10 11 8 12
REMARK SMILES IDX 9 13 7 15 1 16 2 17 3 18 4 19 6 20 5 21 20 22 21 23 22 24
REMARK SMILES IDX 23 25 24 26 25 27 26 29 27 30 28 31 92 32 29 33 91 34 30 35
REMARK SMILES IDX 31 36 32 37 85 38 33 39 90 40 84 41 86 42 34 43 89 44 83 45
REMARK SMILES IDX 82 46 35 48 69 49 48 50 68 51 49 52 52 53 67 54 87 55 50 56
REMARK SMILES IDX 51 57 66 59 88 60 53 61 36 62 37 63 46 64 38 65 39 66 45 67
REMARK SMILES IDX 47 68 40 69 41 70 42 71 43 72 44 73 70 74 71 75 80 76 72 77
REMARK SMILES IDX 73 78 79 79 81 80 74 81 75 82 76 83 77 84 78 85 54 86 55 87
REMARK SMILES IDX 64 88 56 89 57 90 63 91 65 92 58 93 59 94 60 95 61 96 62 97
REMARK H PARENT 17 6 10 14 24 28 86 47 52 58
REMARK Flexibility Score: inf
ROOT
ATOM      1  C   UNL A   1      37.777  20.892  25.042  1.00  0.00     0.021 C 
ENDROOT
BRANCH   1   2
ATOM      2  C   UNL A   1      36.346  21.278  24.661  1.00  0.00     0.116 C 
BRANCH   2   3
ATOM      3  N   UNL A   1      35.761  22.208  25.607  1.00  0.00    -0.354 N 
ATOM      4  C   UNL A   1      34.730  23.080  25.401  1.00  0.00     0.245 C 
ATOM      5  O   UNL A   1      34.354  23.798  26.327  1.00  0.00    -0.272 OA
ATOM      6  H   UNL A   1      36.156  22.212  26.509  1.00  0.00     0.163 HD
BRANCH   4   7
ATOM      7  C   UNL A   1      34.090  23.151  24.006  1.00  0.00     0.260 C 
BRANCH   7   8
ATOM      8  O   UNL A   1      33.610  24.388  23.503  1.00  0.00    -0.370 OA
BRANCH   8   9
ATOM      9  C   UNL A   1      32.742  24.308  22.375  1.00  0.00     0.182 C 
BRANCH   9  10
ATOM     10  C   UNL A   1      32.808  25.510  21.440  1.00  0.00     0.144 C 
BRANCH  10  11
ATOM     11  N   UNL A   1      31.664  26.395  21.457  1.00  0.00    -0.350 N 
ATOM     12  C   UNL A   1      31.281  27.374  22.335  1.00  0.00     0.253 C 
ATOM     13  O   UNL A   1      30.305  28.063  22.032  1.00  0.00    -0.269 OA
ATOM     14  H   UNL A   1      31.047  26.269  20.700  1.00  0.00     0.163 HD
BRANCH  12  15
ATOM     15  C   UNL A   1      31.912  27.602  23.659  1.00  0.00     0.061 A 
ATOM     16  C   UNL A   1      34.067  28.773  22.900  1.00  0.00     0.067 C 
ATOM     17  C   UNL A   1      33.146  28.200  23.930  1.00  0.00     0.050 A 
ATOM     18  N   UNL A   1      33.609  28.364  25.205  1.00  0.00    -0.261 NA
ATOM     19  C   UNL A   1      32.805  28.015  26.232  1.00  0.00     0.111 A 
ATOM     20  C   UNL A   1      31.098  27.282  24.762  1.00  0.00     0.017 A 
ATOM     21  C   UNL A   1      31.540  27.497  26.062  1.00  0.00     0.021 A 
ENDBRANCH  12  15
ENDBRANCH  10  11
ENDBRANCH   9  10
ENDBRANCH   8   9
ENDBRANCH   7   8
ENDBRANCH   4   7
ENDBRANCH   2   3
ENDBRANCH   1   2
BRANCH   1  22
ATOM     22  C   UNL A   1      38.510  21.924  25.908  1.00  0.00     0.002 C 
BRANCH  22  23
ATOM     23  C   UNL A   1      39.988  21.619  26.166  1.00  0.00     0.002 C 
BRANCH  23  24
ATOM     24  C   UNL A   1      40.481  21.965  27.573  1.00  0.00     0.021 C 
BRANCH  24  25
ATOM     25  C   UNL A   1      41.562  23.037  27.617  1.00  0.00     0.116 C 
BRANCH  25  26
ATOM     26  N   UNL A   1      41.584  23.836  26.404  1.00  0.00    -0.352 N 
ATOM     27  C   UNL A   1      41.340  25.176  26.249  1.00  0.00     0.251 C 
ATOM     28  H   UNL A   1      41.804  23.348  25.578  1.00  0.00     0.163 HD
ATOM     29  O   UNL A   1      41.184  25.646  25.123  1.00  0.00    -0.269 OA
BRANCH  27  30
ATOM     30  C   UNL A   1      41.247  26.047  27.439  1.00  0.00     0.039 A 
ATOM     31  C   UNL A   1      42.254  26.985  27.674  1.00  0.00     0.014 A 
ATOM     32  C   UNL A   1      40.166  25.940  28.320  1.00  0.00     0.014 A 
ATOM     33  C   UNL A   1      42.148  27.853  28.763  1.00  0.00     0.010 A 
ATOM     34  C   UNL A   1      40.023  26.856  29.356  1.00  0.00     0.010 A 
ATOM     35  C   UNL A   1      41.015  27.818  29.595  1.00  0.00    -0.014 A 
BRANCH  35  36
ATOM     36  C   UNL A   1      40.853  28.779  30.716  1.00  0.00     0.031 A 
ATOM     37  C   UNL A   1      41.724  28.668  31.939  1.00  0.00     0.074 A 
ATOM     38  C   UNL A   1      39.885  29.714  30.657  1.00  0.00     0.049 A 
ATOM     39  N   UNL A   1      41.695  29.373  33.039  1.00  0.00    -0.248 NA
ATOM     40  C   UNL A   1      42.746  27.608  31.934  1.00  0.00     0.031 C 
ATOM     41  C   UNL A   1      38.947  29.891  29.545  1.00  0.00     0.029 A 
ATOM     42  N   UNL A   1      39.519  30.686  31.555  1.00  0.00    -0.354 N 
ATOM     43  C   UNL A   1      42.681  28.837  33.860  1.00  0.00     0.074 A 
ATOM     44  C   UNL A   1      43.253  27.713  33.153  1.00  0.00     0.031 C 
ATOM     45  C   UNL A   1      38.132  30.923  29.816  1.00  0.00     0.029 A 
ATOM     46  C   UNL A   1      38.458  31.454  31.136  1.00  0.00     0.049 A 
ATOM     47  H   UNL A   1      39.974  30.821  32.417  1.00  0.00     0.167 HD
ATOM     48  C   UNL A   1      43.089  29.260  35.081  1.00  0.00     0.037 A 
ATOM     49  C   UNL A   1      37.813  32.466  31.750  1.00  0.00     0.037 A 
ATOM     50  C   UNL A   1      42.527  30.393  35.769  1.00  0.00     0.049 A 
ATOM     51  C   UNL A   1      38.277  32.909  33.112  1.00  0.00     0.074 A 
ATOM     52  C   UNL A   1      42.907  30.937  36.983  1.00  0.00     0.029 A 
ATOM     53  N   UNL A   1      41.462  31.155  35.307  1.00  0.00    -0.354 N 
ATOM     54  N   UNL A   1      39.256  32.434  33.845  1.00  0.00    -0.248 NA
ATOM     55  C   UNL A   1      37.555  34.031  33.728  1.00  0.00     0.031 C 
ATOM     56  C   UNL A   1      42.038  31.992  37.282  1.00  0.00     0.029 A 
ATOM     57  C   UNL A   1      41.156  32.146  36.224  1.00  0.00     0.049 A 
ATOM     58  H   UNL A   1      40.994  31.011  34.454  1.00  0.00     0.167 HD
ATOM     59  C   UNL A   1      39.287  33.217  34.994  1.00  0.00     0.074 A 
ATOM     60  C   UNL A   1      38.236  34.204  34.853  1.00  0.00     0.031 C 
ATOM     61  C   UNL A   1      40.110  33.127  36.068  1.00  0.00     0.037 A 
BRANCH  48  62
ATOM     62  C   UNL A   1      44.198  28.495  35.752  1.00  0.00     0.058 A 
ATOM     63  C   UNL A   1      43.937  27.426  36.625  1.00  0.00     0.135 A 
ATOM     64  C   UNL A   1      45.543  28.808  35.488  1.00  0.00     0.135 A 
ATOM     65  F   UNL A   1      42.673  27.092  36.925  1.00  0.00    -0.206 F 
ATOM     66  C   UNL A   1      44.967  26.717  37.236  1.00  0.00     0.059 A 
ATOM     67  C   UNL A   1      46.588  28.091  36.064  1.00  0.00     0.059 A 
ATOM     68  F   UNL A   1      45.851  29.820  34.662  1.00  0.00    -0.206 F 
ATOM     69  C   UNL A   1      46.289  27.056  36.948  1.00  0.00     0.060 A 
BRANCH  69  70
ATOM     70  S   UNL A   1      47.611  26.120  37.745  1.00  0.00     0.124 S 
ATOM     71  O   UNL A   1      47.134  26.061  39.124  1.00  0.00    -0.237 OA
ATOM     72  O   UNL A   1      47.585  24.859  37.011  1.00  0.00    -0.237 OA
ATOM     73  O   UNL A   1      48.793  26.947  37.527  1.00  0.00    -0.744 OA
ENDBRANCH  69  70
ENDBRANCH  48  62
BRANCH  49  74
ATOM     74  C   UNL A   1      36.671  33.140  31.074  1.00  0.00     0.058 A 
ATOM     75  C   UNL A   1      35.350  32.903  31.480  1.00  0.00     0.135 A 
ATOM     76  C   UNL A   1      36.879  34.042  30.019  1.00  0.00     0.135 A 
ATOM     77  F   UNL A   1      35.098  32.045  32.479  1.00  0.00    -0.206 F 
ATOM     78  C   UNL A   1      34.272  33.521  30.852  1.00  0.00     0.059 A 
ATOM     79  C   UNL A   1      35.821  34.694  29.394  1.00  0.00     0.059 A 
ATOM     80  F   UNL A   1      38.125  34.317  29.604  1.00  0.00    -0.206 F 
ATOM     81  C   UNL A   1      34.519  34.418  29.811  1.00  0.00     0.060 A 
BRANCH  81  82
ATOM     82  S   UNL A   1      33.116  35.249  29.034  1.00  0.00     0.124 S 
ATOM     83  O   UNL A   1      32.262  35.518  30.183  1.00  0.00    -0.237 OA
ATOM     84  O   UNL A   1      33.750  36.411  28.421  1.00  0.00    -0.237 OA
ATOM     85  O   UNL A   1      32.614  34.250  28.094  1.00  0.00    -0.744 OA
ENDBRANCH  81  82
ENDBRANCH  49  74
BRANCH  61  86
ATOM     86  C   UNL A   1      39.938  34.146  37.161  1.00  0.00     0.058 A 
ATOM     87  C   UNL A   1      40.631  35.366  37.155  1.00  0.00     0.135 A 
ATOM     88  C   UNL A   1      39.023  33.919  38.203  1.00  0.00     0.135 A 
ATOM     89  F   UNL A   1      41.523  35.631  36.187  1.00  0.00    -0.206 F 
ATOM     90  C   UNL A   1      40.443  36.315  38.155  1.00  0.00     0.059 A 
ATOM     91  C   UNL A   1      38.795  34.867  39.196  1.00  0.00     0.059 A 
ATOM     92  F   UNL A   1      38.323  32.774  38.253  1.00  0.00    -0.206 F 
ATOM     93  C   UNL A   1      39.519  36.057  39.169  1.00  0.00     0.060 A 
BRANCH  93  94
ATOM     94  S   UNL A   1      39.259  37.312  40.440  1.00  0.00     0.124 S 
ATOM     95  O   UNL A   1      38.156  38.081  39.875  1.00  0.00    -0.237 OA
ATOM     96  O   UNL A   1      38.936  36.506  41.613  1.00  0.00    -0.237 OA
ATOM     97  O   UNL A   1      40.542  38.008  40.499  1.00  0.00    -0.744 OA
ENDBRANCH  93  94
ENDBRANCH  61  86
ENDBRANCH  35  36
ENDBRANCH  27  30
ENDBRANCH  25  26
ENDBRANCH  24  25
ENDBRANCH  23  24
ENDBRANCH  22  23
ENDBRANCH   1  22
TORSDOF 21
ENDMDL
MODEL 2
REMARK VINA RESULT:     -10.0      6.514     12.687
REMARK SMILES Cc1ncccc1C(=O)NCCOCC(=O)NCCCCCCNC(=O)c1ccc(-c2c3nc(c(-c4c(F)cc(S(=O)(=O)[O-])cc4F)c4ccc([nH]4)c(-c4c(F)cc(S(=O)(=O)[O-])cc4F)c4nc(c(-c5c(F)cc(S(=O)(=O)[O-])cc5F)c5ccc2[nH]5)C=C4)C=C3)cc1
REMARK SMILES IDX 19 1 18 2 17 3 15 4 16 5 14 7 13 8 12 9 11 10 10 11 8 12
REMARK SMILES IDX 9 13 7 15 1 16 2 17 3 18 4 19 6 20 5 21 20 22 21 23 22 24
REMARK SMILES IDX 23 25 24 26 25 27 26 29 27 30 28 31 92 32 29 33 91 34 30 35
REMARK SMILES IDX 31 36 32 37 85 38 33 39 90 40 84 41 86 42 34 43 89 44 83 45
REMARK SMILES IDX 82 46 35 48 69 49 48 50 68 51 49 52 52 53 67 54 87 55 50 56
REMARK SMILES IDX 51 57 66 59 88 60 53 61 36 62 37 63 46 64 38 65 39 66 45 67
REMARK SMILES IDX 47 68 40 69 41 70 42 71 43 72 44 73 70 74 71 75 80 76 72 77
REMARK SMILES IDX 73 78 79 79 81 80 74 81 75 82 76 83 77 84 78 85 54 86 55 87
REMARK SMILES IDX 64 88 56 89 57 90 63 91 65 92 58 93 59 94 60 95 61 96 62 97
REMARK H PARENT 17 6 10 14 24 28 86 47 52 58
REMARK Flexibility Score: inf
ROOT
ATOM      1  C   UNL A   1      34.165  35.821  32.828  1.00  0.00     0.021 C 
ENDROOT
BRANCH   1   2
ATOM      2  C   UNL A   1      33.487  34.796  31.915  1.00  0.00     0.116 C 
BRANCH   2   3
ATOM      3  N   UNL A   1      33.439  35.241  30.536  1.00  0.00    -0.354 N 
ATOM      4  C   UNL A   1      33.997  34.646  29.441  1.00  0.00     0.245 C 
ATOM      5  O   UNL A   1      33.850  35.163  28.333  1.00  0.00    -0.272 OA
ATOM      6  H   UNL A   1      32.943  36.075  30.369  1.00  0.00     0.163 HD
BRANCH   4   7
ATOM      7  C   UNL A   1      34.815  33.359  29.635  1.00  0.00     0.260 C 
BRANCH   7   8
ATOM      8  O   UNL A   1      34.329  32.123  29.133  1.00  0.00    -0.370 OA
BRANCH   8   9
ATOM      9  C   UNL A   1      35.011  31.601  27.997  1.00  0.00     0.182 C 
BRANCH   9  10
ATOM     10  C   UNL A   1      34.369  30.358  27.390  1.00  0.00     0.144 C 
BRANCH  10  11
ATOM     11  N   UNL A   1      33.168  30.575  26.614  1.00  0.00    -0.350 N 
ATOM     12  C   UNL A   1      32.452  29.749  25.790  1.00  0.00     0.253 C 
ATOM     13  O   UNL A   1      31.383  30.170  25.345  1.00  0.00    -0.269 OA
ATOM     14  H   UNL A   1      32.797  31.484  26.693  1.00  0.00     0.163 HD
BRANCH  12  15
ATOM     15  C   UNL A   1      32.920  28.416  25.333  1.00  0.00     0.061 A 
ATOM     16  C   UNL A   1      33.559  29.002  22.916  1.00  0.00     0.067 C 
ATOM     17  C   UNL A   1      33.394  28.061  24.067  1.00  0.00     0.050 A 
ATOM     18  N   UNL A   1      33.810  26.791  23.777  1.00  0.00    -0.261 NA
ATOM     19  C   UNL A   1      33.844  25.882  24.774  1.00  0.00     0.111 A 
ATOM     20  C   UNL A   1      33.002  27.442  26.345  1.00  0.00     0.017 A 
ATOM     21  C   UNL A   1      33.476  26.164  26.071  1.00  0.00     0.021 A 
ENDBRANCH  12  15
ENDBRANCH  10  11
ENDBRANCH   9  10
ENDBRANCH   8   9
ENDBRANCH   7   8
ENDBRANCH   4   7
ENDBRANCH   2   3
ENDBRANCH   1   2
BRANCH   1  22
ATOM     22  C   UNL A   1      35.394  35.295  33.578  1.00  0.00     0.002 C 
BRANCH  22  23
ATOM     23  C   UNL A   1      36.568  34.881  32.686  1.00  0.00     0.002 C 
BRANCH  23  24
ATOM     24  C   UNL A   1      37.535  33.878  33.319  1.00  0.00     0.021 C 
BRANCH  24  25
ATOM     25  C   UNL A   1      37.959  32.741  32.397  1.00  0.00     0.116 C 
BRANCH  25  26
ATOM     26  N   UNL A   1      36.899  31.764  32.218  1.00  0.00    -0.352 N 
ATOM     27  C   UNL A   1      36.895  30.628  31.451  1.00  0.00     0.251 C 
ATOM     28  H   UNL A   1      36.068  31.943  32.714  1.00  0.00     0.163 HD
ATOM     29  O   UNL A   1      35.838  30.033  31.239  1.00  0.00    -0.269 OA
BRANCH  27  30
ATOM     30  C   UNL A   1      38.158  30.133  30.867  1.00  0.00     0.039 A 
ATOM     31  C   UNL A   1      38.400  30.329  29.505  1.00  0.00     0.014 A 
ATOM     32  C   UNL A   1      39.104  29.479  31.661  1.00  0.00     0.014 A 
ATOM     33  C   UNL A   1      39.615  29.917  28.953  1.00  0.00     0.010 A 
ATOM     34  C   UNL A   1      40.344  29.142  31.128  1.00  0.00     0.010 A 
ATOM     35  C   UNL A   1      40.611  29.350  29.767  1.00  0.00    -0.014 A 
BRANCH  35  36
ATOM     36  C   UNL A   1      41.935  28.969  29.211  1.00  0.00     0.031 A 
ATOM     37  C   UNL A   1      43.026  29.998  29.086  1.00  0.00     0.074 A 
ATOM     38  C   UNL A   1      42.134  27.713  28.765  1.00  0.00     0.049 A 
ATOM     39  N   UNL A   1      44.223  29.873  28.574  1.00  0.00    -0.248 NA
ATOM     40  C   UNL A   1      42.724  31.352  29.578  1.00  0.00     0.031 C 
ATOM     41  C   UNL A   1      41.137  26.640  28.789  1.00  0.00     0.029 A 
ATOM     42  N   UNL A   1      43.236  27.127  28.195  1.00  0.00    -0.354 N 
ATOM     43  C   UNL A   1      44.810  31.130  28.671  1.00  0.00     0.074 A 
ATOM     44  C   UNL A   1      43.819  32.016  29.239  1.00  0.00     0.031 C 
ATOM     45  C   UNL A   1      41.680  25.521  28.282  1.00  0.00     0.029 A 
ATOM     46  C   UNL A   1      43.047  25.806  27.857  1.00  0.00     0.049 A 
ATOM     47  H   UNL A   1      44.082  27.605  28.044  1.00  0.00     0.167 HD
ATOM     48  C   UNL A   1      46.069  31.503  28.340  1.00  0.00     0.037 A 
ATOM     49  C   UNL A   1      43.878  24.928  27.263  1.00  0.00     0.037 A 
ATOM     50  C   UNL A   1      47.057  30.609  27.794  1.00  0.00     0.049 A 
ATOM     51  C   UNL A   1      45.268  25.371  26.892  1.00  0.00     0.074 A 
ATOM     52  C   UNL A   1      48.377  30.876  27.476  1.00  0.00     0.029 A 
ATOM     53  N   UNL A   1      46.833  29.276  27.477  1.00  0.00    -0.354 N 
ATOM     54  N   UNL A   1      45.830  26.546  27.053  1.00  0.00    -0.248 NA
ATOM     55  C   UNL A   1      46.142  24.368  26.267  1.00  0.00     0.031 C 
ATOM     56  C   UNL A   1      48.936  29.721  26.918  1.00  0.00     0.029 A 
ATOM     57  C   UNL A   1      47.982  28.716  26.945  1.00  0.00     0.049 A 
ATOM     58  H   UNL A   1      45.982  28.800  27.611  1.00  0.00     0.167 HD
ATOM     59  C   UNL A   1      47.130  26.416  26.577  1.00  0.00     0.074 A 
ATOM     60  C   UNL A   1      47.275  25.044  26.134  1.00  0.00     0.031 C 
ATOM     61  C   UNL A   1      48.114  27.346  26.513  1.00  0.00     0.037 A 
BRANCH  48  62
ATOM     62  C   UNL A   1      46.453  32.942  28.561  1.00  0.00     0.058 A 
ATOM     63  C   UNL A   1      46.376  33.895  27.531  1.00  0.00     0.135 A 
ATOM     64  C   UNL A   1      46.866  33.385  29.828  1.00  0.00     0.135 A 
ATOM     65  F   UNL A   1      46.003  33.527  26.296  1.00  0.00    -0.206 F 
ATOM     66  C   UNL A   1      46.725  35.226  27.743  1.00  0.00     0.059 A 
ATOM     67  C   UNL A   1      47.188  34.717  30.070  1.00  0.00     0.059 A 
ATOM     68  F   UNL A   1      46.959  32.518  30.850  1.00  0.00    -0.206 F 
ATOM     69  C   UNL A   1      47.127  35.627  29.016  1.00  0.00     0.060 A 
BRANCH  69  70
ATOM     70  S   UNL A   1      47.568  37.359  29.273  1.00  0.00     0.124 S 
ATOM     71  O   UNL A   1      47.663  37.842  27.898  1.00  0.00    -0.237 OA
ATOM     72  O   UNL A   1      46.433  37.858  30.043  1.00  0.00    -0.237 OA
ATOM     73  O   UNL A   1      48.833  37.285  29.999  1.00  0.00    -0.744 OA
ENDBRANCH  69  70
ENDBRANCH  48  62
BRANCH  49  74
ATOM     74  C   UNL A   1      43.423  23.536  26.996  1.00  0.00     0.058 A 
ATOM     75  C   UNL A   1      43.028  23.138  25.711  1.00  0.00     0.135 A 
ATOM     76  C   UNL A   1      43.384  22.574  28.018  1.00  0.00     0.135 A 
ATOM     77  F   UNL A   1      43.041  24.021  24.702  1.00  0.00    -0.206 F 
ATOM     78  C   UNL A   1      42.593  21.842  25.450  1.00  0.00     0.059 A 
ATOM     79  C   UNL A   1      42.981  21.265  27.777  1.00  0.00     0.059 A 
ATOM     80  F   UNL A   1      43.768  22.899  29.264  1.00  0.00    -0.206 F 
ATOM     81  C   UNL A   1      42.576  20.911  26.491  1.00  0.00     0.060 A 
BRANCH  81  82
ATOM     82  S   UNL A   1      42.054  19.220  26.131  1.00  0.00     0.124 S 
ATOM     83  O   UNL A   1      42.922  18.877  25.011  1.00  0.00    -0.237 OA
ATOM     84  O   UNL A   1      42.335  18.539  27.390  1.00  0.00    -0.237 OA
ATOM     85  O   UNL A   1      40.637  19.369  25.809  1.00  0.00    -0.744 OA
ENDBRANCH  81  82
ENDBRANCH  49  74
BRANCH  61  86
ATOM     86  C   UNL A   1      49.451  26.907  25.980  1.00  0.00     0.058 A 
ATOM     87  C   UNL A   1      49.815  27.100  24.639  1.00  0.00     0.135 A 
ATOM     88  C   UNL A   1      50.403  26.334  26.841  1.00  0.00     0.135 A 
ATOM     89  F   UNL A   1      48.942  27.637  23.772  1.00  0.00    -0.206 F 
ATOM     90  C   UNL A   1      51.066  26.717  24.162  1.00  0.00     0.059 A 
ATOM     91  C   UNL A   1      51.670  25.973  26.394  1.00  0.00     0.059 A 
ATOM     92  F   UNL A   1      50.112  26.136  28.137  1.00  0.00    -0.206 F 
ATOM     93  C   UNL A   1      51.987  26.158  25.050  1.00  0.00     0.060 A 
BRANCH  93  94
ATOM     94  S   UNL A   1      53.618  25.700  24.425  1.00  0.00     0.124 S 
ATOM     95  O   UNL A   1      53.676  24.283  24.765  1.00  0.00    -0.237 OA
ATOM     96  O   UNL A   1      53.505  26.008  23.003  1.00  0.00    -0.237 OA
ATOM     97  O   UNL A   1      54.525  26.562  25.178  1.00  0.00    -0.744 OA
ENDBRANCH  93  94
ENDBRANCH  61  86
ENDBRANCH  35  36
ENDBRANCH  27  30
ENDBRANCH  25  26
ENDBRANCH  24  25
ENDBRANCH  23  24
ENDBRANCH  22  23
ENDBRANCH   1  22
TORSDOF 21
ENDMDL
MODEL 3
REMARK VINA RESULT:      -9.7      1.486      2.117
REMARK SMILES Cc1ncccc1C(=O)NCCOCC(=O)NCCCCCCNC(=O)c1ccc(-c2c3nc(c(-c4c(F)cc(S(=O)(=O)[O-])cc4F)c4ccc([nH]4)c(-c4c(F)cc(S(=O)(=O)[O-])cc4F)c4nc(c(-c5c(F)cc(S(=O)(=O)[O-])cc5F)c5ccc2[nH]5)C=C4)C=C3)cc1
REMARK SMILES IDX 19 1 18 2 17 3 15 4 16 5 14 7 13 8 12 9 11 10 10 11 8 12
REMARK SMILES IDX 9 13 7 15 1 16 2 17 3 18 4 19 6 20 5 21 20 22 21 23 22 24
REMARK SMILES IDX 23 25 24 26 25 27 26 29 27 30 28 31 92 32 29 33 91 34 30 35
REMARK SMILES IDX 31 36 32 37 85 38 33 39 90 40 84 41 86 42 34 43 89 44 83 45
REMARK SMILES IDX 82 46 35 48 69 49 48 50 68 51 49 52 52 53 67 54 87 55 50 56
REMARK SMILES IDX 51 57 66 59 88 60 53 61 36 62 37 63 46 64 38 65 39 66 45 67
REMARK SMILES IDX 47 68 40 69 41 70 42 71 43 72 44 73 70 74 71 75 80 76 72 77
REMARK SMILES IDX 73 78 79 79 81 80 74 81 75 82 76 83 77 84 78 85 54 86 55 87
REMARK SMILES IDX 64 88 56 89 57 90 63 91 65 92 58 93 59 94 60 95 61 96 62 97
REMARK H PARENT 17 6 10 14 24 28 86 47 52 58
REMARK Flexibility Score: inf
ROOT
ATOM      1  C   UNL A   1      37.686  21.933  25.457  1.00  0.00     0.021 C 
ENDROOT
BRANCH   1   2
ATOM      2  C   UNL A   1      36.456  21.149  24.993  1.00  0.00     0.116 C 
BRANCH   2   3
ATOM      3  N   UNL A   1      35.471  21.005  26.045  1.00  0.00    -0.354 N 
ATOM      4  C   UNL A   1      34.178  21.447  26.054  1.00  0.00     0.245 C 
ATOM      5  O   UNL A   1      33.473  21.230  27.038  1.00  0.00    -0.272 OA
ATOM      6  H   UNL A   1      35.769  20.530  26.855  1.00  0.00     0.163 HD
BRANCH   4   7
ATOM      7  C   UNL A   1      33.656  22.227  24.836  1.00  0.00     0.260 C 
BRANCH   7   8
ATOM      8  O   UNL A   1      34.093  23.557  24.599  1.00  0.00    -0.370 OA
BRANCH   8   9
ATOM      9  C   UNL A   1      34.125  24.414  25.736  1.00  0.00     0.182 C 
BRANCH   9  10
ATOM     10  C   UNL A   1      33.831  25.879  25.433  1.00  0.00     0.144 C 
BRANCH  10  11
ATOM     11  N   UNL A   1      33.210  26.638  26.496  1.00  0.00    -0.350 N 
ATOM     12  C   UNL A   1      31.973  27.215  26.603  1.00  0.00     0.253 C 
ATOM     13  O   UNL A   1      31.662  27.706  27.690  1.00  0.00    -0.269 OA
ATOM     14  H   UNL A   1      33.782  26.764  27.288  1.00  0.00     0.163 HD
BRANCH  12  15
ATOM     15  C   UNL A   1      31.019  27.359  25.474  1.00  0.00     0.061 A 
ATOM     16  C   UNL A   1      31.978  29.476  24.383  1.00  0.00     0.067 C 
ATOM     17  C   UNL A   1      30.991  28.357  24.496  1.00  0.00     0.050 A 
ATOM     18  N   UNL A   1      30.060  28.368  23.495  1.00  0.00    -0.261 NA
ATOM     19  C   UNL A   1      29.201  27.331  23.405  1.00  0.00     0.111 A 
ATOM     20  C   UNL A   1      30.121  26.286  25.322  1.00  0.00     0.017 A 
ATOM     21  C   UNL A   1      29.208  26.262  24.274  1.00  0.00     0.021 A 
ENDBRANCH  12  15
ENDBRANCH  10  11
ENDBRANCH   9  10
ENDBRANCH   8   9
ENDBRANCH   7   8
ENDBRANCH   4   7
ENDBRANCH   2   3
ENDBRANCH   1   2
BRANCH   1  22
ATOM     22  C   UNL A   1      37.500  23.454  25.489  1.00  0.00     0.002 C 
BRANCH  22  23
ATOM     23  C   UNL A   1      38.156  24.161  26.678  1.00  0.00     0.002 C 
BRANCH  23  24
ATOM     24  C   UNL A   1      39.682  24.061  26.727  1.00  0.00     0.021 C 
BRANCH  24  25
ATOM     25  C   UNL A   1      40.412  25.116  25.905  1.00  0.00     0.116 C 
BRANCH  25  26
ATOM     26  N   UNL A   1      41.816  24.789  25.728  1.00  0.00    -0.352 N 
ATOM     27  C   UNL A   1      42.914  25.351  26.328  1.00  0.00     0.251 C 
ATOM     28  H   UNL A   1      42.007  24.066  25.088  1.00  0.00     0.163 HD
ATOM     29  O   UNL A   1      44.041  25.107  25.899  1.00  0.00    -0.269 OA
BRANCH  27  30
ATOM     30  C   UNL A   1      42.736  26.262  27.477  1.00  0.00     0.039 A 
ATOM     31  C   UNL A   1      43.136  27.595  27.356  1.00  0.00     0.014 A 
ATOM     32  C   UNL A   1      42.170  25.804  28.671  1.00  0.00     0.014 A 
ATOM     33  C   UNL A   1      42.920  28.480  28.415  1.00  0.00     0.010 A 
ATOM     34  C   UNL A   1      41.884  26.703  29.693  1.00  0.00     0.010 A 
ATOM     35  C   UNL A   1      42.261  28.049  29.580  1.00  0.00    -0.014 A 
BRANCH  35  36
ATOM     36  C   UNL A   1      41.961  28.993  30.687  1.00  0.00     0.031 A 
ATOM     37  C   UNL A   1      42.809  28.993  31.931  1.00  0.00     0.074 A 
ATOM     38  C   UNL A   1      40.892  29.808  30.597  1.00  0.00     0.049 A 
ATOM     39  N   UNL A   1      42.671  29.698  33.024  1.00  0.00    -0.248 NA
ATOM     40  C   UNL A   1      43.948  28.060  31.960  1.00  0.00     0.031 C 
ATOM     41  C   UNL A   1      39.967  29.865  29.462  1.00  0.00     0.029 A 
ATOM     42  N   UNL A   1      40.393  30.736  31.476  1.00  0.00    -0.354 N 
ATOM     43  C   UNL A   1      43.693  29.287  33.873  1.00  0.00     0.074 A 
ATOM     44  C   UNL A   1      44.409  28.232  33.190  1.00  0.00     0.031 C 
ATOM     45  C   UNL A   1      39.031  30.797  29.703  1.00  0.00     0.029 A 
ATOM     46  C   UNL A   1      39.260  31.372  31.025  1.00  0.00     0.049 A 
ATOM     47  H   UNL A   1      40.809  30.929  32.347  1.00  0.00     0.167 HD
ATOM     48  C   UNL A   1      44.019  29.763  35.098  1.00  0.00     0.037 A 
ATOM     49  C   UNL A   1      38.487  32.305  31.614  1.00  0.00     0.037 A 
ATOM     50  C   UNL A   1      43.312  30.828  35.761  1.00  0.00     0.049 A 
ATOM     51  C   UNL A   1      38.863  32.809  32.982  1.00  0.00     0.074 A 
ATOM     52  C   UNL A   1      43.596  31.421  36.979  1.00  0.00     0.029 A 
ATOM     53  N   UNL A   1      42.177  31.456  35.267  1.00  0.00    -0.354 N 
ATOM     54  N   UNL A   1      39.873  32.458  33.742  1.00  0.00    -0.248 NA
ATOM     55  C   UNL A   1      38.000  33.844  33.570  1.00  0.00     0.031 C 
ATOM     56  C   UNL A   1      42.603  32.369  37.246  1.00  0.00     0.029 A 
ATOM     57  C   UNL A   1      41.734  32.411  36.167  1.00  0.00     0.049 A 
ATOM     58  H   UNL A   1      41.749  31.252  34.405  1.00  0.00     0.167 HD
ATOM     59  C   UNL A   1      39.784  33.247  34.883  1.00  0.00     0.074 A 
ATOM     60  C   UNL A   1      38.628  34.103  34.708  1.00  0.00     0.031 C 
ATOM     61  C   UNL A   1      40.586  33.262  35.977  1.00  0.00     0.037 A 
BRANCH  48  62
ATOM     62  C   UNL A   1      45.194  29.138  35.802  1.00  0.00     0.058 A 
ATOM     63  C   UNL A   1      46.501  29.622  35.632  1.00  0.00     0.135 A 
ATOM     64  C   UNL A   1      45.006  28.066  36.691  1.00  0.00     0.135 A 
ATOM     65  F   UNL A   1      46.743  30.635  34.785  1.00  0.00    -0.206 F 
ATOM     66  C   UNL A   1      47.583  29.046  36.292  1.00  0.00     0.059 A 
ATOM     67  C   UNL A   1      46.069  27.496  37.385  1.00  0.00     0.059 A 
ATOM     68  F   UNL A   1      43.778  27.562  36.891  1.00  0.00    -0.206 F 
ATOM     69  C   UNL A   1      47.356  27.985  37.168  1.00  0.00     0.060 A 
BRANCH  69  70
ATOM     70  S   UNL A   1      48.770  27.255  38.021  1.00  0.00     0.124 S 
ATOM     71  O   UNL A   1      49.887  27.903  37.338  1.00  0.00    -0.237 OA
ATOM     72  O   UNL A   1      48.547  27.668  39.402  1.00  0.00    -0.237 OA
ATOM     73  O   UNL A   1      48.623  25.826  37.763  1.00  0.00    -0.744 OA
ENDBRANCH  69  70
ENDBRANCH  48  62
BRANCH  49  74
ATOM     74  C   UNL A   1      37.291  32.836  30.905  1.00  0.00     0.058 A 
ATOM     75  C   UNL A   1      36.004  32.371  31.211  1.00  0.00     0.135 A 
ATOM     76  C   UNL A   1      37.409  33.826  29.917  1.00  0.00     0.135 A 
ATOM     77  F   UNL A   1      35.838  31.422  32.144  1.00  0.00    -0.206 F 
ATOM     78  C   UNL A   1      34.878  32.854  30.551  1.00  0.00     0.059 A 
ATOM     79  C   UNL A   1      36.297  34.345  29.262  1.00  0.00     0.059 A 
ATOM     80  F   UNL A   1      38.617  34.318  29.597  1.00  0.00    -0.206 F 
ATOM     81  C   UNL A   1      35.035  33.844  29.579  1.00  0.00     0.060 A 
BRANCH  81  82
ATOM     82  S   UNL A   1      33.562  34.495  28.761  1.00  0.00     0.124 S 
ATOM     83  O   UNL A   1      34.112  35.627  28.026  1.00  0.00    -0.237 OA
ATOM     84  O   UNL A   1      33.132  33.357  27.955  1.00  0.00    -0.237 OA
ATOM     85  O   UNL A   1      32.682  34.832  29.876  1.00  0.00    -0.744 OA
ENDBRANCH  81  82
ENDBRANCH  49  74
BRANCH  61  86
ATOM     86  C   UNL A   1      40.269  34.262  37.056  1.00  0.00     0.058 A 
ATOM     87  C   UNL A   1      40.673  35.602  36.967  1.00  0.00     0.135 A 
ATOM     88  C   UNL A   1      39.502  33.882  38.170  1.00  0.00     0.135 A 
ATOM     89  F   UNL A   1      41.414  36.018  35.927  1.00  0.00    -0.206 F 
ATOM     90  C   UNL A   1      40.350  36.527  37.956  1.00  0.00     0.059 A 
ATOM     91  C   UNL A   1      39.140  34.796  39.154  1.00  0.00     0.059 A 
ATOM     92  F   UNL A   1      39.079  32.614  38.301  1.00  0.00    -0.206 F 
ATOM     93  C   UNL A   1      39.579  36.114  39.044  1.00  0.00     0.060 A 
BRANCH  93  94
ATOM     94  S   UNL A   1      39.137  37.332  40.301  1.00  0.00     0.124 S 
ATOM     95  O   UNL A   1      38.363  38.292  39.523  1.00  0.00    -0.237 OA
ATOM     96  O   UNL A   1      38.379  36.532  41.258  1.00  0.00    -0.237 OA
ATOM     97  O   UNL A   1      40.431  37.812  40.779  1.00  0.00    -0.744 OA
ENDBRANCH  93  94
ENDBRANCH  61  86
ENDBRANCH  35  36
ENDBRANCH  27  30
ENDBRANCH  25  26
ENDBRANCH  24  25
ENDBRANCH  23  24
ENDBRANCH  22  23
ENDBRANCH   1  22
TORSDOF 21
ENDMDL
