MODEL 1
REMARK VINA RESULT:     -11.7      0.000      0.000
REMARK SMILES C[C@]1(C(=O)NCCCCCCNC(=O)c2ccc(-c3c4nc(c(-c5c(F)cc(S(=O)(=O)[O-])cc5F)c5ccc([nH]5)c(-c5c(F)cc(S(=O)(=O)[O-])cc5F)c5nc(c(-c6c(F)cc(S(=O)(=O)[O-])cc6F)c6ccc3[nH]6)C=C5)C=C4)cc2)COC[C@@H]1NC(=O)[C@H]1C=C[C@@H]([NH3+])C1
REMARK SMILES IDX 8 1 7 2 6 3 5 4 3 5 4 6 2 8 1 9 81 10 84 11 82 12 83 13
REMARK SMILES IDX 85 14 86 15 87 17 88 18 89 19 93 20 90 21 91 22 92 23 9 27
REMARK SMILES IDX 10 28 11 29 12 30 13 31 14 33 15 34 16 35 80 36 17 37 79 38
REMARK SMILES IDX 18 39 19 40 20 41 73 42 21 43 78 44 72 45 74 46 22 47 77 48
REMARK SMILES IDX 71 49 70 50 23 52 57 53 36 54 56 55 37 56 40 57 55 58 75 59
REMARK SMILES IDX 38 60 39 61 54 63 76 64 41 65 24 66 25 67 34 68 26 69 27 70
REMARK SMILES IDX 33 71 35 72 28 73 29 74 30 75 31 76 32 77 58 78 59 79 68 80
REMARK SMILES IDX 60 81 61 82 67 83 69 84 62 85 63 86 64 87 65 88 66 89 42 90
REMARK SMILES IDX 43 91 52 92 44 93 45 94 51 95 53 96 46 97 47 98 48 99 49 100
REMARK SMILES IDX 50 101
REMARK H PARENT 5 7 85 16 92 24 92 25 92 26 12 32 74 51 40 62
REMARK Flexibility Score: inf
ROOT
ATOM      1  C   UNL A   1      37.903  23.278  25.761  1.00  0.00     0.002 C 
ENDROOT
BRANCH   1   2
ATOM      2  C   UNL A   1      37.470  21.888  25.285  1.00  0.00     0.021 C 
BRANCH   2   3
ATOM      3  C   UNL A   1      35.951  21.706  25.189  1.00  0.00     0.116 C 
BRANCH   3   4
ATOM      4  N   UNL A   1      35.259  21.647  26.479  1.00  0.00    -0.355 N 
ATOM      5  C   UNL A   1      34.068  22.179  26.915  1.00  0.00     0.230 C 
ATOM      6  O   UNL A   1      33.658  21.824  28.021  1.00  0.00    -0.274 OA
ATOM      7  H   UNL A   1      35.739  21.129  27.166  1.00  0.00     0.163 HD
BRANCH   5   8
ATOM      8  C   UNL A   1      33.320  23.209  26.049  1.00  0.00     0.092 C 
ATOM      9  C   UNL A   1      34.307  24.373  25.897  1.00  0.00     0.026 C 
ATOM     10  C   UNL A   1      32.893  22.437  24.786  1.00  0.00     0.179 C 
ATOM     11  C   UNL A   1      31.962  23.647  26.647  1.00  0.00     0.125 C 
ATOM     12  O   UNL A   1      31.470  22.480  24.637  1.00  0.00    -0.378 OA
ATOM     13  C   UNL A   1      30.895  22.888  25.870  1.00  0.00     0.186 C 
BRANCH  11  14
ATOM     14  N   UNL A   1      31.620  25.086  26.806  1.00  0.00    -0.349 N 
ATOM     15  C   UNL A   1      31.176  26.166  26.131  1.00  0.00     0.227 C 
ATOM     16  H   UNL A   1      31.776  25.343  27.743  1.00  0.00     0.163 HD
ATOM     17  O   UNL A   1      30.923  27.127  26.882  1.00  0.00    -0.274 OA
BRANCH  15  18
ATOM     18  C   UNL A   1      31.055  26.416  24.619  1.00  0.00     0.107 C 
ATOM     19  C   UNL A   1      29.626  26.703  24.236  1.00  0.00    -0.012 C 
ATOM     20  C   UNL A   1      31.814  27.516  23.899  1.00  0.00     0.087 C 
ATOM     21  C   UNL A   1      29.543  27.586  23.233  1.00  0.00     0.033 C 
ATOM     22  C   UNL A   1      30.896  28.008  22.766  1.00  0.00     0.205 C 
BRANCH  22  23
ATOM     23  N   UNL A   1      30.986  29.443  22.555  1.00  0.00    -0.352 N 
ATOM     24  H   UNL A   1      31.730  29.826  23.138  1.00  0.00     0.345 HD
ATOM     25  H   UNL A   1      30.099  29.879  22.805  1.00  0.00     0.345 HD
ATOM     26  H   UNL A   1      31.192  29.630  21.574  1.00  0.00     0.345 HD
ENDBRANCH  22  23
ENDBRANCH  15  18
ENDBRANCH  11  14
ENDBRANCH   5   8
ENDBRANCH   3   4
ENDBRANCH   2   3
ENDBRANCH   1   2
BRANCH   1  27
ATOM     27  C   UNL A   1      38.894  23.308  26.930  1.00  0.00     0.002 C 
BRANCH  27  28
ATOM     28  C   UNL A   1      40.130  22.414  26.791  1.00  0.00     0.021 C 
BRANCH  28  29
ATOM     29  C   UNL A   1      41.471  23.089  27.090  1.00  0.00     0.116 C 
BRANCH  29  30
ATOM     30  N   UNL A   1      41.838  24.051  26.066  1.00  0.00    -0.352 N 
ATOM     31  C   UNL A   1      41.799  25.420  26.055  1.00  0.00     0.251 C 
ATOM     32  H   UNL A   1      42.174  23.649  25.233  1.00  0.00     0.163 HD
ATOM     33  O   UNL A   1      41.900  26.001  24.975  1.00  0.00    -0.269 OA
BRANCH  31  34
ATOM     34  C   UNL A   1      41.663  26.211  27.300  1.00  0.00     0.039 A 
ATOM     35  C   UNL A   1      40.493  26.065  28.056  1.00  0.00     0.014 A 
ATOM     36  C   UNL A   1      42.604  27.178  27.666  1.00  0.00     0.014 A 
ATOM     37  C   UNL A   1      40.272  26.879  29.170  1.00  0.00     0.010 A 
ATOM     38  C   UNL A   1      42.413  27.944  28.817  1.00  0.00     0.010 A 
ATOM     39  C   UNL A   1      41.230  27.826  29.561  1.00  0.00    -0.014 A 
BRANCH  39  40
ATOM     40  C   UNL A   1      40.969  28.746  30.699  1.00  0.00     0.031 A 
ATOM     41  C   UNL A   1      41.804  28.652  31.949  1.00  0.00     0.074 A 
ATOM     42  C   UNL A   1      39.974  29.648  30.616  1.00  0.00     0.049 A 
ATOM     43  N   UNL A   1      41.725  29.353  33.051  1.00  0.00    -0.248 NA
ATOM     44  C   UNL A   1      42.850  27.616  31.975  1.00  0.00     0.031 C 
ATOM     45  C   UNL A   1      39.067  29.807  29.476  1.00  0.00     0.029 A 
ATOM     46  N   UNL A   1      39.556  30.605  31.506  1.00  0.00    -0.354 N 
ATOM     47  C   UNL A   1      42.694  28.834  33.904  1.00  0.00     0.074 A 
ATOM     48  C   UNL A   1      43.314  27.726  33.211  1.00  0.00     0.031 C 
ATOM     49  C   UNL A   1      38.216  30.815  29.728  1.00  0.00     0.029 A 
ATOM     50  C   UNL A   1      38.503  31.361  31.052  1.00  0.00     0.049 A 
ATOM     51  H   UNL A   1      39.972  30.736  32.390  1.00  0.00     0.167 HD
ATOM     52  C   UNL A   1      43.053  29.257  35.141  1.00  0.00     0.037 A 
ATOM     53  C   UNL A   1      37.849  32.386  31.633  1.00  0.00     0.037 A 
ATOM     54  C   UNL A   1      42.457  30.383  35.811  1.00  0.00     0.049 A 
ATOM     55  C   UNL A   1      38.298  32.870  32.984  1.00  0.00     0.074 A 
ATOM     56  C   UNL A   1      42.775  30.919  37.047  1.00  0.00     0.029 A 
ATOM     57  N   UNL A   1      41.427  31.155  35.294  1.00  0.00    -0.354 N 
ATOM     58  N   UNL A   1      39.248  32.397  33.756  1.00  0.00    -0.248 NA
ATOM     59  C   UNL A   1      37.600  34.039  33.536  1.00  0.00     0.031 C 
ATOM     60  C   UNL A   1      41.921  32.002  37.288  1.00  0.00     0.029 A 
ATOM     61  C   UNL A   1      41.097  32.162  36.184  1.00  0.00     0.049 A 
ATOM     62  H   UNL A   1      40.993  31.007  34.423  1.00  0.00     0.167 HD
ATOM     63  C   UNL A   1      39.285  33.230  34.868  1.00  0.00     0.074 A 
ATOM     64  C   UNL A   1      38.266  34.241  34.664  1.00  0.00     0.031 C 
ATOM     65  C   UNL A   1      40.090  33.169  35.957  1.00  0.00     0.037 A 
BRANCH  52  66
ATOM     66  C   UNL A   1      44.146  28.499  35.843  1.00  0.00     0.058 A 
ATOM     67  C   UNL A   1      45.501  28.817  35.653  1.00  0.00     0.135 A 
ATOM     68  C   UNL A   1      43.839  27.453  36.729  1.00  0.00     0.135 A 
ATOM     69  F   UNL A   1      45.852  29.797  34.805  1.00  0.00    -0.206 F 
ATOM     70  C   UNL A   1      46.513  28.104  36.287  1.00  0.00     0.059 A 
ATOM     71  C   UNL A   1      44.835  26.744  37.395  1.00  0.00     0.059 A 
ATOM     72  F   UNL A   1      42.561  27.108  36.949  1.00  0.00    -0.206 F 
ATOM     73  C   UNL A   1      46.171  27.064  37.153  1.00  0.00     0.060 A 
BRANCH  73  74
ATOM     74  S   UNL A   1      47.491  26.139  37.964  1.00  0.00     0.124 S 
ATOM     75  O   UNL A   1      46.736  25.346  38.931  1.00  0.00    -0.237 OA
ATOM     76  O   UNL A   1      48.075  25.388  36.853  1.00  0.00    -0.237 OA
ATOM     77  O   UNL A   1      48.339  27.179  38.528  1.00  0.00    -0.744 OA
ENDBRANCH  73  74
ENDBRANCH  52  66
BRANCH  53  78
ATOM     78  C   UNL A   1      36.735  33.056  30.912  1.00  0.00     0.058 A 
ATOM     79  C   UNL A   1      35.406  32.886  31.326  1.00  0.00     0.135 A 
ATOM     80  C   UNL A   1      36.976  33.890  29.811  1.00  0.00     0.135 A 
ATOM     81  F   UNL A   1      35.125  32.096  32.374  1.00  0.00    -0.206 F 
ATOM     82  C   UNL A   1      34.351  33.506  30.664  1.00  0.00     0.059 A 
ATOM     83  C   UNL A   1      35.940  34.538  29.145  1.00  0.00     0.059 A 
ATOM     84  F   UNL A   1      38.233  34.099  29.388  1.00  0.00    -0.206 F 
ATOM     85  C   UNL A   1      34.629  34.331  29.574  1.00  0.00     0.060 A 
BRANCH  85  86
ATOM     86  S   UNL A   1      33.259  35.172  28.750  1.00  0.00     0.124 S 
ATOM     87  O   UNL A   1      32.473  35.635  29.887  1.00  0.00    -0.237 OA
ATOM     88  O   UNL A   1      33.947  36.207  27.985  1.00  0.00    -0.237 OA
ATOM     89  O   UNL A   1      32.651  34.114  27.949  1.00  0.00    -0.744 OA
ENDBRANCH  85  86
ENDBRANCH  53  78
BRANCH  65  90
ATOM     90  C   UNL A   1      39.937  34.251  36.987  1.00  0.00     0.058 A 
ATOM     91  C   UNL A   1      40.596  35.484  36.868  1.00  0.00     0.135 A 
ATOM     92  C   UNL A   1      39.095  34.059  38.094  1.00  0.00     0.135 A 
ATOM     93  F   UNL A   1      41.415  35.715  35.830  1.00  0.00    -0.206 F 
ATOM     94  C   UNL A   1      40.454  36.478  37.830  1.00  0.00     0.059 A 
ATOM     95  C   UNL A   1      38.917  35.049  39.055  1.00  0.00     0.059 A 
ATOM     96  F   UNL A   1      38.432  32.902  38.247  1.00  0.00    -0.206 F 
ATOM     97  C   UNL A   1      39.614  36.249  38.923  1.00  0.00     0.060 A 
BRANCH  97  98
ATOM     98  S   UNL A   1      39.427  37.548  40.163  1.00  0.00     0.124 S 
ATOM     99  O   UNL A   1      40.768  38.119  40.195  1.00  0.00    -0.237 OA
ATOM    100  O   UNL A   1      38.391  38.395  39.578  1.00  0.00    -0.237 OA
ATOM    101  O   UNL A   1      39.025  36.816  41.361  1.00  0.00    -0.744 OA
ENDBRANCH  97  98
ENDBRANCH  65  90
ENDBRANCH  39  40
ENDBRANCH  31  34
ENDBRANCH  29  30
ENDBRANCH  28  29
ENDBRANCH  27  28
ENDBRANCH   1  27
TORSDOF 19
ENDMDL
MODEL 2
REMARK VINA RESULT:     -11.6      6.545     12.098
REMARK SMILES C[C@]1(C(=O)NCCCCCCNC(=O)c2ccc(-c3c4nc(c(-c5c(F)cc(S(=O)(=O)[O-])cc5F)c5ccc([nH]5)c(-c5c(F)cc(S(=O)(=O)[O-])cc5F)c5nc(c(-c6c(F)cc(S(=O)(=O)[O-])cc6F)c6ccc3[nH]6)C=C5)C=C4)cc2)COC[C@@H]1NC(=O)[C@H]1C=C[C@@H]([NH3+])C1
REMARK SMILES IDX 8 1 7 2 6 3 5 4 3 5 4 6 2 8 1 9 81 10 84 11 82 12 83 13
REMARK SMILES IDX 85 14 86 15 87 17 88 18 89 19 93 20 90 21 91 22 92 23 9 27
REMARK SMILES IDX 10 28 11 29 12 30 13 31 14 33 15 34 16 35 80 36 17 37 79 38
REMARK SMILES IDX 18 39 19 40 20 41 73 42 21 43 78 44 72 45 74 46 22 47 77 48
REMARK SMILES IDX 71 49 70 50 23 52 57 53 36 54 56 55 37 56 40 57 55 58 75 59
REMARK SMILES IDX 38 60 39 61 54 63 76 64 41 65 24 66 25 67 34 68 26 69 27 70
REMARK SMILES IDX 33 71 35 72 28 73 29 74 30 75 31 76 32 77 58 78 59 79 68 80
REMARK SMILES IDX 60 81 61 82 67 83 69 84 62 85 63 86 64 87 65 88 66 89 42 90
REMARK SMILES IDX 43 91 52 92 44 93 45 94 51 95 53 96 46 97 47 98 48 99 49 100
REMARK SMILES IDX 50 101
REMARK H PARENT 5 7 85 16 92 24 92 25 92 26 12 32 74 51 40 62
REMARK Flexibility Score: inf
ROOT
ATOM      1  C   UNL A   1      33.118  28.465  27.118  1.00  0.00     0.002 C 
ENDROOT
BRANCH   1   2
ATOM      2  C   UNL A   1      31.644  28.051  27.073  1.00  0.00     0.021 C 
BRANCH   2   3
ATOM      3  C   UNL A   1      31.341  26.929  26.073  1.00  0.00     0.116 C 
BRANCH   3   4
ATOM      4  N   UNL A   1      30.368  25.939  26.542  1.00  0.00    -0.355 N 
ATOM      5  C   UNL A   1      30.400  24.565  26.600  1.00  0.00     0.230 C 
ATOM      6  O   UNL A   1      29.486  24.000  27.201  1.00  0.00    -0.274 OA
ATOM      7  H   UNL A   1      29.530  26.332  26.879  1.00  0.00     0.163 HD
BRANCH   5   8
ATOM      8  C   UNL A   1      31.527  23.789  25.894  1.00  0.00     0.092 C 
ATOM      9  C   UNL A   1      31.054  23.661  24.441  1.00  0.00     0.026 C 
ATOM     10  C   UNL A   1      32.809  24.594  26.181  1.00  0.00     0.179 C 
ATOM     11  C   UNL A   1      31.838  22.422  26.548  1.00  0.00     0.125 C 
ATOM     12  O   UNL A   1      33.768  23.774  26.859  1.00  0.00    -0.378 OA
ATOM     13  C   UNL A   1      33.104  22.626  27.370  1.00  0.00     0.186 C 
BRANCH  11  14
ATOM     14  N   UNL A   1      31.893  21.177  25.737  1.00  0.00    -0.349 N 
ATOM     15  C   UNL A   1      32.730  20.392  25.027  1.00  0.00     0.227 C 
ATOM     16  H   UNL A   1      30.990  20.784  25.705  1.00  0.00     0.163 HD
ATOM     17  O   UNL A   1      32.198  19.322  24.676  1.00  0.00    -0.274 OA
BRANCH  15  18
ATOM     18  C   UNL A   1      34.150  20.664  24.506  1.00  0.00     0.107 C 
ATOM     19  C   UNL A   1      34.238  22.030  23.875  1.00  0.00    -0.012 C 
ATOM     20  C   UNL A   1      35.377  20.637  25.399  1.00  0.00     0.087 C 
ATOM     21  C   UNL A   1      35.431  22.601  24.077  1.00  0.00     0.033 C 
ATOM     22  C   UNL A   1      36.341  21.702  24.845  1.00  0.00     0.205 C 
BRANCH  22  23
ATOM     23  N   UNL A   1      37.059  22.407  25.894  1.00  0.00    -0.352 N 
ATOM     24  H   UNL A   1      37.359  21.743  26.607  1.00  0.00     0.345 HD
ATOM     25  H   UNL A   1      36.446  23.105  26.315  1.00  0.00     0.345 HD
ATOM     26  H   UNL A   1      37.876  22.870  25.494  1.00  0.00     0.345 HD
ENDBRANCH  22  23
ENDBRANCH  15  18
ENDBRANCH  11  14
ENDBRANCH   5   8
ENDBRANCH   3   4
ENDBRANCH   2   3
ENDBRANCH   1   2
BRANCH   1  27
ATOM     27  C   UNL A   1      33.440  29.864  26.580  1.00  0.00     0.002 C 
BRANCH  27  28
ATOM     28  C   UNL A   1      34.101  30.831  27.566  1.00  0.00     0.021 C 
BRANCH  28  29
ATOM     29  C   UNL A   1      35.453  30.384  28.125  1.00  0.00     0.116 C 
BRANCH  29  30
ATOM     30  N   UNL A   1      35.510  30.496  29.572  1.00  0.00    -0.352 N 
ATOM     31  C   UNL A   1      36.499  30.182  30.466  1.00  0.00     0.251 C 
ATOM     32  H   UNL A   1      34.694  30.863  29.983  1.00  0.00     0.163 HD
ATOM     33  O   UNL A   1      36.209  30.108  31.660  1.00  0.00    -0.269 OA
BRANCH  31  34
ATOM     34  C   UNL A   1      37.899  29.955  30.039  1.00  0.00     0.039 A 
ATOM     35  C   UNL A   1      38.196  30.015  28.672  1.00  0.00     0.014 A 
ATOM     36  C   UNL A   1      38.892  29.564  30.943  1.00  0.00     0.014 A 
ATOM     37  C   UNL A   1      39.476  29.688  28.216  1.00  0.00     0.010 A 
ATOM     38  C   UNL A   1      40.187  29.303  30.494  1.00  0.00     0.010 A 
ATOM     39  C   UNL A   1      40.483  29.329  29.124  1.00  0.00    -0.014 A 
BRANCH  39  40
ATOM     40  C   UNL A   1      41.824  28.909  28.641  1.00  0.00     0.031 A 
ATOM     41  C   UNL A   1      42.946  29.913  28.564  1.00  0.00     0.074 A 
ATOM     42  C   UNL A   1      42.029  27.635  28.257  1.00  0.00     0.049 A 
ATOM     43  N   UNL A   1      44.179  29.746  28.160  1.00  0.00    -0.248 NA
ATOM     44  C   UNL A   1      42.632  31.292  28.969  1.00  0.00     0.031 C 
ATOM     45  C   UNL A   1      41.013  26.581  28.244  1.00  0.00     0.029 A 
ATOM     46  N   UNL A   1      43.162  27.008  27.803  1.00  0.00    -0.354 N 
ATOM     47  C   UNL A   1      44.781  30.997  28.246  1.00  0.00     0.074 A 
ATOM     48  C   UNL A   1      43.764  31.923  28.692  1.00  0.00     0.031 C 
ATOM     49  C   UNL A   1      41.573  25.434  27.826  1.00  0.00     0.029 A 
ATOM     50  C   UNL A   1      42.982  25.675  27.524  1.00  0.00     0.049 A 
ATOM     51  H   UNL A   1      44.024  27.471  27.688  1.00  0.00     0.167 HD
ATOM     52  C   UNL A   1      46.069  31.340  28.001  1.00  0.00     0.037 A 
ATOM     53  C   UNL A   1      43.856  24.748  27.084  1.00  0.00     0.037 A 
ATOM     54  C   UNL A   1      47.087  30.406  27.593  1.00  0.00     0.049 A 
ATOM     55  C   UNL A   1      45.292  25.140  26.867  1.00  0.00     0.074 A 
ATOM     56  C   UNL A   1      48.430  30.642  27.359  1.00  0.00     0.029 A 
ATOM     57  N   UNL A   1      46.874  29.054  27.370  1.00  0.00    -0.354 N 
ATOM     58  N   UNL A   1      45.854  26.319  26.999  1.00  0.00    -0.248 NA
ATOM     59  C   UNL A   1      46.217  24.074  26.461  1.00  0.00     0.031 C 
ATOM     60  C   UNL A   1      49.026  29.435  26.972  1.00  0.00     0.029 A 
ATOM     61  C   UNL A   1      48.060  28.441  27.002  1.00  0.00     0.049 A 
ATOM     62  H   UNL A   1      46.007  28.596  27.460  1.00  0.00     0.167 HD
ATOM     63  C   UNL A   1      47.203  26.129  26.726  1.00  0.00     0.074 A 
ATOM     64  C   UNL A   1      47.374  24.720  26.428  1.00  0.00     0.031 C 
ATOM     65  C   UNL A   1      48.212  27.035  26.725  1.00  0.00     0.037 A 
BRANCH  52  66
ATOM     66  C   UNL A   1      46.449  32.784  28.177  1.00  0.00     0.058 A 
ATOM     67  C   UNL A   1      46.957  33.269  29.394  1.00  0.00     0.135 A 
ATOM     68  C   UNL A   1      46.320  33.694  27.115  1.00  0.00     0.135 A 
ATOM     69  F   UNL A   1      47.086  32.447  30.447  1.00  0.00    -0.206 F 
ATOM     70  C   UNL A   1      47.289  34.609  29.562  1.00  0.00     0.059 A 
ATOM     71  C   UNL A   1      46.672  35.034  27.253  1.00  0.00     0.059 A 
ATOM     72  F   UNL A   1      45.841  33.285  25.930  1.00  0.00    -0.206 F 
ATOM     73  C   UNL A   1      47.139  35.486  28.487  1.00  0.00     0.060 A 
BRANCH  73  74
ATOM     74  S   UNL A   1      47.564  37.225  28.719  1.00  0.00     0.124 S 
ATOM     75  O   UNL A   1      46.542  37.647  29.674  1.00  0.00    -0.237 OA
ATOM     76  O   UNL A   1      48.925  37.147  29.247  1.00  0.00    -0.237 OA
ATOM     77  O   UNL A   1      47.445  37.786  27.381  1.00  0.00    -0.744 OA
ENDBRANCH  73  74
ENDBRANCH  52  66
BRANCH  53  78
ATOM     78  C   UNL A   1      43.405  23.349  26.870  1.00  0.00     0.058 A 
ATOM     79  C   UNL A   1      43.267  22.826  25.576  1.00  0.00     0.135 A 
ATOM     80  C   UNL A   1      43.121  22.501  27.951  1.00  0.00     0.135 A 
ATOM     81  F   UNL A   1      43.525  23.600  24.509  1.00  0.00    -0.206 F 
ATOM     82  C   UNL A   1      42.847  21.518  25.358  1.00  0.00     0.059 A 
ATOM     83  C   UNL A   1      42.720  21.182  27.760  1.00  0.00     0.059 A 
ATOM     84  F   UNL A   1      43.257  22.949  29.210  1.00  0.00    -0.206 F 
ATOM     85  C   UNL A   1      42.577  20.704  26.458  1.00  0.00     0.060 A 
BRANCH  85  86
ATOM     86  S   UNL A   1      42.080  18.992  26.168  1.00  0.00     0.124 S 
ATOM     87  O   UNL A   1      40.671  19.148  25.827  1.00  0.00    -0.237 OA
ATOM     88  O   UNL A   1      42.962  18.595  25.075  1.00  0.00    -0.237 OA
ATOM     89  O   UNL A   1      42.354  18.343  27.448  1.00  0.00    -0.744 OA
ENDBRANCH  85  86
ENDBRANCH  53  78
BRANCH  65  90
ATOM     90  C   UNL A   1      49.596  26.523  26.442  1.00  0.00     0.058 A 
ATOM     91  C   UNL A   1      50.401  25.973  27.450  1.00  0.00     0.135 A 
ATOM     92  C   UNL A   1      50.110  26.561  25.136  1.00  0.00     0.135 A 
ATOM     93  F   UNL A   1      49.957  25.918  28.716  1.00  0.00    -0.206 F 
ATOM     94  C   UNL A   1      51.684  25.507  27.180  1.00  0.00     0.059 A 
ATOM     95  C   UNL A   1      51.380  26.078  24.838  1.00  0.00     0.059 A 
ATOM     96  F   UNL A   1      49.374  27.066  24.134  1.00  0.00    -0.206 F 
ATOM     97  C   UNL A   1      52.166  25.568  25.871  1.00  0.00     0.060 A 
BRANCH  97  98
ATOM     98  S   UNL A   1      53.828  24.952  25.526  1.00  0.00     0.124 S 
ATOM     99  O   UNL A   1      54.479  25.128  26.819  1.00  0.00    -0.237 OA
ATOM    100  O   UNL A   1      53.576  23.571  25.125  1.00  0.00    -0.237 OA
ATOM    101  O   UNL A   1      54.298  25.831  24.459  1.00  0.00    -0.744 OA
ENDBRANCH  97  98
ENDBRANCH  65  90
ENDBRANCH  39  40
ENDBRANCH  31  34
ENDBRANCH  29  30
ENDBRANCH  28  29
ENDBRANCH  27  28
ENDBRANCH   1  27
TORSDOF 19
ENDMDL
MODEL 3
REMARK VINA RESULT:     -11.6      5.406     10.452
REMARK SMILES C[C@]1(C(=O)NCCCCCCNC(=O)c2ccc(-c3c4nc(c(-c5c(F)cc(S(=O)(=O)[O-])cc5F)c5ccc([nH]5)c(-c5c(F)cc(S(=O)(=O)[O-])cc5F)c5nc(c(-c6c(F)cc(S(=O)(=O)[O-])cc6F)c6ccc3[nH]6)C=C5)C=C4)cc2)COC[C@@H]1NC(=O)[C@H]1C=C[C@@H]([NH3+])C1
REMARK SMILES IDX 8 1 7 2 6 3 5 4 3 5 4 6 2 8 1 9 81 10 84 11 82 12 83 13
REMARK SMILES IDX 85 14 86 15 87 17 88 18 89 19 93 20 90 21 91 22 92 23 9 27
REMARK SMILES IDX 10 28 11 29 12 30 13 31 14 33 15 34 16 35 80 36 17 37 79 38
REMARK SMILES IDX 18 39 19 40 20 41 73 42 21 43 78 44 72 45 74 46 22 47 77 48
REMARK SMILES IDX 71 49 70 50 23 52 57 53 36 54 56 55 37 56 40 57 55 58 75 59
REMARK SMILES IDX 38 60 39 61 54 63 76 64 41 65 24 66 25 67 34 68 26 69 27 70
REMARK SMILES IDX 33 71 35 72 28 73 29 74 30 75 31 76 32 77 58 78 59 79 68 80
REMARK SMILES IDX 60 81 61 82 67 83 69 84 62 85 63 86 64 87 65 88 66 89 42 90
REMARK SMILES IDX 43 91 52 92 44 93 45 94 51 95 53 96 46 97 47 98 48 99 49 100
REMARK SMILES IDX 50 101
REMARK H PARENT 5 7 85 16 92 24 92 25 92 26 12 32 74 51 40 62
REMARK Flexibility Score: inf
ROOT
ATOM      1  C   UNL A   1      31.953  29.053  24.706  1.00  0.00     0.002 C 
ENDROOT
BRANCH   1   2
ATOM      2  C   UNL A   1      30.713  28.751  23.858  1.00  0.00     0.021 C 
BRANCH   2   3
ATOM      3  C   UNL A   1      30.698  27.343  23.251  1.00  0.00     0.116 C 
BRANCH   3   4
ATOM      4  N   UNL A   1      31.775  27.079  22.293  1.00  0.00    -0.355 N 
ATOM      5  C   UNL A   1      32.613  26.002  22.117  1.00  0.00     0.230 C 
ATOM      6  O   UNL A   1      33.325  25.995  21.112  1.00  0.00    -0.274 OA
ATOM      7  H   UNL A   1      31.929  27.812  21.654  1.00  0.00     0.163 HD
BRANCH   5   8
ATOM      8  C   UNL A   1      32.668  24.886  23.175  1.00  0.00     0.092 C 
ATOM      9  C   UNL A   1      31.475  23.981  22.842  1.00  0.00     0.026 C 
ATOM     10  C   UNL A   1      34.088  24.299  23.066  1.00  0.00     0.179 C 
ATOM     11  C   UNL A   1      32.634  25.412  24.629  1.00  0.00     0.125 C 
ATOM     12  O   UNL A   1      34.768  24.413  24.321  1.00  0.00    -0.378 OA
ATOM     13  C   UNL A   1      34.070  25.345  25.135  1.00  0.00     0.186 C 
BRANCH  11  14
ATOM     14  N   UNL A   1      31.667  24.871  25.620  1.00  0.00    -0.349 N 
ATOM     15  C   UNL A   1      31.504  23.904  26.547  1.00  0.00     0.227 C 
ATOM     16  H   UNL A   1      30.848  25.416  25.588  1.00  0.00     0.163 HD
ATOM     17  O   UNL A   1      30.465  24.055  27.216  1.00  0.00    -0.274 OA
BRANCH  15  18
ATOM     18  C   UNL A   1      32.319  22.626  26.808  1.00  0.00     0.107 C 
ATOM     19  C   UNL A   1      32.497  21.835  25.537  1.00  0.00    -0.012 C 
ATOM     20  C   UNL A   1      33.723  22.645  27.382  1.00  0.00     0.087 C 
ATOM     21  C   UNL A   1      33.682  21.215  25.494  1.00  0.00     0.033 C 
ATOM     22  C   UNL A   1      34.472  21.465  26.736  1.00  0.00     0.205 C 
BRANCH  22  23
ATOM     23  N   UNL A   1      35.864  21.774  26.452  1.00  0.00    -0.352 N 
ATOM     24  H   UNL A   1      36.269  21.030  25.885  1.00  0.00     0.345 HD
ATOM     25  H   UNL A   1      36.380  21.853  27.329  1.00  0.00     0.345 HD
ATOM     26  H   UNL A   1      35.920  22.657  25.945  1.00  0.00     0.345 HD
ENDBRANCH  22  23
ENDBRANCH  15  18
ENDBRANCH  11  14
ENDBRANCH   5   8
ENDBRANCH   3   4
ENDBRANCH   2   3
ENDBRANCH   1   2
BRANCH   1  27
ATOM     27  C   UNL A   1      31.744  29.054  26.224  1.00  0.00     0.002 C 
BRANCH  27  28
ATOM     28  C   UNL A   1      32.704  28.182  27.038  1.00  0.00     0.021 C 
BRANCH  28  29
ATOM     29  C   UNL A   1      34.126  28.726  27.189  1.00  0.00     0.116 C 
BRANCH  29  30
ATOM     30  N   UNL A   1      34.152  30.007  27.873  1.00  0.00    -0.352 N 
ATOM     31  C   UNL A   1      35.100  30.588  28.672  1.00  0.00     0.251 C 
ATOM     32  H   UNL A   1      33.345  30.554  27.739  1.00  0.00     0.163 HD
ATOM     33  O   UNL A   1      34.776  31.556  29.358  1.00  0.00    -0.269 OA
BRANCH  31  34
ATOM     34  C   UNL A   1      36.498  30.099  28.713  1.00  0.00     0.039 A 
ATOM     35  C   UNL A   1      37.037  29.729  29.951  1.00  0.00     0.014 A 
ATOM     36  C   UNL A   1      37.318  30.116  27.581  1.00  0.00     0.014 A 
ATOM     37  C   UNL A   1      38.386  29.378  30.052  1.00  0.00     0.010 A 
ATOM     38  C   UNL A   1      38.648  29.700  27.671  1.00  0.00     0.010 A 
ATOM     39  C   UNL A   1      39.204  29.361  28.913  1.00  0.00    -0.014 A 
BRANCH  39  40
ATOM     40  C   UNL A   1      40.655  29.061  29.024  1.00  0.00     0.031 A 
ATOM     41  C   UNL A   1      41.176  27.704  28.628  1.00  0.00     0.074 A 
ATOM     42  C   UNL A   1      41.498  29.998  29.498  1.00  0.00     0.049 A 
ATOM     43  N   UNL A   1      42.401  27.245  28.664  1.00  0.00    -0.248 NA
ATOM     44  C   UNL A   1      40.186  26.724  28.153  1.00  0.00     0.031 C 
ATOM     45  C   UNL A   1      41.109  31.333  29.956  1.00  0.00     0.029 A 
ATOM     46  N   UNL A   1      42.859  29.971  29.672  1.00  0.00    -0.354 N 
ATOM     47  C   UNL A   1      42.327  25.924  28.234  1.00  0.00     0.074 A 
ATOM     48  C   UNL A   1      40.930  25.639  27.993  1.00  0.00     0.031 C 
ATOM     49  C   UNL A   1      42.207  32.005  30.337  1.00  0.00     0.029 A 
ATOM     50  C   UNL A   1      43.375  31.143  30.170  1.00  0.00     0.049 A 
ATOM     51  H   UNL A   1      43.413  29.185  29.462  1.00  0.00     0.167 HD
ATOM     52  C   UNL A   1      43.332  25.037  28.035  1.00  0.00     0.037 A 
ATOM     53  C   UNL A   1      44.647  31.488  30.449  1.00  0.00     0.037 A 
ATOM     54  C   UNL A   1      44.724  25.338  28.242  1.00  0.00     0.049 A 
ATOM     55  C   UNL A   1      45.751  30.505  30.172  1.00  0.00     0.074 A 
ATOM     56  C   UNL A   1      45.824  24.524  28.031  1.00  0.00     0.029 A 
ATOM     57  N   UNL A   1      45.209  26.555  28.698  1.00  0.00    -0.354 N 
ATOM     58  N   UNL A   1      45.666  29.275  29.721  1.00  0.00    -0.248 NA
ATOM     59  C   UNL A   1      47.125  30.960  30.423  1.00  0.00     0.031 C 
ATOM     60  C   UNL A   1      46.973  25.242  28.381  1.00  0.00     0.029 A 
ATOM     61  C   UNL A   1      46.591  26.515  28.774  1.00  0.00     0.049 A 
ATOM     62  H   UNL A   1      44.653  27.332  28.934  1.00  0.00     0.167 HD
ATOM     63  C   UNL A   1      46.975  28.823  29.602  1.00  0.00     0.074 A 
ATOM     64  C   UNL A   1      47.832  29.914  30.022  1.00  0.00     0.031 C 
ATOM     65  C   UNL A   1      47.428  27.617  29.180  1.00  0.00     0.037 A 
BRANCH  52  66
ATOM     66  C   UNL A   1      42.957  23.659  27.561  1.00  0.00     0.058 A 
ATOM     67  C   UNL A   1      42.630  22.634  28.464  1.00  0.00     0.135 A 
ATOM     68  C   UNL A   1      42.909  23.361  26.189  1.00  0.00     0.135 A 
ATOM     69  F   UNL A   1      42.676  22.859  29.787  1.00  0.00    -0.206 F 
ATOM     70  C   UNL A   1      42.303  21.354  28.027  1.00  0.00     0.059 A 
ATOM     71  C   UNL A   1      42.558  22.095  25.729  1.00  0.00     0.059 A 
ATOM     72  F   UNL A   1      43.211  24.303  25.282  1.00  0.00    -0.206 F 
ATOM     73  C   UNL A   1      42.274  21.092  26.656  1.00  0.00     0.060 A 
BRANCH  73  74
ATOM     74  S   UNL A   1      41.858  19.427  26.100  1.00  0.00     0.124 S 
ATOM     75  O   UNL A   1      40.425  19.557  25.845  1.00  0.00    -0.237 OA
ATOM     76  O   UNL A   1      42.697  19.275  24.911  1.00  0.00    -0.237 OA
ATOM     77  O   UNL A   1      42.222  18.588  27.232  1.00  0.00    -0.744 OA
ENDBRANCH  73  74
ENDBRANCH  52  66
BRANCH  53  78
ATOM     78  C   UNL A   1      44.947  32.846  30.973  1.00  0.00     0.058 A 
ATOM     79  C   UNL A   1      45.007  33.087  32.354  1.00  0.00     0.135 A 
ATOM     80  C   UNL A   1      45.197  33.922  30.110  1.00  0.00     0.135 A 
ATOM     81  F   UNL A   1      44.772  32.089  33.220  1.00  0.00    -0.206 F 
ATOM     82  C   UNL A   1      45.287  34.352  32.862  1.00  0.00     0.059 A 
ATOM     83  C   UNL A   1      45.501  35.192  30.594  1.00  0.00     0.059 A 
ATOM     84  F   UNL A   1      45.171  33.738  28.780  1.00  0.00    -0.206 F 
ATOM     85  C   UNL A   1      45.533  35.398  31.972  1.00  0.00     0.060 A 
BRANCH  85  86
ATOM     86  S   UNL A   1      45.945  37.025  32.639  1.00  0.00     0.124 S 
ATOM     87  O   UNL A   1      47.244  37.273  32.025  1.00  0.00    -0.237 OA
ATOM     88  O   UNL A   1      44.841  37.847  32.154  1.00  0.00    -0.237 OA
ATOM     89  O   UNL A   1      45.960  36.800  34.082  1.00  0.00    -0.744 OA
ENDBRANCH  85  86
ENDBRANCH  53  78
BRANCH  65  90
ATOM     90  C   UNL A   1      48.917  27.431  29.103  1.00  0.00     0.058 A 
ATOM     91  C   UNL A   1      49.654  27.826  27.976  1.00  0.00     0.135 A 
ATOM     92  C   UNL A   1      49.616  26.873  30.185  1.00  0.00     0.135 A 
ATOM     93  F   UNL A   1      49.032  28.360  26.914  1.00  0.00    -0.206 F 
ATOM     94  C   UNL A   1      51.031  27.644  27.911  1.00  0.00     0.059 A 
ATOM     95  C   UNL A   1      50.996  26.705  30.152  1.00  0.00     0.059 A 
ATOM     96  F   UNL A   1      48.958  26.491  31.291  1.00  0.00    -0.206 F 
ATOM     97  C   UNL A   1      51.693  27.078  29.004  1.00  0.00     0.060 A 
BRANCH  97  98
ATOM     98  S   UNL A   1      53.483  26.853  28.915  1.00  0.00     0.124 S 
ATOM     99  O   UNL A   1      53.945  28.231  28.790  1.00  0.00    -0.237 OA
ATOM    100  O   UNL A   1      53.782  26.198  30.185  1.00  0.00    -0.237 OA
ATOM    101  O   UNL A   1      53.660  26.019  27.731  1.00  0.00    -0.744 OA
ENDBRANCH  97  98
ENDBRANCH  65  90
ENDBRANCH  39  40
ENDBRANCH  31  34
ENDBRANCH  29  30
ENDBRANCH  28  29
ENDBRANCH  27  28
ENDBRANCH   1  27
TORSDOF 19
ENDMDL
