MODEL 1
REMARK VINA RESULT:     -12.4      0.000      0.000
REMARK SMILES CN1C(=O)[C@@H]2CC=CC[C@]2(C(=O)NCCCCCCNC(=O)c2ccc(-c3c4nc(c(-c5c(F)cc(S(=O)(=O)[O-])cc5F)c5ccc([nH]5)c(-c5c(F)cc(S(=O)(=O)[O-])cc5F)c5nc(c(-c6c(F)cc(S(=O)(=O)[O-])cc6F)c6ccc3[nH]6)C=C5)C=C4)cc2)[C@H]1c1ccccc1
REMARK SMILES IDX 17 1 16 2 15 3 14 4 13 5 11 6 12 7 10 9 1 10 2 11 3 12 89 13
REMARK SMILES IDX 4 14 5 15 6 16 9 17 7 18 8 19 90 20 91 21 95 22 92 23 94 24
REMARK SMILES IDX 93 25 18 26 19 27 20 28 21 29 22 31 23 32 24 33 88 34 25 35
REMARK SMILES IDX 87 36 26 37 27 38 28 39 81 40 29 41 86 42 80 43 82 44 30 45
REMARK SMILES IDX 85 46 79 47 78 48 31 50 65 51 44 52 64 53 45 54 48 55 63 56
REMARK SMILES IDX 83 57 46 58 47 59 62 61 84 62 49 63 32 64 33 65 42 66 34 67
REMARK SMILES IDX 35 68 41 69 43 70 36 71 37 72 38 73 39 74 40 75 66 76 67 77
REMARK SMILES IDX 76 78 68 79 69 80 75 81 77 82 70 83 71 84 72 85 73 86 74 87
REMARK SMILES IDX 50 88 51 89 60 90 52 91 53 92 59 93 61 94 54 95 55 96 56 97
REMARK SMILES IDX 57 98 58 99
REMARK H PARENT 13 8 20 30 82 49 48 60
REMARK Flexibility Score: inf
ROOT
ATOM      1  C   UNL A   1      33.032  30.152  27.043  1.00  0.00     0.002 C 
ENDROOT
BRANCH   1   2
ATOM      2  C   UNL A   1      32.605  29.628  25.666  1.00  0.00     0.002 C 
BRANCH   2   3
ATOM      3  C   UNL A   1      33.677  28.958  24.807  1.00  0.00     0.021 C 
BRANCH   3   4
ATOM      4  C   UNL A   1      33.747  27.436  24.833  1.00  0.00     0.116 C 
BRANCH   4   5
ATOM      5  N   UNL A   1      33.927  26.648  23.615  1.00  0.00    -0.356 N 
ATOM      6  C   UNL A   1      33.100  25.653  23.080  1.00  0.00     0.229 C 
ATOM      7  O   UNL A   1      33.176  25.427  21.870  1.00  0.00    -0.274 OA
ATOM      8  H   UNL A   1      34.741  26.846  23.100  1.00  0.00     0.163 HD
BRANCH   6   9
ATOM      9  C   UNL A   1      32.223  24.764  24.010  1.00  0.00     0.089 C 
ATOM     10  C   UNL A   1      32.597  21.533  25.921  1.00  0.00     0.147 C 
ATOM     11  N   UNL A   1      32.438  22.916  25.520  1.00  0.00    -0.337 N 
ATOM     12  C   UNL A   1      31.856  23.906  26.274  1.00  0.00     0.227 C 
ATOM     13  C   UNL A   1      32.990  23.416  24.299  1.00  0.00     0.131 C 
ATOM     14  O   UNL A   1      31.384  23.750  27.385  1.00  0.00    -0.275 OA
ATOM     15  C   UNL A   1      31.965  25.225  25.497  1.00  0.00     0.101 C 
ATOM     16  C   UNL A   1      30.781  26.119  25.864  1.00  0.00     0.041 C 
ATOM     17  C   UNL A   1      30.875  24.669  23.223  1.00  0.00     0.047 C 
ATOM     18  C   UNL A   1      29.724  26.231  24.831  1.00  0.00    -0.030 C 
ATOM     19  C   UNL A   1      29.763  25.585  23.664  1.00  0.00    -0.030 C 
BRANCH  13  20
ATOM     20  C   UNL A   1      34.526  23.512  24.385  1.00  0.00    -0.024 A 
ATOM     21  C   UNL A   1      35.379  23.047  23.370  1.00  0.00     0.006 A 
ATOM     22  C   UNL A   1      35.132  23.964  25.569  1.00  0.00     0.006 A 
ATOM     23  C   UNL A   1      36.742  22.849  23.595  1.00  0.00     0.000 A 
ATOM     24  C   UNL A   1      36.498  23.758  25.801  1.00  0.00     0.000 A 
ATOM     25  C   UNL A   1      37.295  23.165  24.827  1.00  0.00     0.000 A 
ENDBRANCH  13  20
ENDBRANCH   6   9
ENDBRANCH   4   5
ENDBRANCH   3   4
ENDBRANCH   2   3
ENDBRANCH   1   2
BRANCH   1  26
ATOM     26  C   UNL A   1      34.414  29.730  27.565  1.00  0.00     0.021 C 
BRANCH  26  27
ATOM     27  C   UNL A   1      35.357  30.862  27.963  1.00  0.00     0.116 C 
BRANCH  27  28
ATOM     28  N   UNL A   1      35.348  31.114  29.394  1.00  0.00    -0.352 N 
ATOM     29  C   UNL A   1      36.269  30.782  30.357  1.00  0.00     0.251 C 
ATOM     30  H   UNL A   1      34.557  31.597  29.725  1.00  0.00     0.163 HD
ATOM     31  O   UNL A   1      35.972  30.895  31.543  1.00  0.00    -0.269 OA
BRANCH  29  32
ATOM     32  C   UNL A   1      37.608  30.287  29.973  1.00  0.00     0.039 A 
ATOM     33  C   UNL A   1      37.958  30.258  28.620  1.00  0.00     0.014 A 
ATOM     34  C   UNL A   1      38.503  29.820  30.938  1.00  0.00     0.014 A 
ATOM     35  C   UNL A   1      39.228  29.816  28.241  1.00  0.00     0.010 A 
ATOM     36  C   UNL A   1      39.793  29.451  30.566  1.00  0.00     0.010 A 
ATOM     37  C   UNL A   1      40.168  29.440  29.215  1.00  0.00    -0.014 A 
BRANCH  37  38
ATOM     38  C   UNL A   1      41.548  29.034  28.843  1.00  0.00     0.031 A 
ATOM     39  C   UNL A   1      42.648  30.061  28.793  1.00  0.00     0.074 A 
ATOM     40  C   UNL A   1      41.792  27.759  28.480  1.00  0.00     0.049 A 
ATOM     41  N   UNL A   1      43.889  29.923  28.404  1.00  0.00    -0.248 NA
ATOM     42  C   UNL A   1      42.298  31.429  29.211  1.00  0.00     0.031 C 
ATOM     43  C   UNL A   1      40.797  26.684  28.448  1.00  0.00     0.029 A 
ATOM     44  N   UNL A   1      42.946  27.153  28.053  1.00  0.00    -0.354 N 
ATOM     45  C   UNL A   1      44.463  31.184  28.516  1.00  0.00     0.074 A 
ATOM     46  C   UNL A   1      43.421  32.085  28.956  1.00  0.00     0.031 C 
ATOM     47  C   UNL A   1      41.387  25.549  28.044  1.00  0.00     0.029 A 
ATOM     48  C   UNL A   1      42.789  25.822  27.743  1.00  0.00     0.049 A 
ATOM     49  H   UNL A   1      43.806  27.625  27.977  1.00  0.00     0.167 HD
ATOM     50  C   UNL A   1      45.748  31.552  28.293  1.00  0.00     0.037 A 
ATOM     51  C   UNL A   1      43.670  24.925  27.257  1.00  0.00     0.037 A 
ATOM     52  C   UNL A   1      46.782  30.641  27.874  1.00  0.00     0.049 A 
ATOM     53  C   UNL A   1      45.088  25.361  27.000  1.00  0.00     0.074 A 
ATOM     54  C   UNL A   1      48.125  30.900  27.672  1.00  0.00     0.029 A 
ATOM     55  N   UNL A   1      46.587  29.297  27.585  1.00  0.00    -0.354 N 
ATOM     56  N   UNL A   1      45.629  26.545  27.170  1.00  0.00    -0.248 NA
ATOM     57  C   UNL A   1      46.016  24.344  26.490  1.00  0.00     0.031 C 
ATOM     58  C   UNL A   1      48.733  29.728  27.211  1.00  0.00     0.029 A 
ATOM     59  C   UNL A   1      47.780  28.721  27.184  1.00  0.00     0.049 A 
ATOM     60  H   UNL A   1      45.726  28.823  27.658  1.00  0.00     0.167 HD
ATOM     61  C   UNL A   1      46.968  26.404  26.819  1.00  0.00     0.074 A 
ATOM     62  C   UNL A   1      47.154  25.020  26.436  1.00  0.00     0.031 C 
ATOM     63  C   UNL A   1      47.953  27.337  26.816  1.00  0.00     0.037 A 
BRANCH  50  64
ATOM     64  C   UNL A   1      46.109  32.998  28.496  1.00  0.00     0.058 A 
ATOM     65  C   UNL A   1      46.553  33.483  29.738  1.00  0.00     0.135 A 
ATOM     66  C   UNL A   1      46.048  33.906  27.425  1.00  0.00     0.135 A 
ATOM     67  F   UNL A   1      46.617  32.664  30.799  1.00  0.00    -0.206 F 
ATOM     68  C   UNL A   1      46.894  34.819  29.919  1.00  0.00     0.059 A 
ATOM     69  C   UNL A   1      46.416  35.241  27.576  1.00  0.00     0.059 A 
ATOM     70  F   UNL A   1      45.632  33.500  26.216  1.00  0.00    -0.206 F 
ATOM     71  C   UNL A   1      46.822  35.691  28.831  1.00  0.00     0.060 A 
BRANCH  71  72
ATOM     72  S   UNL A   1      47.274  37.420  29.084  1.00  0.00     0.124 S 
ATOM     73  O   UNL A   1      48.703  37.394  28.787  1.00  0.00    -0.237 OA
ATOM     74  O   UNL A   1      46.436  38.107  28.107  1.00  0.00    -0.237 OA
ATOM     75  O   UNL A   1      46.929  37.661  30.482  1.00  0.00    -0.744 OA
ENDBRANCH  71  72
ENDBRANCH  50  64
BRANCH  51  76
ATOM     76  C   UNL A   1      43.240  23.525  26.995  1.00  0.00     0.058 A 
ATOM     77  C   UNL A   1      43.011  23.073  25.686  1.00  0.00     0.135 A 
ATOM     78  C   UNL A   1      43.063  22.607  28.042  1.00  0.00     0.135 A 
ATOM     79  F   UNL A   1      43.160  23.914  24.651  1.00  0.00    -0.206 F 
ATOM     80  C   UNL A   1      42.603  21.769  25.426  1.00  0.00     0.059 A 
ATOM     81  C   UNL A   1      42.685  21.290  27.804  1.00  0.00     0.059 A 
ATOM     82  F   UNL A   1      43.288  22.983  29.311  1.00  0.00    -0.206 F 
ATOM     83  C   UNL A   1      42.447  20.883  26.493  1.00  0.00     0.060 A 
BRANCH  83  84
ATOM     84  S   UNL A   1      41.963  19.180  26.138  1.00  0.00     0.124 S 
ATOM     85  O   UNL A   1      42.830  18.856  25.012  1.00  0.00    -0.237 OA
ATOM     86  O   UNL A   1      42.271  18.507  27.397  1.00  0.00    -0.237 OA
ATOM     87  O   UNL A   1      40.541  19.293  25.828  1.00  0.00    -0.744 OA
ENDBRANCH  83  84
ENDBRANCH  51  76
BRANCH  63  88
ATOM     88  C   UNL A   1      49.334  26.888  26.426  1.00  0.00     0.058 A 
ATOM     89  C   UNL A   1      50.185  26.235  27.330  1.00  0.00     0.135 A 
ATOM     90  C   UNL A   1      49.786  27.056  25.106  1.00  0.00     0.135 A 
ATOM     91  F   UNL A   1      49.807  26.056  28.606  1.00  0.00    -0.206 F 
ATOM     92  C   UNL A   1      51.442  25.780  26.946  1.00  0.00     0.059 A 
ATOM     93  C   UNL A   1      51.026  26.581  24.691  1.00  0.00     0.059 A 
ATOM     94  F   UNL A   1      49.008  27.666  24.197  1.00  0.00    -0.206 F 
ATOM     95  C   UNL A   1      51.851  25.953  25.621  1.00  0.00     0.060 A 
BRANCH  95  96
ATOM     96  S   UNL A   1      53.465  25.313  25.126  1.00  0.00     0.124 S 
ATOM     97  O   UNL A   1      53.338  23.900  25.465  1.00  0.00    -0.237 OA
ATOM     98  O   UNL A   1      53.498  25.624  23.700  1.00  0.00    -0.237 OA
ATOM     99  O   UNL A   1      54.400  26.075  25.949  1.00  0.00    -0.744 OA
ENDBRANCH  95  96
ENDBRANCH  63  88
ENDBRANCH  37  38
ENDBRANCH  29  32
ENDBRANCH  27  28
ENDBRANCH  26  27
ENDBRANCH   1  26
TORSDOF 17
ENDMDL
MODEL 2
REMARK VINA RESULT:     -12.4      6.198     11.644
REMARK SMILES CN1C(=O)[C@@H]2CC=CC[C@]2(C(=O)NCCCCCCNC(=O)c2ccc(-c3c4nc(c(-c5c(F)cc(S(=O)(=O)[O-])cc5F)c5ccc([nH]5)c(-c5c(F)cc(S(=O)(=O)[O-])cc5F)c5nc(c(-c6c(F)cc(S(=O)(=O)[O-])cc6F)c6ccc3[nH]6)C=C5)C=C4)cc2)[C@H]1c1ccccc1
REMARK SMILES IDX 17 1 16 2 15 3 14 4 13 5 11 6 12 7 10 9 1 10 2 11 3 12 89 13
REMARK SMILES IDX 4 14 5 15 6 16 9 17 7 18 8 19 90 20 91 21 95 22 92 23 94 24
REMARK SMILES IDX 93 25 18 26 19 27 20 28 21 29 22 31 23 32 24 33 88 34 25 35
REMARK SMILES IDX 87 36 26 37 27 38 28 39 81 40 29 41 86 42 80 43 82 44 30 45
REMARK SMILES IDX 85 46 79 47 78 48 31 50 65 51 44 52 64 53 45 54 48 55 63 56
REMARK SMILES IDX 83 57 46 58 47 59 62 61 84 62 49 63 32 64 33 65 42 66 34 67
REMARK SMILES IDX 35 68 41 69 43 70 36 71 37 72 38 73 39 74 40 75 66 76 67 77
REMARK SMILES IDX 76 78 68 79 69 80 75 81 77 82 70 83 71 84 72 85 73 86 74 87
REMARK SMILES IDX 50 88 51 89 60 90 52 91 53 92 59 93 61 94 54 95 55 96 56 97
REMARK SMILES IDX 57 98 58 99
REMARK H PARENT 13 8 20 30 82 49 48 60
REMARK Flexibility Score: inf
ROOT
ATOM      1  C   UNL A   1      37.905  22.032  25.334  1.00  0.00     0.002 C 
ENDROOT
BRANCH   1   2
ATOM      2  C   UNL A   1      36.435  21.821  24.950  1.00  0.00     0.002 C 
BRANCH   2   3
ATOM      3  C   UNL A   1      35.378  22.192  25.988  1.00  0.00     0.021 C 
BRANCH   3   4
ATOM      4  C   UNL A   1      34.819  23.610  25.946  1.00  0.00     0.116 C 
BRANCH   4   5
ATOM      5  N   UNL A   1      33.546  23.959  26.573  1.00  0.00    -0.356 N 
ATOM      6  C   UNL A   1      32.285  24.108  25.982  1.00  0.00     0.229 C 
ATOM      7  O   UNL A   1      31.291  23.967  26.699  1.00  0.00    -0.274 OA
ATOM      8  H   UNL A   1      33.580  24.110  27.545  1.00  0.00     0.163 HD
BRANCH   6   9
ATOM      9  C   UNL A   1      32.150  24.579  24.504  1.00  0.00     0.089 C 
ATOM     10  C   UNL A   1      31.602  27.828  22.668  1.00  0.00     0.147 C 
ATOM     11  N   UNL A   1      32.138  26.599  23.216  1.00  0.00    -0.337 N 
ATOM     12  C   UNL A   1      33.144  25.847  22.660  1.00  0.00     0.227 C 
ATOM     13  C   UNL A   1      31.726  26.098  24.491  1.00  0.00     0.131 C 
ATOM     14  O   UNL A   1      33.716  26.108  21.618  1.00  0.00    -0.275 OA
ATOM     15  C   UNL A   1      33.444  24.675  23.606  1.00  0.00     0.101 C 
ATOM     16  C   UNL A   1      33.939  23.485  22.785  1.00  0.00     0.041 C 
ATOM     17  C   UNL A   1      31.141  23.546  23.906  1.00  0.00     0.047 C 
ATOM     18  C   UNL A   1      32.964  22.382  22.612  1.00  0.00    -0.030 C 
ATOM     19  C   UNL A   1      31.724  22.411  23.103  1.00  0.00    -0.030 C 
BRANCH  13  20
ATOM     20  C   UNL A   1      32.282  26.971  25.634  1.00  0.00    -0.024 A 
ATOM     21  C   UNL A   1      31.473  27.503  26.652  1.00  0.00     0.006 A 
ATOM     22  C   UNL A   1      33.628  27.371  25.615  1.00  0.00     0.006 A 
ATOM     23  C   UNL A   1      31.923  28.533  27.479  1.00  0.00     0.000 A 
ATOM     24  C   UNL A   1      34.081  28.410  26.437  1.00  0.00     0.000 A 
ATOM     25  C   UNL A   1      33.216  29.017  27.343  1.00  0.00     0.000 A 
ENDBRANCH  13  20
ENDBRANCH   6   9
ENDBRANCH   4   5
ENDBRANCH   3   4
ENDBRANCH   2   3
ENDBRANCH   1   2
BRANCH   1  26
ATOM     26  C   UNL A   1      38.273  23.348  26.034  1.00  0.00     0.021 C 
BRANCH  26  27
ATOM     27  C   UNL A   1      39.532  23.322  26.897  1.00  0.00     0.116 C 
BRANCH  27  28
ATOM     28  N   UNL A   1      40.728  23.659  26.143  1.00  0.00    -0.352 N 
ATOM     29  C   UNL A   1      41.496  24.796  26.164  1.00  0.00     0.251 C 
ATOM     30  H   UNL A   1      41.034  22.962  25.518  1.00  0.00     0.163 HD
ATOM     31  O   UNL A   1      42.342  24.972  25.292  1.00  0.00    -0.269 OA
BRANCH  29  32
ATOM     32  C   UNL A   1      41.305  25.808  27.225  1.00  0.00     0.039 A 
ATOM     33  C   UNL A   1      40.311  25.604  28.187  1.00  0.00     0.014 A 
ATOM     34  C   UNL A   1      42.079  26.971  27.254  1.00  0.00     0.014 A 
ATOM     35  C   UNL A   1      40.135  26.538  29.210  1.00  0.00     0.010 A 
ATOM     36  C   UNL A   1      41.951  27.863  28.315  1.00  0.00     0.010 A 
ATOM     37  C   UNL A   1      40.976  27.659  29.301  1.00  0.00    -0.014 A 
BRANCH  37  38
ATOM     38  C   UNL A   1      40.854  28.630  30.420  1.00  0.00     0.031 A 
ATOM     39  C   UNL A   1      41.738  28.498  31.631  1.00  0.00     0.074 A 
ATOM     40  C   UNL A   1      39.899  29.580  30.376  1.00  0.00     0.049 A 
ATOM     41  N   UNL A   1      41.722  29.185  32.744  1.00  0.00    -0.248 NA
ATOM     42  C   UNL A   1      42.758  27.437  31.596  1.00  0.00     0.031 C 
ATOM     43  C   UNL A   1      38.956  29.780  29.273  1.00  0.00     0.029 A 
ATOM     44  N   UNL A   1      39.553  30.547  31.285  1.00  0.00    -0.354 N 
ATOM     45  C   UNL A   1      42.714  28.632  33.546  1.00  0.00     0.074 A 
ATOM     46  C   UNL A   1      43.276  27.519  32.813  1.00  0.00     0.031 C 
ATOM     47  C   UNL A   1      38.152  30.815  29.563  1.00  0.00     0.029 A 
ATOM     48  C   UNL A   1      38.490  31.324  30.888  1.00  0.00     0.049 A 
ATOM     49  H   UNL A   1      40.022  30.674  32.141  1.00  0.00     0.167 HD
ATOM     50  C   UNL A   1      43.133  29.032  34.770  1.00  0.00     0.037 A 
ATOM     51  C   UNL A   1      37.850  32.325  31.524  1.00  0.00     0.037 A 
ATOM     52  C   UNL A   1      42.579  30.155  35.481  1.00  0.00     0.049 A 
ATOM     53  C   UNL A   1      38.321  32.740  32.892  1.00  0.00     0.074 A 
ATOM     54  C   UNL A   1      42.967  30.676  36.702  1.00  0.00     0.029 A 
ATOM     55  N   UNL A   1      41.514  30.927  35.038  1.00  0.00    -0.354 N 
ATOM     56  N   UNL A   1      39.303  32.246  33.610  1.00  0.00    -0.248 NA
ATOM     57  C   UNL A   1      37.605  33.848  33.537  1.00  0.00     0.031 C 
ATOM     58  C   UNL A   1      42.104  31.728  37.024  1.00  0.00     0.029 A 
ATOM     59  C   UNL A   1      41.216  31.903  35.974  1.00  0.00     0.049 A 
ATOM     60  H   UNL A   1      41.041  30.800  34.184  1.00  0.00     0.167 HD
ATOM     61  C   UNL A   1      39.342  33.004  34.775  1.00  0.00     0.074 A 
ATOM     62  C   UNL A   1      38.291  33.995  34.661  1.00  0.00     0.031 C 
ATOM     63  C   UNL A   1      40.172  32.892  35.841  1.00  0.00     0.037 A 
BRANCH  50  64
ATOM     64  C   UNL A   1      44.242  28.251  35.421  1.00  0.00     0.058 A 
ATOM     65  C   UNL A   1      43.981  27.171  36.282  1.00  0.00     0.135 A 
ATOM     66  C   UNL A   1      45.587  28.559  35.151  1.00  0.00     0.135 A 
ATOM     67  F   UNL A   1      42.717  26.841  36.587  1.00  0.00    -0.206 F 
ATOM     68  C   UNL A   1      45.009  26.446  36.874  1.00  0.00     0.059 A 
ATOM     69  C   UNL A   1      46.632  27.826  35.708  1.00  0.00     0.059 A 
ATOM     70  F   UNL A   1      45.896  29.579  34.337  1.00  0.00    -0.206 F 
ATOM     71  C   UNL A   1      46.332  26.781  36.581  1.00  0.00     0.060 A 
BRANCH  71  72
ATOM     72  S   UNL A   1      47.653  25.825  37.355  1.00  0.00     0.124 S 
ATOM     73  O   UNL A   1      47.040  25.459  38.628  1.00  0.00    -0.237 OA
ATOM     74  O   UNL A   1      47.845  24.734  36.407  1.00  0.00    -0.237 OA
ATOM     75  O   UNL A   1      48.757  26.777  37.442  1.00  0.00    -0.744 OA
ENDBRANCH  71  72
ENDBRANCH  50  64
BRANCH  51  76
ATOM     76  C   UNL A   1      36.703  33.011  30.869  1.00  0.00     0.058 A 
ATOM     77  C   UNL A   1      35.386  32.784  31.297  1.00  0.00     0.135 A 
ATOM     78  C   UNL A   1      36.899  33.916  29.814  1.00  0.00     0.135 A 
ATOM     79  F   UNL A   1      35.145  31.924  32.298  1.00  0.00    -0.206 F 
ATOM     80  C   UNL A   1      34.304  33.414  30.691  1.00  0.00     0.059 A 
ATOM     81  C   UNL A   1      35.836  34.579  29.212  1.00  0.00     0.059 A 
ATOM     82  F   UNL A   1      38.141  34.183  29.379  1.00  0.00    -0.206 F 
ATOM     83  C   UNL A   1      34.540  34.314  29.650  1.00  0.00     0.060 A 
BRANCH  83  84
ATOM     84  S   UNL A   1      33.131  35.160  28.903  1.00  0.00     0.124 S 
ATOM     85  O   UNL A   1      32.633  34.145  27.982  1.00  0.00    -0.237 OA
ATOM     86  O   UNL A   1      32.290  35.436  30.064  1.00  0.00    -0.237 OA
ATOM     87  O   UNL A   1      33.735  36.334  28.283  1.00  0.00    -0.744 OA
ENDBRANCH  83  84
ENDBRANCH  51  76
BRANCH  63  88
ATOM     88  C   UNL A   1      40.013  33.887  36.956  1.00  0.00     0.058 A 
ATOM     89  C   UNL A   1      40.602  35.160  36.904  1.00  0.00     0.135 A 
ATOM     90  C   UNL A   1      39.201  33.586  38.063  1.00  0.00     0.135 A 
ATOM     91  F   UNL A   1      41.394  35.498  35.874  1.00  0.00    -0.206 F 
ATOM     92  C   UNL A   1      40.407  36.092  37.918  1.00  0.00     0.059 A 
ATOM     93  C   UNL A   1      38.966  34.514  39.072  1.00  0.00     0.059 A 
ATOM     94  F   UNL A   1      38.605  32.387  38.158  1.00  0.00    -0.206 F 
ATOM     95  C   UNL A   1      39.582  35.762  38.996  1.00  0.00     0.060 A 
BRANCH  95  96
ATOM     96  S   UNL A   1      39.300  36.999  40.279  1.00  0.00     0.124 S 
ATOM     97  O   UNL A   1      38.854  38.144  39.491  1.00  0.00    -0.237 OA
ATOM     98  O   UNL A   1      38.281  36.363  41.107  1.00  0.00    -0.237 OA
ATOM     99  O   UNL A   1      40.611  37.142  40.908  1.00  0.00    -0.744 OA
ENDBRANCH  95  96
ENDBRANCH  63  88
ENDBRANCH  37  38
ENDBRANCH  29  32
ENDBRANCH  27  28
ENDBRANCH  26  27
ENDBRANCH   1  26
TORSDOF 17
ENDMDL
MODEL 3
REMARK VINA RESULT:     -12.3      2.172      8.637
REMARK SMILES CN1C(=O)[C@@H]2CC=CC[C@]2(C(=O)NCCCCCCNC(=O)c2ccc(-c3c4nc(c(-c5c(F)cc(S(=O)(=O)[O-])cc5F)c5ccc([nH]5)c(-c5c(F)cc(S(=O)(=O)[O-])cc5F)c5nc(c(-c6c(F)cc(S(=O)(=O)[O-])cc6F)c6ccc3[nH]6)C=C5)C=C4)cc2)[C@H]1c1ccccc1
REMARK SMILES IDX 17 1 16 2 15 3 14 4 13 5 11 6 12 7 10 9 1 10 2 11 3 12 89 13
REMARK SMILES IDX 4 14 5 15 6 16 9 17 7 18 8 19 90 20 91 21 95 22 92 23 94 24
REMARK SMILES IDX 93 25 18 26 19 27 20 28 21 29 22 31 23 32 24 33 88 34 25 35
REMARK SMILES IDX 87 36 26 37 27 38 28 39 81 40 29 41 86 42 80 43 82 44 30 45
REMARK SMILES IDX 85 46 79 47 78 48 31 50 65 51 44 52 64 53 45 54 48 55 63 56
REMARK SMILES IDX 83 57 46 58 47 59 62 61 84 62 49 63 32 64 33 65 42 66 34 67
REMARK SMILES IDX 35 68 41 69 43 70 36 71 37 72 38 73 39 74 40 75 66 76 67 77
REMARK SMILES IDX 76 78 68 79 69 80 75 81 77 82 70 83 71 84 72 85 73 86 74 87
REMARK SMILES IDX 50 88 51 89 60 90 52 91 53 92 59 93 61 94 54 95 55 96 56 97
REMARK SMILES IDX 57 98 58 99
REMARK H PARENT 13 8 20 30 82 49 48 60
REMARK Flexibility Score: inf
ROOT
ATOM      1  C   UNL A   1      36.862  20.270  25.031  1.00  0.00     0.002 C 
ENDROOT
BRANCH   1   2
ATOM      2  C   UNL A   1      36.388  21.715  24.833  1.00  0.00     0.002 C 
BRANCH   2   3
ATOM      3  C   UNL A   1      35.596  22.355  25.971  1.00  0.00     0.021 C 
BRANCH   3   4
ATOM      4  C   UNL A   1      35.008  23.740  25.725  1.00  0.00     0.116 C 
BRANCH   4   5
ATOM      5  N   UNL A   1      33.826  24.218  26.440  1.00  0.00    -0.356 N 
ATOM      6  C   UNL A   1      32.509  24.340  25.980  1.00  0.00     0.229 C 
ATOM      7  O   UNL A   1      31.602  24.332  26.816  1.00  0.00    -0.274 OA
ATOM      8  H   UNL A   1      33.977  24.490  27.373  1.00  0.00     0.163 HD
BRANCH   6   9
ATOM      9  C   UNL A   1      32.215  24.624  24.477  1.00  0.00     0.089 C 
ATOM     10  C   UNL A   1      31.223  27.579  22.354  1.00  0.00     0.147 C 
ATOM     11  N   UNL A   1      31.913  26.472  22.983  1.00  0.00    -0.337 N 
ATOM     12  C   UNL A   1      32.938  25.747  22.425  1.00  0.00     0.227 C 
ATOM     13  C   UNL A   1      31.651  26.090  24.337  1.00  0.00     0.131 C 
ATOM     14  O   UNL A   1      33.400  25.932  21.315  1.00  0.00    -0.275 OA
ATOM     15  C   UNL A   1      33.420  24.723  23.463  1.00  0.00     0.101 C 
ATOM     16  C   UNL A   1      33.958  23.491  22.735  1.00  0.00     0.041 C 
ATOM     17  C   UNL A   1      31.263  23.447  24.087  1.00  0.00     0.047 C 
ATOM     18  C   UNL A   1      33.079  22.298  22.770  1.00  0.00    -0.030 C 
ATOM     19  C   UNL A   1      31.884  22.280  23.363  1.00  0.00    -0.030 C 
BRANCH  13  20
ATOM     20  C   UNL A   1      32.211  27.133  25.324  1.00  0.00    -0.024 A 
ATOM     21  C   UNL A   1      33.553  27.550  25.314  1.00  0.00     0.006 A 
ATOM     22  C   UNL A   1      31.403  27.611  26.369  1.00  0.00     0.006 A 
ATOM     23  C   UNL A   1      34.113  28.236  26.394  1.00  0.00     0.000 A 
ATOM     24  C   UNL A   1      31.963  28.292  27.457  1.00  0.00     0.000 A 
ATOM     25  C   UNL A   1      33.326  28.570  27.485  1.00  0.00     0.000 A 
ENDBRANCH  13  20
ENDBRANCH   6   9
ENDBRANCH   4   5
ENDBRANCH   3   4
ENDBRANCH   2   3
ENDBRANCH   1   2
BRANCH   1  26
ATOM     26  C   UNL A   1      38.352  19.975  24.806  1.00  0.00     0.021 C 
BRANCH  26  27
ATOM     27  C   UNL A   1      39.295  20.373  25.939  1.00  0.00     0.116 C 
BRANCH  27  28
ATOM     28  N   UNL A   1      40.333  19.383  26.171  1.00  0.00    -0.352 N 
ATOM     29  C   UNL A   1      41.687  19.540  26.327  1.00  0.00     0.251 C 
ATOM     30  H   UNL A   1      40.014  18.453  26.223  1.00  0.00     0.163 HD
ATOM     31  O   UNL A   1      42.419  18.555  26.297  1.00  0.00    -0.269 OA
BRANCH  29  32
ATOM     32  C   UNL A   1      42.266  20.887  26.525  1.00  0.00     0.039 A 
ATOM     33  C   UNL A   1      42.626  21.642  25.405  1.00  0.00     0.014 A 
ATOM     34  C   UNL A   1      42.484  21.391  27.810  1.00  0.00     0.014 A 
ATOM     35  C   UNL A   1      43.151  22.926  25.574  1.00  0.00     0.010 A 
ATOM     36  C   UNL A   1      42.937  22.697  27.973  1.00  0.00     0.010 A 
ATOM     37  C   UNL A   1      43.280  23.477  26.859  1.00  0.00    -0.014 A 
BRANCH  37  38
ATOM     38  C   UNL A   1      43.768  24.865  27.060  1.00  0.00     0.031 A 
ATOM     39  C   UNL A   1      45.227  25.186  26.871  1.00  0.00     0.074 A 
ATOM     40  C   UNL A   1      42.912  25.817  27.484  1.00  0.00     0.049 A 
ATOM     41  N   UNL A   1      45.859  26.310  27.088  1.00  0.00    -0.248 NA
ATOM     42  C   UNL A   1      46.092  24.091  26.402  1.00  0.00     0.031 C 
ATOM     43  C   UNL A   1      41.485  25.616  27.742  1.00  0.00     0.029 A 
ATOM     44  N   UNL A   1      43.120  27.139  27.787  1.00  0.00    -0.354 N 
ATOM     45  C   UNL A   1      47.195  26.055  26.797  1.00  0.00     0.074 A 
ATOM     46  C   UNL A   1      47.289  24.656  26.441  1.00  0.00     0.031 C 
ATOM     47  C   UNL A   1      40.942  26.775  28.146  1.00  0.00     0.029 A 
ATOM     48  C   UNL A   1      41.988  27.790  28.220  1.00  0.00     0.049 A 
ATOM     49  H   UNL A   1      43.995  27.580  27.702  1.00  0.00     0.167 HD
ATOM     50  C   UNL A   1      48.242  26.914  26.804  1.00  0.00     0.037 A 
ATOM     51  C   UNL A   1      41.814  29.057  28.644  1.00  0.00     0.037 A 
ATOM     52  C   UNL A   1      48.132  28.310  27.141  1.00  0.00     0.049 A 
ATOM     53  C   UNL A   1      42.996  29.990  28.660  1.00  0.00     0.074 A 
ATOM     54  C   UNL A   1      49.120  29.278  27.127  1.00  0.00     0.029 A 
ATOM     55  N   UNL A   1      46.965  28.936  27.559  1.00  0.00    -0.354 N 
ATOM     56  N   UNL A   1      44.241  29.748  28.322  1.00  0.00    -0.248 NA
ATOM     57  C   UNL A   1      42.752  31.366  29.111  1.00  0.00     0.031 C 
ATOM     58  C   UNL A   1      48.565  30.476  27.588  1.00  0.00     0.029 A 
ATOM     59  C   UNL A   1      47.215  30.271  27.830  1.00  0.00     0.049 A 
ATOM     60  H   UNL A   1      46.089  28.495  27.648  1.00  0.00     0.167 HD
ATOM     61  C   UNL A   1      44.920  30.950  28.488  1.00  0.00     0.074 A 
ATOM     62  C   UNL A   1      43.946  31.918  28.948  1.00  0.00     0.031 C 
ATOM     63  C   UNL A   1      46.231  31.227  28.277  1.00  0.00     0.037 A 
BRANCH  50  64
ATOM     64  C   UNL A   1      49.597  26.372  26.439  1.00  0.00     0.058 A 
ATOM     65  C   UNL A   1      50.083  26.422  25.121  1.00  0.00     0.135 A 
ATOM     66  C   UNL A   1      50.440  25.831  27.424  1.00  0.00     0.135 A 
ATOM     67  F   UNL A   1      49.317  26.915  24.136  1.00  0.00    -0.206 F 
ATOM     68  C   UNL A   1      51.340  25.928  24.790  1.00  0.00     0.059 A 
ATOM     69  C   UNL A   1      51.714  25.360  27.120  1.00  0.00     0.059 A 
ATOM     70  F   UNL A   1      50.029  25.758  28.700  1.00  0.00    -0.206 F 
ATOM     71  C   UNL A   1      52.149  25.399  25.797  1.00  0.00     0.060 A 
BRANCH  71  72
ATOM     72  S   UNL A   1      53.780  24.767  25.348  1.00  0.00     0.124 S 
ATOM     73  O   UNL A   1      54.528  24.990  26.581  1.00  0.00    -0.237 OA
ATOM     74  O   UNL A   1      53.495  23.374  25.022  1.00  0.00    -0.237 OA
ATOM     75  O   UNL A   1      54.170  25.605  24.217  1.00  0.00    -0.744 OA
ENDBRANCH  71  72
ENDBRANCH  50  64
BRANCH  51  76
ATOM     76  C   UNL A   1      40.467  29.521  29.074  1.00  0.00     0.058 A 
ATOM     77  C   UNL A   1      39.448  29.747  28.136  1.00  0.00     0.135 A 
ATOM     78  C   UNL A   1      40.165  29.733  30.428  1.00  0.00     0.135 A 
ATOM     79  F   UNL A   1      39.687  29.564  26.829  1.00  0.00    -0.206 F 
ATOM     80  C   UNL A   1      38.185  30.186  28.522  1.00  0.00     0.059 A 
ATOM     81  C   UNL A   1      38.902  30.143  30.841  1.00  0.00     0.059 A 
ATOM     82  F   UNL A   1      41.099  29.513  31.367  1.00  0.00    -0.206 F 
ATOM     83  C   UNL A   1      37.921  30.377  29.880  1.00  0.00     0.060 A 
BRANCH  83  84
ATOM     84  S   UNL A   1      36.265  30.901  30.373  1.00  0.00     0.124 S 
ATOM     85  O   UNL A   1      36.503  32.282  30.777  1.00  0.00    -0.237 OA
ATOM     86  O   UNL A   1      35.507  30.719  29.138  1.00  0.00    -0.237 OA
ATOM     87  O   UNL A   1      35.927  29.977  31.450  1.00  0.00    -0.744 OA
ENDBRANCH  83  84
ENDBRANCH  51  76
BRANCH  63  88
ATOM     88  C   UNL A   1      46.688  32.642  28.499  1.00  0.00     0.058 A 
ATOM     89  C   UNL A   1      47.215  33.067  29.728  1.00  0.00     0.135 A 
ATOM     90  C   UNL A   1      46.660  33.569  27.443  1.00  0.00     0.135 A 
ATOM     91  F   UNL A   1      47.259  32.225  30.773  1.00  0.00    -0.206 F 
ATOM     92  C   UNL A   1      47.681  34.365  29.908  1.00  0.00     0.059 A 
ATOM     93  C   UNL A   1      47.149  34.862  27.591  1.00  0.00     0.059 A 
ATOM     94  F   UNL A   1      46.174  33.212  26.243  1.00  0.00    -0.206 F 
ATOM     95  C   UNL A   1      47.650  35.254  28.832  1.00  0.00     0.060 A 
BRANCH  95  96
ATOM     96  S   UNL A   1      48.303  36.920  29.068  1.00  0.00     0.124 S 
ATOM     97  O   UNL A   1      48.126  37.497  27.739  1.00  0.00    -0.237 OA
ATOM     98  O   UNL A   1      47.432  37.452  30.111  1.00  0.00    -0.237 OA
ATOM     99  O   UNL A   1      49.687  36.688  29.472  1.00  0.00    -0.744 OA
ENDBRANCH  95  96
ENDBRANCH  63  88
ENDBRANCH  37  38
ENDBRANCH  29  32
ENDBRANCH  27  28
ENDBRANCH  26  27
ENDBRANCH   1  26
TORSDOF 17
ENDMDL
