MODEL 1
REMARK VINA RESULT:     -11.2      0.000      0.000
REMARK SMILES CN(C)c1cc(C(F)(F)F)cc(-c2cccc(/C=C/C(=O)NCCCCCCNC(=O)c3ccc(-c4c5nc(c(-c6c(F)cc(S(=O)(=O)[O-])cc6F)c6ccc([nH]6)c(-c6c(F)cc(S(=O)(=O)[O-])cc6F)c6nc(c(-c7c(F)cc(S(=O)(=O)[O-])cc7F)c7ccc4[nH]7)C=C6)C=C5)cc3)c2)n1
REMARK SMILES IDX 25 1 24 2 23 3 22 4 20 5 21 6 19 8 18 9 17 10 13 11 14 12
REMARK SMILES IDX 98 13 15 14 16 15 12 16 4 17 5 18 99 19 6 20 11 21 2 22 1 23
REMARK SMILES IDX 3 24 7 25 8 26 9 27 10 28 26 29 27 30 28 31 29 32 30 33
REMARK SMILES IDX 31 35 32 36 33 37 97 38 34 39 96 40 35 41 36 42 37 43 90 44
REMARK SMILES IDX 38 45 95 46 89 47 91 48 39 49 94 50 88 51 87 52 40 54 74 55
REMARK SMILES IDX 53 56 73 57 54 58 57 59 72 60 92 61 55 62 56 63 71 65 93 66
REMARK SMILES IDX 58 67 41 68 42 69 51 70 43 71 44 72 50 73 52 74 45 75 46 76
REMARK SMILES IDX 47 77 48 78 49 79 75 80 76 81 85 82 77 83 78 84 84 85 86 86
REMARK SMILES IDX 79 87 80 88 81 89 82 90 83 91 59 92 60 93 69 94 61 95 62 96
REMARK SMILES IDX 68 97 70 98 63 99 64 100 65 101 66 102 67 103
REMARK H PARENT 22 7 29 34 91 53 57 64
REMARK Flexibility Score: inf
ROOT
ATOM      1  C   UNL A   1      34.773  22.973  27.050  1.00  0.00     0.002 C 
ENDROOT
BRANCH   1   2
ATOM      2  C   UNL A   1      34.331  21.509  26.920  1.00  0.00     0.021 C 
BRANCH   2   3
ATOM      3  C   UNL A   1      32.825  21.345  26.707  1.00  0.00     0.116 C 
BRANCH   3   4
ATOM      4  N   UNL A   1      32.565  20.316  25.715  1.00  0.00    -0.353 N 
ATOM      5  C   UNL A   1      32.508  20.368  24.359  1.00  0.00     0.243 C 
ATOM      6  O   UNL A   1      32.324  19.331  23.723  1.00  0.00    -0.270 OA
ATOM      7  H   UNL A   1      32.400  19.421  26.093  1.00  0.00     0.163 HD
BRANCH   5   8
ATOM      8  C   UNL A   1      32.759  21.628  23.623  1.00  0.00     0.072 C 
ATOM      9  C   UNL A   1      31.931  22.681  23.591  1.00  0.00     0.014 C 
BRANCH   9  10
ATOM     10  C   UNL A   1      32.195  23.925  22.855  1.00  0.00    -0.025 A 
ATOM     11  C   UNL A   1      31.849  26.347  22.699  1.00  0.00     0.001 A 
ATOM     12  C   UNL A   1      32.461  26.329  21.437  1.00  0.00     0.010 A 
ATOM     13  C   UNL A   1      31.728  25.133  23.397  1.00  0.00     0.018 A 
ATOM     14  C   UNL A   1      32.950  25.139  20.897  1.00  0.00     0.001 A 
ATOM     15  C   UNL A   1      32.813  23.941  21.600  1.00  0.00     0.008 A 
BRANCH  11  16
ATOM     16  C   UNL A   1      31.306  27.591  23.256  1.00  0.00     0.073 A 
ATOM     17  C   UNL A   1      29.570  29.155  23.136  1.00  0.00     0.129 A 
ATOM     18  C   UNL A   1      30.149  29.886  24.167  1.00  0.00     0.060 A 
ATOM     19  N   UNL A   1      30.151  28.019  22.691  1.00  0.00    -0.231 NA
ATOM     20  C   UNL A   1      31.326  29.435  24.778  1.00  0.00     0.061 A 
ATOM     21  C   UNL A   1      31.917  28.264  24.302  1.00  0.00     0.042 A 
BRANCH  17  22
ATOM     22  N   UNL A   1      28.365  29.542  22.575  1.00  0.00    -0.363 N 
ATOM     23  C   UNL A   1      28.343  30.321  21.353  1.00  0.00     0.144 C 
ATOM     24  C   UNL A   1      27.175  28.831  23.003  1.00  0.00     0.144 C 
ENDBRANCH  17  22
BRANCH  20  25
ATOM     25  C   UNL A   1      31.922  30.168  25.948  1.00  0.00     0.416 C 
ATOM     26  F   UNL A   1      31.425  31.429  26.068  1.00  0.00    -0.166 F 
ATOM     27  F   UNL A   1      31.658  29.545  27.130  1.00  0.00    -0.166 F 
ATOM     28  F   UNL A   1      33.275  30.293  25.882  1.00  0.00    -0.166 F 
ENDBRANCH  20  25
ENDBRANCH  11  16
ENDBRANCH   9  10
ENDBRANCH   5   8
ENDBRANCH   3   4
ENDBRANCH   2   3
ENDBRANCH   1   2
BRANCH   1  29
ATOM     29  C   UNL A   1      34.647  23.800  25.764  1.00  0.00     0.002 C 
BRANCH  29  30
ATOM     30  C   UNL A   1      35.625  23.417  24.650  1.00  0.00     0.021 C 
BRANCH  30  31
ATOM     31  C   UNL A   1      37.056  23.890  24.881  1.00  0.00     0.116 C 
BRANCH  31  32
ATOM     32  N   UNL A   1      37.911  22.806  25.340  1.00  0.00    -0.352 N 
ATOM     33  C   UNL A   1      39.057  22.861  26.092  1.00  0.00     0.251 C 
ATOM     34  H   UNL A   1      37.624  21.902  25.073  1.00  0.00     0.163 HD
ATOM     35  O   UNL A   1      39.782  21.876  26.179  1.00  0.00    -0.269 OA
BRANCH  33  36
ATOM     36  C   UNL A   1      39.418  24.116  26.787  1.00  0.00     0.039 A 
ATOM     37  C   UNL A   1      38.940  24.335  28.082  1.00  0.00     0.014 A 
ATOM     38  C   UNL A   1      40.213  25.078  26.158  1.00  0.00     0.014 A 
ATOM     39  C   UNL A   1      39.307  25.496  28.765  1.00  0.00     0.010 A 
ATOM     40  C   UNL A   1      40.636  26.198  26.866  1.00  0.00     0.010 A 
ATOM     41  C   UNL A   1      40.184  26.422  28.175  1.00  0.00    -0.014 A 
BRANCH  41  42
ATOM     42  C   UNL A   1      40.642  27.626  28.914  1.00  0.00     0.031 A 
ATOM     43  C   UNL A   1      41.998  27.644  29.568  1.00  0.00     0.074 A 
ATOM     44  C   UNL A   1      39.810  28.677  29.048  1.00  0.00     0.049 A 
ATOM     45  N   UNL A   1      42.546  28.575  30.305  1.00  0.00    -0.248 NA
ATOM     46  C   UNL A   1      42.837  26.447  29.393  1.00  0.00     0.031 C 
ATOM     47  C   UNL A   1      38.454  28.757  28.502  1.00  0.00     0.029 A 
ATOM     48  N   UNL A   1      39.976  29.877  29.693  1.00  0.00    -0.354 N 
ATOM     49  C   UNL A   1      43.785  28.074  30.688  1.00  0.00     0.074 A 
ATOM     50  C   UNL A   1      43.886  26.737  30.148  1.00  0.00     0.031 C 
ATOM     51  C   UNL A   1      37.921  29.949  28.815  1.00  0.00     0.029 A 
ATOM     52  C   UNL A   1      38.879  30.702  29.618  1.00  0.00     0.049 A 
ATOM     53  H   UNL A   1      40.804  30.124  30.167  1.00  0.00     0.167 HD
ATOM     54  C   UNL A   1      44.759  28.685  31.406  1.00  0.00     0.037 A 
ATOM     55  C   UNL A   1      38.665  31.924  30.144  1.00  0.00     0.037 A 
ATOM     56  C   UNL A   1      44.658  30.026  31.921  1.00  0.00     0.049 A 
ATOM     57  C   UNL A   1      39.759  32.578  30.943  1.00  0.00     0.074 A 
ATOM     58  C   UNL A   1      45.610  30.756  32.611  1.00  0.00     0.029 A 
ATOM     59  N   UNL A   1      43.537  30.836  31.810  1.00  0.00    -0.354 N 
ATOM     60  N   UNL A   1      40.952  32.117  31.239  1.00  0.00    -0.248 NA
ATOM     61  C   UNL A   1      39.484  33.921  31.472  1.00  0.00     0.031 C 
ATOM     62  C   UNL A   1      45.048  31.989  32.960  1.00  0.00     0.029 A 
ATOM     63  C   UNL A   1      43.765  32.050  32.438  1.00  0.00     0.049 A 
ATOM     64  H   UNL A   1      42.702  30.586  31.351  1.00  0.00     0.167 HD
ATOM     65  C   UNL A   1      41.578  33.123  31.966  1.00  0.00     0.074 A 
ATOM     66  C   UNL A   1      40.637  34.222  32.052  1.00  0.00     0.031 C 
ATOM     67  C   UNL A   1      42.820  33.137  32.511  1.00  0.00     0.037 A 
BRANCH  54  68
ATOM     68  C   UNL A   1      46.022  27.910  31.673  1.00  0.00     0.058 A 
ATOM     69  C   UNL A   1      46.124  27.011  32.747  1.00  0.00     0.135 A 
ATOM     70  C   UNL A   1      47.133  28.039  30.823  1.00  0.00     0.135 A 
ATOM     71  F   UNL A   1      45.099  26.858  33.600  1.00  0.00    -0.206 F 
ATOM     72  C   UNL A   1      47.289  26.291  32.987  1.00  0.00     0.059 A 
ATOM     73  C   UNL A   1      48.298  27.306  31.026  1.00  0.00     0.059 A 
ATOM     74  F   UNL A   1      47.092  28.885  29.781  1.00  0.00    -0.206 F 
ATOM     75  C   UNL A   1      48.371  26.444  32.119  1.00  0.00     0.060 A 
BRANCH  75  76
ATOM     76  S   UNL A   1      49.874  25.495  32.440  1.00  0.00     0.124 S 
ATOM     77  O   UNL A   1      50.070  24.821  31.159  1.00  0.00    -0.237 OA
ATOM     78  O   UNL A   1      50.840  26.540  32.759  1.00  0.00    -0.237 OA
ATOM     79  O   UNL A   1      49.499  24.628  33.552  1.00  0.00    -0.744 OA
ENDBRANCH  75  76
ENDBRANCH  54  68
BRANCH  55  80
ATOM     80  C   UNL A   1      37.366  32.614  29.915  1.00  0.00     0.058 A 
ATOM     81  C   UNL A   1      37.252  33.642  28.968  1.00  0.00     0.135 A 
ATOM     82  C   UNL A   1      36.211  32.250  30.626  1.00  0.00     0.135 A 
ATOM     83  F   UNL A   1      38.328  34.031  28.268  1.00  0.00    -0.206 F 
ATOM     84  C   UNL A   1      36.046  34.298  28.746  1.00  0.00     0.059 A 
ATOM     85  C   UNL A   1      34.987  32.872  30.401  1.00  0.00     0.059 A 
ATOM     86  F   UNL A   1      36.263  31.259  31.530  1.00  0.00    -0.206 F 
ATOM     87  C   UNL A   1      34.918  33.904  29.467  1.00  0.00     0.060 A 
BRANCH  87  88
ATOM     88  S   UNL A   1      33.346  34.731  29.135  1.00  0.00     0.124 S 
ATOM     89  O   UNL A   1      33.796  35.983  28.537  1.00  0.00    -0.237 OA
ATOM     90  O   UNL A   1      32.690  33.791  28.234  1.00  0.00    -0.237 OA
ATOM     91  O   UNL A   1      32.742  34.845  30.460  1.00  0.00    -0.744 OA
ENDBRANCH  87  88
ENDBRANCH  55  80
BRANCH  67  92
ATOM     92  C   UNL A   1      43.251  34.391  33.222  1.00  0.00     0.058 A 
ATOM     93  C   UNL A   1      43.910  35.432  32.550  1.00  0.00     0.135 A 
ATOM     94  C   UNL A   1      42.951  34.574  34.582  1.00  0.00     0.135 A 
ATOM     95  F   UNL A   1      44.224  35.307  31.252  1.00  0.00    -0.206 F 
ATOM     96  C   UNL A   1      44.280  36.601  33.208  1.00  0.00     0.059 A 
ATOM     97  C   UNL A   1      43.286  35.746  35.252  1.00  0.00     0.059 A 
ATOM     98  F   UNL A   1      42.313  33.614  35.269  1.00  0.00    -0.206 F 
ATOM     99  C   UNL A   1      43.961  36.750  34.560  1.00  0.00     0.060 A 
BRANCH  99 100
ATOM    100  S   UNL A   1      44.416  38.286  35.392  1.00  0.00     0.124 S 
ATOM    101  O   UNL A   1      45.866  38.292  35.224  1.00  0.00    -0.237 OA
ATOM    102  O   UNL A   1      43.685  39.287  34.620  1.00  0.00    -0.237 OA
ATOM    103  O   UNL A   1      43.942  38.086  36.758  1.00  0.00    -0.744 OA
ENDBRANCH  99 100
ENDBRANCH  67  92
ENDBRANCH  41  42
ENDBRANCH  33  36
ENDBRANCH  31  32
ENDBRANCH  30  31
ENDBRANCH  29  30
ENDBRANCH   1  29
TORSDOF 20
ENDMDL
MODEL 2
REMARK VINA RESULT:     -11.0      4.415     11.224
REMARK SMILES CN(C)c1cc(C(F)(F)F)cc(-c2cccc(/C=C/C(=O)NCCCCCCNC(=O)c3ccc(-c4c5nc(c(-c6c(F)cc(S(=O)(=O)[O-])cc6F)c6ccc([nH]6)c(-c6c(F)cc(S(=O)(=O)[O-])cc6F)c6nc(c(-c7c(F)cc(S(=O)(=O)[O-])cc7F)c7ccc4[nH]7)C=C6)C=C5)cc3)c2)n1
REMARK SMILES IDX 25 1 24 2 23 3 22 4 20 5 21 6 19 8 18 9 17 10 13 11 14 12
REMARK SMILES IDX 98 13 15 14 16 15 12 16 4 17 5 18 99 19 6 20 11 21 2 22 1 23
REMARK SMILES IDX 3 24 7 25 8 26 9 27 10 28 26 29 27 30 28 31 29 32 30 33
REMARK SMILES IDX 31 35 32 36 33 37 97 38 34 39 96 40 35 41 36 42 37 43 90 44
REMARK SMILES IDX 38 45 95 46 89 47 91 48 39 49 94 50 88 51 87 52 40 54 74 55
REMARK SMILES IDX 53 56 73 57 54 58 57 59 72 60 92 61 55 62 56 63 71 65 93 66
REMARK SMILES IDX 58 67 41 68 42 69 51 70 43 71 44 72 50 73 52 74 45 75 46 76
REMARK SMILES IDX 47 77 48 78 49 79 75 80 76 81 85 82 77 83 78 84 84 85 86 86
REMARK SMILES IDX 79 87 80 88 81 89 82 90 83 91 59 92 60 93 69 94 61 95 62 96
REMARK SMILES IDX 68 97 70 98 63 99 64 100 65 101 66 102 67 103
REMARK H PARENT 22 7 29 34 91 53 57 64
REMARK Flexibility Score: inf
ROOT
ATOM      1  C   UNL A   1      42.997  23.596  27.894  1.00  0.00     0.002 C 
ENDROOT
BRANCH   1   2
ATOM      2  C   UNL A   1      44.413  23.005  27.925  1.00  0.00     0.021 C 
BRANCH   2   3
ATOM      3  C   UNL A   1      45.139  23.095  26.582  1.00  0.00     0.116 C 
BRANCH   3   4
ATOM      4  N   UNL A   1      46.433  23.732  26.750  1.00  0.00    -0.353 N 
ATOM      5  C   UNL A   1      46.782  25.038  26.888  1.00  0.00     0.243 C 
ATOM      6  O   UNL A   1      47.962  25.331  27.077  1.00  0.00    -0.270 OA
ATOM      7  H   UNL A   1      47.194  23.107  26.766  1.00  0.00     0.163 HD
BRANCH   5   8
ATOM      8  C   UNL A   1      45.762  26.111  26.914  1.00  0.00     0.072 C 
ATOM      9  C   UNL A   1      46.017  27.421  26.794  1.00  0.00     0.014 C 
BRANCH   9  10
ATOM     10  C   UNL A   1      44.993  28.474  26.821  1.00  0.00    -0.025 A 
ATOM     11  C   UNL A   1      44.375  30.739  27.527  1.00  0.00     0.001 A 
ATOM     12  C   UNL A   1      43.060  30.484  27.112  1.00  0.00     0.010 A 
ATOM     13  C   UNL A   1      45.332  29.722  27.370  1.00  0.00     0.018 A 
ATOM     14  C   UNL A   1      42.715  29.257  26.543  1.00  0.00     0.001 A 
ATOM     15  C   UNL A   1      43.675  28.254  26.404  1.00  0.00     0.008 A 
BRANCH  11  16
ATOM     16  C   UNL A   1      44.733  32.017  28.152  1.00  0.00     0.073 A 
ATOM     17  C   UNL A   1      44.115  34.254  28.445  1.00  0.00     0.129 A 
ATOM     18  C   UNL A   1      45.237  34.467  29.239  1.00  0.00     0.060 A 
ATOM     19  N   UNL A   1      43.875  33.037  27.911  1.00  0.00    -0.231 NA
ATOM     20  C   UNL A   1      46.114  33.411  29.519  1.00  0.00     0.061 A 
ATOM     21  C   UNL A   1      45.855  32.162  28.955  1.00  0.00     0.042 A 
BRANCH  17  22
ATOM     22  N   UNL A   1      43.196  35.265  28.223  1.00  0.00    -0.363 N 
ATOM     23  C   UNL A   1      43.310  36.116  27.056  1.00  0.00     0.144 C 
ATOM     24  C   UNL A   1      41.939  35.189  28.945  1.00  0.00     0.144 C 
ENDBRANCH  17  22
BRANCH  20  25
ATOM     25  C   UNL A   1      47.286  33.600  30.442  1.00  0.00     0.416 C 
ATOM     26  F   UNL A   1      47.945  32.432  30.674  1.00  0.00    -0.166 F 
ATOM     27  F   UNL A   1      48.210  34.458  29.928  1.00  0.00    -0.166 F 
ATOM     28  F   UNL A   1      46.947  34.098  31.661  1.00  0.00    -0.166 F 
ENDBRANCH  20  25
ENDBRANCH  11  16
ENDBRANCH   9  10
ENDBRANCH   5   8
ENDBRANCH   3   4
ENDBRANCH   2   3
ENDBRANCH   1   2
BRANCH   1  29
ATOM     29  C   UNL A   1      41.933  22.758  28.612  1.00  0.00     0.002 C 
BRANCH  29  30
ATOM     30  C   UNL A   1      41.163  21.784  27.716  1.00  0.00     0.021 C 
BRANCH  30  31
ATOM     31  C   UNL A   1      41.135  22.177  26.242  1.00  0.00     0.116 C 
BRANCH  31  32
ATOM     32  N   UNL A   1      39.774  22.351  25.760  1.00  0.00    -0.352 N 
ATOM     33  C   UNL A   1      38.843  23.298  26.107  1.00  0.00     0.251 C 
ATOM     34  H   UNL A   1      39.477  21.694  25.089  1.00  0.00     0.163 HD
ATOM     35  O   UNL A   1      37.669  23.150  25.788  1.00  0.00    -0.269 OA
BRANCH  33  36
ATOM     36  C   UNL A   1      39.263  24.491  26.874  1.00  0.00     0.039 A 
ATOM     37  C   UNL A   1      38.851  24.623  28.202  1.00  0.00     0.014 A 
ATOM     38  C   UNL A   1      40.047  25.483  26.278  1.00  0.00     0.014 A 
ATOM     39  C   UNL A   1      39.274  25.724  28.950  1.00  0.00     0.010 A 
ATOM     40  C   UNL A   1      40.526  26.541  27.044  1.00  0.00     0.010 A 
ATOM     41  C   UNL A   1      40.141  26.676  28.386  1.00  0.00    -0.014 A 
BRANCH  41  42
ATOM     42  C   UNL A   1      40.658  27.814  29.188  1.00  0.00     0.031 A 
ATOM     43  C   UNL A   1      39.810  29.039  29.399  1.00  0.00     0.074 A 
ATOM     44  C   UNL A   1      41.915  27.768  29.671  1.00  0.00     0.049 A 
ATOM     45  N   UNL A   1      40.109  30.154  30.014  1.00  0.00    -0.248 NA
ATOM     46  C   UNL A   1      38.457  29.020  28.819  1.00  0.00     0.031 C 
ATOM     47  C   UNL A   1      42.850  26.655  29.490  1.00  0.00     0.029 A 
ATOM     48  N   UNL A   1      42.629  28.681  30.406  1.00  0.00    -0.354 N 
ATOM     49  C   UNL A   1      38.991  30.969  29.887  1.00  0.00     0.074 A 
ATOM     50  C   UNL A   1      38.027  30.243  29.091  1.00  0.00     0.031 C 
ATOM     51  C   UNL A   1      44.003  26.941  30.114  1.00  0.00     0.029 A 
ATOM     52  C   UNL A   1      43.906  28.272  30.705  1.00  0.00     0.049 A 
ATOM     53  H   UNL A   1      42.260  29.549  30.692  1.00  0.00     0.167 HD
ATOM     54  C   UNL A   1      38.778  32.203  30.409  1.00  0.00     0.037 A 
ATOM     55  C   UNL A   1      44.894  28.901  31.373  1.00  0.00     0.037 A 
ATOM     56  C   UNL A   1      39.737  32.909  31.219  1.00  0.00     0.049 A 
ATOM     57  C   UNL A   1      44.636  30.272  31.936  1.00  0.00     0.074 A 
ATOM     58  C   UNL A   1      39.597  34.137  31.841  1.00  0.00     0.029 A 
ATOM     59  N   UNL A   1      41.014  32.455  31.514  1.00  0.00    -0.354 N 
ATOM     60  N   UNL A   1      43.548  31.002  31.865  1.00  0.00    -0.248 NA
ATOM     61  C   UNL A   1      45.736  30.904  32.677  1.00  0.00     0.031 C 
ATOM     62  C   UNL A   1      40.807  34.448  32.472  1.00  0.00     0.029 A 
ATOM     63  C   UNL A   1      41.682  33.388  32.291  1.00  0.00     0.049 A 
ATOM     64  H   UNL A   1      41.391  31.595  31.217  1.00  0.00     0.167 HD
ATOM     65  C   UNL A   1      43.823  32.165  32.574  1.00  0.00     0.074 A 
ATOM     66  C   UNL A   1      45.175  32.036  33.078  1.00  0.00     0.031 C 
ATOM     67  C   UNL A   1      43.027  33.243  32.789  1.00  0.00     0.037 A 
BRANCH  54  68
ATOM     68  C   UNL A   1      37.458  32.866  30.122  1.00  0.00     0.058 A 
ATOM     69  C   UNL A   1      37.313  33.809  29.091  1.00  0.00     0.135 A 
ATOM     70  C   UNL A   1      36.313  32.528  30.863  1.00  0.00     0.135 A 
ATOM     71  F   UNL A   1      38.376  34.181  28.361  1.00  0.00    -0.206 F 
ATOM     72  C   UNL A   1      36.089  34.414  28.824  1.00  0.00     0.059 A 
ATOM     73  C   UNL A   1      35.073  33.099  30.593  1.00  0.00     0.059 A 
ATOM     74  F   UNL A   1      36.394  31.634  31.861  1.00  0.00    -0.206 F 
ATOM     75  C   UNL A   1      34.974  34.051  29.580  1.00  0.00     0.060 A 
BRANCH  75  76
ATOM     76  S   UNL A   1      33.392  34.840  29.214  1.00  0.00     0.124 S 
ATOM     77  O   UNL A   1      33.827  36.116  28.652  1.00  0.00    -0.237 OA
ATOM     78  O   UNL A   1      32.788  33.906  28.271  1.00  0.00    -0.237 OA
ATOM     79  O   UNL A   1      32.741  34.921  30.518  1.00  0.00    -0.744 OA
ENDBRANCH  75  76
ENDBRANCH  54  68
BRANCH  55  80
ATOM     80  C   UNL A   1      46.209  28.231  31.560  1.00  0.00     0.058 A 
ATOM     81  C   UNL A   1      46.423  27.345  32.626  1.00  0.00     0.135 A 
ATOM     82  C   UNL A   1      47.273  28.450  30.670  1.00  0.00     0.135 A 
ATOM     83  F   UNL A   1      45.440  27.107  33.507  1.00  0.00    -0.206 F 
ATOM     84  C   UNL A   1      47.648  26.714  32.815  1.00  0.00     0.059 A 
ATOM     85  C   UNL A   1      48.498  27.809  30.822  1.00  0.00     0.059 A 
ATOM     86  F   UNL A   1      47.114  29.275  29.622  1.00  0.00    -0.206 F 
ATOM     87  C   UNL A   1      48.679  26.951  31.906  1.00  0.00     0.060 A 
BRANCH  87  88
ATOM     88  S   UNL A   1      50.250  26.089  32.135  1.00  0.00     0.124 S 
ATOM     89  O   UNL A   1      51.202  27.192  32.065  1.00  0.00    -0.237 OA
ATOM     90  O   UNL A   1      50.075  25.478  33.447  1.00  0.00    -0.237 OA
ATOM     91  O   UNL A   1      50.285  25.153  31.014  1.00  0.00    -0.744 OA
ENDBRANCH  87  88
ENDBRANCH  55  80
BRANCH  67  92
ATOM     92  C   UNL A   1      43.583  34.356  33.635  1.00  0.00     0.058 A 
ATOM     93  C   UNL A   1      44.177  35.493  33.065  1.00  0.00     0.135 A 
ATOM     94  C   UNL A   1      43.472  34.307  35.034  1.00  0.00     0.135 A 
ATOM     95  F   UNL A   1      44.312  35.588  31.733  1.00  0.00    -0.206 F 
ATOM     96  C   UNL A   1      44.663  36.531  33.853  1.00  0.00     0.059 A 
ATOM     97  C   UNL A   1      43.925  35.346  35.840  1.00  0.00     0.059 A 
ATOM     98  F   UNL A   1      42.905  33.247  35.631  1.00  0.00    -0.206 F 
ATOM     99  C   UNL A   1      44.530  36.449  35.241  1.00  0.00     0.060 A 
BRANCH  99 100
ATOM    100  S   UNL A   1      45.134  37.819  36.250  1.00  0.00     0.124 S 
ATOM    101  O   UNL A   1      46.562  37.800  35.947  1.00  0.00    -0.237 OA
ATOM    102  O   UNL A   1      44.389  38.954  35.714  1.00  0.00    -0.237 OA
ATOM    103  O   UNL A   1      44.775  37.425  37.608  1.00  0.00    -0.744 OA
ENDBRANCH  99 100
ENDBRANCH  67  92
ENDBRANCH  41  42
ENDBRANCH  33  36
ENDBRANCH  31  32
ENDBRANCH  30  31
ENDBRANCH  29  30
ENDBRANCH   1  29
TORSDOF 20
ENDMDL
MODEL 3
REMARK VINA RESULT:     -10.7      4.319     10.229
REMARK SMILES CN(C)c1cc(C(F)(F)F)cc(-c2cccc(/C=C/C(=O)NCCCCCCNC(=O)c3ccc(-c4c5nc(c(-c6c(F)cc(S(=O)(=O)[O-])cc6F)c6ccc([nH]6)c(-c6c(F)cc(S(=O)(=O)[O-])cc6F)c6nc(c(-c7c(F)cc(S(=O)(=O)[O-])cc7F)c7ccc4[nH]7)C=C6)C=C5)cc3)c2)n1
REMARK SMILES IDX 25 1 24 2 23 3 22 4 20 5 21 6 19 8 18 9 17 10 13 11 14 12
REMARK SMILES IDX 98 13 15 14 16 15 12 16 4 17 5 18 99 19 6 20 11 21 2 22 1 23
REMARK SMILES IDX 3 24 7 25 8 26 9 27 10 28 26 29 27 30 28 31 29 32 30 33
REMARK SMILES IDX 31 35 32 36 33 37 97 38 34 39 96 40 35 41 36 42 37 43 90 44
REMARK SMILES IDX 38 45 95 46 89 47 91 48 39 49 94 50 88 51 87 52 40 54 74 55
REMARK SMILES IDX 53 56 73 57 54 58 57 59 72 60 92 61 55 62 56 63 71 65 93 66
REMARK SMILES IDX 58 67 41 68 42 69 51 70 43 71 44 72 50 73 52 74 45 75 46 76
REMARK SMILES IDX 47 77 48 78 49 79 75 80 76 81 85 82 77 83 78 84 84 85 86 86
REMARK SMILES IDX 79 87 80 88 81 89 82 90 83 91 59 92 60 93 69 94 61 95 62 96
REMARK SMILES IDX 68 97 70 98 63 99 64 100 65 101 66 102 67 103
REMARK H PARENT 22 7 29 34 91 53 57 64
REMARK Flexibility Score: inf
ROOT
ATOM      1  C   UNL A   1      33.893  29.146  25.694  1.00  0.00     0.002 C 
ENDROOT
BRANCH   1   2
ATOM      2  C   UNL A   1      32.568  29.521  25.016  1.00  0.00     0.021 C 
BRANCH   2   3
ATOM      3  C   UNL A   1      32.381  28.869  23.645  1.00  0.00     0.116 C 
BRANCH   3   4
ATOM      4  N   UNL A   1      31.006  29.014  23.201  1.00  0.00    -0.353 N 
ATOM      5  C   UNL A   1      29.945  28.168  23.267  1.00  0.00     0.243 C 
ATOM      6  O   UNL A   1      28.845  28.546  22.867  1.00  0.00    -0.270 OA
ATOM      7  H   UNL A   1      30.806  29.879  22.776  1.00  0.00     0.163 HD
BRANCH   5   8
ATOM      8  C   UNL A   1      30.059  26.834  23.901  1.00  0.00     0.072 C 
ATOM      9  C   UNL A   1      30.730  26.571  25.030  1.00  0.00     0.014 C 
BRANCH   9  10
ATOM     10  C   UNL A   1      30.833  25.241  25.646  1.00  0.00    -0.025 A 
ATOM     11  C   UNL A   1      32.088  23.144  25.840  1.00  0.00     0.001 A 
ATOM     12  C   UNL A   1      31.035  22.612  26.599  1.00  0.00     0.010 A 
ATOM     13  C   UNL A   1      31.971  24.464  25.374  1.00  0.00     0.018 A 
ATOM     14  C   UNL A   1      29.909  23.381  26.897  1.00  0.00     0.001 A 
ATOM     15  C   UNL A   1      29.805  24.687  26.418  1.00  0.00     0.008 A 
BRANCH  11  16
ATOM     16  C   UNL A   1      33.259  22.328  25.500  1.00  0.00     0.073 A 
ATOM     17  C   UNL A   1      34.025  20.170  25.020  1.00  0.00     0.129 A 
ATOM     18  C   UNL A   1      35.318  20.658  24.861  1.00  0.00     0.060 A 
ATOM     19  N   UNL A   1      33.012  21.006  25.337  1.00  0.00    -0.231 NA
ATOM     20  C   UNL A   1      35.577  22.027  24.997  1.00  0.00     0.061 A 
ATOM     21  C   UNL A   1      34.521  22.876  25.331  1.00  0.00     0.042 A 
BRANCH  17  22
ATOM     22  N   UNL A   1      33.736  18.833  24.811  1.00  0.00    -0.363 N 
ATOM     23  C   UNL A   1      32.361  18.390  24.693  1.00  0.00     0.144 C 
ATOM     24  C   UNL A   1      34.813  17.989  24.328  1.00  0.00     0.144 C 
ENDBRANCH  17  22
BRANCH  20  25
ATOM     25  C   UNL A   1      36.952  22.585  24.748  1.00  0.00     0.416 C 
ATOM     26  F   UNL A   1      37.908  21.916  25.449  1.00  0.00    -0.166 F 
ATOM     27  F   UNL A   1      37.312  22.494  23.438  1.00  0.00    -0.166 F 
ATOM     28  F   UNL A   1      37.077  23.897  25.084  1.00  0.00    -0.166 F 
ENDBRANCH  20  25
ENDBRANCH  11  16
ENDBRANCH   9  10
ENDBRANCH   5   8
ENDBRANCH   3   4
ENDBRANCH   2   3
ENDBRANCH   1   2
BRANCH   1  29
ATOM     29  C   UNL A   1      33.799  28.913  27.208  1.00  0.00     0.002 C 
BRANCH  29  30
ATOM     30  C   UNL A   1      35.038  29.330  28.004  1.00  0.00     0.021 C 
BRANCH  30  31
ATOM     31  C   UNL A   1      35.211  30.838  28.152  1.00  0.00     0.116 C 
BRANCH  31  32
ATOM     32  N   UNL A   1      35.227  31.240  29.550  1.00  0.00    -0.352 N 
ATOM     33  C   UNL A   1      36.175  30.999  30.513  1.00  0.00     0.251 C 
ATOM     34  H   UNL A   1      34.446  31.760  29.848  1.00  0.00     0.163 HD
ATOM     35  O   UNL A   1      35.914  31.199  31.694  1.00  0.00    -0.269 OA
BRANCH  33  36
ATOM     36  C   UNL A   1      37.507  30.491  30.119  1.00  0.00     0.039 A 
ATOM     37  C   UNL A   1      38.039  30.868  28.884  1.00  0.00     0.014 A 
ATOM     38  C   UNL A   1      38.221  29.633  30.961  1.00  0.00     0.014 A 
ATOM     39  C   UNL A   1      39.313  30.428  28.518  1.00  0.00     0.010 A 
ATOM     40  C   UNL A   1      39.518  29.256  30.627  1.00  0.00     0.010 A 
ATOM     41  C   UNL A   1      40.076  29.645  29.401  1.00  0.00    -0.014 A 
BRANCH  41  42
ATOM     42  C   UNL A   1      41.460  29.228  29.059  1.00  0.00     0.031 A 
ATOM     43  C   UNL A   1      42.579  30.235  29.072  1.00  0.00     0.074 A 
ATOM     44  C   UNL A   1      41.694  27.958  28.675  1.00  0.00     0.049 A 
ATOM     45  N   UNL A   1      43.836  30.076  28.745  1.00  0.00    -0.248 NA
ATOM     46  C   UNL A   1      42.236  31.606  29.482  1.00  0.00     0.031 C 
ATOM     47  C   UNL A   1      40.682  26.905  28.575  1.00  0.00     0.029 A 
ATOM     48  N   UNL A   1      42.855  27.337  28.288  1.00  0.00    -0.354 N 
ATOM     49  C   UNL A   1      44.428  31.324  28.899  1.00  0.00     0.074 A 
ATOM     50  C   UNL A   1      43.384  32.241  29.296  1.00  0.00     0.031 C 
ATOM     51  C   UNL A   1      41.268  25.765  28.176  1.00  0.00     0.029 A 
ATOM     52  C   UNL A   1      42.688  26.014  27.954  1.00  0.00     0.049 A 
ATOM     53  H   UNL A   1      43.726  27.796  28.253  1.00  0.00     0.167 HD
ATOM     54  C   UNL A   1      45.731  31.667  28.746  1.00  0.00     0.037 A 
ATOM     55  C   UNL A   1      43.578  25.105  27.507  1.00  0.00     0.037 A 
ATOM     56  C   UNL A   1      46.768  30.741  28.371  1.00  0.00     0.049 A 
ATOM     57  C   UNL A   1      45.017  25.512  27.339  1.00  0.00     0.074 A 
ATOM     58  C   UNL A   1      48.125  30.976  28.244  1.00  0.00     0.029 A 
ATOM     59  N   UNL A   1      46.563  29.405  28.056  1.00  0.00    -0.354 N 
ATOM     60  N   UNL A   1      45.573  26.681  27.554  1.00  0.00    -0.248 NA
ATOM     61  C   UNL A   1      45.950  24.477  26.875  1.00  0.00     0.031 C 
ATOM     62  C   UNL A   1      48.735  29.795  27.806  1.00  0.00     0.029 A 
ATOM     63  C   UNL A   1      47.765  28.808  27.713  1.00  0.00     0.049 A 
ATOM     64  H   UNL A   1      45.691  28.947  28.075  1.00  0.00     0.167 HD
ATOM     65  C   UNL A   1      46.926  26.514  27.277  1.00  0.00     0.074 A 
ATOM     66  C   UNL A   1      47.105  25.129  26.894  1.00  0.00     0.031 C 
ATOM     67  C   UNL A   1      47.928  27.426  27.338  1.00  0.00     0.037 A 
BRANCH  54  68
ATOM     68  C   UNL A   1      46.109  33.104  28.987  1.00  0.00     0.058 A 
ATOM     69  C   UNL A   1      46.092  34.056  27.954  1.00  0.00     0.135 A 
ATOM     70  C   UNL A   1      46.457  33.545  30.275  1.00  0.00     0.135 A 
ATOM     71  F   UNL A   1      45.781  33.688  26.701  1.00  0.00    -0.206 F 
ATOM     72  C   UNL A   1      46.434  35.385  28.182  1.00  0.00     0.059 A 
ATOM     73  C   UNL A   1      46.774  34.875  30.532  1.00  0.00     0.059 A 
ATOM     74  F   UNL A   1      46.491  32.678  31.299  1.00  0.00    -0.206 F 
ATOM     75  C   UNL A   1      46.772  35.785  29.476  1.00  0.00     0.060 A 
BRANCH  75  76
ATOM     76  S   UNL A   1      47.206  37.515  29.755  1.00  0.00     0.124 S 
ATOM     77  O   UNL A   1      46.831  37.686  31.157  1.00  0.00    -0.237 OA
ATOM     78  O   UNL A   1      48.639  37.527  29.478  1.00  0.00    -0.237 OA
ATOM     79  O   UNL A   1      46.377  38.235  28.794  1.00  0.00    -0.744 OA
ENDBRANCH  75  76
ENDBRANCH  54  68
BRANCH  55  80
ATOM     80  C   UNL A   1      43.135  23.716  27.208  1.00  0.00     0.058 A 
ATOM     81  C   UNL A   1      42.845  23.318  25.895  1.00  0.00     0.135 A 
ATOM     82  C   UNL A   1      43.009  22.756  28.225  1.00  0.00     0.135 A 
ATOM     83  F   UNL A   1      42.945  24.200  24.889  1.00  0.00    -0.206 F 
ATOM     84  C   UNL A   1      42.426  22.024  25.602  1.00  0.00     0.059 A 
ATOM     85  C   UNL A   1      42.619  21.448  27.953  1.00  0.00     0.059 A 
ATOM     86  F   UNL A   1      43.293  23.081  29.496  1.00  0.00    -0.206 F 
ATOM     87  C   UNL A   1      42.319  21.096  26.638  1.00  0.00     0.060 A 
BRANCH  87  88
ATOM     88  S   UNL A   1      41.821  19.406  26.237  1.00  0.00     0.124 S 
ATOM     89  O   UNL A   1      40.386  19.565  26.031  1.00  0.00    -0.237 OA
ATOM     90  O   UNL A   1      42.612  19.129  25.044  1.00  0.00    -0.237 OA
ATOM     91  O   UNL A   1      42.209  18.652  27.427  1.00  0.00    -0.744 OA
ENDBRANCH  87  88
ENDBRANCH  55  80
BRANCH  67  92
ATOM     92  C   UNL A   1      49.319  26.948  27.014  1.00  0.00     0.058 A 
ATOM     93  C   UNL A   1      50.198  26.503  28.012  1.00  0.00     0.135 A 
ATOM     94  C   UNL A   1      49.755  26.888  25.681  1.00  0.00     0.135 A 
ATOM     95  F   UNL A   1      49.833  26.544  29.303  1.00  0.00    -0.206 F 
ATOM     96  C   UNL A   1      51.472  26.036  27.703  1.00  0.00     0.059 A 
ATOM     97  C   UNL A   1      51.013  26.398  25.345  1.00  0.00     0.059 A 
ATOM     98  F   UNL A   1      48.950  27.293  24.686  1.00  0.00    -0.206 F 
ATOM     99  C   UNL A   1      51.869  25.986  26.364  1.00  0.00     0.060 A 
BRANCH  99 100
ATOM    100  S   UNL A   1      53.511  25.346  25.974  1.00  0.00     0.124 S 
ATOM    101  O   UNL A   1      54.169  25.409  27.275  1.00  0.00    -0.237 OA
ATOM    102  O   UNL A   1      53.214  24.005  25.479  1.00  0.00    -0.237 OA
ATOM    103  O   UNL A   1      54.011  26.281  24.971  1.00  0.00    -0.744 OA
ENDBRANCH  99 100
ENDBRANCH  67  92
ENDBRANCH  41  42
ENDBRANCH  33  36
ENDBRANCH  31  32
ENDBRANCH  30  31
ENDBRANCH  29  30
ENDBRANCH   1  29
TORSDOF 20
ENDMDL
