MODEL 1
REMARK VINA RESULT:     -10.8      0.000      0.000
REMARK SMILES O=C(Cc1ccccc1Nc1c(F)cccc1C(F)(F)F)NCCCCCCNC(=O)c1ccc(-c2c3nc(c(-c4c(F)cc(S(=O)(=O)[O-])cc4F)c4ccc([nH]4)c(-c4c(F)cc(S(=O)(=O)[O-])cc4F)c4nc(c(-c5c(F)cc(S(=O)(=O)[O-])cc5F)c5ccc2[nH]5)C=C4)C=C3)cc1
REMARK SMILES IDX 25 1 24 2 23 3 22 4 1 5 2 6 3 8 4 9 5 10 9 11 6 12 8 13 7 14
REMARK SMILES IDX 10 15 11 17 12 18 17 19 13 20 14 21 16 22 15 23 18 24 19 25
REMARK SMILES IDX 20 26 21 27 26 28 27 29 28 30 29 31 30 32 31 34 32 35 33 36
REMARK SMILES IDX 97 37 34 38 96 39 35 40 36 41 37 42 90 43 38 44 95 45 89 46
REMARK SMILES IDX 91 47 39 48 94 49 88 50 87 51 40 53 74 54 53 55 73 56 54 57
REMARK SMILES IDX 57 58 72 59 92 60 55 61 56 62 71 64 93 65 58 66 41 67 42 68
REMARK SMILES IDX 51 69 43 70 44 71 50 72 52 73 45 74 46 75 47 76 48 77 49 78
REMARK SMILES IDX 75 79 76 80 85 81 77 82 78 83 84 84 86 85 79 86 80 87 81 88
REMARK SMILES IDX 82 89 83 90 59 91 60 92 69 93 61 94 62 95 68 96 70 97 63 98
REMARK SMILES IDX 64 99 65 100 66 101 67 102
REMARK H PARENT 22 7 10 16 29 33 91 52 57 63
REMARK Flexibility Score: inf
ROOT
ATOM      1  C   UNL A   1      30.592  27.374  24.941  1.00  0.00     0.002 C 
ENDROOT
BRANCH   1   2
ATOM      2  C   UNL A   1      31.019  28.163  23.697  1.00  0.00     0.021 C 
BRANCH   2   3
ATOM      3  C   UNL A   1      31.001  27.352  22.406  1.00  0.00     0.116 C 
BRANCH   3   4
ATOM      4  N   UNL A   1      30.983  25.925  22.653  1.00  0.00    -0.356 N 
ATOM      5  O   UNL A   1      33.239  25.587  22.426  1.00  0.00    -0.275 OA
ATOM      6  C   UNL A   1      32.124  25.156  22.707  1.00  0.00     0.224 C 
ATOM      7  H   UNL A   1      30.114  25.482  22.789  1.00  0.00     0.163 HD
BRANCH   6   8
ATOM      8  C   UNL A   1      31.917  23.731  23.180  1.00  0.00     0.137 C 
BRANCH   8   9
ATOM      9  C   UNL A   1      32.052  23.485  24.677  1.00  0.00    -0.015 A 
ATOM     10  C   UNL A   1      30.850  23.469  25.418  1.00  0.00     0.006 A 
ATOM     11  C   UNL A   1      33.278  23.227  25.341  1.00  0.00     0.042 A 
ATOM     12  C   UNL A   1      30.848  23.251  26.792  1.00  0.00     0.000 A 
ATOM     13  C   UNL A   1      33.246  23.039  26.734  1.00  0.00     0.026 A 
ATOM     14  C   UNL A   1      32.050  23.052  27.454  1.00  0.00     0.002 A 
BRANCH  11  15
ATOM     15  N   UNL A   1      34.492  23.099  24.630  1.00  0.00    -0.352 N 
ATOM     16  H   UNL A   1      34.622  23.772  23.923  1.00  0.00     0.167 HD
BRANCH  15  17
ATOM     17  C   UNL A   1      35.550  22.172  24.758  1.00  0.00     0.087 A 
ATOM     18  C   UNL A   1      36.852  22.696  24.913  1.00  0.00     0.147 A 
ATOM     19  C   UNL A   1      35.388  20.779  24.792  1.00  0.00     0.082 A 
ATOM     20  F   UNL A   1      37.033  24.024  24.860  1.00  0.00    -0.205 F 
ATOM     21  C   UNL A   1      37.962  21.890  25.130  1.00  0.00     0.041 A 
ATOM     22  C   UNL A   1      36.522  19.967  25.032  1.00  0.00     0.015 A 
ATOM     23  C   UNL A   1      37.796  20.515  25.201  1.00  0.00     0.004 A 
BRANCH  19  24
ATOM     24  C   UNL A   1      34.070  20.082  24.548  1.00  0.00     0.418 C 
ATOM     25  F   UNL A   1      34.250  18.774  24.184  1.00  0.00    -0.166 F 
ATOM     26  F   UNL A   1      33.297  20.027  25.670  1.00  0.00    -0.166 F 
ATOM     27  F   UNL A   1      33.291  20.606  23.566  1.00  0.00    -0.166 F 
ENDBRANCH  19  24
ENDBRANCH  15  17
ENDBRANCH  11  15
ENDBRANCH   8   9
ENDBRANCH   6   8
ENDBRANCH   3   4
ENDBRANCH   2   3
ENDBRANCH   1   2
BRANCH   1  28
ATOM     28  C   UNL A   1      31.695  27.126  25.975  1.00  0.00     0.002 C 
BRANCH  28  29
ATOM     29  C   UNL A   1      33.009  27.869  25.725  1.00  0.00     0.021 C 
BRANCH  29  30
ATOM     30  C   UNL A   1      33.814  28.198  26.979  1.00  0.00     0.116 C 
BRANCH  30  31
ATOM     31  N   UNL A   1      33.674  29.589  27.383  1.00  0.00    -0.352 N 
ATOM     32  C   UNL A   1      34.566  30.400  28.037  1.00  0.00     0.251 C 
ATOM     33  H   UNL A   1      32.813  30.008  27.154  1.00  0.00     0.163 HD
ATOM     34  O   UNL A   1      34.201  31.502  28.445  1.00  0.00    -0.269 OA
BRANCH  32  35
ATOM     35  C   UNL A   1      35.953  29.943  28.276  1.00  0.00     0.039 A 
ATOM     36  C   UNL A   1      36.892  30.077  27.251  1.00  0.00     0.014 A 
ATOM     37  C   UNL A   1      36.327  29.379  29.499  1.00  0.00     0.014 A 
ATOM     38  C   UNL A   1      38.219  29.699  27.473  1.00  0.00     0.010 A 
ATOM     39  C   UNL A   1      37.664  29.077  29.745  1.00  0.00     0.010 A 
ATOM     40  C   UNL A   1      38.625  29.228  28.733  1.00  0.00    -0.014 A 
BRANCH  40  41
ATOM     41  C   UNL A   1      40.049  28.902  29.005  1.00  0.00     0.031 A 
ATOM     42  C   UNL A   1      40.956  29.913  29.656  1.00  0.00     0.074 A 
ATOM     43  C   UNL A   1      40.540  27.707  28.620  1.00  0.00     0.049 A 
ATOM     44  N   UNL A   1      42.223  29.807  29.967  1.00  0.00    -0.248 NA
ATOM     45  C   UNL A   1      40.367  31.222  29.978  1.00  0.00     0.031 C 
ATOM     46  C   UNL A   1      39.777  26.661  27.936  1.00  0.00     0.029 A 
ATOM     47  N   UNL A   1      41.796  27.167  28.749  1.00  0.00    -0.354 N 
ATOM     48  C   UNL A   1      42.587  31.037  30.503  1.00  0.00     0.074 A 
ATOM     49  C   UNL A   1      41.421  31.890  30.426  1.00  0.00     0.031 C 
ATOM     50  C   UNL A   1      40.566  25.592  27.746  1.00  0.00     0.029 A 
ATOM     51  C   UNL A   1      41.901  25.888  28.255  1.00  0.00     0.049 A 
ATOM     52  H   UNL A   1      42.550  27.651  29.156  1.00  0.00     0.167 HD
ATOM     53  C   UNL A   1      43.777  31.415  31.030  1.00  0.00     0.037 A 
ATOM     54  C   UNL A   1      42.953  25.048  28.219  1.00  0.00     0.037 A 
ATOM     55  C   UNL A   1      44.929  30.552  31.118  1.00  0.00     0.049 A 
ATOM     56  C   UNL A   1      44.267  25.492  28.801  1.00  0.00     0.074 A 
ATOM     57  C   UNL A   1      46.157  30.813  31.700  1.00  0.00     0.029 A 
ATOM     58  N   UNL A   1      45.000  29.268  30.597  1.00  0.00    -0.354 N 
ATOM     59  N   UNL A   1      44.570  26.629  29.380  1.00  0.00    -0.248 NA
ATOM     60  C   UNL A   1      45.379  24.537  28.728  1.00  0.00     0.031 C 
ATOM     61  C   UNL A   1      46.990  29.711  31.476  1.00  0.00     0.029 A 
ATOM     62  C   UNL A   1      46.262  28.737  30.811  1.00  0.00     0.049 A 
ATOM     63  H   UNL A   1      44.262  28.801  30.141  1.00  0.00     0.167 HD
ATOM     64  C   UNL A   1      45.901  26.514  29.770  1.00  0.00     0.074 A 
ATOM     65  C   UNL A   1      46.337  25.191  29.371  1.00  0.00     0.031 C 
ATOM     66  C   UNL A   1      46.688  27.419  30.404  1.00  0.00     0.037 A 
BRANCH  53  67
ATOM     67  C   UNL A   1      43.897  32.829  31.538  1.00  0.00     0.058 A 
ATOM     68  C   UNL A   1      43.564  33.178  32.857  1.00  0.00     0.135 A 
ATOM     69  C   UNL A   1      44.366  33.849  30.694  1.00  0.00     0.135 A 
ATOM     70  F   UNL A   1      43.100  32.247  33.707  1.00  0.00    -0.206 F 
ATOM     71  C   UNL A   1      43.644  34.493  33.307  1.00  0.00     0.059 A 
ATOM     72  C   UNL A   1      44.487  35.165  31.132  1.00  0.00     0.059 A 
ATOM     73  F   UNL A   1      44.704  33.576  29.425  1.00  0.00    -0.206 F 
ATOM     74  C   UNL A   1      44.103  35.480  32.434  1.00  0.00     0.060 A 
BRANCH  74  75
ATOM     75  S   UNL A   1      44.181  37.185  33.026  1.00  0.00     0.124 S 
ATOM     76  O   UNL A   1      45.537  37.243  33.563  1.00  0.00    -0.237 OA
ATOM     77  O   UNL A   1      43.948  37.951  31.807  1.00  0.00    -0.237 OA
ATOM     78  O   UNL A   1      43.112  37.249  34.018  1.00  0.00    -0.744 OA
ENDBRANCH  74  75
ENDBRANCH  53  67
BRANCH  54  79
ATOM     79  C   UNL A   1      42.792  23.681  27.652  1.00  0.00     0.058 A 
ATOM     80  C   UNL A   1      43.133  23.415  26.317  1.00  0.00     0.135 A 
ATOM     81  C   UNL A   1      42.320  22.613  28.431  1.00  0.00     0.135 A 
ATOM     82  F   UNL A   1      43.582  24.404  25.530  1.00  0.00    -0.206 F 
ATOM     83  C   UNL A   1      43.000  22.142  25.770  1.00  0.00     0.059 A 
ATOM     84  C   UNL A   1      42.205  21.326  27.914  1.00  0.00     0.059 A 
ATOM     85  F   UNL A   1      41.995  22.812  29.717  1.00  0.00    -0.206 F 
ATOM     86  C   UNL A   1      42.541  21.103  26.579  1.00  0.00     0.060 A 
BRANCH  86  87
ATOM     87  S   UNL A   1      42.432  19.444  25.874  1.00  0.00     0.124 S 
ATOM     88  O   UNL A   1      43.202  19.595  24.645  1.00  0.00    -0.237 OA
ATOM     89  O   UNL A   1      43.046  18.628  26.918  1.00  0.00    -0.237 OA
ATOM     90  O   UNL A   1      40.996  19.247  25.699  1.00  0.00    -0.744 OA
ENDBRANCH  86  87
ENDBRANCH  54  79
BRANCH  66  91
ATOM     91  C   UNL A   1      48.095  26.998  30.734  1.00  0.00     0.058 A 
ATOM     92  C   UNL A   1      49.190  27.376  29.940  1.00  0.00     0.135 A 
ATOM     93  C   UNL A   1      48.355  26.223  31.878  1.00  0.00     0.135 A 
ATOM     94  F   UNL A   1      49.000  28.111  28.833  1.00  0.00    -0.206 F 
ATOM     95  C   UNL A   1      50.486  26.970  30.246  1.00  0.00     0.059 A 
ATOM     96  C   UNL A   1      49.646  25.834  32.221  1.00  0.00     0.059 A 
ATOM     97  F   UNL A   1      47.349  25.842  32.680  1.00  0.00    -0.206 F 
ATOM     98  C   UNL A   1      50.703  26.197  31.389  1.00  0.00     0.060 A 
BRANCH  98  99
ATOM     99  S   UNL A   1      52.389  25.685  31.780  1.00  0.00     0.124 S 
ATOM    100  O   UNL A   1      52.759  26.652  32.807  1.00  0.00    -0.237 OA
ATOM    101  O   UNL A   1      52.200  24.313  32.241  1.00  0.00    -0.237 OA
ATOM    102  O   UNL A   1      53.090  25.822  30.507  1.00  0.00    -0.744 OA
ENDBRANCH  98  99
ENDBRANCH  66  91
ENDBRANCH  40  41
ENDBRANCH  32  35
ENDBRANCH  30  31
ENDBRANCH  29  30
ENDBRANCH  28  29
ENDBRANCH   1  28
TORSDOF 20
ENDMDL
MODEL 2
REMARK VINA RESULT:     -10.7      0.958      8.108
REMARK SMILES O=C(Cc1ccccc1Nc1c(F)cccc1C(F)(F)F)NCCCCCCNC(=O)c1ccc(-c2c3nc(c(-c4c(F)cc(S(=O)(=O)[O-])cc4F)c4ccc([nH]4)c(-c4c(F)cc(S(=O)(=O)[O-])cc4F)c4nc(c(-c5c(F)cc(S(=O)(=O)[O-])cc5F)c5ccc2[nH]5)C=C4)C=C3)cc1
REMARK SMILES IDX 25 1 24 2 23 3 22 4 1 5 2 6 3 8 4 9 5 10 9 11 6 12 8 13 7 14
REMARK SMILES IDX 10 15 11 17 12 18 17 19 13 20 14 21 16 22 15 23 18 24 19 25
REMARK SMILES IDX 20 26 21 27 26 28 27 29 28 30 29 31 30 32 31 34 32 35 33 36
REMARK SMILES IDX 97 37 34 38 96 39 35 40 36 41 37 42 90 43 38 44 95 45 89 46
REMARK SMILES IDX 91 47 39 48 94 49 88 50 87 51 40 53 74 54 53 55 73 56 54 57
REMARK SMILES IDX 57 58 72 59 92 60 55 61 56 62 71 64 93 65 58 66 41 67 42 68
REMARK SMILES IDX 51 69 43 70 44 71 50 72 52 73 45 74 46 75 47 76 48 77 49 78
REMARK SMILES IDX 75 79 76 80 85 81 77 82 78 83 84 84 86 85 79 86 80 87 81 88
REMARK SMILES IDX 82 89 83 90 59 91 60 92 69 93 61 94 62 95 68 96 70 97 63 98
REMARK SMILES IDX 64 99 65 100 66 101 67 102
REMARK H PARENT 22 7 10 16 29 33 91 52 57 63
REMARK Flexibility Score: inf
ROOT
ATOM      1  C   UNL A   1      33.135  29.324  24.482  1.00  0.00     0.002 C 
ENDROOT
BRANCH   1   2
ATOM      2  C   UNL A   1      33.978  28.456  23.539  1.00  0.00     0.021 C 
BRANCH   2   3
ATOM      3  C   UNL A   1      33.277  28.085  22.237  1.00  0.00     0.116 C 
BRANCH   3   4
ATOM      4  N   UNL A   1      32.350  26.984  22.406  1.00  0.00    -0.356 N 
ATOM      5  O   UNL A   1      33.696  25.361  21.506  1.00  0.00    -0.275 OA
ATOM      6  C   UNL A   1      32.660  25.682  22.082  1.00  0.00     0.224 C 
ATOM      7  H   UNL A   1      31.456  27.174  22.771  1.00  0.00     0.163 HD
BRANCH   6   8
ATOM      8  C   UNL A   1      31.641  24.649  22.524  1.00  0.00     0.137 C 
BRANCH   8   9
ATOM      9  C   UNL A   1      31.564  24.367  24.018  1.00  0.00    -0.015 A 
ATOM     10  C   UNL A   1      30.578  25.077  24.737  1.00  0.00     0.006 A 
ATOM     11  C   UNL A   1      32.368  23.418  24.698  1.00  0.00     0.042 A 
ATOM     12  C   UNL A   1      30.411  24.900  26.107  1.00  0.00     0.000 A 
ATOM     13  C   UNL A   1      32.195  23.282  26.088  1.00  0.00     0.026 A 
ATOM     14  C   UNL A   1      31.232  24.013  26.787  1.00  0.00     0.002 A 
BRANCH  11  15
ATOM     15  N   UNL A   1      33.276  22.586  24.007  1.00  0.00    -0.352 N 
ATOM     16  H   UNL A   1      32.929  22.218  23.162  1.00  0.00     0.167 HD
BRANCH  15  17
ATOM     17  C   UNL A   1      34.595  22.189  24.319  1.00  0.00     0.087 A 
ATOM     18  C   UNL A   1      35.596  23.184  24.274  1.00  0.00     0.147 A 
ATOM     19  C   UNL A   1      34.964  20.895  24.718  1.00  0.00     0.082 A 
ATOM     20  F   UNL A   1      35.270  24.422  23.874  1.00  0.00    -0.205 F 
ATOM     21  C   UNL A   1      36.913  22.938  24.639  1.00  0.00     0.041 A 
ATOM     22  C   UNL A   1      36.305  20.659  25.105  1.00  0.00     0.015 A 
ATOM     23  C   UNL A   1      37.270  21.668  25.068  1.00  0.00     0.004 A 
BRANCH  19  24
ATOM     24  C   UNL A   1      34.018  19.718  24.721  1.00  0.00     0.418 C 
ATOM     25  F   UNL A   1      34.694  18.527  24.714  1.00  0.00    -0.166 F 
ATOM     26  F   UNL A   1      33.249  19.674  25.847  1.00  0.00    -0.166 F 
ATOM     27  F   UNL A   1      33.166  19.634  23.666  1.00  0.00    -0.166 F 
ENDBRANCH  19  24
ENDBRANCH  15  17
ENDBRANCH  11  15
ENDBRANCH   8   9
ENDBRANCH   6   8
ENDBRANCH   3   4
ENDBRANCH   2   3
ENDBRANCH   1   2
BRANCH   1  28
ATOM     28  C   UNL A   1      32.133  28.564  25.358  1.00  0.00     0.002 C 
BRANCH  28  29
ATOM     29  C   UNL A   1      32.746  27.740  26.492  1.00  0.00     0.021 C 
BRANCH  29  30
ATOM     30  C   UNL A   1      34.027  28.313  27.088  1.00  0.00     0.116 C 
BRANCH  30  31
ATOM     31  N   UNL A   1      33.842  29.651  27.629  1.00  0.00    -0.352 N 
ATOM     32  C   UNL A   1      34.717  30.434  28.338  1.00  0.00     0.251 C 
ATOM     33  H   UNL A   1      32.958  30.052  27.462  1.00  0.00     0.163 HD
ATOM     34  O   UNL A   1      34.319  31.474  28.859  1.00  0.00    -0.269 OA
BRANCH  32  35
ATOM     35  C   UNL A   1      36.128  30.017  28.498  1.00  0.00     0.039 A 
ATOM     36  C   UNL A   1      36.994  30.138  27.408  1.00  0.00     0.014 A 
ATOM     37  C   UNL A   1      36.596  29.503  29.710  1.00  0.00     0.014 A 
ATOM     38  C   UNL A   1      38.342  29.799  27.553  1.00  0.00     0.010 A 
ATOM     39  C   UNL A   1      37.954  29.239  29.875  1.00  0.00     0.010 A 
ATOM     40  C   UNL A   1      38.842  29.379  28.798  1.00  0.00    -0.014 A 
BRANCH  40  41
ATOM     41  C   UNL A   1      40.289  29.095  28.984  1.00  0.00     0.031 A 
ATOM     42  C   UNL A   1      40.861  27.753  28.610  1.00  0.00     0.074 A 
ATOM     43  C   UNL A   1      41.082  30.034  29.539  1.00  0.00     0.049 A 
ATOM     44  N   UNL A   1      42.094  27.326  28.704  1.00  0.00    -0.248 NA
ATOM     45  C   UNL A   1      39.919  26.754  28.082  1.00  0.00     0.031 C 
ATOM     46  C   UNL A   1      40.638  31.355  29.990  1.00  0.00     0.029 A 
ATOM     47  N   UNL A   1      42.426  30.025  29.816  1.00  0.00    -0.354 N 
ATOM     48  C   UNL A   1      42.075  26.007  28.266  1.00  0.00     0.074 A 
ATOM     49  C   UNL A   1      40.697  25.689  27.956  1.00  0.00     0.031 C 
ATOM     50  C   UNL A   1      41.696  32.044  30.446  1.00  0.00     0.029 A 
ATOM     51  C   UNL A   1      42.886  31.202  30.360  1.00  0.00     0.049 A 
ATOM     52  H   UNL A   1      43.006  29.249  29.644  1.00  0.00     0.167 HD
ATOM     53  C   UNL A   1      43.110  25.146  28.115  1.00  0.00     0.037 A 
ATOM     54  C   UNL A   1      44.126  31.564  30.742  1.00  0.00     0.037 A 
ATOM     55  C   UNL A   1      44.482  25.477  28.411  1.00  0.00     0.049 A 
ATOM     56  C   UNL A   1      45.258  30.589  30.575  1.00  0.00     0.074 A 
ATOM     57  C   UNL A   1      45.614  24.703  28.224  1.00  0.00     0.029 A 
ATOM     58  N   UNL A   1      44.906  26.675  28.970  1.00  0.00    -0.354 N 
ATOM     59  N   UNL A   1      45.235  29.374  30.080  1.00  0.00    -0.248 NA
ATOM     60  C   UNL A   1      46.586  31.036  31.015  1.00  0.00     0.031 C 
ATOM     61  C   UNL A   1      46.714  25.408  28.726  1.00  0.00     0.029 A 
ATOM     62  C   UNL A   1      46.278  26.648  29.168  1.00  0.00     0.049 A 
ATOM     63  H   UNL A   1      44.320  27.433  29.193  1.00  0.00     0.167 HD
ATOM     64  C   UNL A   1      46.551  28.923  30.120  1.00  0.00     0.074 A 
ATOM     65  C   UNL A   1      47.343  30.002  30.675  1.00  0.00     0.031 C 
ATOM     66  C   UNL A   1      47.057  27.726  29.727  1.00  0.00     0.037 A 
BRANCH  53  67
ATOM     67  C   UNL A   1      42.797  23.756  27.624  1.00  0.00     0.058 A 
ATOM     68  C   UNL A   1      42.545  22.693  28.506  1.00  0.00     0.135 A 
ATOM     69  C   UNL A   1      42.735  23.488  26.246  1.00  0.00     0.135 A 
ATOM     70  F   UNL A   1      42.600  22.886  29.833  1.00  0.00    -0.206 F 
ATOM     71  C   UNL A   1      42.291  21.405  28.043  1.00  0.00     0.059 A 
ATOM     72  C   UNL A   1      42.448  22.215  25.759  1.00  0.00     0.059 A 
ATOM     73  F   UNL A   1      42.962  24.464  25.355  1.00  0.00    -0.206 F 
ATOM     74  C   UNL A   1      42.249  21.175  26.666  1.00  0.00     0.060 A 
BRANCH  74  75
ATOM     75  S   UNL A   1      41.940  19.495  26.082  1.00  0.00     0.124 S 
ATOM     76  O   UNL A   1      42.295  18.709  27.260  1.00  0.00    -0.237 OA
ATOM     77  O   UNL A   1      40.520  19.535  25.751  1.00  0.00    -0.237 OA
ATOM     78  O   UNL A   1      42.843  19.359  24.944  1.00  0.00    -0.744 OA
ENDBRANCH  74  75
ENDBRANCH  53  67
BRANCH  54  79
ATOM     79  C   UNL A   1      44.368  32.932  31.276  1.00  0.00     0.058 A 
ATOM     80  C   UNL A   1      44.340  33.177  32.657  1.00  0.00     0.135 A 
ATOM     81  C   UNL A   1      44.653  34.012  30.427  1.00  0.00     0.135 A 
ATOM     82  F   UNL A   1      44.064  32.178  33.510  1.00  0.00    -0.206 F 
ATOM     83  C   UNL A   1      44.574  34.446  33.178  1.00  0.00     0.059 A 
ATOM     84  C   UNL A   1      44.918  35.284  30.926  1.00  0.00     0.059 A 
ATOM     85  F   UNL A   1      44.707  33.828  29.099  1.00  0.00    -0.206 F 
ATOM     86  C   UNL A   1      44.869  35.492  32.304  1.00  0.00     0.060 A 
BRANCH  86  87
ATOM     87  S   UNL A   1      45.232  37.120  32.997  1.00  0.00     0.124 S 
ATOM     88  O   UNL A   1      44.673  38.004  31.980  1.00  0.00    -0.237 OA
ATOM     89  O   UNL A   1      44.518  37.076  34.269  1.00  0.00    -0.237 OA
ATOM     90  O   UNL A   1      46.688  37.122  33.104  1.00  0.00    -0.744 OA
ENDBRANCH  86  87
ENDBRANCH  54  79
BRANCH  66  91
ATOM     91  C   UNL A   1      48.544  27.531  29.856  1.00  0.00     0.058 A 
ATOM     92  C   UNL A   1      49.111  26.826  30.931  1.00  0.00     0.135 A 
ATOM     93  C   UNL A   1      49.414  28.037  28.875  1.00  0.00     0.135 A 
ATOM     94  F   UNL A   1      48.327  26.326  31.899  1.00  0.00    -0.206 F 
ATOM     95  C   UNL A   1      50.488  26.663  31.048  1.00  0.00     0.059 A 
ATOM     96  C   UNL A   1      50.792  27.857  28.956  1.00  0.00     0.059 A 
ATOM     97  F   UNL A   1      48.928  28.708  27.820  1.00  0.00    -0.206 F 
ATOM     98  C   UNL A   1      51.321  27.184  30.055  1.00  0.00     0.060 A 
BRANCH  98  99
ATOM     99  S   UNL A   1      53.104  26.957  30.214  1.00  0.00     0.124 S 
ATOM    100  O   UNL A   1      53.569  28.337  30.305  1.00  0.00    -0.237 OA
ATOM    101  O   UNL A   1      53.211  26.171  31.440  1.00  0.00    -0.237 OA
ATOM    102  O   UNL A   1      53.468  26.252  28.990  1.00  0.00    -0.744 OA
ENDBRANCH  98  99
ENDBRANCH  66  91
ENDBRANCH  40  41
ENDBRANCH  32  35
ENDBRANCH  30  31
ENDBRANCH  29  30
ENDBRANCH  28  29
ENDBRANCH   1  28
TORSDOF 20
ENDMDL
MODEL 3
REMARK VINA RESULT:     -10.5      1.079      8.208
REMARK SMILES O=C(Cc1ccccc1Nc1c(F)cccc1C(F)(F)F)NCCCCCCNC(=O)c1ccc(-c2c3nc(c(-c4c(F)cc(S(=O)(=O)[O-])cc4F)c4ccc([nH]4)c(-c4c(F)cc(S(=O)(=O)[O-])cc4F)c4nc(c(-c5c(F)cc(S(=O)(=O)[O-])cc5F)c5ccc2[nH]5)C=C4)C=C3)cc1
REMARK SMILES IDX 25 1 24 2 23 3 22 4 1 5 2 6 3 8 4 9 5 10 9 11 6 12 8 13 7 14
REMARK SMILES IDX 10 15 11 17 12 18 17 19 13 20 14 21 16 22 15 23 18 24 19 25
REMARK SMILES IDX 20 26 21 27 26 28 27 29 28 30 29 31 30 32 31 34 32 35 33 36
REMARK SMILES IDX 97 37 34 38 96 39 35 40 36 41 37 42 90 43 38 44 95 45 89 46
REMARK SMILES IDX 91 47 39 48 94 49 88 50 87 51 40 53 74 54 53 55 73 56 54 57
REMARK SMILES IDX 57 58 72 59 92 60 55 61 56 62 71 64 93 65 58 66 41 67 42 68
REMARK SMILES IDX 51 69 43 70 44 71 50 72 52 73 45 74 46 75 47 76 48 77 49 78
REMARK SMILES IDX 75 79 76 80 85 81 77 82 78 83 84 84 86 85 79 86 80 87 81 88
REMARK SMILES IDX 82 89 83 90 59 91 60 92 69 93 61 94 62 95 68 96 70 97 63 98
REMARK SMILES IDX 64 99 65 100 66 101 67 102
REMARK H PARENT 22 7 10 16 29 33 91 52 57 63
REMARK Flexibility Score: inf
ROOT
ATOM      1  C   UNL A   1      33.260  29.352  24.473  1.00  0.00     0.002 C 
ENDROOT
BRANCH   1   2
ATOM      2  C   UNL A   1      34.165  28.525  23.550  1.00  0.00     0.021 C 
BRANCH   2   3
ATOM      3  C   UNL A   1      33.569  28.248  22.174  1.00  0.00     0.116 C 
BRANCH   3   4
ATOM      4  N   UNL A   1      32.439  27.344  22.237  1.00  0.00    -0.356 N 
ATOM      5  O   UNL A   1      33.335  25.706  20.906  1.00  0.00    -0.275 OA
ATOM      6  C   UNL A   1      32.436  26.102  21.643  1.00  0.00     0.224 C 
ATOM      7  H   UNL A   1      31.635  27.629  22.727  1.00  0.00     0.163 HD
BRANCH   6   8
ATOM      8  C   UNL A   1      31.250  25.224  21.993  1.00  0.00     0.137 C 
BRANCH   8   9
ATOM      9  C   UNL A   1      30.997  24.983  23.475  1.00  0.00    -0.015 A 
ATOM     10  C   UNL A   1      30.056  25.835  24.095  1.00  0.00     0.006 A 
ATOM     11  C   UNL A   1      31.597  23.947  24.234  1.00  0.00     0.042 A 
ATOM     12  C   UNL A   1      29.741  25.709  25.445  1.00  0.00     0.000 A 
ATOM     13  C   UNL A   1      31.281  23.863  25.602  1.00  0.00     0.026 A 
ATOM     14  C   UNL A   1      30.367  24.731  26.203  1.00  0.00     0.002 A 
BRANCH  11  15
ATOM     15  N   UNL A   1      32.442  22.986  23.636  1.00  0.00    -0.352 N 
ATOM     16  H   UNL A   1      32.302  22.867  22.669  1.00  0.00     0.167 HD
BRANCH  15  17
ATOM     17  C   UNL A   1      33.451  22.165  24.186  1.00  0.00     0.087 A 
ATOM     18  C   UNL A   1      33.182  20.782  24.273  1.00  0.00     0.147 A 
ATOM     19  C   UNL A   1      34.711  22.622  24.601  1.00  0.00     0.082 A 
ATOM     20  F   UNL A   1      31.975  20.325  23.903  1.00  0.00    -0.205 F 
ATOM     21  C   UNL A   1      34.122  19.862  24.718  1.00  0.00     0.041 A 
ATOM     22  C   UNL A   1      35.669  21.676  25.036  1.00  0.00     0.015 A 
ATOM     23  C   UNL A   1      35.380  20.310  25.093  1.00  0.00     0.004 A 
BRANCH  19  24
ATOM     24  C   UNL A   1      35.098  24.080  24.650  1.00  0.00     0.418 C 
ATOM     25  F   UNL A   1      34.521  24.721  25.714  1.00  0.00    -0.166 F 
ATOM     26  F   UNL A   1      36.440  24.255  24.826  1.00  0.00    -0.166 F 
ATOM     27  F   UNL A   1      34.748  24.828  23.571  1.00  0.00    -0.166 F 
ENDBRANCH  19  24
ENDBRANCH  15  17
ENDBRANCH  11  15
ENDBRANCH   8   9
ENDBRANCH   6   8
ENDBRANCH   3   4
ENDBRANCH   2   3
ENDBRANCH   1   2
BRANCH   1  28
ATOM     28  C   UNL A   1      32.199  28.555  25.241  1.00  0.00     0.002 C 
BRANCH  28  29
ATOM     29  C   UNL A   1      32.705  27.811  26.478  1.00  0.00     0.021 C 
BRANCH  29  30
ATOM     30  C   UNL A   1      33.971  28.386  27.105  1.00  0.00     0.116 C 
BRANCH  30  31
ATOM     31  N   UNL A   1      33.785  29.742  27.596  1.00  0.00    -0.352 N 
ATOM     32  C   UNL A   1      34.654  30.546  28.290  1.00  0.00     0.251 C 
ATOM     33  H   UNL A   1      32.906  30.142  27.403  1.00  0.00     0.163 HD
ATOM     34  O   UNL A   1      34.254  31.606  28.769  1.00  0.00    -0.269 OA
BRANCH  32  35
ATOM     35  C   UNL A   1      36.061  30.129  28.483  1.00  0.00     0.039 A 
ATOM     36  C   UNL A   1      36.941  30.202  27.401  1.00  0.00     0.014 A 
ATOM     37  C   UNL A   1      36.511  29.660  29.721  1.00  0.00     0.014 A 
ATOM     38  C   UNL A   1      38.285  29.862  27.576  1.00  0.00     0.010 A 
ATOM     39  C   UNL A   1      37.866  29.397  29.913  1.00  0.00     0.010 A 
ATOM     40  C   UNL A   1      38.767  29.489  28.842  1.00  0.00    -0.014 A 
BRANCH  40  41
ATOM     41  C   UNL A   1      40.210  29.206  29.058  1.00  0.00     0.031 A 
ATOM     42  C   UNL A   1      40.791  27.865  28.693  1.00  0.00     0.074 A 
ATOM     43  C   UNL A   1      40.991  30.144  29.630  1.00  0.00     0.049 A 
ATOM     44  N   UNL A   1      42.022  27.438  28.812  1.00  0.00    -0.248 NA
ATOM     45  C   UNL A   1      39.860  26.866  28.145  1.00  0.00     0.031 C 
ATOM     46  C   UNL A   1      40.537  31.464  30.074  1.00  0.00     0.029 A 
ATOM     47  N   UNL A   1      42.330  30.136  29.935  1.00  0.00    -0.354 N 
ATOM     48  C   UNL A   1      42.012  26.119  28.371  1.00  0.00     0.074 A 
ATOM     49  C   UNL A   1      40.641  25.801  28.033  1.00  0.00     0.031 C 
ATOM     50  C   UNL A   1      41.586  32.153  30.553  1.00  0.00     0.029 A 
ATOM     51  C   UNL A   1      42.777  31.312  30.490  1.00  0.00     0.049 A 
ATOM     52  H   UNL A   1      42.913  29.360  29.773  1.00  0.00     0.167 HD
ATOM     53  C   UNL A   1      43.051  25.259  28.241  1.00  0.00     0.037 A 
ATOM     54  C   UNL A   1      44.009  31.674  30.898  1.00  0.00     0.037 A 
ATOM     55  C   UNL A   1      44.416  25.591  28.565  1.00  0.00     0.049 A 
ATOM     56  C   UNL A   1      45.145  30.699  30.752  1.00  0.00     0.074 A 
ATOM     57  C   UNL A   1      45.552  24.818  28.401  1.00  0.00     0.029 A 
ATOM     58  N   UNL A   1      44.828  26.787  29.134  1.00  0.00    -0.354 N 
ATOM     59  N   UNL A   1      45.133  29.485  30.255  1.00  0.00    -0.248 NA
ATOM     60  C   UNL A   1      46.464  31.146  31.220  1.00  0.00     0.031 C 
ATOM     61  C   UNL A   1      46.641  25.522  28.926  1.00  0.00     0.029 A 
ATOM     62  C   UNL A   1      46.195  26.761  29.361  1.00  0.00     0.049 A 
ATOM     63  H   UNL A   1      44.237  27.546  29.347  1.00  0.00     0.167 HD
ATOM     64  C   UNL A   1      46.448  29.034  30.321  1.00  0.00     0.074 A 
ATOM     65  C   UNL A   1      47.228  30.113  30.894  1.00  0.00     0.031 C 
ATOM     66  C   UNL A   1      46.962  27.839  29.937  1.00  0.00     0.037 A 
BRANCH  53  67
ATOM     67  C   UNL A   1      42.748  23.870  27.741  1.00  0.00     0.058 A 
ATOM     68  C   UNL A   1      42.560  23.594  26.377  1.00  0.00     0.135 A 
ATOM     69  C   UNL A   1      42.655  22.796  28.641  1.00  0.00     0.135 A 
ATOM     70  F   UNL A   1      42.627  24.582  25.470  1.00  0.00    -0.206 F 
ATOM     71  C   UNL A   1      42.246  22.314  25.928  1.00  0.00     0.059 A 
ATOM     72  C   UNL A   1      42.375  21.501  28.212  1.00  0.00     0.059 A 
ATOM     73  F   UNL A   1      42.828  22.998  29.956  1.00  0.00    -0.206 F 
ATOM     74  C   UNL A   1      42.151  21.275  26.855  1.00  0.00     0.060 A 
BRANCH  74  75
ATOM     75  S   UNL A   1      41.720  19.625  26.259  1.00  0.00     0.124 S 
ATOM     76  O   UNL A   1      42.141  18.793  27.382  1.00  0.00    -0.237 OA
ATOM     77  O   UNL A   1      40.280  19.732  26.055  1.00  0.00    -0.237 OA
ATOM     78  O   UNL A   1      42.515  19.485  25.043  1.00  0.00    -0.744 OA
ENDBRANCH  74  75
ENDBRANCH  53  67
BRANCH  54  79
ATOM     79  C   UNL A   1      44.240  33.041  31.439  1.00  0.00     0.058 A 
ATOM     80  C   UNL A   1      44.579  34.101  30.585  1.00  0.00     0.135 A 
ATOM     81  C   UNL A   1      44.106  33.322  32.807  1.00  0.00     0.135 A 
ATOM     82  F   UNL A   1      44.727  33.882  29.270  1.00  0.00    -0.206 F 
ATOM     83  C   UNL A   1      44.789  35.389  31.068  1.00  0.00     0.059 A 
ATOM     84  C   UNL A   1      44.283  34.607  33.310  1.00  0.00     0.059 A 
ATOM     85  F   UNL A   1      43.767  32.347  33.664  1.00  0.00    -0.206 F 
ATOM     86  C   UNL A   1      44.632  35.633  32.432  1.00  0.00     0.060 A 
BRANCH  86  87
ATOM     87  S   UNL A   1      44.847  37.321  33.038  1.00  0.00     0.124 S 
ATOM     88  O   UNL A   1      45.059  38.055  31.795  1.00  0.00    -0.237 OA
ATOM     89  O   UNL A   1      43.578  37.565  33.717  1.00  0.00    -0.237 OA
ATOM     90  O   UNL A   1      46.009  37.218  33.916  1.00  0.00    -0.744 OA
ENDBRANCH  86  87
ENDBRANCH  54  79
BRANCH  66  91
ATOM     91  C   UNL A   1      48.447  27.644  30.096  1.00  0.00     0.058 A 
ATOM     92  C   UNL A   1      49.350  27.942  29.063  1.00  0.00     0.135 A 
ATOM     93  C   UNL A   1      48.975  27.175  31.311  1.00  0.00     0.135 A 
ATOM     94  F   UNL A   1      48.900  28.388  27.879  1.00  0.00    -0.206 F 
ATOM     95  C   UNL A   1      50.720  27.746  29.214  1.00  0.00     0.059 A 
ATOM     96  C   UNL A   1      50.344  27.003  31.495  1.00  0.00     0.059 A 
ATOM     97  F   UNL A   1      48.161  26.886  32.337  1.00  0.00    -0.206 F 
ATOM     98  C   UNL A   1      51.207  27.274  30.435  1.00  0.00     0.060 A 
BRANCH  98  99
ATOM     99  S   UNL A   1      52.986  27.033  30.622  1.00  0.00     0.124 S 
ATOM    100  O   UNL A   1      53.041  25.701  31.216  1.00  0.00    -0.237 OA
ATOM    101  O   UNL A   1      53.461  27.132  29.245  1.00  0.00    -0.237 OA
ATOM    102  O   UNL A   1      53.387  28.128  31.499  1.00  0.00    -0.744 OA
ENDBRANCH  98  99
ENDBRANCH  66  91
ENDBRANCH  40  41
ENDBRANCH  32  35
ENDBRANCH  30  31
ENDBRANCH  29  30
ENDBRANCH  28  29
ENDBRANCH   1  28
TORSDOF 20
ENDMDL
