MODEL 1
REMARK VINA RESULT:     -12.3      0.000      0.000
REMARK SMILES Cc1cc(C)cc(-c2ccc([C@@H](C)C(=O)NCCCCCCNC(=O)c3ccc(-c4c5nc(c(-c6c(F)cc(S(=O)(=O)[O-])cc6F)c6ccc([nH]6)c(-c6c(F)cc(S(=O)(=O)[O-])cc6F)c6nc(c(-c7c(F)cc(S(=O)(=O)[O-])cc7F)c7ccc4[nH]7)C=C6)C=C5)cc3)cc2F)c1
REMARK SMILES IDX 20 1 19 2 18 3 17 4 16 5 14 6 15 7 12 9 13 10 11 11 8 12
REMARK SMILES IDX 9 13 93 14 10 15 92 16 94 17 7 18 1 19 2 20 3 21 95 22 4 23
REMARK SMILES IDX 5 24 6 25 21 26 22 27 23 28 24 29 25 31 26 32 27 33 91 34
REMARK SMILES IDX 28 35 90 36 29 37 30 38 31 39 84 40 32 41 89 42 83 43 85 44
REMARK SMILES IDX 33 45 88 46 82 47 81 48 34 50 68 51 47 52 67 53 48 54 51 55
REMARK SMILES IDX 66 56 86 57 49 58 50 59 65 61 87 62 52 63 35 64 36 65 45 66
REMARK SMILES IDX 37 67 38 68 44 69 46 70 39 71 40 72 41 73 42 74 43 75 69 76
REMARK SMILES IDX 70 77 79 78 71 79 72 80 78 81 80 82 73 83 74 84 75 85 76 86
REMARK SMILES IDX 77 87 53 88 54 89 63 90 55 91 56 92 62 93 64 94 57 95 58 96
REMARK SMILES IDX 59 97 60 98 61 99
REMARK H PARENT 16 8 23 30 85 49 51 60
REMARK Flexibility Score: inf
ROOT
ATOM      1  C   UNL A   1      35.856  23.880  25.846  1.00  0.00     0.002 C 
ENDROOT
BRANCH   1   2
ATOM      2  C   UNL A   1      35.202  22.542  26.216  1.00  0.00     0.002 C 
BRANCH   2   3
ATOM      3  C   UNL A   1      35.994  21.298  25.804  1.00  0.00     0.021 C 
BRANCH   3   4
ATOM      4  C   UNL A   1      35.278  20.425  24.771  1.00  0.00     0.116 C 
BRANCH   4   5
ATOM      5  N   UNL A   1      34.356  19.501  25.399  1.00  0.00    -0.356 N 
ATOM      6  C   UNL A   1      33.017  19.319  25.248  1.00  0.00     0.227 C 
ATOM      7  O   UNL A   1      32.483  18.504  26.012  1.00  0.00    -0.274 OA
ATOM      8  H   UNL A   1      34.774  18.896  26.053  1.00  0.00     0.163 HD
BRANCH   6   9
ATOM      9  C   UNL A   1      32.168  20.044  24.192  1.00  0.00     0.105 C 
ATOM     10  C   UNL A   1      32.403  19.552  22.763  1.00  0.00     0.023 C 
BRANCH   9  11
ATOM     11  C   UNL A   1      32.120  21.553  24.375  1.00  0.00    -0.033 A 
ATOM     12  C   UNL A   1      32.111  24.377  24.852  1.00  0.00     0.017 A 
ATOM     13  C   UNL A   1      32.640  23.826  23.672  1.00  0.00     0.012 A 
ATOM     14  C   UNL A   1      31.563  23.476  25.773  1.00  0.00     0.131 A 
ATOM     15  C   UNL A   1      32.613  22.449  23.425  1.00  0.00     0.005 A 
ATOM     16  C   UNL A   1      31.580  22.093  25.552  1.00  0.00     0.044 A 
ATOM     17  F   UNL A   1      30.994  23.917  26.906  1.00  0.00    -0.206 F 
BRANCH  12  18
ATOM     18  C   UNL A   1      32.168  25.838  25.077  1.00  0.00    -0.015 A 
ATOM     19  C   UNL A   1      34.331  28.439  26.869  1.00  0.00     0.044 C 
ATOM     20  C   UNL A   1      33.260  27.821  26.018  1.00  0.00    -0.050 A 
ATOM     21  C   UNL A   1      32.342  28.644  25.355  1.00  0.00     0.006 A 
ATOM     22  C   UNL A   1      33.166  26.428  25.871  1.00  0.00     0.012 A 
ATOM     23  C   UNL A   1      31.335  28.090  24.561  1.00  0.00    -0.050 A 
ATOM     24  C   UNL A   1      30.368  28.980  23.836  1.00  0.00     0.044 C 
ATOM     25  C   UNL A   1      31.248  26.698  24.445  1.00  0.00     0.012 A 
ENDBRANCH  12  18
ENDBRANCH   9  11
ENDBRANCH   6   9
ENDBRANCH   4   5
ENDBRANCH   3   4
ENDBRANCH   2   3
ENDBRANCH   1   2
BRANCH   1  26
ATOM     26  C   UNL A   1      37.327  23.799  25.424  1.00  0.00     0.021 C 
BRANCH  26  27
ATOM     27  C   UNL A   1      38.325  24.180  26.515  1.00  0.00     0.116 C 
BRANCH  27  28
ATOM     28  N   UNL A   1      39.699  24.029  26.063  1.00  0.00    -0.352 N 
ATOM     29  C   UNL A   1      40.808  24.777  26.370  1.00  0.00     0.251 C 
ATOM     30  H   UNL A   1      39.857  23.279  25.444  1.00  0.00     0.163 HD
ATOM     31  O   UNL A   1      41.830  24.656  25.702  1.00  0.00    -0.269 OA
BRANCH  29  32
ATOM     32  C   UNL A   1      40.767  25.732  27.499  1.00  0.00     0.039 A 
ATOM     33  C   UNL A   1      41.748  26.723  27.585  1.00  0.00     0.014 A 
ATOM     34  C   UNL A   1      39.783  25.629  28.487  1.00  0.00     0.014 A 
ATOM     35  C   UNL A   1      41.710  27.645  28.634  1.00  0.00     0.010 A 
ATOM     36  C   UNL A   1      39.708  26.589  29.494  1.00  0.00     0.010 A 
ATOM     37  C   UNL A   1      40.672  27.604  29.581  1.00  0.00    -0.014 A 
BRANCH  37  38
ATOM     38  C   UNL A   1      40.577  28.616  30.663  1.00  0.00     0.031 A 
ATOM     39  C   UNL A   1      41.476  28.523  31.867  1.00  0.00     0.074 A 
ATOM     40  C   UNL A   1      39.642  29.583  30.588  1.00  0.00     0.049 A 
ATOM     41  N   UNL A   1      41.490  29.268  32.943  1.00  0.00    -0.248 NA
ATOM     42  C   UNL A   1      42.471  27.439  31.876  1.00  0.00     0.031 C 
ATOM     43  C   UNL A   1      38.686  29.749  29.491  1.00  0.00     0.029 A 
ATOM     44  N   UNL A   1      39.332  30.602  31.453  1.00  0.00    -0.354 N 
ATOM     45  C   UNL A   1      42.483  28.737  33.758  1.00  0.00     0.074 A 
ATOM     46  C   UNL A   1      43.016  27.578  33.076  1.00  0.00     0.031 C 
ATOM     47  C   UNL A   1      37.915  30.820  29.737  1.00  0.00     0.029 A 
ATOM     48  C   UNL A   1      38.291  31.393  31.026  1.00  0.00     0.049 A 
ATOM     49  H   UNL A   1      39.811  30.755  32.299  1.00  0.00     0.167 HD
ATOM     50  C   UNL A   1      42.924  29.191  34.955  1.00  0.00     0.037 A 
ATOM     51  C   UNL A   1      37.699  32.455  31.608  1.00  0.00     0.037 A 
ATOM     52  C   UNL A   1      42.410  30.365  35.611  1.00  0.00     0.049 A 
ATOM     53  C   UNL A   1      38.206  32.938  32.938  1.00  0.00     0.074 A 
ATOM     54  C   UNL A   1      42.835  30.940  36.795  1.00  0.00     0.029 A 
ATOM     55  N   UNL A   1      41.363  31.144  35.140  1.00  0.00    -0.354 N 
ATOM     56  N   UNL A   1      39.182  32.455  33.671  1.00  0.00    -0.248 NA
ATOM     57  C   UNL A   1      37.539  34.109  33.523  1.00  0.00     0.031 C 
ATOM     58  C   UNL A   1      42.016  32.040  37.066  1.00  0.00     0.029 A 
ATOM     59  C   UNL A   1      41.113  32.181  36.024  1.00  0.00     0.049 A 
ATOM     60  H   UNL A   1      40.871  30.984  34.303  1.00  0.00     0.167 HD
ATOM     61  C   UNL A   1      39.257  33.275  34.791  1.00  0.00     0.074 A 
ATOM     62  C   UNL A   1      38.238  34.291  34.635  1.00  0.00     0.031 C 
ATOM     63  C   UNL A   1      40.096  33.189  35.854  1.00  0.00     0.037 A 
BRANCH  50  64
ATOM     64  C   UNL A   1      44.029  28.431  35.635  1.00  0.00     0.058 A 
ATOM     65  C   UNL A   1      45.372  28.688  35.316  1.00  0.00     0.135 A 
ATOM     66  C   UNL A   1      43.759  27.397  36.546  1.00  0.00     0.135 A 
ATOM     67  F   UNL A   1      45.689  29.670  34.457  1.00  0.00    -0.206 F 
ATOM     68  C   UNL A   1      46.407  27.933  35.860  1.00  0.00     0.059 A 
ATOM     69  C   UNL A   1      44.780  26.647  37.123  1.00  0.00     0.059 A 
ATOM     70  F   UNL A   1      42.494  27.125  36.902  1.00  0.00    -0.206 F 
ATOM     71  C   UNL A   1      46.099  26.912  36.760  1.00  0.00     0.060 A 
BRANCH  71  72
ATOM     72  S   UNL A   1      47.455  25.952  37.471  1.00  0.00     0.124 S 
ATOM     73  O   UNL A   1      47.718  26.675  38.709  1.00  0.00    -0.237 OA
ATOM     74  O   UNL A   1      46.850  24.632  37.619  1.00  0.00    -0.237 OA
ATOM     75  O   UNL A   1      48.499  26.041  36.455  1.00  0.00    -0.744 OA
ENDBRANCH  71  72
ENDBRANCH  50  64
BRANCH  51  76
ATOM     76  C   UNL A   1      36.576  33.141  30.916  1.00  0.00     0.058 A 
ATOM     77  C   UNL A   1      36.801  33.966  29.803  1.00  0.00     0.135 A 
ATOM     78  C   UNL A   1      35.259  33.019  31.384  1.00  0.00     0.135 A 
ATOM     79  F   UNL A   1      38.044  34.126  29.324  1.00  0.00    -0.206 F 
ATOM     80  C   UNL A   1      35.765  34.668  29.196  1.00  0.00     0.059 A 
ATOM     81  C   UNL A   1      34.201  33.691  30.777  1.00  0.00     0.059 A 
ATOM     82  F   UNL A   1      34.993  32.232  32.436  1.00  0.00    -0.206 F 
ATOM     83  C   UNL A   1      34.469  34.528  29.695  1.00  0.00     0.060 A 
BRANCH  83  84
ATOM     84  S   UNL A   1      33.143  35.467  28.906  1.00  0.00     0.124 S 
ATOM     85  O   UNL A   1      33.901  36.435  28.118  1.00  0.00    -0.237 OA
ATOM     86  O   UNL A   1      32.449  34.433  28.145  1.00  0.00    -0.237 OA
ATOM     87  O   UNL A   1      32.402  36.017  30.035  1.00  0.00    -0.744 OA
ENDBRANCH  83  84
ENDBRANCH  51  76
BRANCH  63  88
ATOM     88  C   UNL A   1      39.966  34.228  36.932  1.00  0.00     0.058 A 
ATOM     89  C   UNL A   1      39.185  33.976  38.071  1.00  0.00     0.135 A 
ATOM     90  C   UNL A   1      40.538  35.502  36.796  1.00  0.00     0.135 A 
ATOM     91  F   UNL A   1      38.611  32.775  38.247  1.00  0.00    -0.206 F 
ATOM     92  C   UNL A   1      38.956  34.959  39.027  1.00  0.00     0.059 A 
ATOM     93  C   UNL A   1      40.344  36.493  37.754  1.00  0.00     0.059 A 
ATOM     94  F   UNL A   1      41.303  35.789  35.731  1.00  0.00    -0.206 F 
ATOM     95  C   UNL A   1      39.535  36.218  38.857  1.00  0.00     0.060 A 
BRANCH  95  96
ATOM     96  S   UNL A   1      39.228  37.483  40.108  1.00  0.00     0.124 S 
ATOM     97  O   UNL A   1      38.719  36.687  41.220  1.00  0.00    -0.237 OA
ATOM     98  O   UNL A   1      40.556  38.060  40.295  1.00  0.00    -0.237 OA
ATOM     99  O   UNL A   1      38.255  38.363  39.468  1.00  0.00    -0.744 OA
ENDBRANCH  95  96
ENDBRANCH  63  88
ENDBRANCH  37  38
ENDBRANCH  29  32
ENDBRANCH  27  28
ENDBRANCH  26  27
ENDBRANCH   1  26
TORSDOF 18
ENDMDL
MODEL 2
REMARK VINA RESULT:     -12.1      4.358      9.869
REMARK SMILES Cc1cc(C)cc(-c2ccc([C@@H](C)C(=O)NCCCCCCNC(=O)c3ccc(-c4c5nc(c(-c6c(F)cc(S(=O)(=O)[O-])cc6F)c6ccc([nH]6)c(-c6c(F)cc(S(=O)(=O)[O-])cc6F)c6nc(c(-c7c(F)cc(S(=O)(=O)[O-])cc7F)c7ccc4[nH]7)C=C6)C=C5)cc3)cc2F)c1
REMARK SMILES IDX 20 1 19 2 18 3 17 4 16 5 14 6 15 7 12 9 13 10 11 11 8 12
REMARK SMILES IDX 9 13 93 14 10 15 92 16 94 17 7 18 1 19 2 20 3 21 95 22 4 23
REMARK SMILES IDX 5 24 6 25 21 26 22 27 23 28 24 29 25 31 26 32 27 33 91 34
REMARK SMILES IDX 28 35 90 36 29 37 30 38 31 39 84 40 32 41 89 42 83 43 85 44
REMARK SMILES IDX 33 45 88 46 82 47 81 48 34 50 68 51 47 52 67 53 48 54 51 55
REMARK SMILES IDX 66 56 86 57 49 58 50 59 65 61 87 62 52 63 35 64 36 65 45 66
REMARK SMILES IDX 37 67 38 68 44 69 46 70 39 71 40 72 41 73 42 74 43 75 69 76
REMARK SMILES IDX 70 77 79 78 71 79 72 80 78 81 80 82 73 83 74 84 75 85 76 86
REMARK SMILES IDX 77 87 53 88 54 89 63 90 55 91 56 92 62 93 64 94 57 95 58 96
REMARK SMILES IDX 59 97 60 98 61 99
REMARK H PARENT 16 8 23 30 85 49 51 60
REMARK Flexibility Score: inf
ROOT
ATOM      1  C   UNL A   1      33.662  26.702  24.814  1.00  0.00     0.002 C 
ENDROOT
BRANCH   1   2
ATOM      2  C   UNL A   1      34.046  25.430  25.582  1.00  0.00     0.002 C 
BRANCH   2   3
ATOM      3  C   UNL A   1      35.222  24.647  24.993  1.00  0.00     0.021 C 
BRANCH   3   4
ATOM      4  C   UNL A   1      34.885  23.195  24.645  1.00  0.00     0.116 C 
BRANCH   4   5
ATOM      5  N   UNL A   1      34.638  22.405  25.833  1.00  0.00    -0.356 N 
ATOM      6  C   UNL A   1      33.563  21.667  26.219  1.00  0.00     0.227 C 
ATOM      7  O   UNL A   1      33.611  21.178  27.356  1.00  0.00    -0.274 OA
ATOM      8  H   UNL A   1      35.382  22.401  26.477  1.00  0.00     0.163 HD
BRANCH   6   9
ATOM      9  C   UNL A   1      32.339  21.406  25.328  1.00  0.00     0.105 C 
ATOM     10  C   UNL A   1      32.581  20.371  24.229  1.00  0.00     0.023 C 
BRANCH   9  11
ATOM     11  C   UNL A   1      31.613  22.672  24.898  1.00  0.00    -0.033 A 
ATOM     12  C   UNL A   1      30.349  25.138  24.174  1.00  0.00     0.017 A 
ATOM     13  C   UNL A   1      30.847  24.248  23.207  1.00  0.00     0.012 A 
ATOM     14  C   UNL A   1      30.478  24.745  25.511  1.00  0.00     0.131 A 
ATOM     15  C   UNL A   1      31.433  23.027  23.560  1.00  0.00     0.005 A 
ATOM     16  C   UNL A   1      31.110  23.548  25.872  1.00  0.00     0.044 A 
ATOM     17  F   UNL A   1      29.990  25.512  26.499  1.00  0.00    -0.206 F 
BRANCH  12  18
ATOM     18  C   UNL A   1      29.745  26.422  23.756  1.00  0.00    -0.015 A 
ATOM     19  C   UNL A   1      30.696  29.641  21.917  1.00  0.00     0.044 C 
ATOM     20  C   UNL A   1      29.890  28.594  22.628  1.00  0.00    -0.050 A 
ATOM     21  C   UNL A   1      28.520  28.794  22.832  1.00  0.00     0.006 A 
ATOM     22  C   UNL A   1      30.488  27.410  23.089  1.00  0.00     0.012 A 
ATOM     23  C   UNL A   1      27.752  27.833  23.495  1.00  0.00    -0.050 A 
ATOM     24  C   UNL A   1      26.279  28.046  23.690  1.00  0.00     0.044 C 
ATOM     25  C   UNL A   1      28.373  26.670  23.964  1.00  0.00     0.012 A 
ENDBRANCH  12  18
ENDBRANCH   9  11
ENDBRANCH   6   9
ENDBRANCH   4   5
ENDBRANCH   3   4
ENDBRANCH   2   3
ENDBRANCH   1   2
BRANCH   1  26
ATOM     26  C   UNL A   1      32.979  27.792  25.646  1.00  0.00     0.021 C 
BRANCH  26  27
ATOM     27  C   UNL A   1      33.738  28.202  26.906  1.00  0.00     0.116 C 
BRANCH  27  28
ATOM     28  N   UNL A   1      33.614  29.627  27.170  1.00  0.00    -0.352 N 
ATOM     29  C   UNL A   1      34.458  30.468  27.851  1.00  0.00     0.251 C 
ATOM     30  H   UNL A   1      32.802  30.051  26.806  1.00  0.00     0.163 HD
ATOM     31  O   UNL A   1      34.069  31.581  28.186  1.00  0.00    -0.269 OA
BRANCH  29  32
ATOM     32  C   UNL A   1      35.830  30.028  28.184  1.00  0.00     0.039 A 
ATOM     33  C   UNL A   1      36.822  30.100  27.203  1.00  0.00     0.014 A 
ATOM     34  C   UNL A   1      36.129  29.515  29.450  1.00  0.00     0.014 A 
ATOM     35  C   UNL A   1      38.128  29.708  27.510  1.00  0.00     0.010 A 
ATOM     36  C   UNL A   1      37.444  29.187  29.773  1.00  0.00     0.010 A 
ATOM     37  C   UNL A   1      38.456  29.277  28.806  1.00  0.00    -0.014 A 
BRANCH  37  38
ATOM     38  C   UNL A   1      39.851  28.920  29.169  1.00  0.00     0.031 A 
ATOM     39  C   UNL A   1      40.728  29.918  29.877  1.00  0.00     0.074 A 
ATOM     40  C   UNL A   1      40.346  27.720  28.807  1.00  0.00     0.049 A 
ATOM     41  N   UNL A   1      41.989  29.816  30.209  1.00  0.00    -0.248 NA
ATOM     42  C   UNL A   1      40.116  31.208  30.236  1.00  0.00     0.031 C 
ATOM     43  C   UNL A   1      39.605  26.687  28.081  1.00  0.00     0.029 A 
ATOM     44  N   UNL A   1      41.588  27.168  28.992  1.00  0.00    -0.354 N 
ATOM     45  C   UNL A   1      42.323  31.027  30.804  1.00  0.00     0.074 A 
ATOM     46  C   UNL A   1      41.148  31.867  30.743  1.00  0.00     0.031 C 
ATOM     47  C   UNL A   1      40.399  25.618  27.903  1.00  0.00     0.029 A 
ATOM     48  C   UNL A   1      41.715  25.903  28.466  1.00  0.00     0.049 A 
ATOM     49  H   UNL A   1      42.320  27.631  29.459  1.00  0.00     0.167 HD
ATOM     50  C   UNL A   1      43.498  31.393  31.369  1.00  0.00     0.037 A 
ATOM     51  C   UNL A   1      42.773  25.069  28.430  1.00  0.00     0.037 A 
ATOM     52  C   UNL A   1      44.653  30.539  31.454  1.00  0.00     0.049 A 
ATOM     53  C   UNL A   1      44.067  25.500  29.064  1.00  0.00     0.074 A 
ATOM     54  C   UNL A   1      45.868  30.797  32.063  1.00  0.00     0.029 A 
ATOM     55  N   UNL A   1      44.738  29.262  30.918  1.00  0.00    -0.354 N 
ATOM     56  N   UNL A   1      44.350  26.630  29.669  1.00  0.00    -0.248 NA
ATOM     57  C   UNL A   1      45.185  24.548  29.015  1.00  0.00     0.031 C 
ATOM     58  C   UNL A   1      46.705  29.696  31.857  1.00  0.00     0.029 A 
ATOM     59  C   UNL A   1      45.993  28.730  31.163  1.00  0.00     0.049 A 
ATOM     60  H   UNL A   1      44.014  28.802  30.436  1.00  0.00     0.167 HD
ATOM     61  C   UNL A   1      45.670  26.516  30.090  1.00  0.00     0.074 A 
ATOM     62  C   UNL A   1      46.126  25.204  29.681  1.00  0.00     0.031 C 
ATOM     63  C   UNL A   1      46.433  27.419  30.753  1.00  0.00     0.037 A 
BRANCH  50  64
ATOM     64  C   UNL A   1      43.599  32.773  31.959  1.00  0.00     0.058 A 
ATOM     65  C   UNL A   1      43.332  32.988  33.320  1.00  0.00     0.135 A 
ATOM     66  C   UNL A   1      43.883  33.894  31.163  1.00  0.00     0.135 A 
ATOM     67  F   UNL A   1      43.062  31.952  34.130  1.00  0.00    -0.206 F 
ATOM     68  C   UNL A   1      43.325  34.267  33.868  1.00  0.00     0.059 A 
ATOM     69  C   UNL A   1      43.907  35.180  31.695  1.00  0.00     0.059 A 
ATOM     70  F   UNL A   1      44.166  33.743  29.859  1.00  0.00    -0.206 F 
ATOM     71  C   UNL A   1      43.610  35.358  33.045  1.00  0.00     0.060 A 
BRANCH  71  72
ATOM     72  S   UNL A   1      43.613  37.010  33.775  1.00  0.00     0.124 S 
ATOM     73  O   UNL A   1      44.820  36.976  34.591  1.00  0.00    -0.237 OA
ATOM     74  O   UNL A   1      43.666  37.865  32.593  1.00  0.00    -0.237 OA
ATOM     75  O   UNL A   1      42.354  37.055  34.512  1.00  0.00    -0.744 OA
ENDBRANCH  71  72
ENDBRANCH  50  64
BRANCH  51  76
ATOM     76  C   UNL A   1      42.636  23.735  27.791  1.00  0.00     0.058 A 
ATOM     77  C   UNL A   1      42.428  22.577  28.558  1.00  0.00     0.135 A 
ATOM     78  C   UNL A   1      42.756  23.585  26.401  1.00  0.00     0.135 A 
ATOM     79  F   UNL A   1      42.318  22.663  29.892  1.00  0.00    -0.206 F 
ATOM     80  C   UNL A   1      42.371  21.317  27.972  1.00  0.00     0.059 A 
ATOM     81  C   UNL A   1      42.677  22.337  25.789  1.00  0.00     0.059 A 
ATOM     82  F   UNL A   1      42.944  24.663  25.626  1.00  0.00    -0.206 F 
ATOM     83  C   UNL A   1      42.503  21.207  26.587  1.00  0.00     0.060 A 
BRANCH  83  84
ATOM     84  S   UNL A   1      42.450  19.558  25.851  1.00  0.00     0.124 S 
ATOM     85  O   UNL A   1      41.061  19.482  25.409  1.00  0.00    -0.237 OA
ATOM     86  O   UNL A   1      43.448  19.666  24.791  1.00  0.00    -0.237 OA
ATOM     87  O   UNL A   1      42.806  18.681  26.960  1.00  0.00    -0.744 OA
ENDBRANCH  83  84
ENDBRANCH  51  76
BRANCH  63  88
ATOM     88  C   UNL A   1      47.842  27.025  31.098  1.00  0.00     0.058 A 
ATOM     89  C   UNL A   1      48.864  27.127  30.140  1.00  0.00     0.135 A 
ATOM     90  C   UNL A   1      48.162  26.462  32.343  1.00  0.00     0.135 A 
ATOM     91  F   UNL A   1      48.609  27.654  28.932  1.00  0.00    -0.206 F 
ATOM     92  C   UNL A   1      50.149  26.663  30.396  1.00  0.00     0.059 A 
ATOM     93  C   UNL A   1      49.449  26.015  32.631  1.00  0.00     0.059 A 
ATOM     94  F   UNL A   1      47.223  26.352  33.296  1.00  0.00    -0.206 F 
ATOM     95  C   UNL A   1      50.431  26.103  31.644  1.00  0.00     0.060 A 
BRANCH  95  96
ATOM     96  S   UNL A   1      52.105  25.506  31.960  1.00  0.00     0.124 S 
ATOM     97  O   UNL A   1      52.816  25.967  30.772  1.00  0.00    -0.237 OA
ATOM     98  O   UNL A   1      52.445  26.186  33.207  1.00  0.00    -0.237 OA
ATOM     99  O   UNL A   1      51.935  24.060  32.069  1.00  0.00    -0.744 OA
ENDBRANCH  95  96
ENDBRANCH  63  88
ENDBRANCH  37  38
ENDBRANCH  29  32
ENDBRANCH  27  28
ENDBRANCH  26  27
ENDBRANCH   1  26
TORSDOF 18
ENDMDL
MODEL 3
REMARK VINA RESULT:     -12.1      4.611      9.357
REMARK SMILES Cc1cc(C)cc(-c2ccc([C@@H](C)C(=O)NCCCCCCNC(=O)c3ccc(-c4c5nc(c(-c6c(F)cc(S(=O)(=O)[O-])cc6F)c6ccc([nH]6)c(-c6c(F)cc(S(=O)(=O)[O-])cc6F)c6nc(c(-c7c(F)cc(S(=O)(=O)[O-])cc7F)c7ccc4[nH]7)C=C6)C=C5)cc3)cc2F)c1
REMARK SMILES IDX 20 1 19 2 18 3 17 4 16 5 14 6 15 7 12 9 13 10 11 11 8 12
REMARK SMILES IDX 9 13 93 14 10 15 92 16 94 17 7 18 1 19 2 20 3 21 95 22 4 23
REMARK SMILES IDX 5 24 6 25 21 26 22 27 23 28 24 29 25 31 26 32 27 33 91 34
REMARK SMILES IDX 28 35 90 36 29 37 30 38 31 39 84 40 32 41 89 42 83 43 85 44
REMARK SMILES IDX 33 45 88 46 82 47 81 48 34 50 68 51 47 52 67 53 48 54 51 55
REMARK SMILES IDX 66 56 86 57 49 58 50 59 65 61 87 62 52 63 35 64 36 65 45 66
REMARK SMILES IDX 37 67 38 68 44 69 46 70 39 71 40 72 41 73 42 74 43 75 69 76
REMARK SMILES IDX 70 77 79 78 71 79 72 80 78 81 80 82 73 83 74 84 75 85 76 86
REMARK SMILES IDX 77 87 53 88 54 89 63 90 55 91 56 92 62 93 64 94 57 95 58 96
REMARK SMILES IDX 59 97 60 98 61 99
REMARK H PARENT 16 8 23 30 85 49 51 60
REMARK Flexibility Score: inf
ROOT
ATOM      1  C   UNL A   1      33.752  26.607  24.790  1.00  0.00     0.002 C 
ENDROOT
BRANCH   1   2
ATOM      2  C   UNL A   1      34.192  25.351  25.553  1.00  0.00     0.002 C 
BRANCH   2   3
ATOM      3  C   UNL A   1      35.301  24.538  24.878  1.00  0.00     0.021 C 
BRANCH   3   4
ATOM      4  C   UNL A   1      34.959  23.057  24.701  1.00  0.00     0.116 C 
BRANCH   4   5
ATOM      5  N   UNL A   1      34.691  22.415  25.971  1.00  0.00    -0.356 N 
ATOM      6  C   UNL A   1      33.592  21.768  26.441  1.00  0.00     0.227 C 
ATOM      7  O   UNL A   1      33.630  21.408  27.625  1.00  0.00    -0.274 OA
ATOM      8  H   UNL A   1      35.439  22.455  26.609  1.00  0.00     0.163 HD
BRANCH   6   9
ATOM      9  C   UNL A   1      32.352  21.456  25.589  1.00  0.00     0.105 C 
ATOM     10  C   UNL A   1      32.564  20.333  24.573  1.00  0.00     0.023 C 
BRANCH   9  11
ATOM     11  C   UNL A   1      31.639  22.695  25.069  1.00  0.00    -0.033 A 
ATOM     12  C   UNL A   1      30.401  25.115  24.167  1.00  0.00     0.017 A 
ATOM     13  C   UNL A   1      30.886  24.150  23.268  1.00  0.00     0.012 A 
ATOM     14  C   UNL A   1      30.529  24.820  25.530  1.00  0.00     0.131 A 
ATOM     15  C   UNL A   1      31.460  22.953  23.709  1.00  0.00     0.005 A 
ATOM     16  C   UNL A   1      31.148  23.646  25.976  1.00  0.00     0.044 A 
ATOM     17  F   UNL A   1      30.051  25.663  26.460  1.00  0.00    -0.206 F 
BRANCH  12  18
ATOM     18  C   UNL A   1      29.809  26.371  23.657  1.00  0.00    -0.015 A 
ATOM     19  C   UNL A   1      26.455  28.215  23.608  1.00  0.00     0.044 C 
ATOM     20  C   UNL A   1      27.910  27.902  23.414  1.00  0.00    -0.050 A 
ATOM     21  C   UNL A   1      28.747  28.849  22.812  1.00  0.00     0.006 A 
ATOM     22  C   UNL A   1      28.448  26.676  23.833  1.00  0.00     0.012 A 
ATOM     23  C   UNL A   1      30.104  28.578  22.619  1.00  0.00    -0.050 A 
ATOM     24  C   UNL A   1      30.999  29.606  21.992  1.00  0.00     0.044 C 
ATOM     25  C   UNL A   1      30.615  27.339  23.025  1.00  0.00     0.012 A 
ENDBRANCH  12  18
ENDBRANCH   9  11
ENDBRANCH   6   9
ENDBRANCH   4   5
ENDBRANCH   3   4
ENDBRANCH   2   3
ENDBRANCH   1   2
BRANCH   1  26
ATOM     26  C   UNL A   1      33.083  27.692  25.640  1.00  0.00     0.021 C 
BRANCH  26  27
ATOM     27  C   UNL A   1      33.836  28.058  26.916  1.00  0.00     0.116 C 
BRANCH  27  28
ATOM     28  N   UNL A   1      33.629  29.449  27.284  1.00  0.00    -0.352 N 
ATOM     29  C   UNL A   1      34.449  30.302  27.979  1.00  0.00     0.251 C 
ATOM     30  H   UNL A   1      32.772  29.837  26.991  1.00  0.00     0.163 HD
ATOM     31  O   UNL A   1      34.005  31.361  28.410  1.00  0.00    -0.269 OA
BRANCH  29  32
ATOM     32  C   UNL A   1      35.864  29.941  28.212  1.00  0.00     0.039 A 
ATOM     33  C   UNL A   1      36.776  30.056  27.160  1.00  0.00     0.014 A 
ATOM     34  C   UNL A   1      36.284  29.459  29.456  1.00  0.00     0.014 A 
ATOM     35  C   UNL A   1      38.120  29.739  27.372  1.00  0.00     0.010 A 
ATOM     36  C   UNL A   1      37.635  29.207  29.683  1.00  0.00     0.010 A 
ATOM     37  C   UNL A   1      38.567  29.340  28.643  1.00  0.00    -0.014 A 
BRANCH  37  38
ATOM     38  C   UNL A   1      40.002  29.064  28.903  1.00  0.00     0.031 A 
ATOM     39  C   UNL A   1      40.588  27.719  28.565  1.00  0.00     0.074 A 
ATOM     40  C   UNL A   1      40.762  30.004  29.499  1.00  0.00     0.049 A 
ATOM     41  N   UNL A   1      41.796  27.269  28.785  1.00  0.00    -0.248 NA
ATOM     42  C   UNL A   1      39.694  26.745  27.918  1.00  0.00     0.031 C 
ATOM     43  C   UNL A   1      40.295  31.329  29.912  1.00  0.00     0.029 A 
ATOM     44  N   UNL A   1      42.084  29.989  29.869  1.00  0.00    -0.354 N 
ATOM     45  C   UNL A   1      41.804  25.961  28.316  1.00  0.00     0.074 A 
ATOM     46  C   UNL A   1      40.468  25.672  27.844  1.00  0.00     0.031 C 
ATOM     47  C   UNL A   1      41.319  32.007  30.456  1.00  0.00     0.029 A 
ATOM     48  C   UNL A   1      42.503  31.154  30.468  1.00  0.00     0.049 A 
ATOM     49  H   UNL A   1      42.676  29.217  29.720  1.00  0.00     0.167 HD
ATOM     50  C   UNL A   1      42.840  25.089  28.263  1.00  0.00     0.037 A 
ATOM     51  C   UNL A   1      43.703  31.496  30.979  1.00  0.00     0.037 A 
ATOM     52  C   UNL A   1      44.175  25.397  28.705  1.00  0.00     0.049 A 
ATOM     53  C   UNL A   1      44.837  30.510  30.909  1.00  0.00     0.074 A 
ATOM     54  C   UNL A   1      45.305  24.602  28.634  1.00  0.00     0.029 A 
ATOM     55  N   UNL A   1      44.561  26.591  29.295  1.00  0.00    -0.354 N 
ATOM     56  N   UNL A   1      44.840  29.295  30.414  1.00  0.00    -0.248 NA
ATOM     57  C   UNL A   1      46.129  30.936  31.463  1.00  0.00     0.031 C 
ATOM     58  C   UNL A   1      46.366  25.296  29.224  1.00  0.00     0.029 A 
ATOM     59  C   UNL A   1      45.908  26.545  29.616  1.00  0.00     0.049 A 
ATOM     60  H   UNL A   1      43.967  27.358  29.462  1.00  0.00     0.167 HD
ATOM     61  C   UNL A   1      46.136  28.821  30.578  1.00  0.00     0.074 A 
ATOM     62  C   UNL A   1      46.893  29.883  31.207  1.00  0.00     0.031 C 
ATOM     63  C   UNL A   1      46.650  27.612  30.239  1.00  0.00     0.037 A 
BRANCH  50  64
ATOM     64  C   UNL A   1      42.584  23.721  27.694  1.00  0.00     0.058 A 
ATOM     65  C   UNL A   1      42.435  22.612  28.541  1.00  0.00     0.135 A 
ATOM     66  C   UNL A   1      42.562  23.494  26.308  1.00  0.00     0.135 A 
ATOM     67  F   UNL A   1      42.441  22.771  29.874  1.00  0.00    -0.206 F 
ATOM     68  C   UNL A   1      42.294  21.323  28.036  1.00  0.00     0.059 A 
ATOM     69  C   UNL A   1      42.396  22.217  25.780  1.00  0.00     0.059 A 
ATOM     70  F   UNL A   1      42.678  24.523  25.453  1.00  0.00    -0.206 F 
ATOM     71  C   UNL A   1      42.280  21.136  26.652  1.00  0.00     0.060 A 
BRANCH  71  72
ATOM     72  S   UNL A   1      42.079  19.459  26.012  1.00  0.00     0.124 S 
ATOM     73  O   UNL A   1      40.642  19.396  25.780  1.00  0.00    -0.237 OA
ATOM     74  O   UNL A   1      42.917  19.487  24.817  1.00  0.00    -0.237 OA
ATOM     75  O   UNL A   1      42.580  18.621  27.097  1.00  0.00    -0.744 OA
ENDBRANCH  71  72
ENDBRANCH  50  64
BRANCH  51  76
ATOM     76  C   UNL A   1      43.891  32.844  31.576  1.00  0.00     0.058 A 
ATOM     77  C   UNL A   1      43.680  33.070  32.945  1.00  0.00     0.135 A 
ATOM     78  C   UNL A   1      44.241  33.943  30.778  1.00  0.00     0.135 A 
ATOM     79  F   UNL A   1      43.331  32.055  33.750  1.00  0.00    -0.206 F 
ATOM     80  C   UNL A   1      43.783  34.342  33.497  1.00  0.00     0.059 A 
ATOM     81  C   UNL A   1      44.376  35.222  31.312  1.00  0.00     0.059 A 
ATOM     82  F   UNL A   1      44.465  33.774  29.467  1.00  0.00    -0.206 F 
ATOM     83  C   UNL A   1      44.126  35.413  32.671  1.00  0.00     0.060 A 
BRANCH  83  84
ATOM     84  S   UNL A   1      44.231  37.061  33.403  1.00  0.00     0.124 S 
ATOM     85  O   UNL A   1      44.233  37.908  32.214  1.00  0.00    -0.237 OA
ATOM     86  O   UNL A   1      43.018  37.111  34.215  1.00  0.00    -0.237 OA
ATOM     87  O   UNL A   1      45.483  37.019  34.150  1.00  0.00    -0.744 OA
ENDBRANCH  83  84
ENDBRANCH  51  76
BRANCH  63  88
ATOM     88  C   UNL A   1      48.106  27.367  30.524  1.00  0.00     0.058 A 
ATOM     89  C   UNL A   1      49.082  27.696  29.569  1.00  0.00     0.135 A 
ATOM     90  C   UNL A   1      48.525  26.725  31.699  1.00  0.00     0.135 A 
ATOM     91  F   UNL A   1      48.733  28.306  28.426  1.00  0.00    -0.206 F 
ATOM     92  C   UNL A   1      50.421  27.375  29.760  1.00  0.00     0.059 A 
ATOM     93  C   UNL A   1      49.865  26.418  31.922  1.00  0.00     0.059 A 
ATOM     94  F   UNL A   1      47.632  26.400  32.647  1.00  0.00    -0.206 F 
ATOM     95  C   UNL A   1      50.803  26.730  30.938  1.00  0.00     0.060 A 
BRANCH  95  96
ATOM     96  S   UNL A   1      52.546  26.322  31.169  1.00  0.00     0.124 S 
ATOM     97  O   UNL A   1      53.023  26.255  29.792  1.00  0.00    -0.237 OA
ATOM     98  O   UNL A   1      53.027  27.456  31.953  1.00  0.00    -0.237 OA
ATOM     99  O   UNL A   1      52.504  25.049  31.882  1.00  0.00    -0.744 OA
ENDBRANCH  95  96
ENDBRANCH  63  88
ENDBRANCH  37  38
ENDBRANCH  29  32
ENDBRANCH  27  28
ENDBRANCH  26  27
ENDBRANCH   1  26
TORSDOF 18
ENDMDL
