MODEL 1
REMARK VINA RESULT:     -10.1      0.000      0.000
REMARK SMILES C=CC[N@@H+](CC(=O)NCCCCCCNC(=O)c1ccc(-c2c3nc(c(-c4c(F)cc(S(=O)(=O)[O-])cc4F)c4ccc([nH]4)c(-c4c(F)cc(S(=O)(=O)[O-])cc4F)c4nc(c(-c5c(F)cc(S(=O)(=O)[O-])cc5F)c5ccc2[nH]5)C=C4)C=C3)cc1)C[C@H]1CNC(=O)O1
REMARK SMILES IDX 11 1 10 2 9 3 8 4 6 5 7 6 5 8 4 9 3 11 2 12 1 13 84 14 85 15
REMARK SMILES IDX 86 16 90 17 87 18 88 19 89 21 12 22 13 23 14 24 15 25 16 26
REMARK SMILES IDX 17 28 18 29 19 30 83 31 20 32 82 33 21 34 22 35 23 36 76 37
REMARK SMILES IDX 24 38 81 39 75 40 77 41 25 42 80 43 74 44 73 45 26 47 60 48
REMARK SMILES IDX 39 49 59 50 40 51 43 52 58 53 78 54 41 55 42 56 57 58 79 59
REMARK SMILES IDX 44 60 27 61 28 62 37 63 29 64 30 65 36 66 38 67 31 68 32 69
REMARK SMILES IDX 33 70 34 71 35 72 61 73 62 74 71 75 63 76 64 77 70 78 72 79
REMARK SMILES IDX 65 80 66 81 67 82 68 83 69 84 45 85 46 86 55 87 47 88 48 89
REMARK SMILES IDX 54 90 56 91 49 92 50 93 51 94 52 95 53 96
REMARK H PARENT 8 7 4 10 87 20 15 27 77 46 43 57
REMARK Flexibility Score: inf
ROOT
ATOM      1  C   UNL A   1      30.821  26.875  25.059  1.00  0.00     0.002 C 
ENDROOT
BRANCH   1   2
ATOM      2  C   UNL A   1      30.392  27.136  23.618  1.00  0.00     0.021 C 
BRANCH   2   3
ATOM      3  C   UNL A   1      31.420  27.783  22.674  1.00  0.00     0.116 C 
BRANCH   3   4
ATOM      4  N   UNL A   1      31.872  26.903  21.615  1.00  0.00    -0.351 N 
ATOM      5  C   UNL A   1      32.873  25.976  21.549  1.00  0.00     0.275 C 
ATOM      6  O   UNL A   1      32.981  25.340  20.491  1.00  0.00    -0.269 OA
ATOM      7  H   UNL A   1      31.357  26.990  20.780  1.00  0.00     0.163 HD
BRANCH   5   8
ATOM      8  C   UNL A   1      33.805  25.643  22.719  1.00  0.00     0.363 C 
BRANCH   8   9
ATOM      9  N   UNL A   1      33.693  24.311  23.359  1.00  0.00    -0.321 N 
ATOM     10  H   UNL A   1      34.034  24.423  24.313  1.00  0.00     0.348 HD
BRANCH   9  11
ATOM     11  C   UNL A   1      34.638  23.351  22.823  1.00  0.00     0.290 C 
BRANCH  11  12
ATOM     12  C   UNL A   1      35.960  23.219  23.512  1.00  0.00     0.025 C 
ATOM     13  C   UNL A   1      36.123  23.450  24.823  1.00  0.00     0.010 C 
ENDBRANCH  11  12
ENDBRANCH   9  11
BRANCH   9  14
ATOM     14  C   UNL A   1      32.347  23.873  23.762  1.00  0.00     0.310 C 
BRANCH  14  15
ATOM     15  C   UNL A   1      32.120  23.194  25.132  1.00  0.00     0.252 C 
ATOM     16  C   UNL A   1      32.727  23.956  26.302  1.00  0.00     0.170 C 
ATOM     17  O   UNL A   1      30.725  23.129  25.461  1.00  0.00    -0.438 OA
ATOM     18  N   UNL A   1      31.682  23.960  27.271  1.00  0.00    -0.318 N 
ATOM     19  C   UNL A   1      30.514  23.523  26.736  1.00  0.00     0.407 C 
ATOM     20  H   UNL A   1      31.793  24.244  28.207  1.00  0.00     0.167 HD
ATOM     21  O   UNL A   1      29.439  23.477  27.315  1.00  0.00    -0.225 OA
ENDBRANCH  14  15
ENDBRANCH   9  14
ENDBRANCH   8   9
ENDBRANCH   5   8
ENDBRANCH   3   4
ENDBRANCH   2   3
ENDBRANCH   1   2
BRANCH   1  22
ATOM     22  C   UNL A   1      31.543  28.033  25.743  1.00  0.00     0.002 C 
BRANCH  22  23
ATOM     23  C   UNL A   1      33.058  27.867  25.880  1.00  0.00     0.021 C 
BRANCH  23  24
ATOM     24  C   UNL A   1      33.623  28.250  27.247  1.00  0.00     0.116 C 
BRANCH  24  25
ATOM     25  N   UNL A   1      33.529  29.680  27.491  1.00  0.00    -0.352 N 
ATOM     26  C   UNL A   1      34.446  30.517  28.083  1.00  0.00     0.251 C 
ATOM     27  H   UNL A   1      32.696  30.109  27.191  1.00  0.00     0.163 HD
ATOM     28  O   UNL A   1      34.118  31.646  28.434  1.00  0.00    -0.269 OA
BRANCH  26  29
ATOM     29  C   UNL A   1      35.827  30.039  28.303  1.00  0.00     0.039 A 
ATOM     30  C   UNL A   1      36.754  30.105  27.258  1.00  0.00     0.014 A 
ATOM     31  C   UNL A   1      36.205  29.534  29.550  1.00  0.00     0.014 A 
ATOM     32  C   UNL A   1      38.078  29.722  27.486  1.00  0.00     0.010 A 
ATOM     33  C   UNL A   1      37.539  29.229  29.794  1.00  0.00     0.010 A 
ATOM     34  C   UNL A   1      38.490  29.313  28.765  1.00  0.00    -0.014 A 
BRANCH  34  35
ATOM     35  C   UNL A   1      39.898  28.940  29.058  1.00  0.00     0.031 A 
ATOM     36  C   UNL A   1      40.840  29.978  29.606  1.00  0.00     0.074 A 
ATOM     37  C   UNL A   1      40.351  27.709  28.749  1.00  0.00     0.049 A 
ATOM     38  N   UNL A   1      42.133  29.911  29.786  1.00  0.00    -0.248 NA
ATOM     39  C   UNL A   1      40.250  31.277  29.971  1.00  0.00     0.031 C 
ATOM     40  C   UNL A   1      39.543  26.623  28.191  1.00  0.00     0.029 A 
ATOM     41  N   UNL A   1      41.611  27.169  28.841  1.00  0.00    -0.354 N 
ATOM     42  C   UNL A   1      42.514  31.160  30.264  1.00  0.00     0.074 A 
ATOM     43  C   UNL A   1      41.325  31.982  30.292  1.00  0.00     0.031 C 
ATOM     44  C   UNL A   1      40.323  25.546  28.004  1.00  0.00     0.029 A 
ATOM     45  C   UNL A   1      41.695  25.877  28.376  1.00  0.00     0.049 A 
ATOM     46  H   UNL A   1      42.382  27.662  29.205  1.00  0.00     0.167 HD
ATOM     47  C   UNL A   1      43.739  31.577  30.663  1.00  0.00     0.037 A 
ATOM     48  C   UNL A   1      42.759  25.060  28.247  1.00  0.00     0.037 A 
ATOM     49  C   UNL A   1      44.913  30.743  30.650  1.00  0.00     0.049 A 
ATOM     50  C   UNL A   1      44.119  25.556  28.667  1.00  0.00     0.074 A 
ATOM     51  C   UNL A   1      46.193  31.055  31.071  1.00  0.00     0.029 A 
ATOM     52  N   UNL A   1      44.951  29.434  30.191  1.00  0.00    -0.354 N 
ATOM     53  N   UNL A   1      44.456  26.726  29.153  1.00  0.00    -0.248 NA
ATOM     54  C   UNL A   1      45.244  24.620  28.523  1.00  0.00     0.031 C 
ATOM     55  C   UNL A   1      47.017  29.954  30.817  1.00  0.00     0.029 A 
ATOM     56  C   UNL A   1      46.237  28.933  30.301  1.00  0.00     0.049 A 
ATOM     57  H   UNL A   1      44.178  28.936  29.840  1.00  0.00     0.167 HD
ATOM     58  C   UNL A   1      45.820  26.652  29.416  1.00  0.00     0.074 A 
ATOM     59  C   UNL A   1      46.247  25.324  29.030  1.00  0.00     0.031 C 
ATOM     60  C   UNL A   1      46.641  27.596  29.936  1.00  0.00     0.037 A 
BRANCH  47  61
ATOM     61  C   UNL A   1      43.873  32.997  31.142  1.00  0.00     0.058 A 
ATOM     62  C   UNL A   1      44.167  34.050  30.260  1.00  0.00     0.135 A 
ATOM     63  C   UNL A   1      43.677  33.315  32.495  1.00  0.00     0.135 A 
ATOM     64  F   UNL A   1      44.379  33.804  28.957  1.00  0.00    -0.206 F 
ATOM     65  C   UNL A   1      44.298  35.361  30.709  1.00  0.00     0.059 A 
ATOM     66  C   UNL A   1      43.769  34.624  32.961  1.00  0.00     0.059 A 
ATOM     67  F   UNL A   1      43.394  32.350  33.384  1.00  0.00    -0.206 F 
ATOM     68  C   UNL A   1      44.097  35.637  32.062  1.00  0.00     0.060 A 
BRANCH  68  69
ATOM     69  S   UNL A   1      44.272  37.343  32.626  1.00  0.00     0.124 S 
ATOM     70  O   UNL A   1      43.175  37.447  33.583  1.00  0.00    -0.237 OA
ATOM     71  O   UNL A   1      45.614  37.346  33.198  1.00  0.00    -0.237 OA
ATOM     72  O   UNL A   1      44.113  38.124  31.403  1.00  0.00    -0.744 OA
ENDBRANCH  68  69
ENDBRANCH  47  61
BRANCH  48  73
ATOM     73  C   UNL A   1      42.581  23.683  27.711  1.00  0.00     0.058 A 
ATOM     74  C   UNL A   1      42.633  23.436  26.330  1.00  0.00     0.135 A 
ATOM     75  C   UNL A   1      42.362  22.587  28.561  1.00  0.00     0.135 A 
ATOM     76  F   UNL A   1      42.831  24.450  25.474  1.00  0.00    -0.206 F 
ATOM     77  C   UNL A   1      42.457  22.158  25.810  1.00  0.00     0.059 A 
ATOM     78  C   UNL A   1      42.212  21.295  28.066  1.00  0.00     0.059 A 
ATOM     79  F   UNL A   1      42.318  22.765  29.890  1.00  0.00    -0.206 F 
ATOM     80  C   UNL A   1      42.250  21.092  26.687  1.00  0.00     0.060 A 
BRANCH  80  81
ATOM     81  S   UNL A   1      42.066  19.431  26.002  1.00  0.00     0.124 S 
ATOM     82  O   UNL A   1      42.603  18.608  27.079  1.00  0.00    -0.237 OA
ATOM     83  O   UNL A   1      40.625  19.347  25.791  1.00  0.00    -0.237 OA
ATOM     84  O   UNL A   1      42.869  19.479  24.784  1.00  0.00    -0.744 OA
ENDBRANCH  80  81
ENDBRANCH  48  73
BRANCH  60  85
ATOM     85  C   UNL A   1      48.077  27.220  30.190  1.00  0.00     0.058 A 
ATOM     86  C   UNL A   1      49.072  27.370  29.214  1.00  0.00     0.135 A 
ATOM     87  C   UNL A   1      48.472  26.788  31.469  1.00  0.00     0.135 A 
ATOM     88  F   UNL A   1      48.748  27.773  27.974  1.00  0.00    -0.206 F 
ATOM     89  C   UNL A   1      50.408  27.098  29.491  1.00  0.00     0.059 A 
ATOM     90  C   UNL A   1      49.805  26.539  31.777  1.00  0.00     0.059 A 
ATOM     91  F   UNL A   1      47.561  26.635  32.442  1.00  0.00    -0.206 F 
ATOM     92  C   UNL A   1      50.766  26.692  30.779  1.00  0.00     0.060 A 
BRANCH  92  93
ATOM     93  S   UNL A   1      52.511  26.410  31.143  1.00  0.00     0.124 S 
ATOM     94  O   UNL A   1      52.820  27.545  32.006  1.00  0.00    -0.237 OA
ATOM     95  O   UNL A   1      52.486  25.105  31.795  1.00  0.00    -0.237 OA
ATOM     96  O   UNL A   1      53.142  26.434  29.826  1.00  0.00    -0.744 OA
ENDBRANCH  92  93
ENDBRANCH  60  85
ENDBRANCH  34  35
ENDBRANCH  26  29
ENDBRANCH  24  25
ENDBRANCH  23  24
ENDBRANCH  22  23
ENDBRANCH   1  22
TORSDOF 21
ENDMDL
MODEL 2
REMARK VINA RESULT:      -9.6      1.464      2.664
REMARK SMILES C=CC[N@@H+](CC(=O)NCCCCCCNC(=O)c1ccc(-c2c3nc(c(-c4c(F)cc(S(=O)(=O)[O-])cc4F)c4ccc([nH]4)c(-c4c(F)cc(S(=O)(=O)[O-])cc4F)c4nc(c(-c5c(F)cc(S(=O)(=O)[O-])cc5F)c5ccc2[nH]5)C=C4)C=C3)cc1)C[C@H]1CNC(=O)O1
REMARK SMILES IDX 11 1 10 2 9 3 8 4 6 5 7 6 5 8 4 9 3 11 2 12 1 13 84 14 85 15
REMARK SMILES IDX 86 16 90 17 87 18 88 19 89 21 12 22 13 23 14 24 15 25 16 26
REMARK SMILES IDX 17 28 18 29 19 30 83 31 20 32 82 33 21 34 22 35 23 36 76 37
REMARK SMILES IDX 24 38 81 39 75 40 77 41 25 42 80 43 74 44 73 45 26 47 60 48
REMARK SMILES IDX 39 49 59 50 40 51 43 52 58 53 78 54 41 55 42 56 57 58 79 59
REMARK SMILES IDX 44 60 27 61 28 62 37 63 29 64 30 65 36 66 38 67 31 68 32 69
REMARK SMILES IDX 33 70 34 71 35 72 61 73 62 74 71 75 63 76 64 77 70 78 72 79
REMARK SMILES IDX 65 80 66 81 67 82 68 83 69 84 45 85 46 86 55 87 47 88 48 89
REMARK SMILES IDX 54 90 56 91 49 92 50 93 51 94 52 95 53 96
REMARK H PARENT 8 7 4 10 87 20 15 27 77 46 43 57
REMARK Flexibility Score: inf
ROOT
ATOM      1  C   UNL A   1      31.521  27.382  24.826  1.00  0.00     0.002 C 
ENDROOT
BRANCH   1   2
ATOM      2  C   UNL A   1      31.446  26.261  23.792  1.00  0.00     0.021 C 
BRANCH   2   3
ATOM      3  C   UNL A   1      31.574  24.814  24.300  1.00  0.00     0.116 C 
BRANCH   3   4
ATOM      4  N   UNL A   1      31.921  23.863  23.263  1.00  0.00    -0.351 N 
ATOM      5  C   UNL A   1      32.209  22.528  23.294  1.00  0.00     0.275 C 
ATOM      6  O   UNL A   1      32.428  21.976  22.206  1.00  0.00    -0.269 OA
ATOM      7  H   UNL A   1      31.957  24.256  22.360  1.00  0.00     0.163 HD
BRANCH   5   8
ATOM      8  C   UNL A   1      32.205  21.684  24.572  1.00  0.00     0.363 C 
BRANCH   8   9
ATOM      9  N   UNL A   1      33.353  20.785  24.834  1.00  0.00    -0.321 N 
ATOM     10  H   UNL A   1      33.949  20.833  24.007  1.00  0.00     0.348 HD
BRANCH   9  11
ATOM     11  C   UNL A   1      32.979  19.385  24.841  1.00  0.00     0.290 C 
BRANCH  11  12
ATOM     12  C   UNL A   1      33.947  18.405  24.257  1.00  0.00     0.025 C 
ATOM     13  C   UNL A   1      33.565  17.378  23.483  1.00  0.00     0.010 C 
ENDBRANCH  11  12
ENDBRANCH   9  11
BRANCH   9  14
ATOM     14  C   UNL A   1      34.389  21.276  25.757  1.00  0.00     0.310 C 
BRANCH  14  15
ATOM     15  C   UNL A   1      35.538  22.173  25.243  1.00  0.00     0.252 C 
ATOM     16  C   UNL A   1      35.728  23.450  26.051  1.00  0.00     0.170 C 
ATOM     17  O   UNL A   1      36.809  21.514  25.354  1.00  0.00    -0.438 OA
ATOM     18  N   UNL A   1      37.137  23.504  26.257  1.00  0.00    -0.318 N 
ATOM     19  C   UNL A   1      37.732  22.341  25.891  1.00  0.00     0.407 C 
ATOM     20  H   UNL A   1      37.616  24.285  26.619  1.00  0.00     0.167 HD
ATOM     21  O   UNL A   1      38.920  22.081  26.012  1.00  0.00    -0.225 OA
ENDBRANCH  14  15
ENDBRANCH   9  14
ENDBRANCH   8   9
ENDBRANCH   5   8
ENDBRANCH   3   4
ENDBRANCH   2   3
ENDBRANCH   1   2
BRANCH   1  22
ATOM     22  C   UNL A   1      32.699  28.339  24.662  1.00  0.00     0.002 C 
BRANCH  22  23
ATOM     23  C   UNL A   1      33.908  28.043  25.554  1.00  0.00     0.021 C 
BRANCH  23  24
ATOM     24  C   UNL A   1      33.673  28.267  27.046  1.00  0.00     0.116 C 
BRANCH  24  25
ATOM     25  N   UNL A   1      33.559  29.680  27.371  1.00  0.00    -0.352 N 
ATOM     26  C   UNL A   1      34.453  30.489  28.032  1.00  0.00     0.251 C 
ATOM     27  H   UNL A   1      32.728  30.118  27.076  1.00  0.00     0.163 HD
ATOM     28  O   UNL A   1      34.105  31.592  28.440  1.00  0.00    -0.269 OA
BRANCH  26  29
ATOM     29  C   UNL A   1      35.833  30.011  28.257  1.00  0.00     0.039 A 
ATOM     30  C   UNL A   1      36.757  30.056  27.209  1.00  0.00     0.014 A 
ATOM     31  C   UNL A   1      36.213  29.528  29.511  1.00  0.00     0.014 A 
ATOM     32  C   UNL A   1      38.081  29.674  27.439  1.00  0.00     0.010 A 
ATOM     33  C   UNL A   1      37.547  29.224  29.758  1.00  0.00     0.010 A 
ATOM     34  C   UNL A   1      38.495  29.286  28.724  1.00  0.00    -0.014 A 
BRANCH  34  35
ATOM     35  C   UNL A   1      39.903  28.914  29.021  1.00  0.00     0.031 A 
ATOM     36  C   UNL A   1      40.840  29.951  29.581  1.00  0.00     0.074 A 
ATOM     37  C   UNL A   1      40.361  27.688  28.704  1.00  0.00     0.049 A 
ATOM     38  N   UNL A   1      42.133  29.886  29.766  1.00  0.00    -0.248 NA
ATOM     39  C   UNL A   1      40.245  31.245  29.954  1.00  0.00     0.031 C 
ATOM     40  C   UNL A   1      39.558  26.603  28.134  1.00  0.00     0.029 A 
ATOM     41  N   UNL A   1      41.622  27.150  28.797  1.00  0.00    -0.354 N 
ATOM     42  C   UNL A   1      42.508  31.132  30.255  1.00  0.00     0.074 A 
ATOM     43  C   UNL A   1      41.317  31.951  30.285  1.00  0.00     0.031 C 
ATOM     44  C   UNL A   1      40.342  25.531  27.941  1.00  0.00     0.029 A 
ATOM     45  C   UNL A   1      41.711  25.863  28.322  1.00  0.00     0.049 A 
ATOM     46  H   UNL A   1      42.390  27.642  29.167  1.00  0.00     0.167 HD
ATOM     47  C   UNL A   1      43.730  31.549  30.663  1.00  0.00     0.037 A 
ATOM     48  C   UNL A   1      42.778  25.049  28.191  1.00  0.00     0.037 A 
ATOM     49  C   UNL A   1      44.906  30.718  30.648  1.00  0.00     0.049 A 
ATOM     50  C   UNL A   1      44.135  25.545  28.620  1.00  0.00     0.074 A 
ATOM     51  C   UNL A   1      46.184  31.031  31.077  1.00  0.00     0.029 A 
ATOM     52  N   UNL A   1      44.950  29.413  30.179  1.00  0.00    -0.354 N 
ATOM     53  N   UNL A   1      44.466  26.712  29.117  1.00  0.00    -0.248 NA
ATOM     54  C   UNL A   1      45.263  24.614  28.473  1.00  0.00     0.031 C 
ATOM     55  C   UNL A   1      47.012  29.934  30.818  1.00  0.00     0.029 A 
ATOM     56  C   UNL A   1      46.237  28.914  30.290  1.00  0.00     0.049 A 
ATOM     57  H   UNL A   1      44.179  28.915  29.820  1.00  0.00     0.167 HD
ATOM     58  C   UNL A   1      45.830  26.640  29.384  1.00  0.00     0.074 A 
ATOM     59  C   UNL A   1      46.262  25.316  28.990  1.00  0.00     0.031 C 
ATOM     60  C   UNL A   1      46.646  27.582  29.916  1.00  0.00     0.037 A 
BRANCH  47  61
ATOM     61  C   UNL A   1      43.858  32.965  31.154  1.00  0.00     0.058 A 
ATOM     62  C   UNL A   1      43.665  33.301  32.504  1.00  0.00     0.135 A 
ATOM     63  C   UNL A   1      44.208  33.998  30.270  1.00  0.00     0.135 A 
ATOM     64  F   UNL A   1      43.315  32.357  33.393  1.00  0.00    -0.206 F 
ATOM     65  C   UNL A   1      43.777  34.613  32.952  1.00  0.00     0.059 A 
ATOM     66  C   UNL A   1      44.359  35.313  30.701  1.00  0.00     0.059 A 
ATOM     67  F   UNL A   1      44.405  33.737  28.967  1.00  0.00    -0.206 F 
ATOM     68  C   UNL A   1      44.125  35.613  32.042  1.00  0.00     0.060 A 
BRANCH  68  69
ATOM     69  S   UNL A   1      44.264  37.310  32.641  1.00  0.00     0.124 S 
ATOM     70  O   UNL A   1      43.970  38.070  31.430  1.00  0.00    -0.237 OA
ATOM     71  O   UNL A   1      43.243  37.358  33.682  1.00  0.00    -0.237 OA
ATOM     72  O   UNL A   1      45.642  37.392  33.113  1.00  0.00    -0.744 OA
ENDBRANCH  68  69
ENDBRANCH  47  61
BRANCH  48  73
ATOM     73  C   UNL A   1      42.606  23.676  27.642  1.00  0.00     0.058 A 
ATOM     74  C   UNL A   1      42.416  22.578  28.497  1.00  0.00     0.135 A 
ATOM     75  C   UNL A   1      42.622  23.431  26.260  1.00  0.00     0.135 A 
ATOM     76  F   UNL A   1      42.402  22.758  29.826  1.00  0.00    -0.206 F 
ATOM     77  C   UNL A   1      42.265  21.286  28.003  1.00  0.00     0.059 A 
ATOM     78  C   UNL A   1      42.444  22.152  25.741  1.00  0.00     0.059 A 
ATOM     79  F   UNL A   1      42.785  24.446  25.398  1.00  0.00    -0.206 F 
ATOM     80  C   UNL A   1      42.278  21.084  26.622  1.00  0.00     0.060 A 
BRANCH  80  81
ATOM     81  S   UNL A   1      42.039  19.408  25.992  1.00  0.00     0.124 S 
ATOM     82  O   UNL A   1      42.870  19.423  24.795  1.00  0.00    -0.237 OA
ATOM     83  O   UNL A   1      42.527  18.594  27.100  1.00  0.00    -0.237 OA
ATOM     84  O   UNL A   1      40.599  19.339  25.759  1.00  0.00    -0.744 OA
ENDBRANCH  80  81
ENDBRANCH  48  73
BRANCH  60  85
ATOM     85  C   UNL A   1      48.082  27.208  30.173  1.00  0.00     0.058 A 
ATOM     86  C   UNL A   1      49.104  27.495  29.257  1.00  0.00     0.135 A 
ATOM     87  C   UNL A   1      48.446  26.633  31.403  1.00  0.00     0.135 A 
ATOM     88  F   UNL A   1      48.810  28.037  28.063  1.00  0.00    -0.206 F 
ATOM     89  C   UNL A   1      50.437  27.219  29.546  1.00  0.00     0.059 A 
ATOM     90  C   UNL A   1      49.775  26.376  31.725  1.00  0.00     0.059 A 
ATOM     91  F   UNL A   1      47.508  26.345  32.320  1.00  0.00    -0.206 F 
ATOM     92  C   UNL A   1      50.762  26.668  30.788  1.00  0.00     0.060 A 
BRANCH  92  93
ATOM     93  S   UNL A   1      52.502  26.380  31.175  1.00  0.00     0.124 S 
ATOM     94  O   UNL A   1      53.099  26.347  29.844  1.00  0.00    -0.237 OA
ATOM     95  O   UNL A   1      52.835  27.543  31.991  1.00  0.00    -0.237 OA
ATOM     96  O   UNL A   1      52.487  25.106  31.887  1.00  0.00    -0.744 OA
ENDBRANCH  92  93
ENDBRANCH  60  85
ENDBRANCH  34  35
ENDBRANCH  26  29
ENDBRANCH  24  25
ENDBRANCH  23  24
ENDBRANCH  22  23
ENDBRANCH   1  22
TORSDOF 21
ENDMDL
MODEL 3
REMARK VINA RESULT:      -9.6      5.067     10.603
REMARK SMILES C=CC[N@@H+](CC(=O)NCCCCCCNC(=O)c1ccc(-c2c3nc(c(-c4c(F)cc(S(=O)(=O)[O-])cc4F)c4ccc([nH]4)c(-c4c(F)cc(S(=O)(=O)[O-])cc4F)c4nc(c(-c5c(F)cc(S(=O)(=O)[O-])cc5F)c5ccc2[nH]5)C=C4)C=C3)cc1)C[C@H]1CNC(=O)O1
REMARK SMILES IDX 11 1 10 2 9 3 8 4 6 5 7 6 5 8 4 9 3 11 2 12 1 13 84 14 85 15
REMARK SMILES IDX 86 16 90 17 87 18 88 19 89 21 12 22 13 23 14 24 15 25 16 26
REMARK SMILES IDX 17 28 18 29 19 30 83 31 20 32 82 33 21 34 22 35 23 36 76 37
REMARK SMILES IDX 24 38 81 39 75 40 77 41 25 42 80 43 74 44 73 45 26 47 60 48
REMARK SMILES IDX 39 49 59 50 40 51 43 52 58 53 78 54 41 55 42 56 57 58 79 59
REMARK SMILES IDX 44 60 27 61 28 62 37 63 29 64 30 65 36 66 38 67 31 68 32 69
REMARK SMILES IDX 33 70 34 71 35 72 61 73 62 74 71 75 63 76 64 77 70 78 72 79
REMARK SMILES IDX 65 80 66 81 67 82 68 83 69 84 45 85 46 86 55 87 47 88 48 89
REMARK SMILES IDX 54 90 56 91 49 92 50 93 51 94 52 95 53 96
REMARK H PARENT 8 7 4 10 87 20 15 27 77 46 43 57
REMARK Flexibility Score: inf
ROOT
ATOM      1  C   UNL A   1      38.667  23.215  26.681  1.00  0.00     0.002 C 
ENDROOT
BRANCH   1   2
ATOM      2  C   UNL A   1      37.457  23.342  25.758  1.00  0.00     0.021 C 
BRANCH   2   3
ATOM      3  C   UNL A   1      36.661  22.064  25.447  1.00  0.00     0.116 C 
BRANCH   3   4
ATOM      4  N   UNL A   1      35.751  21.673  26.505  1.00  0.00    -0.351 N 
ATOM      5  C   UNL A   1      34.390  21.693  26.607  1.00  0.00     0.275 C 
ATOM      6  O   UNL A   1      33.898  21.241  27.650  1.00  0.00    -0.269 OA
ATOM      7  H   UNL A   1      36.204  21.325  27.308  1.00  0.00     0.163 HD
BRANCH   5   8
ATOM      8  C   UNL A   1      33.458  22.173  25.490  1.00  0.00     0.363 C 
BRANCH   8   9
ATOM      9  N   UNL A   1      33.192  21.267  24.348  1.00  0.00    -0.321 N 
ATOM     10  H   UNL A   1      34.074  20.799  24.142  1.00  0.00     0.348 HD
BRANCH   9  11
ATOM     11  C   UNL A   1      32.946  21.981  23.112  1.00  0.00     0.290 C 
BRANCH  11  12
ATOM     12  C   UNL A   1      32.199  23.275  23.194  1.00  0.00     0.025 C 
ATOM     13  C   UNL A   1      32.597  24.388  22.559  1.00  0.00     0.010 C 
ENDBRANCH  11  12
ENDBRANCH   9  11
BRANCH   9  14
ATOM     14  C   UNL A   1      32.460  20.023  24.638  1.00  0.00     0.310 C 
BRANCH  14  15
ATOM     15  C   UNL A   1      33.226  18.707  24.908  1.00  0.00     0.252 C 
ATOM     16  C   UNL A   1      32.326  17.543  25.299  1.00  0.00     0.170 C 
ATOM     17  O   UNL A   1      33.891  18.235  23.727  1.00  0.00    -0.438 OA
ATOM     18  N   UNL A   1      32.805  16.470  24.493  1.00  0.00    -0.318 N 
ATOM     19  C   UNL A   1      33.674  16.913  23.551  1.00  0.00     0.407 C 
ATOM     20  H   UNL A   1      32.538  15.528  24.606  1.00  0.00     0.167 HD
ATOM     21  O   UNL A   1      34.196  16.226  22.686  1.00  0.00    -0.225 OA
ENDBRANCH  14  15
ENDBRANCH   9  14
ENDBRANCH   8   9
ENDBRANCH   5   8
ENDBRANCH   3   4
ENDBRANCH   2   3
ENDBRANCH   1   2
BRANCH   1  22
ATOM     22  C   UNL A   1      39.607  22.055  26.364  1.00  0.00     0.002 C 
BRANCH  22  23
ATOM     23  C   UNL A   1      40.719  21.818  27.388  1.00  0.00     0.021 C 
BRANCH  23  24
ATOM     24  C   UNL A   1      41.575  23.043  27.700  1.00  0.00     0.116 C 
BRANCH  24  25
ATOM     25  N   UNL A   1      42.055  23.691  26.490  1.00  0.00    -0.352 N 
ATOM     26  C   UNL A   1      42.052  25.027  26.166  1.00  0.00     0.251 C 
ATOM     27  H   UNL A   1      42.436  23.091  25.809  1.00  0.00     0.163 HD
ATOM     28  O   UNL A   1      42.268  25.386  25.013  1.00  0.00    -0.269 OA
BRANCH  26  29
ATOM     29  C   UNL A   1      41.776  26.027  27.219  1.00  0.00     0.039 A 
ATOM     30  C   UNL A   1      40.723  25.814  28.113  1.00  0.00     0.014 A 
ATOM     31  C   UNL A   1      42.569  27.173  27.323  1.00  0.00     0.014 A 
ATOM     32  C   UNL A   1      40.507  26.721  29.153  1.00  0.00     0.010 A 
ATOM     33  C   UNL A   1      42.401  28.031  28.404  1.00  0.00     0.010 A 
ATOM     34  C   UNL A   1      41.365  27.820  29.327  1.00  0.00    -0.014 A 
BRANCH  34  35
ATOM     35  C   UNL A   1      41.196  28.783  30.446  1.00  0.00     0.031 A 
ATOM     36  C   UNL A   1      42.071  28.664  31.665  1.00  0.00     0.074 A 
ATOM     37  C   UNL A   1      40.206  29.696  30.410  1.00  0.00     0.049 A 
ATOM     38  N   UNL A   1      41.990  29.293  32.808  1.00  0.00    -0.248 NA
ATOM     39  C   UNL A   1      43.164  27.679  31.598  1.00  0.00     0.031 C 
ATOM     40  C   UNL A   1      39.276  29.896  29.296  1.00  0.00     0.029 A 
ATOM     41  N   UNL A   1      39.801  30.617  31.346  1.00  0.00    -0.354 N 
ATOM     42  C   UNL A   1      43.005  28.769  33.601  1.00  0.00     0.074 A 
ATOM     43  C   UNL A   1      43.651  27.731  32.829  1.00  0.00     0.031 C 
ATOM     44  C   UNL A   1      38.421  30.883  29.608  1.00  0.00     0.029 A 
ATOM     45  C   UNL A   1      38.705  31.352  30.961  1.00  0.00     0.049 A 
ATOM     46  H   UNL A   1      40.254  30.738  32.212  1.00  0.00     0.167 HD
ATOM     47  C   UNL A   1      43.378  29.135  34.850  1.00  0.00     0.037 A 
ATOM     48  C   UNL A   1      37.996  32.285  31.629  1.00  0.00     0.037 A 
ATOM     49  C   UNL A   1      42.741  30.184  35.602  1.00  0.00     0.049 A 
ATOM     50  C   UNL A   1      38.409  32.653  33.032  1.00  0.00     0.074 A 
ATOM     51  C   UNL A   1      43.067  30.660  36.860  1.00  0.00     0.029 A 
ATOM     52  N   UNL A   1      41.646  30.919  35.169  1.00  0.00    -0.354 N 
ATOM     53  N   UNL A   1      39.395  32.176  33.752  1.00  0.00    -0.248 NA
ATOM     54  C   UNL A   1      37.615  33.687  33.711  1.00  0.00     0.031 C 
ATOM     55  C   UNL A   1      42.138  31.645  37.208  1.00  0.00     0.029 A 
ATOM     56  C   UNL A   1      41.274  31.830  36.142  1.00  0.00     0.049 A 
ATOM     57  H   UNL A   1      41.201  30.808  34.297  1.00  0.00     0.167 HD
ATOM     58  C   UNL A   1      39.368  32.883  34.950  1.00  0.00     0.074 A 
ATOM     59  C   UNL A   1      38.266  33.817  34.859  1.00  0.00     0.031 C 
ATOM     60  C   UNL A   1      40.188  32.773  36.024  1.00  0.00     0.037 A 
BRANCH  47  61
ATOM     61  C   UNL A   1      44.524  28.393  35.484  1.00  0.00     0.058 A 
ATOM     62  C   UNL A   1      44.318  27.249  36.273  1.00  0.00     0.135 A 
ATOM     63  C   UNL A   1      45.847  28.811  35.277  1.00  0.00     0.135 A 
ATOM     64  F   UNL A   1      43.073  26.809  36.518  1.00  0.00    -0.206 F 
ATOM     65  C   UNL A   1      45.380  26.570  36.863  1.00  0.00     0.059 A 
ATOM     66  C   UNL A   1      46.928  28.128  35.829  1.00  0.00     0.059 A 
ATOM     67  F   UNL A   1      46.105  29.899  34.531  1.00  0.00    -0.206 F 
ATOM     68  C   UNL A   1      46.681  27.018  36.634  1.00  0.00     0.060 A 
BRANCH  68  69
ATOM     69  S   UNL A   1      48.046  26.126  37.410  1.00  0.00     0.124 S 
ATOM     70  O   UNL A   1      48.218  25.005  36.492  1.00  0.00    -0.237 OA
ATOM     71  O   UNL A   1      49.113  27.121  37.402  1.00  0.00    -0.237 OA
ATOM     72  O   UNL A   1      47.522  25.782  38.728  1.00  0.00    -0.744 OA
ENDBRANCH  68  69
ENDBRANCH  47  61
BRANCH  48  73
ATOM     73  C   UNL A   1      36.833  32.947  30.978  1.00  0.00     0.058 A 
ATOM     74  C   UNL A   1      37.022  33.965  30.030  1.00  0.00     0.135 A 
ATOM     75  C   UNL A   1      35.513  32.576  31.281  1.00  0.00     0.135 A 
ATOM     76  F   UNL A   1      38.263  34.362  29.711  1.00  0.00    -0.206 F 
ATOM     77  C   UNL A   1      35.947  34.603  29.419  1.00  0.00     0.059 A 
ATOM     78  C   UNL A   1      34.422  33.179  30.662  1.00  0.00     0.059 A 
ATOM     79  F   UNL A   1      35.276  31.598  32.169  1.00  0.00    -0.206 F 
ATOM     80  C   UNL A   1      34.650  34.200  29.740  1.00  0.00     0.060 A 
BRANCH  80  81
ATOM     81  S   UNL A   1      33.264  35.007  28.910  1.00  0.00     0.124 S 
ATOM     82  O   UNL A   1      33.924  36.137  28.268  1.00  0.00    -0.237 OA
ATOM     83  O   UNL A   1      32.788  33.954  28.019  1.00  0.00    -0.237 OA
ATOM     84  O   UNL A   1      32.364  35.344  30.009  1.00  0.00    -0.744 OA
ENDBRANCH  80  81
ENDBRANCH  48  73
BRANCH  60  85
ATOM     85  C   UNL A   1      39.980  33.727  37.170  1.00  0.00     0.058 A 
ATOM     86  C   UNL A   1      40.612  34.977  37.226  1.00  0.00     0.135 A 
ATOM     87  C   UNL A   1      39.055  33.414  38.183  1.00  0.00     0.135 A 
ATOM     88  F   UNL A   1      41.510  35.323  36.288  1.00  0.00    -0.206 F 
ATOM     89  C   UNL A   1      40.343  35.882  38.249  1.00  0.00     0.059 A 
ATOM     90  C   UNL A   1      38.749  34.315  39.197  1.00  0.00     0.059 A 
ATOM     91  F   UNL A   1      38.415  32.234  38.173  1.00  0.00    -0.206 F 
ATOM     92  C   UNL A   1      39.402  35.545  39.224  1.00  0.00     0.060 A 
BRANCH  92  93
ATOM     93  S   UNL A   1      39.013  36.757  40.505  1.00  0.00     0.124 S 
ATOM     94  O   UNL A   1      38.023  36.038  41.300  1.00  0.00    -0.237 OA
ATOM     95  O   UNL A   1      40.309  36.964  41.141  1.00  0.00    -0.237 OA
ATOM     96  O   UNL A   1      38.503  37.898  39.750  1.00  0.00    -0.744 OA
ENDBRANCH  92  93
ENDBRANCH  60  85
ENDBRANCH  34  35
ENDBRANCH  26  29
ENDBRANCH  24  25
ENDBRANCH  23  24
ENDBRANCH  22  23
ENDBRANCH   1  22
TORSDOF 21
ENDMDL
