MODEL 1
REMARK VINA RESULT:     -11.6      0.000      0.000
REMARK SMILES Cc1cc([C@H](C)NC(=O)N2CC[C@H](C(=O)NCCCCCCNC(=O)c3ccc(-c4c5nc(c(-c6c(F)cc(S(=O)(=O)[O-])cc6F)c6ccc([nH]6)c(-c6c(F)cc(S(=O)(=O)[O-])cc6F)c6nc(c(-c7c(F)cc(S(=O)(=O)[O-])cc7F)c7ccc4[nH]7)C=C6)C=C5)cc3)[C@@H]2C)c(C)s1
REMARK SMILES IDX 19 1 18 2 17 3 16 4 14 5 15 6 13 8 10 9 11 10 92 11 12 12
REMARK SMILES IDX 93 13 8 14 7 15 9 17 5 18 6 19 4 20 1 21 2 22 3 23 96 24
REMARK SMILES IDX 94 25 95 26 20 27 21 28 22 29 23 30 24 31 25 33 26 34 27 35
REMARK SMILES IDX 91 36 28 37 90 38 29 39 30 40 31 41 84 42 32 43 89 44 83 45
REMARK SMILES IDX 85 46 33 47 88 48 82 49 81 50 34 52 68 53 47 54 67 55 48 56
REMARK SMILES IDX 51 57 66 58 86 59 49 60 50 61 65 63 87 64 52 65 35 66 36 67
REMARK SMILES IDX 45 68 37 69 38 70 44 71 46 72 39 73 40 74 41 75 42 76 43 77
REMARK SMILES IDX 69 78 70 79 79 80 71 81 72 82 78 83 80 84 73 85 74 86 75 87
REMARK SMILES IDX 76 88 77 89 53 90 54 91 63 92 55 93 56 94 62 95 64 96 57 97
REMARK SMILES IDX 58 98 59 99 60 100 61 101
REMARK H PARENT 16 7 7 16 23 32 85 51 51 62
REMARK Flexibility Score: inf
ROOT
ATOM      1  C   UNL A   1      33.865  31.340  27.594  1.00  0.00     0.002 C 
ENDROOT
BRANCH   1   2
ATOM      2  C   UNL A   1      32.418  31.384  27.087  1.00  0.00     0.021 C 
BRANCH   2   3
ATOM      3  C   UNL A   1      31.892  30.092  26.461  1.00  0.00     0.116 C 
BRANCH   3   4
ATOM      4  N   UNL A   1      31.380  30.267  25.111  1.00  0.00    -0.356 N 
ATOM      5  C   UNL A   1      30.864  29.362  24.233  1.00  0.00     0.225 C 
ATOM      6  O   UNL A   1      30.168  29.787  23.309  1.00  0.00    -0.275 OA
ATOM      7  H   UNL A   1      31.412  31.192  24.775  1.00  0.00     0.163 HD
BRANCH   5   8
ATOM      8  C   UNL A   1      31.202  27.887  24.364  1.00  0.00     0.102 C 
ATOM      9  N   UNL A   1      32.231  26.434  22.759  1.00  0.00    -0.321 N 
ATOM     10  C   UNL A   1      30.835  26.542  22.387  1.00  0.00     0.122 C 
ATOM     11  C   UNL A   1      32.553  27.494  23.716  1.00  0.00     0.096 C 
ATOM     12  C   UNL A   1      30.160  27.000  23.667  1.00  0.00     0.037 C 
ATOM     13  C   UNL A   1      33.326  28.625  23.030  1.00  0.00     0.032 C 
BRANCH   9  14
ATOM     14  C   UNL A   1      33.102  25.718  21.986  1.00  0.00     0.318 C 
ATOM     15  N   UNL A   1      33.754  24.649  22.512  1.00  0.00    -0.331 N 
ATOM     16  H   UNL A   1      34.723  24.595  22.343  1.00  0.00     0.165 HD
ATOM     17  O   UNL A   1      33.331  26.012  20.812  1.00  0.00    -0.249 OA
BRANCH  15  18
ATOM     18  C   UNL A   1      33.170  23.573  23.304  1.00  0.00     0.112 C 
ATOM     19  C   UNL A   1      32.567  22.512  22.374  1.00  0.00     0.036 C 
BRANCH  18  20
ATOM     20  C   UNL A   1      34.235  23.033  24.252  1.00  0.00    -0.012 A 
ATOM     21  C   UNL A   1      37.330  20.898  24.901  1.00  0.00     0.056 C 
ATOM     22  C   UNL A   1      36.146  21.799  24.906  1.00  0.00     0.002 A 
ATOM     23  C   UNL A   1      35.370  22.229  23.851  1.00  0.00     0.021 A 
ATOM     24  S   UNL A   1      35.591  22.429  26.382  1.00  0.00    -0.146 S 
ATOM     25  C   UNL A   1      34.254  23.195  25.637  1.00  0.00     0.007 A 
ATOM     26  C   UNL A   1      33.314  23.911  26.545  1.00  0.00     0.057 C 
ENDBRANCH  18  20
ENDBRANCH  15  18
ENDBRANCH   9  14
ENDBRANCH   5   8
ENDBRANCH   3   4
ENDBRANCH   2   3
ENDBRANCH   1   2
BRANCH   1  27
ATOM     27  C   UNL A   1      34.286  32.474  28.532  1.00  0.00     0.002 C 
BRANCH  27  28
ATOM     28  C   UNL A   1      35.723  32.972  28.371  1.00  0.00     0.021 C 
BRANCH  28  29
ATOM     29  C   UNL A   1      36.574  32.931  29.635  1.00  0.00     0.116 C 
BRANCH  29  30
ATOM     30  N   UNL A   1      36.103  31.947  30.596  1.00  0.00    -0.352 N 
ATOM     31  C   UNL A   1      36.642  30.732  30.939  1.00  0.00     0.251 C 
ATOM     32  H   UNL A   1      35.276  32.187  31.072  1.00  0.00     0.163 HD
ATOM     33  O   UNL A   1      35.999  29.969  31.663  1.00  0.00    -0.269 OA
BRANCH  31  34
ATOM     34  C   UNL A   1      37.974  30.324  30.437  1.00  0.00     0.039 A 
ATOM     35  C   UNL A   1      38.152  30.144  29.062  1.00  0.00     0.014 A 
ATOM     36  C   UNL A   1      39.038  30.078  31.310  1.00  0.00     0.014 A 
ATOM     37  C   UNL A   1      39.398  29.753  28.564  1.00  0.00     0.010 A 
ATOM     38  C   UNL A   1      40.300  29.770  30.806  1.00  0.00     0.010 A 
ATOM     39  C   UNL A   1      40.489  29.579  29.429  1.00  0.00    -0.014 A 
BRANCH  39  40
ATOM     40  C   UNL A   1      41.817  29.144  28.918  1.00  0.00     0.031 A 
ATOM     41  C   UNL A   1      42.946  30.139  28.815  1.00  0.00     0.074 A 
ATOM     42  C   UNL A   1      42.001  27.872  28.512  1.00  0.00     0.049 A 
ATOM     43  N   UNL A   1      44.159  29.970  28.358  1.00  0.00    -0.248 NA
ATOM     44  C   UNL A   1      42.663  31.515  29.259  1.00  0.00     0.031 C 
ATOM     45  C   UNL A   1      40.977  26.824  28.518  1.00  0.00     0.029 A 
ATOM     46  N   UNL A   1      43.115  27.243  28.012  1.00  0.00    -0.354 N 
ATOM     47  C   UNL A   1      44.777  31.213  28.446  1.00  0.00     0.074 A 
ATOM     48  C   UNL A   1      43.785  32.142  28.940  1.00  0.00     0.031 C 
ATOM     49  C   UNL A   1      41.516  25.679  28.068  1.00  0.00     0.029 A 
ATOM     50  C   UNL A   1      42.911  25.916  27.709  1.00  0.00     0.049 A 
ATOM     51  H   UNL A   1      43.977  27.699  27.881  1.00  0.00     0.167 HD
ATOM     52  C   UNL A   1      46.061  31.546  28.168  1.00  0.00     0.037 A 
ATOM     53  C   UNL A   1      43.754  24.996  27.199  1.00  0.00     0.037 A 
ATOM     54  C   UNL A   1      47.052  30.611  27.706  1.00  0.00     0.049 A 
ATOM     55  C   UNL A   1      45.179  25.388  26.910  1.00  0.00     0.074 A 
ATOM     56  C   UNL A   1      48.392  30.837  27.441  1.00  0.00     0.029 A 
ATOM     57  N   UNL A   1      46.815  29.269  27.442  1.00  0.00    -0.354 N 
ATOM     58  N   UNL A   1      45.760  26.556  27.050  1.00  0.00    -0.248 NA
ATOM     59  C   UNL A   1      46.070  24.332  26.407  1.00  0.00     0.031 C 
ATOM     60  C   UNL A   1      48.953  29.645  26.973  1.00  0.00     0.029 A 
ATOM     61  C   UNL A   1      47.979  28.659  27.006  1.00  0.00     0.049 A 
ATOM     62  H   UNL A   1      45.947  28.818  27.548  1.00  0.00     0.167 HD
ATOM     63  C   UNL A   1      47.092  26.365  26.696  1.00  0.00     0.074 A 
ATOM     64  C   UNL A   1      47.231  24.968  26.341  1.00  0.00     0.031 C 
ATOM     65  C   UNL A   1      48.109  27.262  26.674  1.00  0.00     0.037 A 
BRANCH  52  66
ATOM     66  C   UNL A   1      46.470  32.982  28.362  1.00  0.00     0.058 A 
ATOM     67  C   UNL A   1      47.004  33.441  29.578  1.00  0.00     0.135 A 
ATOM     68  C   UNL A   1      46.367  33.904  27.308  1.00  0.00     0.135 A 
ATOM     69  F   UNL A   1      47.111  32.609  30.627  1.00  0.00    -0.206 F 
ATOM     70  C   UNL A   1      47.394  34.765  29.750  1.00  0.00     0.059 A 
ATOM     71  C   UNL A   1      46.780  35.226  27.447  1.00  0.00     0.059 A 
ATOM     72  F   UNL A   1      45.863  33.523  26.123  1.00  0.00    -0.206 F 
ATOM     73  C   UNL A   1      47.280  35.651  28.677  1.00  0.00     0.060 A 
BRANCH  73  74
ATOM     74  S   UNL A   1      47.803  37.361  28.913  1.00  0.00     0.124 S 
ATOM     75  O   UNL A   1      46.657  38.092  28.381  1.00  0.00    -0.237 OA
ATOM     76  O   UNL A   1      47.986  37.434  30.360  1.00  0.00    -0.237 OA
ATOM     77  O   UNL A   1      49.028  37.455  28.125  1.00  0.00    -0.744 OA
ENDBRANCH  73  74
ENDBRANCH  52  66
BRANCH  53  78
ATOM     78  C   UNL A   1      43.283  23.605  26.957  1.00  0.00     0.058 A 
ATOM     79  C   UNL A   1      43.131  22.696  28.016  1.00  0.00     0.135 A 
ATOM     80  C   UNL A   1      42.981  23.152  25.664  1.00  0.00     0.135 A 
ATOM     81  F   UNL A   1      43.410  23.076  29.272  1.00  0.00    -0.206 F 
ATOM     82  C   UNL A   1      42.723  21.383  27.800  1.00  0.00     0.059 A 
ATOM     83  C   UNL A   1      42.544  21.853  25.425  1.00  0.00     0.059 A 
ATOM     84  F   UNL A   1      43.091  23.986  24.617  1.00  0.00    -0.206 F 
ATOM     85  C   UNL A   1      42.432  20.971  26.499  1.00  0.00     0.060 A 
BRANCH  85  86
ATOM     86  S   UNL A   1      41.873  19.275  26.231  1.00  0.00     0.124 S 
ATOM     87  O   UNL A   1      42.732  18.853  25.131  1.00  0.00    -0.237 OA
ATOM     88  O   UNL A   1      42.141  18.657  27.526  1.00  0.00    -0.237 OA
ATOM     89  O   UNL A   1      40.460  19.435  25.902  1.00  0.00    -0.744 OA
ENDBRANCH  85  86
ENDBRANCH  53  78
BRANCH  65  90
ATOM     90  C   UNL A   1      49.479  26.752  26.319  1.00  0.00     0.058 A 
ATOM     91  C   UNL A   1      49.996  26.841  25.017  1.00  0.00     0.135 A 
ATOM     92  C   UNL A   1      50.301  26.193  27.313  1.00  0.00     0.135 A 
ATOM     93  F   UNL A   1      49.253  27.364  24.028  1.00  0.00    -0.206 F 
ATOM     94  C   UNL A   1      51.263  26.359  24.704  1.00  0.00     0.059 A 
ATOM     95  C   UNL A   1      51.583  25.735  27.029  1.00  0.00     0.059 A 
ATOM     96  F   UNL A   1      49.862  26.097  28.577  1.00  0.00    -0.206 F 
ATOM     97  C   UNL A   1      52.049  25.806  25.718  1.00  0.00     0.060 A 
BRANCH  97  98
ATOM     98  S   UNL A   1      53.695  25.193  25.301  1.00  0.00     0.124 S 
ATOM     99  O   UNL A   1      54.497  25.739  26.391  1.00  0.00    -0.237 OA
ATOM    100  O   UNL A   1      53.503  23.746  25.318  1.00  0.00    -0.237 OA
ATOM    101  O   UNL A   1      53.949  25.770  23.984  1.00  0.00    -0.744 OA
ENDBRANCH  97  98
ENDBRANCH  65  90
ENDBRANCH  39  40
ENDBRANCH  31  34
ENDBRANCH  29  30
ENDBRANCH  28  29
ENDBRANCH  27  28
ENDBRANCH   1  27
TORSDOF 19
ENDMDL
MODEL 2
REMARK VINA RESULT:     -11.6      1.959      8.457
REMARK SMILES Cc1cc([C@H](C)NC(=O)N2CC[C@H](C(=O)NCCCCCCNC(=O)c3ccc(-c4c5nc(c(-c6c(F)cc(S(=O)(=O)[O-])cc6F)c6ccc([nH]6)c(-c6c(F)cc(S(=O)(=O)[O-])cc6F)c6nc(c(-c7c(F)cc(S(=O)(=O)[O-])cc7F)c7ccc4[nH]7)C=C6)C=C5)cc3)[C@@H]2C)c(C)s1
REMARK SMILES IDX 19 1 18 2 17 3 16 4 14 5 15 6 13 8 10 9 11 10 92 11 12 12
REMARK SMILES IDX 93 13 8 14 7 15 9 17 5 18 6 19 4 20 1 21 2 22 3 23 96 24
REMARK SMILES IDX 94 25 95 26 20 27 21 28 22 29 23 30 24 31 25 33 26 34 27 35
REMARK SMILES IDX 91 36 28 37 90 38 29 39 30 40 31 41 84 42 32 43 89 44 83 45
REMARK SMILES IDX 85 46 33 47 88 48 82 49 81 50 34 52 68 53 47 54 67 55 48 56
REMARK SMILES IDX 51 57 66 58 86 59 49 60 50 61 65 63 87 64 52 65 35 66 36 67
REMARK SMILES IDX 45 68 37 69 38 70 44 71 46 72 39 73 40 74 41 75 42 76 43 77
REMARK SMILES IDX 69 78 70 79 79 80 71 81 72 82 78 83 80 84 73 85 74 86 75 87
REMARK SMILES IDX 76 88 77 89 53 90 54 91 63 92 55 93 56 94 62 95 64 96 57 97
REMARK SMILES IDX 58 98 59 99 60 100 61 101
REMARK H PARENT 16 7 7 16 23 32 85 51 51 62
REMARK Flexibility Score: inf
ROOT
ATOM      1  C   UNL A   1      32.689  29.943  25.581  1.00  0.00     0.002 C 
ENDROOT
BRANCH   1   2
ATOM      2  C   UNL A   1      31.238  29.962  25.086  1.00  0.00     0.021 C 
BRANCH   2   3
ATOM      3  C   UNL A   1      30.909  28.999  23.945  1.00  0.00     0.116 C 
BRANCH   3   4
ATOM      4  N   UNL A   1      31.949  28.013  23.699  1.00  0.00    -0.356 N 
ATOM      5  C   UNL A   1      31.874  26.660  23.559  1.00  0.00     0.225 C 
ATOM      6  O   UNL A   1      32.810  26.085  23.000  1.00  0.00    -0.275 OA
ATOM      7  H   UNL A   1      32.858  28.383  23.621  1.00  0.00     0.163 HD
BRANCH   5   8
ATOM      8  C   UNL A   1      30.700  25.892  24.141  1.00  0.00     0.102 C 
ATOM      9  N   UNL A   1      30.716  23.862  25.416  1.00  0.00    -0.321 N 
ATOM     10  C   UNL A   1      30.856  23.481  24.025  1.00  0.00     0.122 C 
ATOM     11  C   UNL A   1      30.973  25.298  25.544  1.00  0.00     0.096 C 
ATOM     12  C   UNL A   1      30.322  24.684  23.270  1.00  0.00     0.037 C 
ATOM     13  C   UNL A   1      32.371  25.546  26.121  1.00  0.00     0.032 C 
BRANCH   9  14
ATOM     14  C   UNL A   1      30.759  22.918  26.402  1.00  0.00     0.318 C 
ATOM     15  N   UNL A   1      31.334  21.710  26.162  1.00  0.00    -0.331 N 
ATOM     16  H   UNL A   1      30.828  20.915  26.449  1.00  0.00     0.165 HD
ATOM     17  O   UNL A   1      30.282  23.115  27.521  1.00  0.00    -0.249 OA
BRANCH  15  18
ATOM     18  C   UNL A   1      32.620  21.468  25.520  1.00  0.00     0.112 C 
ATOM     19  C   UNL A   1      33.751  21.641  26.543  1.00  0.00     0.036 C 
BRANCH  18  20
ATOM     20  C   UNL A   1      32.585  20.093  24.861  1.00  0.00    -0.012 A 
ATOM     21  C   UNL A   1      33.064  16.312  25.036  1.00  0.00     0.056 C 
ATOM     22  C   UNL A   1      32.796  17.741  24.716  1.00  0.00     0.002 A 
ATOM     23  C   UNL A   1      32.802  18.839  25.549  1.00  0.00     0.021 A 
ATOM     24  S   UNL A   1      32.431  18.177  23.117  1.00  0.00    -0.146 S 
ATOM     25  C   UNL A   1      32.380  19.843  23.504  1.00  0.00     0.007 A 
ATOM     26  C   UNL A   1      32.134  20.778  22.370  1.00  0.00     0.057 C 
ENDBRANCH  18  20
ENDBRANCH  15  18
ENDBRANCH   9  14
ENDBRANCH   5   8
ENDBRANCH   3   4
ENDBRANCH   2   3
ENDBRANCH   1   2
BRANCH   1  27
ATOM     27  C   UNL A   1      32.894  29.599  27.058  1.00  0.00     0.002 C 
BRANCH  27  28
ATOM     28  C   UNL A   1      34.104  28.718  27.375  1.00  0.00     0.021 C 
BRANCH  28  29
ATOM     29  C   UNL A   1      35.373  29.467  27.763  1.00  0.00     0.116 C 
BRANCH  29  30
ATOM     30  N   UNL A   1      35.383  29.866  29.161  1.00  0.00    -0.352 N 
ATOM     31  C   UNL A   1      36.414  29.856  30.067  1.00  0.00     0.251 C 
ATOM     32  H   UNL A   1      34.522  30.193  29.511  1.00  0.00     0.163 HD
ATOM     33  O   UNL A   1      36.177  30.082  31.255  1.00  0.00    -0.269 OA
BRANCH  31  34
ATOM     34  C   UNL A   1      37.800  29.560  29.635  1.00  0.00     0.039 A 
ATOM     35  C   UNL A   1      38.681  28.973  30.547  1.00  0.00     0.014 A 
ATOM     36  C   UNL A   1      38.250  29.893  28.353  1.00  0.00     0.014 A 
ATOM     37  C   UNL A   1      39.996  28.690  30.165  1.00  0.00     0.010 A 
ATOM     38  C   UNL A   1      39.535  29.535  27.948  1.00  0.00     0.010 A 
ATOM     39  C   UNL A   1      40.431  28.952  28.857  1.00  0.00    -0.014 A 
BRANCH  39  40
ATOM     40  C   UNL A   1      41.831  28.675  28.440  1.00  0.00     0.031 A 
ATOM     41  C   UNL A   1      42.227  27.285  28.007  1.00  0.00     0.074 A 
ATOM     42  C   UNL A   1      42.756  29.656  28.483  1.00  0.00     0.049 A 
ATOM     43  N   UNL A   1      43.400  26.832  27.650  1.00  0.00    -0.248 NA
ATOM     44  C   UNL A   1      41.167  26.262  28.005  1.00  0.00     0.031 C 
ATOM     45  C   UNL A   1      42.512  31.031  28.926  1.00  0.00     0.029 A 
ATOM     46  N   UNL A   1      44.089  29.646  28.154  1.00  0.00    -0.354 N 
ATOM     47  C   UNL A   1      43.224  25.476  27.394  1.00  0.00     0.074 A 
ATOM     48  C   UNL A   1      41.845  25.166  27.699  1.00  0.00     0.031 C 
ATOM     49  C   UNL A   1      43.649  31.737  28.817  1.00  0.00     0.029 A 
ATOM     50  C   UNL A   1      44.711  30.861  28.331  1.00  0.00     0.049 A 
ATOM     51  H   UNL A   1      44.556  28.845  27.824  1.00  0.00     0.167 HD
ATOM     52  C   UNL A   1      44.120  24.577  26.921  1.00  0.00     0.037 A 
ATOM     53  C   UNL A   1      45.992  31.225  28.126  1.00  0.00     0.037 A 
ATOM     54  C   UNL A   1      45.483  24.897  26.590  1.00  0.00     0.049 A 
ATOM     55  C   UNL A   1      46.967  30.210  27.589  1.00  0.00     0.074 A 
ATOM     56  C   UNL A   1      46.458  24.070  26.059  1.00  0.00     0.029 A 
ATOM     57  N   UNL A   1      46.066  26.146  26.753  1.00  0.00    -0.354 N 
ATOM     58  N   UNL A   1      46.768  28.945  27.302  1.00  0.00    -0.248 NA
ATOM     59  C   UNL A   1      48.337  30.674  27.332  1.00  0.00     0.031 C 
ATOM     60  C   UNL A   1      47.642  24.805  25.945  1.00  0.00     0.029 A 
ATOM     61  C   UNL A   1      47.389  26.108  26.346  1.00  0.00     0.049 A 
ATOM     62  H   UNL A   1      45.607  26.941  27.107  1.00  0.00     0.167 HD
ATOM     63  C   UNL A   1      47.973  28.476  26.790  1.00  0.00     0.074 A 
ATOM     64  C   UNL A   1      48.893  29.595  26.802  1.00  0.00     0.031 C 
ATOM     65  C   UNL A   1      48.289  27.234  26.344  1.00  0.00     0.037 A 
BRANCH  52  66
ATOM     66  C   UNL A   1      43.653  23.158  26.727  1.00  0.00     0.058 A 
ATOM     67  C   UNL A   1      43.502  22.598  25.447  1.00  0.00     0.135 A 
ATOM     68  C   UNL A   1      43.393  22.334  27.834  1.00  0.00     0.135 A 
ATOM     69  F   UNL A   1      43.720  23.343  24.352  1.00  0.00    -0.206 F 
ATOM     70  C   UNL A   1      43.083  21.283  25.273  1.00  0.00     0.059 A 
ATOM     71  C   UNL A   1      43.004  21.006  27.683  1.00  0.00     0.059 A 
ATOM     72  F   UNL A   1      43.519  22.815  29.081  1.00  0.00    -0.206 F 
ATOM     73  C   UNL A   1      42.839  20.493  26.396  1.00  0.00     0.060 A 
BRANCH  73  74
ATOM     74  S   UNL A   1      42.310  18.785  26.151  1.00  0.00     0.124 S 
ATOM     75  O   UNL A   1      43.261  18.328  25.142  1.00  0.00    -0.237 OA
ATOM     76  O   UNL A   1      42.477  18.213  27.483  1.00  0.00    -0.237 OA
ATOM     77  O   UNL A   1      40.930  18.917  25.697  1.00  0.00    -0.744 OA
ENDBRANCH  73  74
ENDBRANCH  52  66
BRANCH  53  78
ATOM     78  C   UNL A   1      46.424  32.623  28.400  1.00  0.00     0.058 A 
ATOM     79  C   UNL A   1      46.926  32.994  29.657  1.00  0.00     0.135 A 
ATOM     80  C   UNL A   1      46.341  33.618  27.414  1.00  0.00     0.135 A 
ATOM     81  F   UNL A   1      47.023  32.082  30.637  1.00  0.00    -0.206 F 
ATOM     82  C   UNL A   1      47.303  34.304  29.937  1.00  0.00     0.059 A 
ATOM     83  C   UNL A   1      46.739  34.928  27.660  1.00  0.00     0.059 A 
ATOM     84  F   UNL A   1      45.886  33.313  26.188  1.00  0.00    -0.206 F 
ATOM     85  C   UNL A   1      47.205  35.265  28.930  1.00  0.00     0.060 A 
BRANCH  85  86
ATOM     86  S   UNL A   1      47.726  36.956  29.292  1.00  0.00     0.124 S 
ATOM     87  O   UNL A   1      48.917  37.080  28.460  1.00  0.00    -0.237 OA
ATOM     88  O   UNL A   1      46.565  37.731  28.867  1.00  0.00    -0.237 OA
ATOM     89  O   UNL A   1      47.962  36.933  30.732  1.00  0.00    -0.744 OA
ENDBRANCH  85  86
ENDBRANCH  53  78
BRANCH  65  90
ATOM     90  C   UNL A   1      49.663  27.031  25.767  1.00  0.00     0.058 A 
ATOM     91  C   UNL A   1      50.735  26.552  26.536  1.00  0.00     0.135 A 
ATOM     92  C   UNL A   1      49.900  27.291  24.406  1.00  0.00     0.135 A 
ATOM     93  F   UNL A   1      50.565  26.290  27.843  1.00  0.00    -0.206 F 
ATOM     94  C   UNL A   1      52.001  26.375  25.988  1.00  0.00     0.059 A 
ATOM     95  C   UNL A   1      51.149  27.089  23.829  1.00  0.00     0.059 A 
ATOM     96  F   UNL A   1      48.907  27.736  23.620  1.00  0.00    -0.206 F 
ATOM     97  C   UNL A   1      52.198  26.648  24.632  1.00  0.00     0.060 A 
BRANCH  97  98
ATOM     98  S   UNL A   1      53.844  26.405  23.930  1.00  0.00     0.124 S 
ATOM     99  O   UNL A   1      54.464  27.702  24.180  1.00  0.00    -0.237 OA
ATOM    100  O   UNL A   1      54.359  25.292  24.721  1.00  0.00    -0.237 OA
ATOM    101  O   UNL A   1      53.573  26.098  22.529  1.00  0.00    -0.744 OA
ENDBRANCH  97  98
ENDBRANCH  65  90
ENDBRANCH  39  40
ENDBRANCH  31  34
ENDBRANCH  29  30
ENDBRANCH  28  29
ENDBRANCH  27  28
ENDBRANCH   1  27
TORSDOF 19
ENDMDL
MODEL 3
REMARK VINA RESULT:     -11.6      1.779      2.534
REMARK SMILES Cc1cc([C@H](C)NC(=O)N2CC[C@H](C(=O)NCCCCCCNC(=O)c3ccc(-c4c5nc(c(-c6c(F)cc(S(=O)(=O)[O-])cc6F)c6ccc([nH]6)c(-c6c(F)cc(S(=O)(=O)[O-])cc6F)c6nc(c(-c7c(F)cc(S(=O)(=O)[O-])cc7F)c7ccc4[nH]7)C=C6)C=C5)cc3)[C@@H]2C)c(C)s1
REMARK SMILES IDX 19 1 18 2 17 3 16 4 14 5 15 6 13 8 10 9 11 10 92 11 12 12
REMARK SMILES IDX 93 13 8 14 7 15 9 17 5 18 6 19 4 20 1 21 2 22 3 23 96 24
REMARK SMILES IDX 94 25 95 26 20 27 21 28 22 29 23 30 24 31 25 33 26 34 27 35
REMARK SMILES IDX 91 36 28 37 90 38 29 39 30 40 31 41 84 42 32 43 89 44 83 45
REMARK SMILES IDX 85 46 33 47 88 48 82 49 81 50 34 52 68 53 47 54 67 55 48 56
REMARK SMILES IDX 51 57 66 58 86 59 49 60 50 61 65 63 87 64 52 65 35 66 36 67
REMARK SMILES IDX 45 68 37 69 38 70 44 71 46 72 39 73 40 74 41 75 42 76 43 77
REMARK SMILES IDX 69 78 70 79 79 80 71 81 72 82 78 83 80 84 73 85 74 86 75 87
REMARK SMILES IDX 76 88 77 89 53 90 54 91 63 92 55 93 56 94 62 95 64 96 57 97
REMARK SMILES IDX 58 98 59 99 60 100 61 101
REMARK H PARENT 16 7 7 16 23 32 85 51 51 62
REMARK Flexibility Score: inf
ROOT
ATOM      1  C   UNL A   1      33.715  29.984  26.557  1.00  0.00     0.002 C 
ENDROOT
BRANCH   1   2
ATOM      2  C   UNL A   1      32.185  29.978  26.456  1.00  0.00     0.021 C 
BRANCH   2   3
ATOM      3  C   UNL A   1      31.603  29.366  25.181  1.00  0.00     0.116 C 
BRANCH   3   4
ATOM      4  N   UNL A   1      32.433  28.319  24.608  1.00  0.00    -0.356 N 
ATOM      5  C   UNL A   1      32.110  27.070  24.172  1.00  0.00     0.225 C 
ATOM      6  O   UNL A   1      32.890  26.508  23.400  1.00  0.00    -0.275 OA
ATOM      7  H   UNL A   1      33.386  28.551  24.520  1.00  0.00     0.163 HD
BRANCH   5   8
ATOM      8  C   UNL A   1      30.860  26.377  24.684  1.00  0.00     0.102 C 
ATOM      9  N   UNL A   1      30.635  24.182  25.621  1.00  0.00    -0.321 N 
ATOM     10  C   UNL A   1      30.680  24.018  24.183  1.00  0.00     0.122 C 
ATOM     11  C   UNL A   1      31.090  25.532  25.961  1.00  0.00     0.096 C 
ATOM     12  C   UNL A   1      30.294  25.387  23.655  1.00  0.00     0.037 C 
ATOM     13  C   UNL A   1      32.525  25.498  26.498  1.00  0.00     0.032 C 
BRANCH   9  14
ATOM     14  C   UNL A   1      30.577  23.093  26.443  1.00  0.00     0.318 C 
ATOM     15  N   UNL A   1      31.135  21.917  26.053  1.00  0.00    -0.331 N 
ATOM     16  H   UNL A   1      30.588  21.107  26.172  1.00  0.00     0.165 HD
ATOM     17  O   UNL A   1      30.021  23.129  27.543  1.00  0.00    -0.249 OA
BRANCH  15  18
ATOM     18  C   UNL A   1      32.460  21.730  25.474  1.00  0.00     0.112 C 
ATOM     19  C   UNL A   1      33.530  21.903  26.560  1.00  0.00     0.036 C 
BRANCH  18  20
ATOM     20  C   UNL A   1      32.499  20.375  24.775  1.00  0.00    -0.012 A 
ATOM     21  C   UNL A   1      33.191  16.624  24.838  1.00  0.00     0.056 C 
ATOM     22  C   UNL A   1      32.841  18.044  24.561  1.00  0.00     0.002 A 
ATOM     23  C   UNL A   1      32.790  19.116  25.426  1.00  0.00     0.021 A 
ATOM     24  S   UNL A   1      32.445  18.505  22.976  1.00  0.00    -0.146 S 
ATOM     25  C   UNL A   1      32.302  20.153  23.412  1.00  0.00     0.007 A 
ATOM     26  C   UNL A   1      31.998  21.105  22.307  1.00  0.00     0.057 C 
ENDBRANCH  18  20
ENDBRANCH  15  18
ENDBRANCH   9  14
ENDBRANCH   5   8
ENDBRANCH   3   4
ENDBRANCH   2   3
ENDBRANCH   1   2
BRANCH   1  27
ATOM     27  C   UNL A   1      34.302  30.441  27.895  1.00  0.00     0.002 C 
BRANCH  27  28
ATOM     28  C   UNL A   1      34.788  31.890  27.949  1.00  0.00     0.021 C 
BRANCH  28  29
ATOM     29  C   UNL A   1      35.947  32.155  28.903  1.00  0.00     0.116 C 
BRANCH  29  30
ATOM     30  N   UNL A   1      35.739  31.564  30.215  1.00  0.00    -0.352 N 
ATOM     31  C   UNL A   1      36.497  30.639  30.888  1.00  0.00     0.251 C 
ATOM     32  H   UNL A   1      34.936  31.874  30.693  1.00  0.00     0.163 HD
ATOM     33  O   UNL A   1      36.061  30.142  31.928  1.00  0.00    -0.269 OA
BRANCH  31  34
ATOM     34  C   UNL A   1      37.820  30.220  30.369  1.00  0.00     0.039 A 
ATOM     35  C   UNL A   1      38.845  29.941  31.278  1.00  0.00     0.014 A 
ATOM     36  C   UNL A   1      38.072  30.140  28.996  1.00  0.00     0.014 A 
ATOM     37  C   UNL A   1      40.104  29.551  30.813  1.00  0.00     0.010 A 
ATOM     38  C   UNL A   1      39.301  29.671  28.536  1.00  0.00     0.010 A 
ATOM     39  C   UNL A   1      40.340  29.395  29.438  1.00  0.00    -0.014 A 
BRANCH  39  40
ATOM     40  C   UNL A   1      41.679  28.999  28.926  1.00  0.00     0.031 A 
ATOM     41  C   UNL A   1      42.780  30.025  28.826  1.00  0.00     0.074 A 
ATOM     42  C   UNL A   1      41.899  27.733  28.517  1.00  0.00     0.049 A 
ATOM     43  N   UNL A   1      43.998  29.891  28.369  1.00  0.00    -0.248 NA
ATOM     44  C   UNL A   1      42.459  31.391  29.273  1.00  0.00     0.031 C 
ATOM     45  C   UNL A   1      40.904  26.658  28.519  1.00  0.00     0.029 A 
ATOM     46  N   UNL A   1      43.029  27.136  28.015  1.00  0.00    -0.354 N 
ATOM     47  C   UNL A   1      44.581  31.150  28.460  1.00  0.00     0.074 A 
ATOM     48  C   UNL A   1      43.563  32.050  28.957  1.00  0.00     0.031 C 
ATOM     49  C   UNL A   1      41.475  25.529  28.066  1.00  0.00     0.029 A 
ATOM     50  C   UNL A   1      42.863  25.805  27.708  1.00  0.00     0.049 A 
ATOM     51  H   UNL A   1      43.879  27.617  27.886  1.00  0.00     0.167 HD
ATOM     52  C   UNL A   1      45.855  31.520  28.184  1.00  0.00     0.037 A 
ATOM     53  C   UNL A   1      43.731  24.911  27.197  1.00  0.00     0.037 A 
ATOM     54  C   UNL A   1      46.872  30.614  27.719  1.00  0.00     0.049 A 
ATOM     55  C   UNL A   1      45.145  25.343  26.909  1.00  0.00     0.074 A 
ATOM     56  C   UNL A   1      48.205  30.878  27.456  1.00  0.00     0.029 A 
ATOM     57  N   UNL A   1      46.672  29.267  27.452  1.00  0.00    -0.354 N 
ATOM     58  N   UNL A   1      45.693  26.526  27.052  1.00  0.00    -0.248 NA
ATOM     59  C   UNL A   1      46.065  24.314  26.403  1.00  0.00     0.031 C 
ATOM     60  C   UNL A   1      48.799  29.703  26.985  1.00  0.00     0.029 A 
ATOM     61  C   UNL A   1      47.853  28.691  27.014  1.00  0.00     0.049 A 
ATOM     62  H   UNL A   1      45.817  28.791  27.557  1.00  0.00     0.167 HD
ATOM     63  C   UNL A   1      47.030  26.374  26.699  1.00  0.00     0.074 A 
ATOM     64  C   UNL A   1      47.207  24.982  26.339  1.00  0.00     0.031 C 
ATOM     65  C   UNL A   1      48.021  27.299  26.679  1.00  0.00     0.037 A 
BRANCH  52  66
ATOM     66  C   UNL A   1      46.224  32.966  28.382  1.00  0.00     0.058 A 
ATOM     67  C   UNL A   1      46.102  33.909  27.347  1.00  0.00     0.135 A 
ATOM     68  C   UNL A   1      46.666  33.426  29.633  1.00  0.00     0.135 A 
ATOM     69  F   UNL A   1      45.701  33.524  26.125  1.00  0.00    -0.206 F 
ATOM     70  C   UNL A   1      46.432  35.247  27.538  1.00  0.00     0.059 A 
ATOM     71  C   UNL A   1      46.970  34.766  29.856  1.00  0.00     0.059 A 
ATOM     72  F   UNL A   1      46.802  32.570  30.659  1.00  0.00    -0.206 F 
ATOM     73  C   UNL A   1      46.863  35.667  28.797  1.00  0.00     0.060 A 
BRANCH  73  74
ATOM     74  S   UNL A   1      47.272  37.409  29.031  1.00  0.00     0.124 S 
ATOM     75  O   UNL A   1      47.348  37.497  30.486  1.00  0.00    -0.237 OA
ATOM     76  O   UNL A   1      48.542  37.528  28.322  1.00  0.00    -0.237 OA
ATOM     77  O   UNL A   1      46.147  38.109  28.418  1.00  0.00    -0.744 OA
ENDBRANCH  73  74
ENDBRANCH  52  66
BRANCH  53  78
ATOM     78  C   UNL A   1      43.299  23.507  26.951  1.00  0.00     0.058 A 
ATOM     79  C   UNL A   1      43.017  23.052  25.654  1.00  0.00     0.135 A 
ATOM     80  C   UNL A   1      43.156  22.593  28.006  1.00  0.00     0.135 A 
ATOM     81  F   UNL A   1      43.134  23.887  24.609  1.00  0.00    -0.206 F 
ATOM     82  C   UNL A   1      42.581  21.753  25.413  1.00  0.00     0.059 A 
ATOM     83  C   UNL A   1      42.750  21.281  27.788  1.00  0.00     0.059 A 
ATOM     84  F   UNL A   1      43.432  22.971  29.265  1.00  0.00    -0.206 F 
ATOM     85  C   UNL A   1      42.451  20.874  26.489  1.00  0.00     0.060 A 
BRANCH  85  86
ATOM     86  S   UNL A   1      41.915  19.179  26.164  1.00  0.00     0.124 S 
ATOM     87  O   UNL A   1      42.757  18.819  25.029  1.00  0.00    -0.237 OA
ATOM     88  O   UNL A   1      42.223  18.515  27.426  1.00  0.00    -0.237 OA
ATOM     89  O   UNL A   1      40.493  19.327  25.873  1.00  0.00    -0.744 OA
ENDBRANCH  85  86
ENDBRANCH  53  78
BRANCH  65  90
ATOM     90  C   UNL A   1      49.405  26.827  26.323  1.00  0.00     0.058 A 
ATOM     91  C   UNL A   1      49.927  26.952  25.026  1.00  0.00     0.135 A 
ATOM     92  C   UNL A   1      50.235  26.271  27.311  1.00  0.00     0.135 A 
ATOM     93  F   UNL A   1      49.177  27.475  24.042  1.00  0.00    -0.206 F 
ATOM     94  C   UNL A   1      51.207  26.506  24.712  1.00  0.00     0.059 A 
ATOM     95  C   UNL A   1      51.530  25.849  27.027  1.00  0.00     0.059 A 
ATOM     96  F   UNL A   1      49.792  26.142  28.571  1.00  0.00    -0.206 F 
ATOM     97  C   UNL A   1      52.000  25.954  25.720  1.00  0.00     0.060 A 
BRANCH  97  98
ATOM     98  S   UNL A   1      53.663  25.388  25.303  1.00  0.00     0.124 S 
ATOM     99  O   UNL A   1      54.482  26.187  26.208  1.00  0.00    -0.237 OA
ATOM    100  O   UNL A   1      53.592  23.962  25.603  1.00  0.00    -0.237 OA
ATOM    101  O   UNL A   1      53.789  25.718  23.886  1.00  0.00    -0.744 OA
ENDBRANCH  97  98
ENDBRANCH  65  90
ENDBRANCH  39  40
ENDBRANCH  31  34
ENDBRANCH  29  30
ENDBRANCH  28  29
ENDBRANCH  27  28
ENDBRANCH   1  27
TORSDOF 19
ENDMDL
