MODEL 1
REMARK VINA RESULT:     -10.5      0.000      0.000
REMARK SMILES O=C(CN(CC(F)(F)F)C(=O)CC[C@H]1CCC[NH2+]C1)NCCCCCCNC(=O)c1ccc(-c2c3nc(c(-c4c(F)cc(S(=O)(=O)[O-])cc4F)c4ccc([nH]4)c(-c4c(F)cc(S(=O)(=O)[O-])cc4F)c4nc(c(-c5c(F)cc(S(=O)(=O)[O-])cc5F)c5ccc2[nH]5)C=C4)C=C3)cc1
REMARK SMILES IDX 22 1 21 2 20 3 1 4 2 5 3 7 4 8 5 9 6 10 7 11 8 12 9 13 10 14
REMARK SMILES IDX 11 15 12 16 13 17 14 18 15 19 19 20 16 21 18 22 17 23 23 26
REMARK SMILES IDX 24 27 25 28 26 29 27 30 28 31 29 33 30 34 31 35 95 36 32 37
REMARK SMILES IDX 94 38 33 39 34 40 35 41 88 42 36 43 93 44 87 45 89 46 37 47
REMARK SMILES IDX 92 48 86 49 85 50 38 52 72 53 51 54 71 55 52 56 55 57 70 58
REMARK SMILES IDX 90 59 53 60 54 61 69 63 91 64 56 65 39 66 40 67 49 68 41 69
REMARK SMILES IDX 42 70 48 71 50 72 43 73 44 74 45 75 46 76 47 77 73 78 74 79
REMARK SMILES IDX 83 80 75 81 76 82 82 83 84 84 77 85 78 86 79 87 80 88 81 89
REMARK SMILES IDX 57 90 58 91 67 92 59 93 60 94 66 95 68 96 61 97 62 98 63 99
REMARK SMILES IDX 64 100 65 101
REMARK H PARENT 20 6 18 24 18 25 27 32 89 51 55 62
REMARK Flexibility Score: inf
ROOT
ATOM      1  C   UNL A   1      35.930  23.447  26.018  1.00  0.00     0.021 C 
ENDROOT
BRANCH   1   2
ATOM      2  C   UNL A   1      35.036  22.705  25.025  1.00  0.00     0.116 C 
BRANCH   2   3
ATOM      3  N   UNL A   1      33.642  23.102  25.111  1.00  0.00    -0.355 N 
ATOM      4  O   UNL A   1      33.518  23.864  22.955  1.00  0.00    -0.273 OA
ATOM      5  C   UNL A   1      32.954  23.556  24.006  1.00  0.00     0.239 C 
ATOM      6  H   UNL A   1      33.178  23.047  25.977  1.00  0.00     0.163 HD
BRANCH   5   7
ATOM      7  C   UNL A   1      31.464  23.881  24.217  1.00  0.00     0.219 C 
BRANCH   7   8
ATOM      8  N   UNL A   1      31.055  25.238  24.646  1.00  0.00    -0.324 N 
BRANCH   8   9
ATOM      9  C   UNL A   1      30.211  25.964  23.639  1.00  0.00     0.235 C 
BRANCH   9  10
ATOM     10  C   UNL A   1      30.777  27.083  22.758  1.00  0.00     0.406 C 
ATOM     11  F   UNL A   1      29.940  28.118  22.575  1.00  0.00    -0.169 F 
ATOM     12  F   UNL A   1      31.890  27.599  23.341  1.00  0.00    -0.169 F 
ATOM     13  F   UNL A   1      31.147  26.616  21.545  1.00  0.00    -0.169 F 
ENDBRANCH   9  10
ENDBRANCH   8   9
BRANCH   8  14
ATOM     14  C   UNL A   1      31.288  25.520  25.993  1.00  0.00     0.223 C 
ATOM     15  O   UNL A   1      31.137  24.619  26.829  1.00  0.00    -0.275 OA
BRANCH  14  16
ATOM     16  C   UNL A   1      31.777  26.870  26.534  1.00  0.00     0.101 C 
BRANCH  16  17
ATOM     17  C   UNL A   1      33.263  27.213  26.298  1.00  0.00     0.019 C 
BRANCH  17  18
ATOM     18  C   UNL A   1      33.545  28.683  26.580  1.00  0.00     0.045 C 
ATOM     19  C   UNL A   1      32.415  29.491  27.218  1.00  0.00     0.015 C 
ATOM     20  C   UNL A   1      34.856  28.948  27.317  1.00  0.00     0.264 C 
ATOM     21  C   UNL A   1      32.787  30.976  27.109  1.00  0.00     0.062 C 
ATOM     22  N   UNL A   1      35.219  30.353  27.100  1.00  0.00    -0.346 N 
ATOM     23  C   UNL A   1      34.200  31.263  27.634  1.00  0.00     0.260 C 
ATOM     24  H   UNL A   1      36.107  30.541  27.566  1.00  0.00     0.346 HD
ATOM     25  H   UNL A   1      35.293  30.512  26.095  1.00  0.00     0.346 HD
ENDBRANCH  17  18
ENDBRANCH  16  17
ENDBRANCH  14  16
ENDBRANCH   8  14
ENDBRANCH   7   8
ENDBRANCH   5   7
ENDBRANCH   2   3
ENDBRANCH   1   2
BRANCH   1  26
ATOM     26  C   UNL A   1      37.417  23.475  25.646  1.00  0.00     0.002 C 
BRANCH  26  27
ATOM     27  C   UNL A   1      38.148  22.131  25.736  1.00  0.00     0.002 C 
BRANCH  27  28
ATOM     28  C   UNL A   1      39.499  22.156  26.454  1.00  0.00     0.021 C 
BRANCH  28  29
ATOM     29  C   UNL A   1      39.958  23.531  26.932  1.00  0.00     0.116 C 
BRANCH  29  30
ATOM     30  N   UNL A   1      40.796  24.207  25.955  1.00  0.00    -0.352 N 
ATOM     31  C   UNL A   1      41.324  25.477  25.979  1.00  0.00     0.251 C 
ATOM     32  H   UNL A   1      41.017  23.677  25.155  1.00  0.00     0.163 HD
ATOM     33  O   UNL A   1      41.860  25.930  24.974  1.00  0.00    -0.269 OA
BRANCH  31  34
ATOM     34  C   UNL A   1      41.227  26.301  27.206  1.00  0.00     0.039 A 
ATOM     35  C   UNL A   1      42.093  27.387  27.363  1.00  0.00     0.014 A 
ATOM     36  C   UNL A   1      40.296  26.004  28.205  1.00  0.00     0.014 A 
ATOM     37  C   UNL A   1      41.980  28.211  28.486  1.00  0.00     0.010 A 
ATOM     38  C   UNL A   1      40.131  26.870  29.283  1.00  0.00     0.010 A 
ATOM     39  C   UNL A   1      40.972  27.982  29.439  1.00  0.00    -0.014 A 
BRANCH  39  40
ATOM     40  C   UNL A   1      40.778  28.899  30.594  1.00  0.00     0.031 A 
ATOM     41  C   UNL A   1      41.626  28.757  31.830  1.00  0.00     0.074 A 
ATOM     42  C   UNL A   1      39.795  29.821  30.554  1.00  0.00     0.049 A 
ATOM     43  N   UNL A   1      41.570  29.428  32.952  1.00  0.00    -0.248 NA
ATOM     44  C   UNL A   1      42.654  27.704  31.812  1.00  0.00     0.031 C 
ATOM     45  C   UNL A   1      38.879  30.033  29.432  1.00  0.00     0.029 A 
ATOM     46  N   UNL A   1      39.398  30.751  31.483  1.00  0.00    -0.354 N 
ATOM     47  C   UNL A   1      42.543  28.873  33.776  1.00  0.00     0.074 A 
ATOM     48  C   UNL A   1      43.134  27.773  33.045  1.00  0.00     0.031 C 
ATOM     49  C   UNL A   1      38.050  31.048  29.725  1.00  0.00     0.029 A 
ATOM     50  C   UNL A   1      38.343  31.531  31.070  1.00  0.00     0.049 A 
ATOM     51  H   UNL A   1      39.827  30.849  32.364  1.00  0.00     0.167 HD
ATOM     52  C   UNL A   1      42.925  29.256  35.019  1.00  0.00     0.037 A 
ATOM     53  C   UNL A   1      37.683  32.520  31.704  1.00  0.00     0.037 A 
ATOM     54  C   UNL A   1      42.340  30.361  35.735  1.00  0.00     0.049 A 
ATOM     55  C   UNL A   1      38.106  32.911  33.094  1.00  0.00     0.074 A 
ATOM     56  C   UNL A   1      42.695  30.869  36.973  1.00  0.00     0.029 A 
ATOM     57  N   UNL A   1      41.271  31.123  35.285  1.00  0.00    -0.354 N 
ATOM     58  N   UNL A   1      39.077  32.423  33.830  1.00  0.00    -0.248 NA
ATOM     59  C   UNL A   1      37.346  33.990  33.740  1.00  0.00     0.031 C 
ATOM     60  C   UNL A   1      41.804  31.898  37.296  1.00  0.00     0.029 A 
ATOM     61  C   UNL A   1      40.933  32.075  36.234  1.00  0.00     0.049 A 
ATOM     62  H   UNL A   1      40.819  31.006  34.418  1.00  0.00     0.167 HD
ATOM     63  C   UNL A   1      39.066  33.158  35.010  1.00  0.00     0.074 A 
ATOM     64  C   UNL A   1      37.999  34.130  34.886  1.00  0.00     0.031 C 
ATOM     65  C   UNL A   1      39.871  33.043  36.096  1.00  0.00     0.037 A 
BRANCH  52  66
ATOM     66  C   UNL A   1      44.019  28.466  35.688  1.00  0.00     0.058 A 
ATOM     67  C   UNL A   1      45.377  28.765  35.492  1.00  0.00     0.135 A 
ATOM     68  C   UNL A   1      43.706  27.402  36.551  1.00  0.00     0.135 A 
ATOM     69  F   UNL A   1      45.738  29.764  34.670  1.00  0.00    -0.206 F 
ATOM     70  C   UNL A   1      46.384  28.014  36.089  1.00  0.00     0.059 A 
ATOM     71  C   UNL A   1      44.695  26.657  37.186  1.00  0.00     0.059 A 
ATOM     72  F   UNL A   1      42.425  27.072  36.780  1.00  0.00    -0.206 F 
ATOM     73  C   UNL A   1      46.033  26.959  36.932  1.00  0.00     0.060 A 
BRANCH  73  74
ATOM     74  S   UNL A   1      47.351  25.981  37.684  1.00  0.00     0.124 S 
ATOM     75  O   UNL A   1      47.181  26.303  39.097  1.00  0.00    -0.237 OA
ATOM     76  O   UNL A   1      46.989  24.621  37.297  1.00  0.00    -0.237 OA
ATOM     77  O   UNL A   1      48.562  26.505  37.063  1.00  0.00    -0.744 OA
ENDBRANCH  73  74
ENDBRANCH  52  66
BRANCH  53  78
ATOM     78  C   UNL A   1      36.573  33.236  31.016  1.00  0.00     0.058 A 
ATOM     79  C   UNL A   1      36.841  34.181  30.014  1.00  0.00     0.135 A 
ATOM     80  C   UNL A   1      35.229  32.984  31.333  1.00  0.00     0.135 A 
ATOM     81  F   UNL A   1      38.110  34.462  29.681  1.00  0.00    -0.206 F 
ATOM     82  C   UNL A   1      35.820  34.864  29.362  1.00  0.00     0.059 A 
ATOM     83  C   UNL A   1      34.188  33.634  30.675  1.00  0.00     0.059 A 
ATOM     84  F   UNL A   1      34.917  32.078  32.273  1.00  0.00    -0.206 F 
ATOM     85  C   UNL A   1      34.495  34.579  29.697  1.00  0.00     0.060 A 
BRANCH  85  86
ATOM     86  S   UNL A   1      33.177  35.435  28.807  1.00  0.00     0.124 S 
ATOM     87  O   UNL A   1      32.519  34.329  28.121  1.00  0.00    -0.237 OA
ATOM     88  O   UNL A   1      32.423  36.051  29.895  1.00  0.00    -0.237 OA
ATOM     89  O   UNL A   1      33.902  36.368  27.950  1.00  0.00    -0.744 OA
ENDBRANCH  85  86
ENDBRANCH  53  78
BRANCH  65  90
ATOM     90  C   UNL A   1      39.659  34.017  37.224  1.00  0.00     0.058 A 
ATOM     91  C   UNL A   1      38.950  33.668  38.385  1.00  0.00     0.135 A 
ATOM     92  C   UNL A   1      40.217  35.305  37.163  1.00  0.00     0.135 A 
ATOM     93  F   UNL A   1      38.390  32.453  38.495  1.00  0.00    -0.206 F 
ATOM     94  C   UNL A   1      38.780  34.568  39.432  1.00  0.00     0.059 A 
ATOM     95  C   UNL A   1      40.087  36.211  38.211  1.00  0.00     0.059 A 
ATOM     96  F   UNL A   1      40.914  35.690  36.082  1.00  0.00    -0.206 F 
ATOM     97  C   UNL A   1      39.356  35.837  39.337  1.00  0.00     0.060 A 
BRANCH  97  98
ATOM     98  S   UNL A   1      39.156  36.983  40.717  1.00  0.00     0.124 S 
ATOM     99  O   UNL A   1      40.540  37.350  40.998  1.00  0.00    -0.237 OA
ATOM    100  O   UNL A   1      38.328  38.034  40.133  1.00  0.00    -0.237 OA
ATOM    101  O   UNL A   1      38.501  36.174  41.740  1.00  0.00    -0.744 OA
ENDBRANCH  97  98
ENDBRANCH  65  90
ENDBRANCH  39  40
ENDBRANCH  31  34
ENDBRANCH  29  30
ENDBRANCH  28  29
ENDBRANCH  27  28
ENDBRANCH  26  27
ENDBRANCH   1  26
TORSDOF 23
ENDMDL
MODEL 2
REMARK VINA RESULT:     -10.3      1.668      2.750
REMARK SMILES O=C(CN(CC(F)(F)F)C(=O)CC[C@H]1CCC[NH2+]C1)NCCCCCCNC(=O)c1ccc(-c2c3nc(c(-c4c(F)cc(S(=O)(=O)[O-])cc4F)c4ccc([nH]4)c(-c4c(F)cc(S(=O)(=O)[O-])cc4F)c4nc(c(-c5c(F)cc(S(=O)(=O)[O-])cc5F)c5ccc2[nH]5)C=C4)C=C3)cc1
REMARK SMILES IDX 22 1 21 2 20 3 1 4 2 5 3 7 4 8 5 9 6 10 7 11 8 12 9 13 10 14
REMARK SMILES IDX 11 15 12 16 13 17 14 18 15 19 19 20 16 21 18 22 17 23 23 26
REMARK SMILES IDX 24 27 25 28 26 29 27 30 28 31 29 33 30 34 31 35 95 36 32 37
REMARK SMILES IDX 94 38 33 39 34 40 35 41 88 42 36 43 93 44 87 45 89 46 37 47
REMARK SMILES IDX 92 48 86 49 85 50 38 52 72 53 51 54 71 55 52 56 55 57 70 58
REMARK SMILES IDX 90 59 53 60 54 61 69 63 91 64 56 65 39 66 40 67 49 68 41 69
REMARK SMILES IDX 42 70 48 71 50 72 43 73 44 74 45 75 46 76 47 77 73 78 74 79
REMARK SMILES IDX 83 80 75 81 76 82 82 83 84 84 77 85 78 86 79 87 80 88 81 89
REMARK SMILES IDX 57 90 58 91 67 92 59 93 60 94 66 95 68 96 61 97 62 98 63 99
REMARK SMILES IDX 64 100 65 101
REMARK H PARENT 20 6 18 24 18 25 27 32 89 51 55 62
REMARK Flexibility Score: inf
ROOT
ATOM      1  C   UNL A   1      36.332  23.662  26.144  1.00  0.00     0.021 C 
ENDROOT
BRANCH   1   2
ATOM      2  C   UNL A   1      35.051  23.489  25.328  1.00  0.00     0.116 C 
BRANCH   2   3
ATOM      3  N   UNL A   1      33.902  24.139  25.932  1.00  0.00    -0.355 N 
ATOM      4  O   UNL A   1      33.590  25.626  24.219  1.00  0.00    -0.273 OA
ATOM      5  C   UNL A   1      33.184  25.102  25.257  1.00  0.00     0.239 C 
ATOM      6  H   UNL A   1      33.631  23.887  26.844  1.00  0.00     0.163 HD
BRANCH   5   7
ATOM      7  C   UNL A   1      31.948  25.665  25.984  1.00  0.00     0.219 C 
BRANCH   7   8
ATOM      8  N   UNL A   1      31.551  27.078  25.786  1.00  0.00    -0.324 N 
BRANCH   8   9
ATOM      9  C   UNL A   1      32.334  28.050  26.619  1.00  0.00     0.235 C 
BRANCH   9  10
ATOM     10  C   UNL A   1      33.608  28.726  26.098  1.00  0.00     0.406 C 
ATOM     11  F   UNL A   1      33.839  28.535  24.789  1.00  0.00    -0.169 F 
ATOM     12  F   UNL A   1      33.509  30.070  26.269  1.00  0.00    -0.169 F 
ATOM     13  F   UNL A   1      34.698  28.319  26.786  1.00  0.00    -0.169 F 
ENDBRANCH   9  10
ENDBRANCH   8   9
BRANCH   8  14
ATOM     14  C   UNL A   1      30.717  27.302  24.690  1.00  0.00     0.223 C 
ATOM     15  O   UNL A   1      29.932  26.410  24.342  1.00  0.00    -0.275 OA
BRANCH  14  16
ATOM     16  C   UNL A   1      30.651  28.610  23.890  1.00  0.00     0.101 C 
BRANCH  16  17
ATOM     17  C   UNL A   1      29.672  28.643  22.697  1.00  0.00     0.019 C 
BRANCH  17  18
ATOM     18  C   UNL A   1      29.312  30.072  22.314  1.00  0.00     0.045 C 
ATOM     19  C   UNL A   1      28.134  30.252  21.358  1.00  0.00     0.015 C 
ATOM     20  C   UNL A   1      29.177  31.031  23.494  1.00  0.00     0.264 C 
ATOM     21  C   UNL A   1      28.157  31.704  20.859  1.00  0.00     0.062 C 
ATOM     22  N   UNL A   1      29.305  32.400  22.980  1.00  0.00    -0.346 N 
ATOM     23  C   UNL A   1      28.251  32.714  22.010  1.00  0.00     0.260 C 
ATOM     24  H   UNL A   1      29.243  33.053  23.761  1.00  0.00     0.346 HD
ATOM     25  H   UNL A   1      30.207  32.480  22.508  1.00  0.00     0.346 HD
ENDBRANCH  17  18
ENDBRANCH  16  17
ENDBRANCH  14  16
ENDBRANCH   8  14
ENDBRANCH   7   8
ENDBRANCH   5   7
ENDBRANCH   2   3
ENDBRANCH   1   2
BRANCH   1  26
ATOM     26  C   UNL A   1      37.622  23.309  25.396  1.00  0.00     0.002 C 
BRANCH  26  27
ATOM     27  C   UNL A   1      38.223  21.937  25.721  1.00  0.00     0.002 C 
BRANCH  27  28
ATOM     28  C   UNL A   1      39.559  21.956  26.468  1.00  0.00     0.021 C 
BRANCH  28  29
ATOM     29  C   UNL A   1      40.010  23.329  26.961  1.00  0.00     0.116 C 
BRANCH  29  30
ATOM     30  N   UNL A   1      40.913  23.984  26.027  1.00  0.00    -0.352 N 
ATOM     31  C   UNL A   1      41.471  25.240  26.079  1.00  0.00     0.251 C 
ATOM     32  H   UNL A   1      41.161  23.448  25.240  1.00  0.00     0.163 HD
ATOM     33  O   UNL A   1      42.067  25.680  25.103  1.00  0.00    -0.269 OA
BRANCH  31  34
ATOM     34  C   UNL A   1      41.332  26.067  27.301  1.00  0.00     0.039 A 
ATOM     35  C   UNL A   1      42.390  26.899  27.679  1.00  0.00     0.014 A 
ATOM     36  C   UNL A   1      40.172  26.018  28.078  1.00  0.00     0.014 A 
ATOM     37  C   UNL A   1      42.256  27.729  28.795  1.00  0.00     0.010 A 
ATOM     38  C   UNL A   1      40.011  26.902  29.143  1.00  0.00     0.010 A 
ATOM     39  C   UNL A   1      41.051  27.767  29.516  1.00  0.00    -0.014 A 
BRANCH  39  40
ATOM     40  C   UNL A   1      40.858  28.707  30.652  1.00  0.00     0.031 A 
ATOM     41  C   UNL A   1      41.714  28.597  31.886  1.00  0.00     0.074 A 
ATOM     42  C   UNL A   1      39.869  29.623  30.598  1.00  0.00     0.049 A 
ATOM     43  N   UNL A   1      41.661  29.293  32.993  1.00  0.00    -0.248 NA
ATOM     44  C   UNL A   1      42.748  27.550  31.885  1.00  0.00     0.031 C 
ATOM     45  C   UNL A   1      38.945  29.804  29.477  1.00  0.00     0.029 A 
ATOM     46  N   UNL A   1      39.472  30.570  31.509  1.00  0.00    -0.354 N 
ATOM     47  C   UNL A   1      42.642  28.761  33.823  1.00  0.00     0.074 A 
ATOM     48  C   UNL A   1      43.235  27.649  33.113  1.00  0.00     0.031 C 
ATOM     49  C   UNL A   1      38.112  30.821  29.752  1.00  0.00     0.029 A 
ATOM     50  C   UNL A   1      38.410  31.335  31.084  1.00  0.00     0.049 A 
ATOM     51  H   UNL A   1      39.906  30.690  32.384  1.00  0.00     0.167 HD
ATOM     52  C   UNL A   1      43.028  29.174  35.055  1.00  0.00     0.037 A 
ATOM     53  C   UNL A   1      37.748  32.334  31.700  1.00  0.00     0.037 A 
ATOM     54  C   UNL A   1      42.441  30.291  35.750  1.00  0.00     0.049 A 
ATOM     55  C   UNL A   1      38.177  32.758  33.080  1.00  0.00     0.074 A 
ATOM     56  C   UNL A   1      42.801  30.828  36.975  1.00  0.00     0.029 A 
ATOM     57  N   UNL A   1      41.365  31.037  35.290  1.00  0.00    -0.354 N 
ATOM     58  N   UNL A   1      39.155  32.292  33.820  1.00  0.00    -0.248 NA
ATOM     59  C   UNL A   1      37.415  33.846  33.706  1.00  0.00     0.031 C 
ATOM     60  C   UNL A   1      41.906  31.859  37.281  1.00  0.00     0.029 A 
ATOM     61  C   UNL A   1      41.028  32.007  36.220  1.00  0.00     0.049 A 
ATOM     62  H   UNL A   1      40.909  30.898  34.428  1.00  0.00     0.167 HD
ATOM     63  C   UNL A   1      39.147  33.053  34.984  1.00  0.00     0.074 A 
ATOM     64  C   UNL A   1      38.073  34.015  34.845  1.00  0.00     0.031 C 
ATOM     65  C   UNL A   1      39.959  32.965  36.067  1.00  0.00     0.037 A 
BRANCH  52  66
ATOM     66  C   UNL A   1      44.131  28.405  35.735  1.00  0.00     0.058 A 
ATOM     67  C   UNL A   1      43.863  27.333  36.602  1.00  0.00     0.135 A 
ATOM     68  C   UNL A   1      45.478  28.734  35.505  1.00  0.00     0.135 A 
ATOM     69  F   UNL A   1      42.595  26.979  36.869  1.00  0.00    -0.206 F 
ATOM     70  C   UNL A   1      44.883  26.644  37.250  1.00  0.00     0.059 A 
ATOM     71  C   UNL A   1      46.517  28.038  36.116  1.00  0.00     0.059 A 
ATOM     72  F   UNL A   1      45.795  29.746  34.683  1.00  0.00    -0.206 F 
ATOM     73  C   UNL A   1      46.208  27.008  37.003  1.00  0.00     0.060 A 
BRANCH  73  74
ATOM     74  S   UNL A   1      47.521  26.118  37.867  1.00  0.00     0.124 S 
ATOM     75  O   UNL A   1      48.711  26.788  37.352  1.00  0.00    -0.237 OA
ATOM     76  O   UNL A   1      47.205  26.380  39.267  1.00  0.00    -0.237 OA
ATOM     77  O   UNL A   1      47.341  24.737  37.433  1.00  0.00    -0.744 OA
ENDBRANCH  73  74
ENDBRANCH  52  66
BRANCH  53  78
ATOM     78  C   UNL A   1      36.630  33.028  31.004  1.00  0.00     0.058 A 
ATOM     79  C   UNL A   1      35.302  32.841  31.415  1.00  0.00     0.135 A 
ATOM     80  C   UNL A   1      36.863  33.898  29.927  1.00  0.00     0.135 A 
ATOM     81  F   UNL A   1      35.027  32.013  32.434  1.00  0.00    -0.206 F 
ATOM     82  C   UNL A   1      34.242  33.476  30.776  1.00  0.00     0.059 A 
ATOM     83  C   UNL A   1      35.823  34.568  29.289  1.00  0.00     0.059 A 
ATOM     84  F   UNL A   1      38.116  34.125  29.503  1.00  0.00    -0.206 F 
ATOM     85  C   UNL A   1      34.514  34.342  29.715  1.00  0.00     0.060 A 
BRANCH  85  86
ATOM     86  S   UNL A   1      33.135  35.201  28.927  1.00  0.00     0.124 S 
ATOM     87  O   UNL A   1      32.268  35.473  30.068  1.00  0.00    -0.237 OA
ATOM     88  O   UNL A   1      33.795  36.361  28.336  1.00  0.00    -0.237 OA
ATOM     89  O   UNL A   1      32.632  34.220  27.970  1.00  0.00    -0.744 OA
ENDBRANCH  85  86
ENDBRANCH  53  78
BRANCH  65  90
ATOM     90  C   UNL A   1      39.748  33.963  37.175  1.00  0.00     0.058 A 
ATOM     91  C   UNL A   1      38.941  33.678  38.289  1.00  0.00     0.135 A 
ATOM     92  C   UNL A   1      40.403  35.205  37.145  1.00  0.00     0.135 A 
ATOM     93  F   UNL A   1      38.286  32.509  38.367  1.00  0.00    -0.206 F 
ATOM     94  C   UNL A   1      38.771  34.598  39.318  1.00  0.00     0.059 A 
ATOM     95  C   UNL A   1      40.274  36.128  38.178  1.00  0.00     0.059 A 
ATOM     96  F   UNL A   1      41.194  35.528  36.109  1.00  0.00    -0.206 F 
ATOM     97  C   UNL A   1      39.445  35.820  39.255  1.00  0.00     0.060 A 
BRANCH  97  98
ATOM     98  S   UNL A   1      39.243  36.991  40.615  1.00  0.00     0.124 S 
ATOM     99  O   UNL A   1      38.642  36.146  41.643  1.00  0.00    -0.237 OA
ATOM    100  O   UNL A   1      40.616  37.417  40.867  1.00  0.00    -0.237 OA
ATOM    101  O   UNL A   1      38.368  38.016  40.055  1.00  0.00    -0.744 OA
ENDBRANCH  97  98
ENDBRANCH  65  90
ENDBRANCH  39  40
ENDBRANCH  31  34
ENDBRANCH  29  30
ENDBRANCH  28  29
ENDBRANCH  27  28
ENDBRANCH  26  27
ENDBRANCH   1  26
TORSDOF 23
ENDMDL
MODEL 3
REMARK VINA RESULT:     -10.1      1.759      3.803
REMARK SMILES O=C(CN(CC(F)(F)F)C(=O)CC[C@H]1CCC[NH2+]C1)NCCCCCCNC(=O)c1ccc(-c2c3nc(c(-c4c(F)cc(S(=O)(=O)[O-])cc4F)c4ccc([nH]4)c(-c4c(F)cc(S(=O)(=O)[O-])cc4F)c4nc(c(-c5c(F)cc(S(=O)(=O)[O-])cc5F)c5ccc2[nH]5)C=C4)C=C3)cc1
REMARK SMILES IDX 22 1 21 2 20 3 1 4 2 5 3 7 4 8 5 9 6 10 7 11 8 12 9 13 10 14
REMARK SMILES IDX 11 15 12 16 13 17 14 18 15 19 19 20 16 21 18 22 17 23 23 26
REMARK SMILES IDX 24 27 25 28 26 29 27 30 28 31 29 33 30 34 31 35 95 36 32 37
REMARK SMILES IDX 94 38 33 39 34 40 35 41 88 42 36 43 93 44 87 45 89 46 37 47
REMARK SMILES IDX 92 48 86 49 85 50 38 52 72 53 51 54 71 55 52 56 55 57 70 58
REMARK SMILES IDX 90 59 53 60 54 61 69 63 91 64 56 65 39 66 40 67 49 68 41 69
REMARK SMILES IDX 42 70 48 71 50 72 43 73 44 74 45 75 46 76 47 77 73 78 74 79
REMARK SMILES IDX 83 80 75 81 76 82 82 83 84 84 77 85 78 86 79 87 80 88 81 89
REMARK SMILES IDX 57 90 58 91 67 92 59 93 60 94 66 95 68 96 61 97 62 98 63 99
REMARK SMILES IDX 64 100 65 101
REMARK H PARENT 20 6 18 24 18 25 27 32 89 51 55 62
REMARK Flexibility Score: inf
ROOT
ATOM      1  C   UNL A   1      38.159  21.429  25.666  1.00  0.00     0.021 C 
ENDROOT
BRANCH   1   2
ATOM      2  C   UNL A   1      37.516  22.315  24.599  1.00  0.00     0.116 C 
BRANCH   2   3
ATOM      3  N   UNL A   1      36.302  22.965  25.059  1.00  0.00    -0.355 N 
ATOM      4  O   UNL A   1      35.493  23.384  22.958  1.00  0.00    -0.273 OA
ATOM      5  C   UNL A   1      35.317  23.353  24.177  1.00  0.00     0.239 C 
ATOM      6  H   UNL A   1      36.180  23.132  26.021  1.00  0.00     0.163 HD
BRANCH   5   7
ATOM      7  C   UNL A   1      34.050  23.970  24.799  1.00  0.00     0.219 C 
BRANCH   7   8
ATOM      8  N   UNL A   1      32.733  23.326  24.590  1.00  0.00    -0.324 N 
BRANCH   8   9
ATOM      9  C   UNL A   1      32.086  23.676  23.282  1.00  0.00     0.235 C 
BRANCH   9  10
ATOM     10  C   UNL A   1      30.938  24.688  23.188  1.00  0.00     0.406 C 
ATOM     11  F   UNL A   1      30.788  25.456  24.280  1.00  0.00    -0.169 F 
ATOM     12  F   UNL A   1      31.172  25.542  22.158  1.00  0.00    -0.169 F 
ATOM     13  F   UNL A   1      29.761  24.076  22.934  1.00  0.00    -0.169 F 
ENDBRANCH   9  10
ENDBRANCH   8   9
BRANCH   8  14
ATOM     14  C   UNL A   1      32.429  22.311  25.499  1.00  0.00     0.223 C 
ATOM     15  O   UNL A   1      32.202  22.612  26.679  1.00  0.00    -0.275 OA
BRANCH  14  16
ATOM     16  C   UNL A   1      32.300  20.824  25.144  1.00  0.00     0.101 C 
BRANCH  16  17
ATOM     17  C   UNL A   1      33.531  20.160  24.492  1.00  0.00     0.019 C 
BRANCH  17  18
ATOM     18  C   UNL A   1      33.372  18.646  24.421  1.00  0.00     0.045 C 
ATOM     19  C   UNL A   1      34.651  17.827  24.248  1.00  0.00     0.015 C 
ATOM     20  C   UNL A   1      32.515  18.045  25.533  1.00  0.00     0.264 C 
ATOM     21  C   UNL A   1      34.239  16.396  23.877  1.00  0.00     0.062 C 
ATOM     22  N   UNL A   1      32.066  16.721  25.089  1.00  0.00    -0.346 N 
ATOM     23  C   UNL A   1      33.196  15.820  24.844  1.00  0.00     0.260 C 
ATOM     24  H   UNL A   1      31.470  16.315  25.811  1.00  0.00     0.346 HD
ATOM     25  H   UNL A   1      31.553  16.835  24.215  1.00  0.00     0.346 HD
ENDBRANCH  17  18
ENDBRANCH  16  17
ENDBRANCH  14  16
ENDBRANCH   8  14
ENDBRANCH   7   8
ENDBRANCH   5   7
ENDBRANCH   2   3
ENDBRANCH   1   2
BRANCH   1  26
ATOM     26  C   UNL A   1      39.371  22.049  26.371  1.00  0.00     0.002 C 
BRANCH  26  27
ATOM     27  C   UNL A   1      40.487  21.072  26.754  1.00  0.00     0.002 C 
BRANCH  27  28
ATOM     28  C   UNL A   1      41.704  21.691  27.447  1.00  0.00     0.021 C 
BRANCH  28  29
ATOM     29  C   UNL A   1      41.652  23.206  27.623  1.00  0.00     0.116 C 
BRANCH  29  30
ATOM     30  N   UNL A   1      41.985  23.918  26.400  1.00  0.00    -0.352 N 
ATOM     31  C   UNL A   1      41.908  25.262  26.116  1.00  0.00     0.251 C 
ATOM     32  H   UNL A   1      42.316  23.354  25.664  1.00  0.00     0.163 HD
ATOM     33  O   UNL A   1      42.065  25.649  24.964  1.00  0.00    -0.269 OA
BRANCH  31  34
ATOM     34  C   UNL A   1      41.614  26.235  27.194  1.00  0.00     0.039 A 
ATOM     35  C   UNL A   1      40.545  25.984  28.060  1.00  0.00     0.014 A 
ATOM     36  C   UNL A   1      42.377  27.395  27.348  1.00  0.00     0.014 A 
ATOM     37  C   UNL A   1      40.286  26.860  29.117  1.00  0.00     0.010 A 
ATOM     38  C   UNL A   1      42.167  28.225  28.448  1.00  0.00     0.010 A 
ATOM     39  C   UNL A   1      41.119  27.969  29.344  1.00  0.00    -0.014 A 
BRANCH  39  40
ATOM     40  C   UNL A   1      40.914  28.863  30.515  1.00  0.00     0.031 A 
ATOM     41  C   UNL A   1      41.759  28.702  31.752  1.00  0.00     0.074 A 
ATOM     42  C   UNL A   1      39.927  29.780  30.489  1.00  0.00     0.049 A 
ATOM     43  N   UNL A   1      41.695  29.352  32.887  1.00  0.00    -0.248 NA
ATOM     44  C   UNL A   1      42.793  27.656  31.718  1.00  0.00     0.031 C 
ATOM     45  C   UNL A   1      39.013  30.007  29.368  1.00  0.00     0.029 A 
ATOM     46  N   UNL A   1      39.520  30.689  31.435  1.00  0.00    -0.354 N 
ATOM     47  C   UNL A   1      42.668  28.787  33.704  1.00  0.00     0.074 A 
ATOM     48  C   UNL A   1      43.268  27.704  32.954  1.00  0.00     0.031 C 
ATOM     49  C   UNL A   1      38.177  31.012  29.677  1.00  0.00     0.029 A 
ATOM     50  C   UNL A   1      38.462  31.471  31.032  1.00  0.00     0.049 A 
ATOM     51  H   UNL A   1      39.945  30.773  32.318  1.00  0.00     0.167 HD
ATOM     52  C   UNL A   1      43.042  29.148  34.955  1.00  0.00     0.037 A 
ATOM     53  C   UNL A   1      37.794  32.444  31.682  1.00  0.00     0.037 A 
ATOM     54  C   UNL A   1      42.448  30.237  35.689  1.00  0.00     0.049 A 
ATOM     55  C   UNL A   1      38.210  32.811  33.081  1.00  0.00     0.074 A 
ATOM     56  C   UNL A   1      42.796  30.722  36.939  1.00  0.00     0.029 A 
ATOM     57  N   UNL A   1      41.376  31.001  35.250  1.00  0.00    -0.354 N 
ATOM     58  N   UNL A   1      39.181  32.315  33.811  1.00  0.00    -0.248 NA
ATOM     59  C   UNL A   1      37.441  33.873  33.744  1.00  0.00     0.031 C 
ATOM     60  C   UNL A   1      41.897  31.740  37.278  1.00  0.00     0.029 A 
ATOM     61  C   UNL A   1      41.030  31.932  36.215  1.00  0.00     0.049 A 
ATOM     62  H   UNL A   1      40.928  30.897  34.379  1.00  0.00     0.167 HD
ATOM     63  C   UNL A   1      39.161  33.028  35.005  1.00  0.00     0.074 A 
ATOM     64  C   UNL A   1      38.088  33.995  34.896  1.00  0.00     0.031 C 
ATOM     65  C   UNL A   1      39.962  32.896  36.092  1.00  0.00     0.037 A 
BRANCH  52  66
ATOM     66  C   UNL A   1      44.138  28.352  35.613  1.00  0.00     0.058 A 
ATOM     67  C   UNL A   1      45.495  28.664  35.429  1.00  0.00     0.135 A 
ATOM     68  C   UNL A   1      43.829  27.269  36.454  1.00  0.00     0.135 A 
ATOM     69  F   UNL A   1      45.854  29.680  34.628  1.00  0.00    -0.206 F 
ATOM     70  C   UNL A   1      46.505  27.907  36.016  1.00  0.00     0.059 A 
ATOM     71  C   UNL A   1      44.820  26.519  37.079  1.00  0.00     0.059 A 
ATOM     72  F   UNL A   1      42.549  26.927  36.671  1.00  0.00    -0.206 F 
ATOM     73  C   UNL A   1      46.157  26.834  36.836  1.00  0.00     0.060 A 
BRANCH  73  74
ATOM     74  S   UNL A   1      47.478  25.849  37.574  1.00  0.00     0.124 S 
ATOM     75  O   UNL A   1      46.928  25.572  38.898  1.00  0.00    -0.237 OA
ATOM     76  O   UNL A   1      47.556  24.705  36.671  1.00  0.00    -0.237 OA
ATOM     77  O   UNL A   1      48.628  26.746  37.548  1.00  0.00    -0.744 OA
ENDBRANCH  73  74
ENDBRANCH  52  66
BRANCH  53  78
ATOM     78  C   UNL A   1      36.683  33.166  31.003  1.00  0.00     0.058 A 
ATOM     79  C   UNL A   1      36.949  34.179  30.070  1.00  0.00     0.135 A 
ATOM     80  C   UNL A   1      35.339  32.855  31.262  1.00  0.00     0.135 A 
ATOM     81  F   UNL A   1      38.218  34.518  29.794  1.00  0.00    -0.206 F 
ATOM     82  C   UNL A   1      35.926  34.869  29.427  1.00  0.00     0.059 A 
ATOM     83  C   UNL A   1      34.297  33.511  30.611  1.00  0.00     0.059 A 
ATOM     84  F   UNL A   1      35.028  31.884  32.134  1.00  0.00    -0.206 F 
ATOM     85  C   UNL A   1      34.602  34.523  29.702  1.00  0.00     0.060 A 
BRANCH  85  86
ATOM     86  S   UNL A   1      33.285  35.391  28.823  1.00  0.00     0.124 S 
ATOM     87  O   UNL A   1      32.619  34.293  28.132  1.00  0.00    -0.237 OA
ATOM     88  O   UNL A   1      32.538  36.003  29.919  1.00  0.00    -0.237 OA
ATOM     89  O   UNL A   1      34.010  36.328  27.970  1.00  0.00    -0.744 OA
ENDBRANCH  85  86
ENDBRANCH  53  78
BRANCH  65  90
ATOM     90  C   UNL A   1      39.740  33.847  37.238  1.00  0.00     0.058 A 
ATOM     91  C   UNL A   1      40.344  35.114  37.280  1.00  0.00     0.135 A 
ATOM     92  C   UNL A   1      38.871  33.503  38.286  1.00  0.00     0.135 A 
ATOM     93  F   UNL A   1      41.189  35.492  36.308  1.00  0.00    -0.206 F 
ATOM     94  C   UNL A   1      40.115  35.994  38.333  1.00  0.00     0.059 A 
ATOM     95  C   UNL A   1      38.601  34.380  39.333  1.00  0.00     0.059 A 
ATOM     96  F   UNL A   1      38.258  32.309  38.293  1.00  0.00    -0.206 F 
ATOM     97  C   UNL A   1      39.239  35.619  39.353  1.00  0.00     0.060 A 
BRANCH  97  98
ATOM     98  S   UNL A   1      38.923  36.786  40.695  1.00  0.00     0.124 S 
ATOM     99  O   UNL A   1      40.275  37.052  41.177  1.00  0.00    -0.237 OA
ATOM    100  O   UNL A   1      38.268  37.890  40.001  1.00  0.00    -0.237 OA
ATOM    101  O   UNL A   1      38.069  36.032  41.608  1.00  0.00    -0.744 OA
ENDBRANCH  97  98
ENDBRANCH  65  90
ENDBRANCH  39  40
ENDBRANCH  31  34
ENDBRANCH  29  30
ENDBRANCH  28  29
ENDBRANCH  27  28
ENDBRANCH  26  27
ENDBRANCH   1  26
TORSDOF 23
ENDMDL
