MODEL 1
REMARK VINA RESULT:     -12.2      0.000      0.000
REMARK SMILES O=C(NCCCCCCNC(=O)c1ccc(-c2c3nc(c(-c4c(F)cc(S(=O)(=O)[O-])cc4F)c4ccc([nH]4)c(-c4c(F)cc(S(=O)(=O)[O-])cc4F)c4nc(c(-c5c(F)cc(S(=O)(=O)[O-])cc5F)c5ccc2[nH]5)C=C4)C=C3)cc1)C1=Cc2cc(Cl)cc(-c3ccccc3)c2O[C@@H]1C(F)(F)F
REMARK SMILES IDX 7 1 6 2 5 3 4 4 3 5 1 6 2 7 79 9 80 10 95 11 81 12 94 13
REMARK SMILES IDX 82 14 93 15 83 16 86 17 84 18 85 19 96 20 97 21 98 22 99 23
REMARK SMILES IDX 87 24 88 25 92 26 89 27 91 28 90 29 8 30 9 31 10 32 11 33
REMARK SMILES IDX 12 35 13 36 14 37 78 38 15 39 77 40 16 41 17 42 18 43 71 44
REMARK SMILES IDX 19 45 76 46 70 47 72 48 20 49 75 50 69 51 68 52 21 54 55 55
REMARK SMILES IDX 34 56 54 57 35 58 38 59 53 60 73 61 36 62 37 63 52 65 74 66
REMARK SMILES IDX 39 67 22 68 23 69 32 70 24 71 25 72 31 73 33 74 26 75 27 76
REMARK SMILES IDX 28 77 29 78 30 79 56 80 57 81 66 82 58 83 59 84 65 85 67 86
REMARK SMILES IDX 60 87 61 88 62 89 63 90 64 91 40 92 41 93 50 94 42 95 43 96
REMARK SMILES IDX 49 97 51 98 44 99 45 100 46 101 47 102 48 103
REMARK H PARENT 3 8 10 34 72 53 38 64
REMARK Flexibility Score: inf
ROOT
ATOM      1  C   UNL A   1      33.027  29.119  24.531  1.00  0.00     0.002 C 
ENDROOT
BRANCH   1   2
ATOM      2  C   UNL A   1      31.539  28.793  24.355  1.00  0.00     0.002 C 
BRANCH   2   3
ATOM      3  C   UNL A   1      31.039  28.590  22.924  1.00  0.00     0.021 C 
BRANCH   3   4
ATOM      4  C   UNL A   1      30.710  27.159  22.507  1.00  0.00     0.116 C 
BRANCH   4   5
ATOM      5  N   UNL A   1      31.842  26.375  22.042  1.00  0.00    -0.352 N 
ATOM      6  O   UNL A   1      33.248  24.635  21.892  1.00  0.00    -0.270 OA
ATOM      7  C   UNL A   1      32.342  25.194  22.513  1.00  0.00     0.251 C 
ATOM      8  H   UNL A   1      32.321  26.752  21.269  1.00  0.00     0.163 HD
BRANCH   7   9
ATOM      9  C   UNL A   1      31.787  24.496  23.714  1.00  0.00     0.067 C 
ATOM     10  C   UNL A   1      31.297  23.245  23.666  1.00  0.00     0.025 C 
ATOM     11  C   UNL A   1      32.478  24.929  24.988  1.00  0.00     0.314 C 
ATOM     12  C   UNL A   1      32.230  22.262  24.278  1.00  0.00     0.019 A 
ATOM     13  O   UNL A   1      33.566  24.024  25.306  1.00  0.00    -0.475 OA
ATOM     14  C   UNL A   1      32.077  20.918  23.924  1.00  0.00     0.032 A 
ATOM     15  C   UNL A   1      33.396  22.704  24.940  1.00  0.00     0.135 A 
ATOM     16  C   UNL A   1      33.121  20.033  24.156  1.00  0.00     0.042 A 
ATOM     17  C   UNL A   1      34.485  21.826  25.113  1.00  0.00     0.026 A 
ATOM     18  Cl  UNL A   1      33.004  18.417  23.581  1.00  0.00    -0.084 Cl
ATOM     19  C   UNL A   1      34.312  20.479  24.731  1.00  0.00     0.033 A 
BRANCH  11  20
ATOM     20  C   UNL A   1      31.493  25.107  26.159  1.00  0.00     0.429 C 
ATOM     21  F   UNL A   1      30.207  25.056  25.742  1.00  0.00    -0.167 F 
ATOM     22  F   UNL A   1      31.644  24.122  27.081  1.00  0.00    -0.167 F 
ATOM     23  F   UNL A   1      31.657  26.282  26.812  1.00  0.00    -0.167 F 
ENDBRANCH  11  20
BRANCH  17  24
ATOM     24  C   UNL A   1      35.840  22.299  25.461  1.00  0.00    -0.015 A 
ATOM     25  C   UNL A   1      36.915  21.394  25.397  1.00  0.00     0.009 A 
ATOM     26  C   UNL A   1      36.125  23.614  25.841  1.00  0.00     0.009 A 
ATOM     27  C   UNL A   1      38.223  21.768  25.704  1.00  0.00     0.001 A 
ATOM     28  C   UNL A   1      37.437  23.996  26.157  1.00  0.00     0.001 A 
ATOM     29  C   UNL A   1      38.482  23.074  26.089  1.00  0.00     0.000 A 
ENDBRANCH  17  24
ENDBRANCH   7   9
ENDBRANCH   4   5
ENDBRANCH   3   4
ENDBRANCH   2   3
ENDBRANCH   1   2
BRANCH   1  30
ATOM     30  C   UNL A   1      33.871  28.100  25.301  1.00  0.00     0.021 C 
BRANCH  30  31
ATOM     31  C   UNL A   1      33.837  28.199  26.820  1.00  0.00     0.116 C 
BRANCH  31  32
ATOM     32  N   UNL A   1      33.664  29.570  27.271  1.00  0.00    -0.352 N 
ATOM     33  C   UNL A   1      34.494  30.384  28.004  1.00  0.00     0.251 C 
ATOM     34  H   UNL A   1      32.810  29.983  27.008  1.00  0.00     0.163 HD
ATOM     35  O   UNL A   1      34.043  31.435  28.452  1.00  0.00    -0.269 OA
BRANCH  33  36
ATOM     36  C   UNL A   1      35.908  30.018  28.270  1.00  0.00     0.039 A 
ATOM     37  C   UNL A   1      36.261  29.586  29.555  1.00  0.00     0.014 A 
ATOM     38  C   UNL A   1      36.902  30.154  27.298  1.00  0.00     0.014 A 
ATOM     39  C   UNL A   1      37.588  29.253  29.846  1.00  0.00     0.010 A 
ATOM     40  C   UNL A   1      38.207  29.738  27.563  1.00  0.00     0.010 A 
ATOM     41  C   UNL A   1      38.571  29.301  28.845  1.00  0.00    -0.014 A 
BRANCH  41  42
ATOM     42  C   UNL A   1      39.986  28.934  29.123  1.00  0.00     0.031 A 
ATOM     43  C   UNL A   1      40.918  29.942  29.748  1.00  0.00     0.074 A 
ATOM     44  C   UNL A   1      40.449  27.722  28.756  1.00  0.00     0.049 A 
ATOM     45  N   UNL A   1      42.200  29.845  29.990  1.00  0.00    -0.248 NA
ATOM     46  C   UNL A   1      40.338  31.241  30.124  1.00  0.00     0.031 C 
ATOM     47  C   UNL A   1      39.662  26.675  28.102  1.00  0.00     0.029 A 
ATOM     48  N   UNL A   1      41.701  27.168  28.871  1.00  0.00    -0.354 N 
ATOM     49  C   UNL A   1      42.584  31.075  30.513  1.00  0.00     0.074 A 
ATOM     50  C   UNL A   1      41.409  31.918  30.515  1.00  0.00     0.031 C 
ATOM     51  C   UNL A   1      40.438  25.599  27.900  1.00  0.00     0.029 A 
ATOM     52  C   UNL A   1      41.788  25.890  28.371  1.00  0.00     0.049 A 
ATOM     53  H   UNL A   1      42.464  27.641  29.275  1.00  0.00     0.167 HD
ATOM     54  C   UNL A   1      43.799  31.461  30.970  1.00  0.00     0.037 A 
ATOM     55  C   UNL A   1      42.840  25.050  28.294  1.00  0.00     0.037 A 
ATOM     56  C   UNL A   1      44.952  30.599  31.015  1.00  0.00     0.049 A 
ATOM     57  C   UNL A   1      44.175  25.497  28.827  1.00  0.00     0.074 A 
ATOM     58  C   UNL A   1      46.205  30.866  31.539  1.00  0.00     0.029 A 
ATOM     59  N   UNL A   1      44.992  29.304  30.522  1.00  0.00    -0.354 N 
ATOM     60  N   UNL A   1      44.501  26.640  29.380  1.00  0.00    -0.248 NA
ATOM     61  C   UNL A   1      45.285  24.539  28.727  1.00  0.00     0.031 C 
ATOM     62  C   UNL A   1      47.016  29.747  31.324  1.00  0.00     0.029 A 
ATOM     63  C   UNL A   1      46.254  28.766  30.709  1.00  0.00     0.049 A 
ATOM     64  H   UNL A   1      44.236  28.836  30.101  1.00  0.00     0.167 HD
ATOM     65  C   UNL A   1      45.844  26.527  29.723  1.00  0.00     0.074 A 
ATOM     66  C   UNL A   1      46.267  25.200  29.324  1.00  0.00     0.031 C 
ATOM     67  C   UNL A   1      46.654  27.438  30.317  1.00  0.00     0.037 A 
BRANCH  54  68
ATOM     68  C   UNL A   1      43.950  32.873  31.467  1.00  0.00     0.058 A 
ATOM     69  C   UNL A   1      44.352  33.918  30.619  1.00  0.00     0.135 A 
ATOM     70  C   UNL A   1      43.639  33.196  32.798  1.00  0.00     0.135 A 
ATOM     71  F   UNL A   1      44.675  33.664  29.342  1.00  0.00    -0.206 F 
ATOM     72  C   UNL A   1      44.465  35.226  31.078  1.00  0.00     0.059 A 
ATOM     73  C   UNL A   1      43.718  34.503  33.272  1.00  0.00     0.059 A 
ATOM     74  F   UNL A   1      43.250  32.238  33.653  1.00  0.00    -0.206 F 
ATOM     75  C   UNL A   1      44.144  35.509  32.408  1.00  0.00     0.060 A 
BRANCH  75  76
ATOM     76  S   UNL A   1      44.279  37.216  32.982  1.00  0.00     0.124 S 
ATOM     77  O   UNL A   1      43.236  37.263  34.001  1.00  0.00    -0.237 OA
ATOM     78  O   UNL A   1      45.650  37.272  33.475  1.00  0.00    -0.237 OA
ATOM     79  O   UNL A   1      44.016  38.001  31.778  1.00  0.00    -0.744 OA
ENDBRANCH  75  76
ENDBRANCH  54  68
BRANCH  55  80
ATOM     80  C   UNL A   1      42.671  23.689  27.715  1.00  0.00     0.058 A 
ATOM     81  C   UNL A   1      42.461  22.578  28.546  1.00  0.00     0.135 A 
ATOM     82  C   UNL A   1      42.720  23.469  26.330  1.00  0.00     0.135 A 
ATOM     83  F   UNL A   1      42.412  22.735  29.877  1.00  0.00    -0.206 F 
ATOM     84  C   UNL A   1      42.329  21.294  28.027  1.00  0.00     0.059 A 
ATOM     85  C   UNL A   1      42.565  22.198  25.786  1.00  0.00     0.059 A 
ATOM     86  F   UNL A   1      42.902  24.501  25.491  1.00  0.00    -0.206 F 
ATOM     87  C   UNL A   1      42.385  21.114  26.644  1.00  0.00     0.060 A 
BRANCH  87  88
ATOM     88  S   UNL A   1      42.182  19.447  25.979  1.00  0.00     0.124 S 
ATOM     89  O   UNL A   1      40.740  19.388  25.772  1.00  0.00    -0.237 OA
ATOM     90  O   UNL A   1      43.000  19.494  24.772  1.00  0.00    -0.237 OA
ATOM     91  O   UNL A   1      42.702  18.596  27.046  1.00  0.00    -0.744 OA
ENDBRANCH  87  88
ENDBRANCH  55  80
BRANCH  67  92
ATOM     92  C   UNL A   1      48.067  27.020  30.612  1.00  0.00     0.058 A 
ATOM     93  C   UNL A   1      49.114  27.275  29.712  1.00  0.00     0.135 A 
ATOM     94  C   UNL A   1      48.385  26.405  31.833  1.00  0.00     0.135 A 
ATOM     95  F   UNL A   1      48.862  27.854  28.529  1.00  0.00    -0.206 F 
ATOM     96  C   UNL A   1      50.425  26.914  30.005  1.00  0.00     0.059 A 
ATOM     97  C   UNL A   1      49.692  26.060  32.158  1.00  0.00     0.059 A 
ATOM     98  F   UNL A   1      47.422  26.149  32.733  1.00  0.00    -0.206 F 
ATOM     99  C   UNL A   1      50.705  26.309  31.233  1.00  0.00     0.060 A 
BRANCH  99 100
ATOM    100  S   UNL A   1      52.415  25.878  31.616  1.00  0.00     0.124 S 
ATOM    101  O   UNL A   1      52.756  26.888  32.613  1.00  0.00    -0.237 OA
ATOM    102  O   UNL A   1      52.289  24.512  32.115  1.00  0.00    -0.237 OA
ATOM    103  O   UNL A   1      53.095  26.009  30.332  1.00  0.00    -0.744 OA
ENDBRANCH  99 100
ENDBRANCH  67  92
ENDBRANCH  41  42
ENDBRANCH  33  36
ENDBRANCH  31  32
ENDBRANCH  30  31
ENDBRANCH   1  30
TORSDOF 18
ENDMDL
MODEL 2
REMARK VINA RESULT:     -12.1      3.085      9.212
REMARK SMILES O=C(NCCCCCCNC(=O)c1ccc(-c2c3nc(c(-c4c(F)cc(S(=O)(=O)[O-])cc4F)c4ccc([nH]4)c(-c4c(F)cc(S(=O)(=O)[O-])cc4F)c4nc(c(-c5c(F)cc(S(=O)(=O)[O-])cc5F)c5ccc2[nH]5)C=C4)C=C3)cc1)C1=Cc2cc(Cl)cc(-c3ccccc3)c2O[C@@H]1C(F)(F)F
REMARK SMILES IDX 7 1 6 2 5 3 4 4 3 5 1 6 2 7 79 9 80 10 95 11 81 12 94 13
REMARK SMILES IDX 82 14 93 15 83 16 86 17 84 18 85 19 96 20 97 21 98 22 99 23
REMARK SMILES IDX 87 24 88 25 92 26 89 27 91 28 90 29 8 30 9 31 10 32 11 33
REMARK SMILES IDX 12 35 13 36 14 37 78 38 15 39 77 40 16 41 17 42 18 43 71 44
REMARK SMILES IDX 19 45 76 46 70 47 72 48 20 49 75 50 69 51 68 52 21 54 55 55
REMARK SMILES IDX 34 56 54 57 35 58 38 59 53 60 73 61 36 62 37 63 52 65 74 66
REMARK SMILES IDX 39 67 22 68 23 69 32 70 24 71 25 72 31 73 33 74 26 75 27 76
REMARK SMILES IDX 28 77 29 78 30 79 56 80 57 81 66 82 58 83 59 84 65 85 67 86
REMARK SMILES IDX 60 87 61 88 62 89 63 90 64 91 40 92 41 93 50 94 42 95 43 96
REMARK SMILES IDX 49 97 51 98 44 99 45 100 46 101 47 102 48 103
REMARK H PARENT 3 8 10 34 72 53 38 64
REMARK Flexibility Score: inf
ROOT
ATOM      1  C   UNL A   1      35.024  22.562  26.458  1.00  0.00     0.002 C 
ENDROOT
BRANCH   1   2
ATOM      2  C   UNL A   1      33.547  22.376  26.826  1.00  0.00     0.002 C 
BRANCH   2   3
ATOM      3  C   UNL A   1      32.750  21.366  25.998  1.00  0.00     0.021 C 
BRANCH   3   4
ATOM      4  C   UNL A   1      31.389  21.824  25.480  1.00  0.00     0.116 C 
BRANCH   4   5
ATOM      5  N   UNL A   1      30.797  22.940  26.199  1.00  0.00    -0.352 N 
ATOM      6  O   UNL A   1      29.945  24.988  26.528  1.00  0.00    -0.270 OA
ATOM      7  C   UNL A   1      30.573  24.225  25.791  1.00  0.00     0.251 C 
ATOM      8  H   UNL A   1      30.516  22.740  27.121  1.00  0.00     0.163 HD
BRANCH   7   9
ATOM      9  C   UNL A   1      30.984  24.736  24.447  1.00  0.00     0.067 C 
ATOM     10  C   UNL A   1      30.151  25.417  23.642  1.00  0.00     0.025 C 
ATOM     11  C   UNL A   1      32.451  25.102  24.408  1.00  0.00     0.314 C 
ATOM     12  C   UNL A   1      30.468  26.870  23.619  1.00  0.00     0.019 A 
ATOM     13  O   UNL A   1      32.628  26.513  24.694  1.00  0.00    -0.475 OA
ATOM     14  C   UNL A   1      29.463  27.745  23.199  1.00  0.00     0.032 A 
ATOM     15  C   UNL A   1      31.619  27.357  24.277  1.00  0.00     0.135 A 
ATOM     16  C   UNL A   1      29.566  29.095  23.509  1.00  0.00     0.042 A 
ATOM     17  C   UNL A   1      31.694  28.712  24.655  1.00  0.00     0.026 A 
ATOM     18  Cl  UNL A   1      28.261  30.151  23.137  1.00  0.00    -0.084 Cl
ATOM     19  C   UNL A   1      30.657  29.572  24.234  1.00  0.00     0.033 A 
BRANCH  11  20
ATOM     20  C   UNL A   1      33.128  24.674  23.093  1.00  0.00     0.429 C 
ATOM     21  F   UNL A   1      34.244  25.399  22.847  1.00  0.00    -0.167 F 
ATOM     22  F   UNL A   1      33.511  23.372  23.138  1.00  0.00    -0.167 F 
ATOM     23  F   UNL A   1      32.319  24.806  22.015  1.00  0.00    -0.167 F 
ENDBRANCH  11  20
BRANCH  17  24
ATOM     24  C   UNL A   1      32.677  29.209  25.639  1.00  0.00    -0.015 A 
ATOM     25  C   UNL A   1      32.371  30.364  26.384  1.00  0.00     0.009 A 
ATOM     26  C   UNL A   1      33.903  28.586  25.890  1.00  0.00     0.009 A 
ATOM     27  C   UNL A   1      33.244  30.889  27.336  1.00  0.00     0.001 A 
ATOM     28  C   UNL A   1      34.789  29.112  26.841  1.00  0.00     0.001 A 
ATOM     29  C   UNL A   1      34.460  30.261  27.561  1.00  0.00     0.000 A 
ENDBRANCH  17  24
ENDBRANCH   7   9
ENDBRANCH   4   5
ENDBRANCH   3   4
ENDBRANCH   2   3
ENDBRANCH   1   2
BRANCH   1  30
ATOM     30  C   UNL A   1      35.428  23.925  25.888  1.00  0.00     0.021 C 
BRANCH  30  31
ATOM     31  C   UNL A   1      36.655  23.947  24.987  1.00  0.00     0.116 C 
BRANCH  31  32
ATOM     32  N   UNL A   1      37.587  22.879  25.310  1.00  0.00    -0.352 N 
ATOM     33  C   UNL A   1      38.784  22.907  25.984  1.00  0.00     0.251 C 
ATOM     34  H   UNL A   1      37.314  21.988  24.994  1.00  0.00     0.163 HD
ATOM     35  O   UNL A   1      39.504  21.912  25.947  1.00  0.00    -0.269 OA
BRANCH  33  36
ATOM     36  C   UNL A   1      39.225  24.107  26.739  1.00  0.00     0.039 A 
ATOM     37  C   UNL A   1      40.048  25.041  26.098  1.00  0.00     0.014 A 
ATOM     38  C   UNL A   1      38.898  24.295  28.084  1.00  0.00     0.014 A 
ATOM     39  C   UNL A   1      40.500  26.173  26.786  1.00  0.00     0.010 A 
ATOM     40  C   UNL A   1      39.274  25.465  28.743  1.00  0.00     0.010 A 
ATOM     41  C   UNL A   1      40.095  26.409  28.109  1.00  0.00    -0.014 A 
BRANCH  41  42
ATOM     42  C   UNL A   1      40.545  27.614  28.858  1.00  0.00     0.031 A 
ATOM     43  C   UNL A   1      41.909  27.637  29.501  1.00  0.00     0.074 A 
ATOM     44  C   UNL A   1      39.707  28.658  29.015  1.00  0.00     0.049 A 
ATOM     45  N   UNL A   1      42.450  28.553  30.263  1.00  0.00    -0.248 NA
ATOM     46  C   UNL A   1      42.768  26.462  29.281  1.00  0.00     0.031 C 
ATOM     47  C   UNL A   1      38.345  28.741  28.482  1.00  0.00     0.029 A 
ATOM     48  N   UNL A   1      39.872  29.849  29.680  1.00  0.00    -0.354 N 
ATOM     49  C   UNL A   1      43.692  28.052  30.639  1.00  0.00     0.074 A 
ATOM     50  C   UNL A   1      43.809  26.734  30.056  1.00  0.00     0.031 C 
ATOM     51  C   UNL A   1      37.811  29.926  28.816  1.00  0.00     0.029 A 
ATOM     52  C   UNL A   1      38.773  30.673  29.620  1.00  0.00     0.049 A 
ATOM     53  H   UNL A   1      40.701  30.090  30.154  1.00  0.00     0.167 HD
ATOM     54  C   UNL A   1      44.656  28.645  31.383  1.00  0.00     0.037 A 
ATOM     55  C   UNL A   1      38.561  31.891  30.157  1.00  0.00     0.037 A 
ATOM     56  C   UNL A   1      44.554  29.979  31.916  1.00  0.00     0.049 A 
ATOM     57  C   UNL A   1      39.656  32.536  30.965  1.00  0.00     0.074 A 
ATOM     58  C   UNL A   1      45.509  30.703  32.609  1.00  0.00     0.029 A 
ATOM     59  N   UNL A   1      43.435  30.790  31.811  1.00  0.00    -0.354 N 
ATOM     60  N   UNL A   1      40.850  32.074  31.252  1.00  0.00    -0.248 NA
ATOM     61  C   UNL A   1      39.377  33.867  31.521  1.00  0.00     0.031 C 
ATOM     62  C   UNL A   1      44.951  31.936  32.960  1.00  0.00     0.029 A 
ATOM     63  C   UNL A   1      43.666  31.999  32.446  1.00  0.00     0.049 A 
ATOM     64  H   UNL A   1      42.599  30.544  31.353  1.00  0.00     0.167 HD
ATOM     65  C   UNL A   1      41.475  33.071  31.992  1.00  0.00     0.074 A 
ATOM     66  C   UNL A   1      40.531  34.164  32.102  1.00  0.00     0.031 C 
ATOM     67  C   UNL A   1      42.719  33.082  32.532  1.00  0.00     0.037 A 
BRANCH  54  68
ATOM     68  C   UNL A   1      45.911  27.863  31.664  1.00  0.00     0.058 A 
ATOM     69  C   UNL A   1      46.036  27.046  32.799  1.00  0.00     0.135 A 
ATOM     70  C   UNL A   1      46.985  27.892  30.759  1.00  0.00     0.135 A 
ATOM     71  F   UNL A   1      45.047  26.991  33.704  1.00  0.00    -0.206 F 
ATOM     72  C   UNL A   1      47.189  26.305  33.040  1.00  0.00     0.059 A 
ATOM     73  C   UNL A   1      48.137  27.138  30.966  1.00  0.00     0.059 A 
ATOM     74  F   UNL A   1      46.920  28.656  29.657  1.00  0.00    -0.206 F 
ATOM     75  C   UNL A   1      48.234  26.357  32.116  1.00  0.00     0.060 A 
BRANCH  75  76
ATOM     76  S   UNL A   1      49.716  25.376  32.436  1.00  0.00     0.124 S 
ATOM     77  O   UNL A   1      50.040  24.894  31.097  1.00  0.00    -0.237 OA
ATOM     78  O   UNL A   1      50.631  26.365  32.992  1.00  0.00    -0.237 OA
ATOM     79  O   UNL A   1      49.252  24.357  33.374  1.00  0.00    -0.744 OA
ENDBRANCH  75  76
ENDBRANCH  54  68
BRANCH  55  80
ATOM     80  C   UNL A   1      37.272  32.598  29.929  1.00  0.00     0.058 A 
ATOM     81  C   UNL A   1      37.168  33.606  28.958  1.00  0.00     0.135 A 
ATOM     82  C   UNL A   1      36.123  32.287  30.673  1.00  0.00     0.135 A 
ATOM     83  F   UNL A   1      38.239  33.942  28.224  1.00  0.00    -0.206 F 
ATOM     84  C   UNL A   1      35.980  34.297  28.748  1.00  0.00     0.059 A 
ATOM     85  C   UNL A   1      34.916  32.948  30.464  1.00  0.00     0.059 A 
ATOM     86  F   UNL A   1      36.164  31.320  31.603  1.00  0.00    -0.206 F 
ATOM     87  C   UNL A   1      34.858  33.962  29.509  1.00  0.00     0.060 A 
BRANCH  87  88
ATOM     88  S   UNL A   1      33.312  34.846  29.207  1.00  0.00     0.124 S 
ATOM     89  O   UNL A   1      32.662  33.975  28.235  1.00  0.00    -0.237 OA
ATOM     90  O   UNL A   1      32.712  34.881  30.538  1.00  0.00    -0.237 OA
ATOM     91  O   UNL A   1      33.760  36.139  28.697  1.00  0.00    -0.744 OA
ENDBRANCH  87  88
ENDBRANCH  55  80
BRANCH  67  92
ATOM     92  C   UNL A   1      43.150  34.328  33.254  1.00  0.00     0.058 A 
ATOM     93  C   UNL A   1      43.721  35.414  32.573  1.00  0.00     0.135 A 
ATOM     94  C   UNL A   1      42.940  34.455  34.636  1.00  0.00     0.135 A 
ATOM     95  F   UNL A   1      43.950  35.340  31.253  1.00  0.00    -0.206 F 
ATOM     96  C   UNL A   1      44.089  36.577  33.243  1.00  0.00     0.059 A 
ATOM     97  C   UNL A   1      43.275  35.619  35.321  1.00  0.00     0.059 A 
ATOM     98  F   UNL A   1      42.387  33.449  35.332  1.00  0.00    -0.206 F 
ATOM     99  C   UNL A   1      43.859  36.671  34.617  1.00  0.00     0.060 A 
BRANCH  99 100
ATOM    100  S   UNL A   1      44.307  38.197  35.468  1.00  0.00     0.124 S 
ATOM    101  O   UNL A   1      43.655  39.201  34.634  1.00  0.00    -0.237 OA
ATOM    102  O   UNL A   1      43.727  37.999  36.793  1.00  0.00    -0.237 OA
ATOM    103  O   UNL A   1      45.766  38.196  35.424  1.00  0.00    -0.744 OA
ENDBRANCH  99 100
ENDBRANCH  67  92
ENDBRANCH  41  42
ENDBRANCH  33  36
ENDBRANCH  31  32
ENDBRANCH  30  31
ENDBRANCH   1  30
TORSDOF 18
ENDMDL
MODEL 3
REMARK VINA RESULT:     -11.8      4.860     10.494
REMARK SMILES O=C(NCCCCCCNC(=O)c1ccc(-c2c3nc(c(-c4c(F)cc(S(=O)(=O)[O-])cc4F)c4ccc([nH]4)c(-c4c(F)cc(S(=O)(=O)[O-])cc4F)c4nc(c(-c5c(F)cc(S(=O)(=O)[O-])cc5F)c5ccc2[nH]5)C=C4)C=C3)cc1)C1=Cc2cc(Cl)cc(-c3ccccc3)c2O[C@@H]1C(F)(F)F
REMARK SMILES IDX 7 1 6 2 5 3 4 4 3 5 1 6 2 7 79 9 80 10 95 11 81 12 94 13
REMARK SMILES IDX 82 14 93 15 83 16 86 17 84 18 85 19 96 20 97 21 98 22 99 23
REMARK SMILES IDX 87 24 88 25 92 26 89 27 91 28 90 29 8 30 9 31 10 32 11 33
REMARK SMILES IDX 12 35 13 36 14 37 78 38 15 39 77 40 16 41 17 42 18 43 71 44
REMARK SMILES IDX 19 45 76 46 70 47 72 48 20 49 75 50 69 51 68 52 21 54 55 55
REMARK SMILES IDX 34 56 54 57 35 58 38 59 53 60 73 61 36 62 37 63 52 65 74 66
REMARK SMILES IDX 39 67 22 68 23 69 32 70 24 71 25 72 31 73 33 74 26 75 27 76
REMARK SMILES IDX 28 77 29 78 30 79 56 80 57 81 66 82 58 83 59 84 65 85 67 86
REMARK SMILES IDX 60 87 61 88 62 89 63 90 64 91 40 92 41 93 50 94 42 95 43 96
REMARK SMILES IDX 49 97 51 98 44 99 45 100 46 101 47 102 48 103
REMARK H PARENT 3 8 10 34 72 53 38 64
REMARK Flexibility Score: inf
ROOT
ATOM      1  C   UNL A   1      35.861  23.845  25.494  1.00  0.00     0.002 C 
ENDROOT
BRANCH   1   2
ATOM      2  C   UNL A   1      34.868  22.840  24.897  1.00  0.00     0.002 C 
BRANCH   2   3
ATOM      3  C   UNL A   1      34.707  22.847  23.376  1.00  0.00     0.021 C 
BRANCH   3   4
ATOM      4  C   UNL A   1      33.517  23.621  22.814  1.00  0.00     0.116 C 
BRANCH   4   5
ATOM      5  N   UNL A   1      33.791  25.005  22.463  1.00  0.00    -0.352 N 
ATOM      6  O   UNL A   1      34.021  27.218  22.743  1.00  0.00    -0.270 OA
ATOM      7  C   UNL A   1      33.609  26.147  23.192  1.00  0.00     0.251 C 
ATOM      8  H   UNL A   1      34.165  25.140  21.562  1.00  0.00     0.163 HD
BRANCH   7   9
ATOM      9  C   UNL A   1      32.998  26.151  24.558  1.00  0.00     0.067 C 
ATOM     10  C   UNL A   1      33.582  26.745  25.613  1.00  0.00     0.025 C 
ATOM     11  C   UNL A   1      31.488  26.154  24.500  1.00  0.00     0.314 C 
ATOM     12  C   UNL A   1      32.911  28.023  25.969  1.00  0.00     0.019 A 
ATOM     13  O   UNL A   1      30.981  27.512  24.569  1.00  0.00    -0.475 OA
ATOM     14  C   UNL A   1      33.637  28.946  26.728  1.00  0.00     0.032 A 
ATOM     15  C   UNL A   1      31.719  28.407  25.317  1.00  0.00     0.135 A 
ATOM     16  C   UNL A   1      33.219  30.269  26.768  1.00  0.00     0.042 A 
ATOM     17  C   UNL A   1      31.330  29.761  25.297  1.00  0.00     0.026 A 
ATOM     18  Cl  UNL A   1      34.192  31.441  27.566  1.00  0.00    -0.084 Cl
ATOM     19  C   UNL A   1      32.090  30.676  26.056  1.00  0.00     0.033 A 
BRANCH  11  20
ATOM     20  C   UNL A   1      30.857  25.232  25.561  1.00  0.00     0.429 C 
ATOM     21  F   UNL A   1      31.294  25.532  26.806  1.00  0.00    -0.167 F 
ATOM     22  F   UNL A   1      29.506  25.358  25.581  1.00  0.00    -0.167 F 
ATOM     23  F   UNL A   1      31.125  23.922  25.347  1.00  0.00    -0.167 F 
ENDBRANCH  11  20
BRANCH  17  24
ATOM     24  C   UNL A   1      30.318  30.284  24.356  1.00  0.00    -0.015 A 
ATOM     25  C   UNL A   1      29.965  29.509  23.235  1.00  0.00     0.009 A 
ATOM     26  C   UNL A   1      29.668  31.509  24.523  1.00  0.00     0.009 A 
ATOM     27  C   UNL A   1      29.014  29.931  22.308  1.00  0.00     0.001 A 
ATOM     28  C   UNL A   1      28.714  31.943  23.592  1.00  0.00     0.001 A 
ATOM     29  C   UNL A   1      28.389  31.156  22.487  1.00  0.00     0.000 A 
ENDBRANCH  17  24
ENDBRANCH   7   9
ENDBRANCH   4   5
ENDBRANCH   3   4
ENDBRANCH   2   3
ENDBRANCH   1   2
BRANCH   1  30
ATOM     30  C   UNL A   1      37.315  23.384  25.628  1.00  0.00     0.021 C 
BRANCH  30  31
ATOM     31  C   UNL A   1      38.217  24.230  26.514  1.00  0.00     0.116 C 
BRANCH  31  32
ATOM     32  N   UNL A   1      39.620  24.069  26.174  1.00  0.00    -0.352 N 
ATOM     33  C   UNL A   1      40.723  24.803  26.541  1.00  0.00     0.251 C 
ATOM     34  H   UNL A   1      39.813  23.306  25.583  1.00  0.00     0.163 HD
ATOM     35  O   UNL A   1      41.784  24.606  25.954  1.00  0.00    -0.269 OA
BRANCH  33  36
ATOM     36  C   UNL A   1      40.654  25.826  27.615  1.00  0.00     0.039 A 
ATOM     37  C   UNL A   1      39.692  25.681  28.622  1.00  0.00     0.014 A 
ATOM     38  C   UNL A   1      41.474  26.957  27.611  1.00  0.00     0.014 A 
ATOM     39  C   UNL A   1      39.585  26.637  29.638  1.00  0.00     0.010 A 
ATOM     40  C   UNL A   1      41.428  27.863  28.671  1.00  0.00     0.010 A 
ATOM     41  C   UNL A   1      40.471  27.726  29.686  1.00  0.00    -0.014 A 
BRANCH  41  42
ATOM     42  C   UNL A   1      40.392  28.747  30.766  1.00  0.00     0.031 A 
ATOM     43  C   UNL A   1      41.292  28.640  31.972  1.00  0.00     0.074 A 
ATOM     44  C   UNL A   1      39.471  29.729  30.696  1.00  0.00     0.049 A 
ATOM     45  N   UNL A   1      41.318  29.376  33.054  1.00  0.00    -0.248 NA
ATOM     46  C   UNL A   1      42.274  27.544  31.975  1.00  0.00     0.031 C 
ATOM     47  C   UNL A   1      38.512  29.915  29.605  1.00  0.00     0.029 A 
ATOM     48  N   UNL A   1      39.183  30.752  31.566  1.00  0.00    -0.354 N 
ATOM     49  C   UNL A   1      42.289  28.814  33.875  1.00  0.00     0.074 A 
ATOM     50  C   UNL A   1      42.802  27.651  33.186  1.00  0.00     0.031 C 
ATOM     51  C   UNL A   1      37.761  31.000  29.857  1.00  0.00     0.029 A 
ATOM     52  C   UNL A   1      38.156  31.564  31.143  1.00  0.00     0.049 A 
ATOM     53  H   UNL A   1      39.666  30.891  32.412  1.00  0.00     0.167 HD
ATOM     54  C   UNL A   1      42.729  29.241  35.083  1.00  0.00     0.037 A 
ATOM     55  C   UNL A   1      37.591  32.639  31.730  1.00  0.00     0.037 A 
ATOM     56  C   UNL A   1      42.251  30.430  35.738  1.00  0.00     0.049 A 
ATOM     57  C   UNL A   1      38.112  33.103  33.064  1.00  0.00     0.074 A 
ATOM     58  C   UNL A   1      42.693  30.996  36.922  1.00  0.00     0.029 A 
ATOM     59  N   UNL A   1      41.229  31.239  35.266  1.00  0.00    -0.354 N 
ATOM     60  N   UNL A   1      39.078  32.597  33.793  1.00  0.00    -0.248 NA
ATOM     61  C   UNL A   1      37.468  34.284  33.655  1.00  0.00     0.031 C 
ATOM     62  C   UNL A   1      41.909  32.123  37.187  1.00  0.00     0.029 A 
ATOM     63  C   UNL A   1      41.010  32.286  36.145  1.00  0.00     0.049 A 
ATOM     64  H   UNL A   1      40.733  31.090  34.430  1.00  0.00     0.167 HD
ATOM     65  C   UNL A   1      39.179  33.418  34.911  1.00  0.00     0.074 A 
ATOM     66  C   UNL A   1      38.183  34.457  34.758  1.00  0.00     0.031 C 
ATOM     67  C   UNL A   1      40.022  33.321  35.969  1.00  0.00     0.037 A 
BRANCH  54  68
ATOM     68  C   UNL A   1      43.786  28.424  35.777  1.00  0.00     0.058 A 
ATOM     69  C   UNL A   1      45.155  28.643  35.557  1.00  0.00     0.135 A 
ATOM     70  C   UNL A   1      43.424  27.442  36.714  1.00  0.00     0.135 A 
ATOM     71  F   UNL A   1      45.557  29.558  34.662  1.00  0.00    -0.206 F 
ATOM     72  C   UNL A   1      46.127  27.902  36.222  1.00  0.00     0.059 A 
ATOM     73  C   UNL A   1      44.380  26.708  37.411  1.00  0.00     0.059 A 
ATOM     74  F   UNL A   1      42.130  27.190  36.964  1.00  0.00    -0.206 F 
ATOM     75  C   UNL A   1      45.729  26.937  37.149  1.00  0.00     0.060 A 
BRANCH  75  76
ATOM     76  S   UNL A   1      47.004  25.996  38.015  1.00  0.00     0.124 S 
ATOM     77  O   UNL A   1      46.349  25.723  39.289  1.00  0.00    -0.237 OA
ATOM     78  O   UNL A   1      47.193  24.846  37.139  1.00  0.00    -0.237 OA
ATOM     79  O   UNL A   1      48.129  26.926  38.075  1.00  0.00    -0.744 OA
ENDBRANCH  75  76
ENDBRANCH  54  68
BRANCH  55  80
ATOM     80  C   UNL A   1      36.488  33.370  31.051  1.00  0.00     0.058 A 
ATOM     81  C   UNL A   1      35.174  33.299  31.539  1.00  0.00     0.135 A 
ATOM     82  C   UNL A   1      36.718  34.148  29.906  1.00  0.00     0.135 A 
ATOM     83  F   UNL A   1      34.902  32.565  32.629  1.00  0.00    -0.206 F 
ATOM     84  C   UNL A   1      34.123  33.953  30.904  1.00  0.00     0.059 A 
ATOM     85  C   UNL A   1      35.687  34.831  29.267  1.00  0.00     0.059 A 
ATOM     86  F   UNL A   1      37.959  34.261  29.408  1.00  0.00    -0.206 F 
ATOM     87  C   UNL A   1      34.390  34.715  29.765  1.00  0.00     0.060 A 
BRANCH  87  88
ATOM     88  S   UNL A   1      33.024  35.584  28.966  1.00  0.00     0.124 S 
ATOM     89  O   UNL A   1      32.394  34.507  28.211  1.00  0.00    -0.237 OA
ATOM     90  O   UNL A   1      32.270  36.092  30.108  1.00  0.00    -0.237 OA
ATOM     91  O   UNL A   1      33.698  36.605  28.167  1.00  0.00    -0.744 OA
ENDBRANCH  87  88
ENDBRANCH  55  80
BRANCH  67  92
ATOM     92  C   UNL A   1      39.935  34.387  37.024  1.00  0.00     0.058 A 
ATOM     93  C   UNL A   1      39.055  34.279  38.111  1.00  0.00     0.135 A 
ATOM     94  C   UNL A   1      40.783  35.505  36.973  1.00  0.00     0.135 A 
ATOM     95  F   UNL A   1      38.219  33.234  38.202  1.00  0.00    -0.206 F 
ATOM     96  C   UNL A   1      39.002  35.255  39.101  1.00  0.00     0.059 A 
ATOM     97  C   UNL A   1      40.766  36.480  37.966  1.00  0.00     0.059 A 
ATOM     98  F   UNL A   1      41.652  35.651  35.960  1.00  0.00    -0.206 F 
ATOM     99  C   UNL A   1      39.864  36.351  39.021  1.00  0.00     0.060 A 
BRANCH  99 100
ATOM    100  S   UNL A   1      39.812  37.592  40.330  1.00  0.00     0.124 S 
ATOM    101  O   UNL A   1      40.669  38.637  39.780  1.00  0.00    -0.237 OA
ATOM    102  O   UNL A   1      38.389  37.911  40.402  1.00  0.00    -0.237 OA
ATOM    103  O   UNL A   1      40.348  36.886  41.489  1.00  0.00    -0.744 OA
ENDBRANCH  99 100
ENDBRANCH  67  92
ENDBRANCH  41  42
ENDBRANCH  33  36
ENDBRANCH  31  32
ENDBRANCH  30  31
ENDBRANCH   1  30
TORSDOF 18
ENDMDL
