MODEL 1
REMARK VINA RESULT:     -12.0      0.000      0.000
REMARK SMILES O=C(CSc1ccc(NC(=O)c2cccc3ccccc23)cc1)NCCCCCCNC(=O)c1ccc(-c2c3nc(c(-c4c(F)cc(S(=O)(=O)[O-])cc4F)c4ccc([nH]4)c(-c4c(F)cc(S(=O)(=O)[O-])cc4F)c4nc(c(-c5c(F)cc(S(=O)(=O)[O-])cc5F)c5ccc2[nH]5)C=C4)C=C3)cc1
REMARK SMILES IDX 27 1 26 2 25 3 24 4 1 5 2 6 3 8 4 9 5 10 6 11 23 12 7 13
REMARK SMILES IDX 22 14 8 15 9 16 10 17 11 19 12 20 13 21 21 22 14 23 16 24
REMARK SMILES IDX 20 25 15 26 17 27 19 28 18 29 28 30 29 31 30 32 31 33 32 34
REMARK SMILES IDX 33 36 34 37 35 38 99 39 36 40 98 41 37 42 38 43 39 44 92 45
REMARK SMILES IDX 40 46 97 47 91 48 93 49 41 50 96 51 90 52 89 53 42 55 76 56
REMARK SMILES IDX 55 57 75 58 56 59 59 60 74 61 94 62 57 63 58 64 73 66 95 67
REMARK SMILES IDX 60 68 43 69 44 70 53 71 45 72 46 73 52 74 54 75 47 76 48 77
REMARK SMILES IDX 49 78 50 79 51 80 77 81 78 82 87 83 79 84 80 85 86 86 88 87
REMARK SMILES IDX 81 88 82 89 83 90 84 91 85 92 61 93 62 94 71 95 63 96 64 97
REMARK SMILES IDX 70 98 72 99 65 100 66 101 67 102 68 103 69 104
REMARK H PARENT 24 7 9 18 31 35 93 54 59 65
REMARK Flexibility Score: inf
ROOT
ATOM      1  C   UNL A   1      39.506  21.731  26.162  1.00  0.00     0.002 C 
ENDROOT
BRANCH   1   2
ATOM      2  C   UNL A   1      38.862  23.080  26.511  1.00  0.00     0.021 C 
BRANCH   2   3
ATOM      3  C   UNL A   1      37.607  23.414  25.702  1.00  0.00     0.116 C 
BRANCH   3   4
ATOM      4  N   UNL A   1      36.417  22.855  26.314  1.00  0.00    -0.355 N 
ATOM      5  O   UNL A   1      36.318  20.962  25.029  1.00  0.00    -0.274 OA
ATOM      6  C   UNL A   1      35.851  21.665  25.924  1.00  0.00     0.230 C 
ATOM      7  H   UNL A   1      35.990  23.357  27.046  1.00  0.00     0.163 HD
BRANCH   6   8
ATOM      8  C   UNL A   1      34.514  21.330  26.571  1.00  0.00     0.174 C 
BRANCH   8   9
ATOM      9  S   UNL A   1      33.303  20.579  25.423  1.00  0.00    -0.116 SA
BRANCH   9  10
ATOM     10  C   UNL A   1      32.433  22.040  24.893  1.00  0.00     0.008 A 
ATOM     11  C   UNL A   1      32.047  22.214  23.561  1.00  0.00     0.017 A 
ATOM     12  C   UNL A   1      32.121  23.027  25.826  1.00  0.00     0.017 A 
ATOM     13  C   UNL A   1      31.256  23.305  23.187  1.00  0.00     0.027 A 
ATOM     14  C   UNL A   1      31.318  24.106  25.454  1.00  0.00     0.027 A 
ATOM     15  C   UNL A   1      30.810  24.201  24.152  1.00  0.00     0.041 A 
BRANCH  15  16
ATOM     16  N   UNL A   1      29.818  25.165  23.946  1.00  0.00    -0.322 N 
ATOM     17  C   UNL A   1      29.811  26.536  23.876  1.00  0.00     0.256 C 
ATOM     18  H   UNL A   1      28.923  24.773  23.824  1.00  0.00     0.170 HD
ATOM     19  O   UNL A   1      28.711  27.086  23.752  1.00  0.00    -0.269 OA
BRANCH  17  20
ATOM     20  C   UNL A   1      31.000  27.423  23.938  1.00  0.00     0.048 A 
ATOM     21  C   UNL A   1      31.526  27.735  22.669  1.00  0.00     0.014 A 
ATOM     22  C   UNL A   1      31.685  27.833  25.122  1.00  0.00    -0.006 A 
ATOM     23  C   UNL A   1      32.723  28.427  22.541  1.00  0.00     0.001 A 
ATOM     24  C   UNL A   1      32.904  28.548  24.963  1.00  0.00    -0.018 A 
ATOM     25  C   UNL A   1      31.257  27.602  26.454  1.00  0.00     0.009 A 
ATOM     26  C   UNL A   1      33.414  28.813  23.682  1.00  0.00     0.009 A 
ATOM     27  C   UNL A   1      33.616  29.007  26.082  1.00  0.00     0.009 A 
ATOM     28  C   UNL A   1      31.928  28.147  27.552  1.00  0.00     0.001 A 
ATOM     29  C   UNL A   1      33.112  28.843  27.368  1.00  0.00     0.001 A 
ENDBRANCH  17  20
ENDBRANCH  15  16
ENDBRANCH   9  10
ENDBRANCH   8   9
ENDBRANCH   6   8
ENDBRANCH   3   4
ENDBRANCH   2   3
ENDBRANCH   1   2
BRANCH   1  30
ATOM     30  C   UNL A   1      40.988  21.599  26.525  1.00  0.00     0.002 C 
BRANCH  30  31
ATOM     31  C   UNL A   1      41.390  22.236  27.856  1.00  0.00     0.021 C 
BRANCH  31  32
ATOM     32  C   UNL A   1      42.439  23.338  27.748  1.00  0.00     0.116 C 
BRANCH  32  33
ATOM     33  N   UNL A   1      42.391  24.027  26.467  1.00  0.00    -0.352 N 
ATOM     34  C   UNL A   1      41.944  25.296  26.179  1.00  0.00     0.251 C 
ATOM     35  H   UNL A   1      42.725  23.512  25.698  1.00  0.00     0.163 HD
ATOM     36  O   UNL A   1      41.813  25.654  25.017  1.00  0.00    -0.269 OA
BRANCH  34  37
ATOM     37  C   UNL A   1      41.599  26.215  27.288  1.00  0.00     0.039 A 
ATOM     38  C   UNL A   1      40.502  25.917  28.101  1.00  0.00     0.014 A 
ATOM     39  C   UNL A   1      42.367  27.357  27.534  1.00  0.00     0.014 A 
ATOM     40  C   UNL A   1      40.219  26.727  29.205  1.00  0.00     0.010 A 
ATOM     41  C   UNL A   1      42.129  28.117  28.676  1.00  0.00     0.010 A 
ATOM     42  C   UNL A   1      41.054  27.810  29.525  1.00  0.00    -0.014 A 
BRANCH  42  43
ATOM     43  C   UNL A   1      40.830  28.635  30.743  1.00  0.00     0.031 A 
ATOM     44  C   UNL A   1      39.735  29.670  30.758  1.00  0.00     0.074 A 
ATOM     45  C   UNL A   1      41.661  28.512  31.798  1.00  0.00     0.049 A 
ATOM     46  N   UNL A   1      39.453  30.558  31.674  1.00  0.00    -0.248 NA
ATOM     47  C   UNL A   1      38.858  29.731  29.577  1.00  0.00     0.031 C 
ATOM     48  C   UNL A   1      42.783  27.573  31.891  1.00  0.00     0.029 A 
ATOM     49  N   UNL A   1      41.705  29.192  32.991  1.00  0.00    -0.354 N 
ATOM     50  C   UNL A   1      38.390  31.299  31.172  1.00  0.00     0.074 A 
ATOM     51  C   UNL A   1      38.098  30.781  29.854  1.00  0.00     0.031 C 
ATOM     52  C   UNL A   1      43.393  27.727  33.077  1.00  0.00     0.029 A 
ATOM     53  C   UNL A   1      42.740  28.806  33.813  1.00  0.00     0.049 A 
ATOM     54  H   UNL A   1      41.056  29.891  33.236  1.00  0.00     0.167 HD
ATOM     55  C   UNL A   1      37.711  32.311  31.763  1.00  0.00     0.037 A 
ATOM     56  C   UNL A   1      43.132  29.280  35.013  1.00  0.00     0.037 A 
ATOM     57  C   UNL A   1      37.980  32.792  33.093  1.00  0.00     0.049 A 
ATOM     58  C   UNL A   1      42.359  30.413  35.641  1.00  0.00     0.074 A 
ATOM     59  C   UNL A   1      37.290  33.753  33.810  1.00  0.00     0.029 A 
ATOM     60  N   UNL A   1      39.019  32.358  33.901  1.00  0.00    -0.354 N 
ATOM     61  N   UNL A   1      41.304  31.045  35.184  1.00  0.00    -0.248 NA
ATOM     62  C   UNL A   1      42.828  30.898  36.947  1.00  0.00     0.031 C 
ATOM     63  C   UNL A   1      37.947  33.945  35.027  1.00  0.00     0.029 A 
ATOM     64  C   UNL A   1      39.007  33.056  35.098  1.00  0.00     0.049 A 
ATOM     65  H   UNL A   1      39.668  31.658  33.661  1.00  0.00     0.167 HD
ATOM     66  C   UNL A   1      40.959  31.968  36.166  1.00  0.00     0.074 A 
ATOM     67  C   UNL A   1      41.912  31.810  37.243  1.00  0.00     0.031 C 
ATOM     68  C   UNL A   1      39.944  32.866  36.176  1.00  0.00     0.037 A 
BRANCH  55  69
ATOM     69  C   UNL A   1      36.607  32.979  30.990  1.00  0.00     0.058 A 
ATOM     70  C   UNL A   1      35.256  32.790  31.315  1.00  0.00     0.135 A 
ATOM     71  C   UNL A   1      36.915  33.899  29.974  1.00  0.00     0.135 A 
ATOM     72  F   UNL A   1      34.905  31.909  32.265  1.00  0.00    -0.206 F 
ATOM     73  C   UNL A   1      34.247  33.487  30.657  1.00  0.00     0.059 A 
ATOM     74  C   UNL A   1      35.924  34.628  29.323  1.00  0.00     0.059 A 
ATOM     75  F   UNL A   1      38.192  34.115  29.621  1.00  0.00    -0.206 F 
ATOM     76  C   UNL A   1      34.592  34.412  29.670  1.00  0.00     0.060 A 
BRANCH  76  77
ATOM     77  S   UNL A   1      33.273  35.348  28.869  1.00  0.00     0.124 S 
ATOM     78  O   UNL A   1      34.034  36.338  28.113  1.00  0.00    -0.237 OA
ATOM     79  O   UNL A   1      32.603  34.323  28.076  1.00  0.00    -0.237 OA
ATOM     80  O   UNL A   1      32.500  35.874  29.990  1.00  0.00    -0.744 OA
ENDBRANCH  76  77
ENDBRANCH  55  69
BRANCH  56  81
ATOM     81  C   UNL A   1      44.313  28.700  35.712  1.00  0.00     0.058 A 
ATOM     82  C   UNL A   1      44.160  27.675  36.659  1.00  0.00     0.135 A 
ATOM     83  C   UNL A   1      45.609  29.188  35.486  1.00  0.00     0.135 A 
ATOM     84  F   UNL A   1      42.942  27.176  36.916  1.00  0.00    -0.206 F 
ATOM     85  C   UNL A   1      45.241  27.187  37.388  1.00  0.00     0.059 A 
ATOM     86  C   UNL A   1      46.710  28.693  36.178  1.00  0.00     0.059 A 
ATOM     87  F   UNL A   1      45.816  30.155  34.578  1.00  0.00    -0.206 F 
ATOM     88  C   UNL A   1      46.511  27.708  37.144  1.00  0.00     0.060 A 
BRANCH  88  89
ATOM     89  S   UNL A   1      47.906  27.073  38.101  1.00  0.00     0.124 S 
ATOM     90  O   UNL A   1      48.786  28.236  38.139  1.00  0.00    -0.237 OA
ATOM     91  O   UNL A   1      47.271  26.709  39.363  1.00  0.00    -0.237 OA
ATOM     92  O   UNL A   1      48.379  25.950  37.297  1.00  0.00    -0.744 OA
ENDBRANCH  88  89
ENDBRANCH  56  81
BRANCH  68  93
ATOM     93  C   UNL A   1      39.760  33.707  37.410  1.00  0.00     0.058 A 
ATOM     94  C   UNL A   1      40.405  34.942  37.571  1.00  0.00     0.135 A 
ATOM     95  C   UNL A   1      38.863  33.299  38.412  1.00  0.00     0.135 A 
ATOM     96  F   UNL A   1      41.277  35.376  36.647  1.00  0.00    -0.206 F 
ATOM     97  C   UNL A   1      40.180  35.736  38.691  1.00  0.00     0.059 A 
ATOM     98  C   UNL A   1      38.599  34.092  39.525  1.00  0.00     0.059 A 
ATOM     99  F   UNL A   1      38.212  32.130  38.303  1.00  0.00    -0.206 F 
ATOM    100  C   UNL A   1      39.271  35.306  39.659  1.00  0.00     0.060 A 
BRANCH 100 101
ATOM    101  S   UNL A   1      38.949  36.373  41.079  1.00  0.00     0.124 S 
ATOM    102  O   UNL A   1      37.859  35.662  41.741  1.00  0.00    -0.237 OA
ATOM    103  O   UNL A   1      40.231  36.359  41.776  1.00  0.00    -0.237 OA
ATOM    104  O   UNL A   1      38.586  37.650  40.471  1.00  0.00    -0.744 OA
ENDBRANCH 100 101
ENDBRANCH  68  93
ENDBRANCH  42  43
ENDBRANCH  34  37
ENDBRANCH  32  33
ENDBRANCH  31  32
ENDBRANCH  30  31
ENDBRANCH   1  30
TORSDOF 20
ENDMDL
MODEL 2
REMARK VINA RESULT:     -11.9      0.576      8.057
REMARK SMILES O=C(CSc1ccc(NC(=O)c2cccc3ccccc23)cc1)NCCCCCCNC(=O)c1ccc(-c2c3nc(c(-c4c(F)cc(S(=O)(=O)[O-])cc4F)c4ccc([nH]4)c(-c4c(F)cc(S(=O)(=O)[O-])cc4F)c4nc(c(-c5c(F)cc(S(=O)(=O)[O-])cc5F)c5ccc2[nH]5)C=C4)C=C3)cc1
REMARK SMILES IDX 27 1 26 2 25 3 24 4 1 5 2 6 3 8 4 9 5 10 6 11 23 12 7 13
REMARK SMILES IDX 22 14 8 15 9 16 10 17 11 19 12 20 13 21 21 22 14 23 16 24
REMARK SMILES IDX 20 25 15 26 17 27 19 28 18 29 28 30 29 31 30 32 31 33 32 34
REMARK SMILES IDX 33 36 34 37 35 38 99 39 36 40 98 41 37 42 38 43 39 44 92 45
REMARK SMILES IDX 40 46 97 47 91 48 93 49 41 50 96 51 90 52 89 53 42 55 76 56
REMARK SMILES IDX 55 57 75 58 56 59 59 60 74 61 94 62 57 63 58 64 73 66 95 67
REMARK SMILES IDX 60 68 43 69 44 70 53 71 45 72 46 73 52 74 54 75 47 76 48 77
REMARK SMILES IDX 49 78 50 79 51 80 77 81 78 82 87 83 79 84 80 85 86 86 88 87
REMARK SMILES IDX 81 88 82 89 83 90 84 91 85 92 61 93 62 94 71 95 63 96 64 97
REMARK SMILES IDX 70 98 72 99 65 100 66 101 67 102 68 103 69 104
REMARK H PARENT 24 7 9 18 31 35 93 54 59 65
REMARK Flexibility Score: inf
ROOT
ATOM      1  C   UNL A   1      40.640  21.841  27.460  1.00  0.00     0.002 C 
ENDROOT
BRANCH   1   2
ATOM      2  C   UNL A   1      39.645  21.865  26.291  1.00  0.00     0.021 C 
BRANCH   2   3
ATOM      3  C   UNL A   1      38.817  23.148  26.187  1.00  0.00     0.116 C 
BRANCH   3   4
ATOM      4  N   UNL A   1      37.412  22.895  26.436  1.00  0.00    -0.355 N 
ATOM      5  O   UNL A   1      36.999  21.743  24.500  1.00  0.00    -0.274 OA
ATOM      6  C   UNL A   1      36.597  22.212  25.564  1.00  0.00     0.230 C 
ATOM      7  H   UNL A   1      37.019  23.232  27.273  1.00  0.00     0.163 HD
BRANCH   6   8
ATOM      8  C   UNL A   1      35.118  22.194  25.923  1.00  0.00     0.174 C 
BRANCH   8   9
ATOM      9  S   UNL A   1      34.103  21.132  24.831  1.00  0.00    -0.116 SA
BRANCH   9  10
ATOM     10  C   UNL A   1      32.695  22.194  24.590  1.00  0.00     0.008 A 
ATOM     11  C   UNL A   1      32.063  22.822  25.667  1.00  0.00     0.017 A 
ATOM     12  C   UNL A   1      32.216  22.414  23.299  1.00  0.00     0.017 A 
ATOM     13  C   UNL A   1      31.040  23.750  25.448  1.00  0.00     0.027 A 
ATOM     14  C   UNL A   1      31.206  23.352  23.082  1.00  0.00     0.027 A 
ATOM     15  C   UNL A   1      30.676  24.089  24.150  1.00  0.00     0.041 A 
BRANCH  15  16
ATOM     16  N   UNL A   1      29.864  25.174  23.806  1.00  0.00    -0.322 N 
ATOM     17  C   UNL A   1      30.072  26.524  23.670  1.00  0.00     0.256 C 
ATOM     18  H   UNL A   1      28.934  24.911  23.620  1.00  0.00     0.170 HD
ATOM     19  O   UNL A   1      29.084  27.221  23.417  1.00  0.00    -0.269 OA
BRANCH  17  20
ATOM     20  C   UNL A   1      31.374  27.228  23.800  1.00  0.00     0.048 A 
ATOM     21  C   UNL A   1      32.062  27.350  22.577  1.00  0.00     0.014 A 
ATOM     22  C   UNL A   1      31.996  27.630  25.020  1.00  0.00    -0.006 A 
ATOM     23  C   UNL A   1      33.358  27.845  22.533  1.00  0.00     0.001 A 
ATOM     24  C   UNL A   1      33.321  28.142  24.946  1.00  0.00    -0.018 A 
ATOM     25  C   UNL A   1      31.410  27.577  26.310  1.00  0.00     0.009 A 
ATOM     26  C   UNL A   1      33.987  28.219  23.713  1.00  0.00     0.009 A 
ATOM     27  C   UNL A   1      33.984  28.583  26.102  1.00  0.00     0.009 A 
ATOM     28  C   UNL A   1      32.048  28.108  27.436  1.00  0.00     0.001 A 
ATOM     29  C   UNL A   1      33.338  28.603  27.334  1.00  0.00     0.001 A 
ENDBRANCH  17  20
ENDBRANCH  15  16
ENDBRANCH   9  10
ENDBRANCH   8   9
ENDBRANCH   6   8
ENDBRANCH   3   4
ENDBRANCH   2   3
ENDBRANCH   1   2
BRANCH   1  30
ATOM     30  C   UNL A   1      42.119  21.827  27.060  1.00  0.00     0.002 C 
BRANCH  30  31
ATOM     31  C   UNL A   1      43.035  22.689  27.930  1.00  0.00     0.021 C 
BRANCH  31  32
ATOM     32  C   UNL A   1      43.845  23.734  27.169  1.00  0.00     0.116 C 
BRANCH  32  33
ATOM     33  N   UNL A   1      43.104  24.307  26.055  1.00  0.00    -0.352 N 
ATOM     34  C   UNL A   1      42.231  25.371  26.049  1.00  0.00     0.251 C 
ATOM     35  H   UNL A   1      43.248  23.874  25.184  1.00  0.00     0.163 HD
ATOM     36  O   UNL A   1      41.561  25.611  25.055  1.00  0.00    -0.269 OA
BRANCH  34  37
ATOM     37  C   UNL A   1      42.092  26.205  27.264  1.00  0.00     0.039 A 
ATOM     38  C   UNL A   1      42.908  27.330  27.413  1.00  0.00     0.014 A 
ATOM     39  C   UNL A   1      41.147  25.888  28.244  1.00  0.00     0.014 A 
ATOM     40  C   UNL A   1      42.726  28.176  28.511  1.00  0.00     0.010 A 
ATOM     41  C   UNL A   1      40.917  26.771  29.295  1.00  0.00     0.010 A 
ATOM     42  C   UNL A   1      41.702  27.926  29.439  1.00  0.00    -0.014 A 
BRANCH  42  43
ATOM     43  C   UNL A   1      41.427  28.857  30.567  1.00  0.00     0.031 A 
ATOM     44  C   UNL A   1      42.228  28.753  31.839  1.00  0.00     0.074 A 
ATOM     45  C   UNL A   1      40.406  29.734  30.480  1.00  0.00     0.049 A 
ATOM     46  N   UNL A   1      42.069  29.393  32.968  1.00  0.00    -0.248 NA
ATOM     47  C   UNL A   1      43.339  27.786  31.852  1.00  0.00     0.031 C 
ATOM     48  C   UNL A   1      39.530  29.904  29.316  1.00  0.00     0.029 A 
ATOM     49  N   UNL A   1      39.916  30.637  31.392  1.00  0.00    -0.354 N 
ATOM     50  C   UNL A   1      43.035  28.888  33.831  1.00  0.00     0.074 A 
ATOM     51  C   UNL A   1      43.755  27.864  33.108  1.00  0.00     0.031 C 
ATOM     52  C   UNL A   1      38.624  30.860  29.580  1.00  0.00     0.029 A 
ATOM     53  C   UNL A   1      38.819  31.339  30.945  1.00  0.00     0.049 A 
ATOM     54  H   UNL A   1      40.313  30.771  32.283  1.00  0.00     0.167 HD
ATOM     55  C   UNL A   1      43.305  29.257  35.105  1.00  0.00     0.037 A 
ATOM     56  C   UNL A   1      38.044  32.248  31.570  1.00  0.00     0.037 A 
ATOM     57  C   UNL A   1      42.613  30.308  35.803  1.00  0.00     0.049 A 
ATOM     58  C   UNL A   1      38.367  32.631  32.993  1.00  0.00     0.074 A 
ATOM     59  C   UNL A   1      42.873  30.812  37.066  1.00  0.00     0.029 A 
ATOM     60  N   UNL A   1      41.526  31.011  35.307  1.00  0.00    -0.354 N 
ATOM     61  N   UNL A   1      39.338  32.201  33.763  1.00  0.00    -0.248 NA
ATOM     62  C   UNL A   1      37.490  33.624  33.632  1.00  0.00     0.031 C 
ATOM     63  C   UNL A   1      41.906  31.776  37.358  1.00  0.00     0.029 A 
ATOM     64  C   UNL A   1      41.084  31.922  36.252  1.00  0.00     0.049 A 
ATOM     65  H   UNL A   1      41.128  30.882  34.417  1.00  0.00     0.167 HD
ATOM     66  C   UNL A   1      39.214  32.903  34.958  1.00  0.00     0.074 A 
ATOM     67  C   UNL A   1      38.080  33.789  34.808  1.00  0.00     0.031 C 
ATOM     68  C   UNL A   1      39.972  32.821  36.078  1.00  0.00     0.037 A 
BRANCH  55  69
ATOM     69  C   UNL A   1      44.394  28.528  35.845  1.00  0.00     0.058 A 
ATOM     70  C   UNL A   1      45.729  28.956  35.808  1.00  0.00     0.135 A 
ATOM     71  C   UNL A   1      44.074  27.446  36.683  1.00  0.00     0.135 A 
ATOM     72  F   UNL A   1      46.093  29.972  35.010  1.00  0.00    -0.206 F 
ATOM     73  C   UNL A   1      46.712  28.333  36.572  1.00  0.00     0.059 A 
ATOM     74  C   UNL A   1      45.035  26.829  37.478  1.00  0.00     0.059 A 
ATOM     75  F   UNL A   1      42.812  26.995  36.753  1.00  0.00    -0.206 F 
ATOM     76  C   UNL A   1      46.352  27.277  37.412  1.00  0.00     0.060 A 
BRANCH  76  77
ATOM     77  S   UNL A   1      47.630  26.522  38.439  1.00  0.00     0.124 S 
ATOM     78  O   UNL A   1      47.307  27.063  39.755  1.00  0.00    -0.237 OA
ATOM     79  O   UNL A   1      47.371  25.097  38.258  1.00  0.00    -0.237 OA
ATOM     80  O   UNL A   1      48.874  27.009  37.849  1.00  0.00    -0.744 OA
ENDBRANCH  76  77
ENDBRANCH  55  69
BRANCH  56  81
ATOM     81  C   UNL A   1      36.882  32.868  30.872  1.00  0.00     0.058 A 
ATOM     82  C   UNL A   1      37.066  33.907  29.946  1.00  0.00     0.135 A 
ATOM     83  C   UNL A   1      35.566  32.469  31.149  1.00  0.00     0.135 A 
ATOM     84  F   UNL A   1      38.304  34.328  29.648  1.00  0.00    -0.206 F 
ATOM     85  C   UNL A   1      35.987  34.558  29.355  1.00  0.00     0.059 A 
ATOM     86  C   UNL A   1      34.472  33.083  30.546  1.00  0.00     0.059 A 
ATOM     87  F   UNL A   1      35.332  31.468  32.012  1.00  0.00    -0.206 F 
ATOM     88  C   UNL A   1      34.693  34.142  29.668  1.00  0.00     0.060 A 
BRANCH  88  89
ATOM     89  S   UNL A   1      33.299  34.999  28.901  1.00  0.00     0.124 S 
ATOM     90  O   UNL A   1      32.434  35.233  30.052  1.00  0.00    -0.237 OA
ATOM     91  O   UNL A   1      33.941  36.179  28.333  1.00  0.00    -0.237 OA
ATOM     92  O   UNL A   1      32.806  34.031  27.927  1.00  0.00    -0.744 OA
ENDBRANCH  88  89
ENDBRANCH  56  81
BRANCH  68  93
ATOM     93  C   UNL A   1      39.651  33.755  37.214  1.00  0.00     0.058 A 
ATOM     94  C   UNL A   1      38.873  33.354  38.310  1.00  0.00     0.135 A 
ATOM     95  C   UNL A   1      40.198  35.050  37.236  1.00  0.00     0.135 A 
ATOM     96  F   UNL A   1      38.321  32.131  38.336  1.00  0.00    -0.206 F 
ATOM     97  C   UNL A   1      38.633  34.209  39.380  1.00  0.00     0.059 A 
ATOM     98  C   UNL A   1      39.998  35.910  38.311  1.00  0.00     0.059 A 
ATOM     99  F   UNL A   1      40.959  35.481  36.217  1.00  0.00    -0.206 F 
ATOM    100  C   UNL A   1      39.205  35.483  39.375  1.00  0.00     0.060 A 
BRANCH 100 101
ATOM    101  S   UNL A   1      38.930  36.561  40.797  1.00  0.00     0.124 S 
ATOM    102  O   UNL A   1      38.496  37.796  40.150  1.00  0.00    -0.237 OA
ATOM    103  O   UNL A   1      37.903  35.839  41.541  1.00  0.00    -0.237 OA
ATOM    104  O   UNL A   1      40.240  36.618  41.441  1.00  0.00    -0.744 OA
ENDBRANCH 100 101
ENDBRANCH  68  93
ENDBRANCH  42  43
ENDBRANCH  34  37
ENDBRANCH  32  33
ENDBRANCH  31  32
ENDBRANCH  30  31
ENDBRANCH   1  30
TORSDOF 20
ENDMDL
MODEL 3
REMARK VINA RESULT:     -11.7      6.044     12.074
REMARK SMILES O=C(CSc1ccc(NC(=O)c2cccc3ccccc23)cc1)NCCCCCCNC(=O)c1ccc(-c2c3nc(c(-c4c(F)cc(S(=O)(=O)[O-])cc4F)c4ccc([nH]4)c(-c4c(F)cc(S(=O)(=O)[O-])cc4F)c4nc(c(-c5c(F)cc(S(=O)(=O)[O-])cc5F)c5ccc2[nH]5)C=C4)C=C3)cc1
REMARK SMILES IDX 27 1 26 2 25 3 24 4 1 5 2 6 3 8 4 9 5 10 6 11 23 12 7 13
REMARK SMILES IDX 22 14 8 15 9 16 10 17 11 19 12 20 13 21 21 22 14 23 16 24
REMARK SMILES IDX 20 25 15 26 17 27 19 28 18 29 28 30 29 31 30 32 31 33 32 34
REMARK SMILES IDX 33 36 34 37 35 38 99 39 36 40 98 41 37 42 38 43 39 44 92 45
REMARK SMILES IDX 40 46 97 47 91 48 93 49 41 50 96 51 90 52 89 53 42 55 76 56
REMARK SMILES IDX 55 57 75 58 56 59 59 60 74 61 94 62 57 63 58 64 73 66 95 67
REMARK SMILES IDX 60 68 43 69 44 70 53 71 45 72 46 73 52 74 54 75 47 76 48 77
REMARK SMILES IDX 49 78 50 79 51 80 77 81 78 82 87 83 79 84 80 85 86 86 88 87
REMARK SMILES IDX 81 88 82 89 83 90 84 91 85 92 61 93 62 94 71 95 63 96 64 97
REMARK SMILES IDX 70 98 72 99 65 100 66 101 67 102 68 103 69 104
REMARK H PARENT 24 7 9 18 31 35 93 54 59 65
REMARK Flexibility Score: inf
ROOT
ATOM      1  C   UNL A   1      35.219  34.884  33.558  1.00  0.00     0.002 C 
ENDROOT
BRANCH   1   2
ATOM      2  C   UNL A   1      34.184  34.164  32.683  1.00  0.00     0.021 C 
BRANCH   2   3
ATOM      3  C   UNL A   1      33.731  34.954  31.454  1.00  0.00     0.116 C 
BRANCH   3   4
ATOM      4  N   UNL A   1      33.887  34.181  30.238  1.00  0.00    -0.355 N 
ATOM      5  O   UNL A   1      32.588  35.512  28.903  1.00  0.00    -0.274 OA
ATOM      6  C   UNL A   1      33.294  34.515  29.044  1.00  0.00     0.230 C 
ATOM      7  H   UNL A   1      34.447  33.372  30.269  1.00  0.00     0.163 HD
BRANCH   6   8
ATOM      8  C   UNL A   1      33.441  33.491  27.927  1.00  0.00     0.174 C 
BRANCH   8   9
ATOM      9  S   UNL A   1      34.255  31.937  28.449  1.00  0.00    -0.116 SA
BRANCH   9  10
ATOM     10  C   UNL A   1      33.583  30.815  27.241  1.00  0.00     0.008 A 
ATOM     11  C   UNL A   1      32.268  30.939  26.785  1.00  0.00     0.017 A 
ATOM     12  C   UNL A   1      34.387  29.798  26.730  1.00  0.00     0.017 A 
ATOM     13  C   UNL A   1      31.797  30.130  25.746  1.00  0.00     0.027 A 
ATOM     14  C   UNL A   1      33.920  29.002  25.683  1.00  0.00     0.027 A 
ATOM     15  C   UNL A   1      32.653  29.226  25.128  1.00  0.00     0.041 A 
BRANCH  15  16
ATOM     16  N   UNL A   1      32.379  28.560  23.929  1.00  0.00    -0.322 N 
ATOM     17  C   UNL A   1      32.074  27.264  23.599  1.00  0.00     0.256 C 
ATOM     18  H   UNL A   1      32.413  29.155  23.145  1.00  0.00     0.170 HD
ATOM     19  O   UNL A   1      31.962  27.002  22.396  1.00  0.00    -0.269 OA
BRANCH  17  20
ATOM     20  C   UNL A   1      31.867  26.142  24.550  1.00  0.00     0.048 A 
ATOM     21  C   UNL A   1      30.533  26.028  24.990  1.00  0.00     0.014 A 
ATOM     22  C   UNL A   1      32.886  25.322  25.121  1.00  0.00    -0.006 A 
ATOM     23  C   UNL A   1      30.186  25.134  25.994  1.00  0.00     0.001 A 
ATOM     24  C   UNL A   1      32.502  24.408  26.141  1.00  0.00    -0.018 A 
ATOM     25  C   UNL A   1      34.257  25.324  24.757  1.00  0.00     0.009 A 
ATOM     26  C   UNL A   1      31.170  24.345  26.576  1.00  0.00     0.009 A 
ATOM     27  C   UNL A   1      33.447  23.551  26.726  1.00  0.00     0.009 A 
ATOM     28  C   UNL A   1      35.164  24.399  25.282  1.00  0.00     0.001 A 
ATOM     29  C   UNL A   1      34.762  23.517  26.273  1.00  0.00     0.001 A 
ENDBRANCH  17  20
ENDBRANCH  15  16
ENDBRANCH   9  10
ENDBRANCH   8   9
ENDBRANCH   6   8
ENDBRANCH   3   4
ENDBRANCH   2   3
ENDBRANCH   1   2
BRANCH   1  30
ATOM     30  C   UNL A   1      36.634  34.298  33.515  1.00  0.00     0.002 C 
BRANCH  30  31
ATOM     31  C   UNL A   1      37.347  34.420  32.168  1.00  0.00     0.021 C 
BRANCH  31  32
ATOM     32  C   UNL A   1      37.788  33.096  31.554  1.00  0.00     0.116 C 
BRANCH  32  33
ATOM     33  N   UNL A   1      36.751  32.077  31.626  1.00  0.00    -0.352 N 
ATOM     34  C   UNL A   1      36.767  30.787  31.148  1.00  0.00     0.251 C 
ATOM     35  H   UNL A   1      35.922  32.350  32.079  1.00  0.00     0.163 HD
ATOM     36  O   UNL A   1      35.741  30.121  31.141  1.00  0.00    -0.269 OA
BRANCH  34  37
ATOM     37  C   UNL A   1      38.029  30.221  30.619  1.00  0.00     0.039 A 
ATOM     38  C   UNL A   1      38.293  30.313  29.250  1.00  0.00     0.014 A 
ATOM     39  C   UNL A   1      38.955  29.619  31.475  1.00  0.00     0.014 A 
ATOM     40  C   UNL A   1      39.519  29.863  28.750  1.00  0.00     0.010 A 
ATOM     41  C   UNL A   1      40.204  29.243  30.988  1.00  0.00     0.010 A 
ATOM     42  C   UNL A   1      40.501  29.362  29.621  1.00  0.00    -0.014 A 
BRANCH  42  43
ATOM     43  C   UNL A   1      41.847  28.960  29.131  1.00  0.00     0.031 A 
ATOM     44  C   UNL A   1      42.943  29.988  29.019  1.00  0.00     0.074 A 
ATOM     45  C   UNL A   1      42.057  27.696  28.709  1.00  0.00     0.049 A 
ATOM     46  N   UNL A   1      44.142  29.862  28.514  1.00  0.00    -0.248 NA
ATOM     47  C   UNL A   1      42.644  31.341  29.517  1.00  0.00     0.031 C 
ATOM     48  C   UNL A   1      41.064  26.618  28.730  1.00  0.00     0.029 A 
ATOM     49  N   UNL A   1      43.170  27.105  28.162  1.00  0.00    -0.354 N 
ATOM     50  C   UNL A   1      44.728  31.119  28.606  1.00  0.00     0.074 A 
ATOM     51  C   UNL A   1      43.742  32.004  29.183  1.00  0.00     0.031 C 
ATOM     52  C   UNL A   1      41.616  25.499  28.234  1.00  0.00     0.029 A 
ATOM     53  C   UNL A   1      42.984  25.786  27.814  1.00  0.00     0.049 A 
ATOM     54  H   UNL A   1      44.022  27.580  28.031  1.00  0.00     0.167 HD
ATOM     55  C   UNL A   1      45.980  31.496  28.254  1.00  0.00     0.037 A 
ATOM     56  C   UNL A   1      43.813  24.912  27.208  1.00  0.00     0.037 A 
ATOM     57  C   UNL A   1      46.971  30.598  27.721  1.00  0.00     0.049 A 
ATOM     58  C   UNL A   1      45.199  25.366  26.820  1.00  0.00     0.074 A 
ATOM     59  C   UNL A   1      48.293  30.868  27.416  1.00  0.00     0.029 A 
ATOM     60  N   UNL A   1      46.751  29.266  27.408  1.00  0.00    -0.354 N 
ATOM     61  N   UNL A   1      45.762  26.538  26.993  1.00  0.00    -0.248 NA
ATOM     62  C   UNL A   1      46.063  24.379  26.158  1.00  0.00     0.031 C 
ATOM     63  C   UNL A   1      48.857  29.717  26.861  1.00  0.00     0.029 A 
ATOM     64  C   UNL A   1      47.906  28.709  26.882  1.00  0.00     0.049 A 
ATOM     65  H   UNL A   1      45.902  28.786  27.539  1.00  0.00     0.167 HD
ATOM     66  C   UNL A   1      47.057  26.414  26.502  1.00  0.00     0.074 A 
ATOM     67  C   UNL A   1      47.198  25.053  26.030  1.00  0.00     0.031 C 
ATOM     68  C   UNL A   1      48.042  27.343  26.446  1.00  0.00     0.037 A 
BRANCH  55  69
ATOM     69  C   UNL A   1      46.368  32.939  28.428  1.00  0.00     0.058 A 
ATOM     70  C   UNL A   1      46.999  33.402  29.592  1.00  0.00     0.135 A 
ATOM     71  C   UNL A   1      46.195  33.847  27.370  1.00  0.00     0.135 A 
ATOM     72  F   UNL A   1      47.173  32.581  30.640  1.00  0.00    -0.206 F 
ATOM     73  C   UNL A   1      47.441  34.716  29.703  1.00  0.00     0.059 A 
ATOM     74  C   UNL A   1      46.655  35.158  27.449  1.00  0.00     0.059 A 
ATOM     75  F   UNL A   1      45.594  33.456  26.235  1.00  0.00    -0.206 F 
ATOM     76  C   UNL A   1      47.274  35.584  28.622  1.00  0.00     0.060 A 
BRANCH  76  77
ATOM     77  S   UNL A   1      47.906  37.269  28.765  1.00  0.00     0.124 S 
ATOM     78  O   UNL A   1      47.971  37.434  30.214  1.00  0.00    -0.237 OA
ATOM     79  O   UNL A   1      49.192  37.176  28.080  1.00  0.00    -0.237 OA
ATOM     80  O   UNL A   1      46.893  38.072  28.086  1.00  0.00    -0.744 OA
ENDBRANCH  76  77
ENDBRANCH  55  69
BRANCH  56  81
ATOM     81  C   UNL A   1      43.372  23.519  26.917  1.00  0.00     0.058 A 
ATOM     82  C   UNL A   1      43.341  22.546  27.928  1.00  0.00     0.135 A 
ATOM     83  C   UNL A   1      43.018  23.120  25.619  1.00  0.00     0.135 A 
ATOM     84  F   UNL A   1      43.673  22.874  29.185  1.00  0.00    -0.206 F 
ATOM     85  C   UNL A   1      43.020  21.219  27.655  1.00  0.00     0.059 A 
ATOM     86  C   UNL A   1      42.662  21.806  25.327  1.00  0.00     0.059 A 
ATOM     87  F   UNL A   1      43.012  24.013  24.618  1.00  0.00    -0.206 F 
ATOM     88  C   UNL A   1      42.689  20.859  26.349  1.00  0.00     0.060 A 
BRANCH  88  89
ATOM     89  S   UNL A   1      42.282  19.133  26.004  1.00  0.00     0.124 S 
ATOM     90  O   UNL A   1      43.022  18.901  24.768  1.00  0.00    -0.237 OA
ATOM     91  O   UNL A   1      42.792  18.455  27.190  1.00  0.00    -0.237 OA
ATOM     92  O   UNL A   1      40.828  19.151  25.875  1.00  0.00    -0.744 OA
ENDBRANCH  88  89
ENDBRANCH  56  81
BRANCH  68  93
ATOM     93  C   UNL A   1      49.384  26.914  25.918  1.00  0.00     0.058 A 
ATOM     94  C   UNL A   1      49.723  27.033  24.562  1.00  0.00     0.135 A 
ATOM     95  C   UNL A   1      50.372  26.447  26.803  1.00  0.00     0.135 A 
ATOM     96  F   UNL A   1      48.815  27.468  23.674  1.00  0.00    -0.206 F 
ATOM     97  C   UNL A   1      50.988  26.688  24.098  1.00  0.00     0.059 A 
ATOM     98  C   UNL A   1      51.653  26.126  26.365  1.00  0.00     0.059 A 
ATOM     99  F   UNL A   1      50.103  26.323  28.112  1.00  0.00    -0.206 F 
ATOM    100  C   UNL A   1      51.948  26.242  25.008  1.00  0.00     0.060 A 
BRANCH 100 101
ATOM    101  S   UNL A   1      53.602  25.849  24.399  1.00  0.00     0.124 S 
ATOM    102  O   UNL A   1      53.450  26.079  22.965  1.00  0.00    -0.237 OA
ATOM    103  O   UNL A   1      54.433  26.815  25.111  1.00  0.00    -0.237 OA
ATOM    104  O   UNL A   1      53.790  24.456  24.794  1.00  0.00    -0.744 OA
ENDBRANCH 100 101
ENDBRANCH  68  93
ENDBRANCH  42  43
ENDBRANCH  34  37
ENDBRANCH  32  33
ENDBRANCH  31  32
ENDBRANCH  30  31
ENDBRANCH   1  30
TORSDOF 20
ENDMDL
