MODEL 1
REMARK VINA RESULT:     -11.1      0.000      0.000
REMARK SMILES Cc1onc(-c2cccc(Br)c2)c1C(=O)NCCCCCCNC(=O)c1ccc(-c2c3nc(c(-c4c(F)cc(S(=O)(=O)[O-])cc4F)c4ccc([nH]4)c(-c4c(F)cc(S(=O)(=O)[O-])cc4F)c4nc(c(-c5c(F)cc(S(=O)(=O)[O-])cc5F)c5ccc2[nH]5)C=C4)C=C3)cc1
REMARK SMILES IDX 20 1 19 2 18 3 17 4 16 5 14 6 15 7 13 9 1 10 2 11 3 12 4 13
REMARK SMILES IDX 5 14 6 15 7 16 12 17 8 18 10 19 9 20 11 21 21 22 22 23 23 24
REMARK SMILES IDX 24 25 25 27 26 28 27 29 91 30 28 31 90 32 29 33 30 34 31 35
REMARK SMILES IDX 84 36 32 37 89 38 83 39 85 40 33 41 88 42 82 43 81 44 34 46
REMARK SMILES IDX 68 47 47 48 67 49 48 50 51 51 66 52 86 53 49 54 50 55 65 57
REMARK SMILES IDX 87 58 52 59 35 60 36 61 45 62 37 63 38 64 44 65 46 66 39 67
REMARK SMILES IDX 40 68 41 69 42 70 43 71 69 72 70 73 79 74 71 75 72 76 78 77
REMARK SMILES IDX 80 78 73 79 74 80 75 81 76 82 77 83 53 84 54 85 63 86 55 87
REMARK SMILES IDX 56 88 62 89 64 90 57 91 58 92 59 93 60 94 61 95
REMARK H PARENT 16 8 23 26 85 45 51 56
REMARK Flexibility Score: inf
ROOT
ATOM      1  C   UNL A   1      33.490  28.584  24.285  1.00  0.00     0.002 C 
ENDROOT
BRANCH   1   2
ATOM      2  C   UNL A   1      32.946  28.203  22.901  1.00  0.00     0.002 C 
BRANCH   2   3
ATOM      3  C   UNL A   1      33.261  26.764  22.462  1.00  0.00     0.021 C 
BRANCH   3   4
ATOM      4  C   UNL A   1      32.116  26.108  21.687  1.00  0.00     0.116 C 
BRANCH   4   5
ATOM      5  N   UNL A   1      31.964  24.739  22.095  1.00  0.00    -0.352 N 
ATOM      6  C   UNL A   1      31.576  24.103  23.233  1.00  0.00     0.257 C 
ATOM      7  O   UNL A   1      31.594  22.874  23.104  1.00  0.00    -0.269 OA
ATOM      8  H   UNL A   1      32.197  24.109  21.376  1.00  0.00     0.163 HD
BRANCH   6   9
ATOM      9  C   UNL A   1      31.147  24.722  24.487  1.00  0.00     0.110 A 
ATOM     10  C   UNL A   1      29.214  26.591  24.252  1.00  0.00     0.092 C 
ATOM     11  C   UNL A   1      30.206  25.678  24.856  1.00  0.00     0.147 A 
ATOM     12  O   UNL A   1      30.205  25.811  26.212  1.00  0.00    -0.360 OA
ATOM     13  N   UNL A   1      31.156  25.017  26.777  1.00  0.00    -0.079 NA
ATOM     14  C   UNL A   1      31.755  24.386  25.763  1.00  0.00     0.126 A 
BRANCH  14  15
ATOM     15  C   UNL A   1      32.870  23.494  26.056  1.00  0.00     0.006 A 
ATOM     16  C   UNL A   1      32.633  22.196  26.532  1.00  0.00     0.010 A 
ATOM     17  C   UNL A   1      34.185  23.926  25.850  1.00  0.00     0.026 A 
ATOM     18  C   UNL A   1      33.700  21.350  26.834  1.00  0.00     0.002 A 
ATOM     19  C   UNL A   1      35.245  23.071  26.145  1.00  0.00     0.018 A 
ATOM     20  C   UNL A   1      35.010  21.789  26.642  1.00  0.00     0.016 A 
ATOM     21  Br  UNL A   1      37.022  23.657  25.876  1.00  0.00    -0.051 Br
ENDBRANCH  14  15
ENDBRANCH   6   9
ENDBRANCH   4   5
ENDBRANCH   3   4
ENDBRANCH   2   3
ENDBRANCH   1   2
BRANCH   1  22
ATOM     22  C   UNL A   1      33.560  27.426  25.284  1.00  0.00     0.021 C 
BRANCH  22  23
ATOM     23  C   UNL A   1      33.998  27.843  26.684  1.00  0.00     0.116 C 
BRANCH  23  24
ATOM     24  N   UNL A   1      33.678  29.238  26.945  1.00  0.00    -0.352 N 
ATOM     25  C   UNL A   1      34.388  30.169  27.656  1.00  0.00     0.251 C 
ATOM     26  H   UNL A   1      32.832  29.558  26.556  1.00  0.00     0.163 HD
ATOM     27  O   UNL A   1      33.844  31.218  28.006  1.00  0.00    -0.269 OA
BRANCH  25  28
ATOM     28  C   UNL A   1      35.797  29.910  28.003  1.00  0.00     0.039 A 
ATOM     29  C   UNL A   1      36.117  29.502  29.299  1.00  0.00     0.014 A 
ATOM     30  C   UNL A   1      36.805  30.086  27.049  1.00  0.00     0.014 A 
ATOM     31  C   UNL A   1      37.445  29.220  29.624  1.00  0.00     0.010 A 
ATOM     32  C   UNL A   1      38.115  29.731  27.354  1.00  0.00     0.010 A 
ATOM     33  C   UNL A   1      38.450  29.305  28.647  1.00  0.00    -0.014 A 
BRANCH  33  34
ATOM     34  C   UNL A   1      39.858  28.954  28.959  1.00  0.00     0.031 A 
ATOM     35  C   UNL A   1      40.776  29.980  29.566  1.00  0.00     0.074 A 
ATOM     36  C   UNL A   1      40.322  27.730  28.638  1.00  0.00     0.049 A 
ATOM     37  N   UNL A   1      42.048  29.881  29.853  1.00  0.00    -0.248 NA
ATOM     38  C   UNL A   1      40.194  31.300  29.861  1.00  0.00     0.031 C 
ATOM     39  C   UNL A   1      39.539  26.669  28.002  1.00  0.00     0.029 A 
ATOM     40  N   UNL A   1      41.568  27.175  28.794  1.00  0.00    -0.354 N 
ATOM     41  C   UNL A   1      42.421  31.124  30.352  1.00  0.00     0.074 A 
ATOM     42  C   UNL A   1      41.256  31.978  30.273  1.00  0.00     0.031 C 
ATOM     43  C   UNL A   1      40.314  25.584  27.846  1.00  0.00     0.029 A 
ATOM     44  C   UNL A   1      41.658  25.884  28.330  1.00  0.00     0.049 A 
ATOM     45  H   UNL A   1      42.324  27.655  29.199  1.00  0.00     0.167 HD
ATOM     46  C   UNL A   1      43.619  31.510  30.853  1.00  0.00     0.037 A 
ATOM     47  C   UNL A   1      42.707  25.040  28.292  1.00  0.00     0.037 A 
ATOM     48  C   UNL A   1      44.767  30.646  30.944  1.00  0.00     0.049 A 
ATOM     49  C   UNL A   1      44.030  25.494  28.845  1.00  0.00     0.074 A 
ATOM     50  C   UNL A   1      46.010  30.921  31.488  1.00  0.00     0.029 A 
ATOM     51  N   UNL A   1      44.817  29.340  30.476  1.00  0.00    -0.354 N 
ATOM     52  N   UNL A   1      44.348  26.652  29.375  1.00  0.00    -0.248 NA
ATOM     53  C   UNL A   1      45.135  24.528  28.800  1.00  0.00     0.031 C 
ATOM     54  C   UNL A   1      46.826  29.801  31.300  1.00  0.00     0.029 A 
ATOM     55  C   UNL A   1      46.076  28.806  30.693  1.00  0.00     0.049 A 
ATOM     56  H   UNL A   1      44.067  28.865  30.051  1.00  0.00     0.167 HD
ATOM     57  C   UNL A   1      45.682  26.543  29.753  1.00  0.00     0.074 A 
ATOM     58  C   UNL A   1      46.106  25.203  29.401  1.00  0.00     0.031 C 
ATOM     59  C   UNL A   1      46.482  27.468  30.338  1.00  0.00     0.037 A 
BRANCH  46  60
ATOM     60  C   UNL A   1      43.747  32.929  31.339  1.00  0.00     0.058 A 
ATOM     61  C   UNL A   1      43.472  33.283  32.671  1.00  0.00     0.135 A 
ATOM     62  C   UNL A   1      44.175  33.946  30.470  1.00  0.00     0.135 A 
ATOM     63  F   UNL A   1      43.046  32.355  33.543  1.00  0.00    -0.206 F 
ATOM     64  C   UNL A   1      43.582  34.597  33.113  1.00  0.00     0.059 A 
ATOM     65  C   UNL A   1      44.324  35.262  30.899  1.00  0.00     0.059 A 
ATOM     66  F   UNL A   1      44.452  33.667  29.187  1.00  0.00    -0.206 F 
ATOM     67  C   UNL A   1      44.007  35.580  32.220  1.00  0.00     0.060 A 
BRANCH  67  68
ATOM     68  S   UNL A   1      44.140  37.281  32.810  1.00  0.00     0.124 S 
ATOM     69  O   UNL A   1      45.464  37.272  33.426  1.00  0.00    -0.237 OA
ATOM     70  O   UNL A   1      44.022  38.049  31.575  1.00  0.00    -0.237 OA
ATOM     71  O   UNL A   1      43.020  37.409  33.735  1.00  0.00    -0.744 OA
ENDBRANCH  67  68
ENDBRANCH  46  60
BRANCH  47  72
ATOM     72  C   UNL A   1      42.538  23.674  27.728  1.00  0.00     0.058 A 
ATOM     73  C   UNL A   1      42.568  23.457  26.342  1.00  0.00     0.135 A 
ATOM     74  C   UNL A   1      42.369  22.556  28.560  1.00  0.00     0.135 A 
ATOM     75  F   UNL A   1      42.723  24.494  25.505  1.00  0.00    -0.206 F 
ATOM     76  C   UNL A   1      42.423  22.185  25.800  1.00  0.00     0.059 A 
ATOM     77  C   UNL A   1      42.249  21.270  28.043  1.00  0.00     0.059 A 
ATOM     78  F   UNL A   1      42.353  22.707  29.893  1.00  0.00    -0.206 F 
ATOM     79  C   UNL A   1      42.269  21.096  26.659  1.00  0.00     0.060 A 
BRANCH  79  80
ATOM     80  S   UNL A   1      42.137  19.442  25.946  1.00  0.00     0.124 S 
ATOM     81  O   UNL A   1      40.709  19.352  25.673  1.00  0.00    -0.237 OA
ATOM     82  O   UNL A   1      43.008  19.543  24.779  1.00  0.00    -0.237 OA
ATOM     83  O   UNL A   1      42.633  18.576  27.014  1.00  0.00    -0.744 OA
ENDBRANCH  79  80
ENDBRANCH  47  72
BRANCH  59  84
ATOM     84  C   UNL A   1      47.892  27.055  30.666  1.00  0.00     0.058 A 
ATOM     85  C   UNL A   1      48.966  27.348  29.811  1.00  0.00     0.135 A 
ATOM     86  C   UNL A   1      48.177  26.405  31.878  1.00  0.00     0.135 A 
ATOM     87  F   UNL A   1      48.748  27.963  28.638  1.00  0.00    -0.206 F 
ATOM     88  C   UNL A   1      50.270  26.989  30.135  1.00  0.00     0.059 A 
ATOM     89  C   UNL A   1      49.477  26.063  32.236  1.00  0.00     0.059 A 
ATOM     90  F   UNL A   1      47.188  26.111  32.737  1.00  0.00    -0.206 F 
ATOM     91  C   UNL A   1      50.516  26.349  31.352  1.00  0.00     0.060 A 
BRANCH  91  92
ATOM     92  S   UNL A   1      52.218  25.919  31.774  1.00  0.00     0.124 S 
ATOM     93  O   UNL A   1      52.069  24.540  32.224  1.00  0.00    -0.237 OA
ATOM     94  O   UNL A   1      52.910  26.100  30.502  1.00  0.00    -0.237 OA
ATOM     95  O   UNL A   1      52.565  26.884  32.812  1.00  0.00    -0.744 OA
ENDBRANCH  91  92
ENDBRANCH  59  84
ENDBRANCH  33  34
ENDBRANCH  25  28
ENDBRANCH  23  24
ENDBRANCH  22  23
ENDBRANCH   1  22
TORSDOF 17
ENDMDL
MODEL 2
REMARK VINA RESULT:     -10.8      3.140      4.443
REMARK SMILES Cc1onc(-c2cccc(Br)c2)c1C(=O)NCCCCCCNC(=O)c1ccc(-c2c3nc(c(-c4c(F)cc(S(=O)(=O)[O-])cc4F)c4ccc([nH]4)c(-c4c(F)cc(S(=O)(=O)[O-])cc4F)c4nc(c(-c5c(F)cc(S(=O)(=O)[O-])cc5F)c5ccc2[nH]5)C=C4)C=C3)cc1
REMARK SMILES IDX 20 1 19 2 18 3 17 4 16 5 14 6 15 7 13 9 1 10 2 11 3 12 4 13
REMARK SMILES IDX 5 14 6 15 7 16 12 17 8 18 10 19 9 20 11 21 21 22 22 23 23 24
REMARK SMILES IDX 24 25 25 27 26 28 27 29 91 30 28 31 90 32 29 33 30 34 31 35
REMARK SMILES IDX 84 36 32 37 89 38 83 39 85 40 33 41 88 42 82 43 81 44 34 46
REMARK SMILES IDX 68 47 47 48 67 49 48 50 51 51 66 52 86 53 49 54 50 55 65 57
REMARK SMILES IDX 87 58 52 59 35 60 36 61 45 62 37 63 38 64 44 65 46 66 39 67
REMARK SMILES IDX 40 68 41 69 42 70 43 71 69 72 70 73 79 74 71 75 72 76 78 77
REMARK SMILES IDX 80 78 73 79 74 80 75 81 76 82 77 83 53 84 54 85 63 86 55 87
REMARK SMILES IDX 56 88 62 89 64 90 57 91 58 92 59 93 60 94 61 95
REMARK H PARENT 16 8 23 26 85 45 51 56
REMARK Flexibility Score: inf
ROOT
ATOM      1  C   UNL A   1      33.253  28.492  27.214  1.00  0.00     0.002 C 
ENDROOT
BRANCH   1   2
ATOM      2  C   UNL A   1      31.743  28.437  27.488  1.00  0.00     0.002 C 
BRANCH   2   3
ATOM      3  C   UNL A   1      31.020  27.239  26.852  1.00  0.00     0.021 C 
BRANCH   3   4
ATOM      4  C   UNL A   1      31.978  26.166  26.330  1.00  0.00     0.116 C 
BRANCH   4   5
ATOM      5  N   UNL A   1      31.255  25.186  25.569  1.00  0.00    -0.352 N 
ATOM      6  C   UNL A   1      31.318  24.704  24.298  1.00  0.00     0.257 C 
ATOM      7  O   UNL A   1      30.469  23.831  24.092  1.00  0.00    -0.269 OA
ATOM      8  H   UNL A   1      30.540  24.760  26.094  1.00  0.00     0.163 HD
BRANCH   6   9
ATOM      9  C   UNL A   1      32.264  25.096  23.253  1.00  0.00     0.110 A 
ATOM     10  C   UNL A   1      33.977  23.167  22.460  1.00  0.00     0.092 C 
ATOM     11  C   UNL A   1      33.279  24.466  22.539  1.00  0.00     0.147 A 
ATOM     12  O   UNL A   1      33.789  25.333  21.620  1.00  0.00    -0.360 OA
ATOM     13  N   UNL A   1      33.194  26.553  21.722  1.00  0.00    -0.079 NA
ATOM     14  C   UNL A   1      32.306  26.445  22.715  1.00  0.00     0.126 A 
BRANCH  14  15
ATOM     15  C   UNL A   1      31.541  27.625  23.100  1.00  0.00     0.006 A 
ATOM     16  C   UNL A   1      32.173  28.701  23.740  1.00  0.00     0.010 A 
ATOM     17  C   UNL A   1      30.173  27.694  22.817  1.00  0.00     0.026 A 
ATOM     18  C   UNL A   1      31.437  29.821  24.128  1.00  0.00     0.002 A 
ATOM     19  C   UNL A   1      29.447  28.820  23.199  1.00  0.00     0.018 A 
ATOM     20  C   UNL A   1      30.070  29.881  23.858  1.00  0.00     0.016 A 
ATOM     21  Br  UNL A   1      27.596  28.911  22.827  1.00  0.00    -0.051 Br
ENDBRANCH  14  15
ENDBRANCH   6   9
ENDBRANCH   4   5
ENDBRANCH   3   4
ENDBRANCH   2   3
ENDBRANCH   1   2
BRANCH   1  22
ATOM     22  C   UNL A   1      33.860  29.897  27.270  1.00  0.00     0.021 C 
BRANCH  22  23
ATOM     23  C   UNL A   1      35.287  29.932  27.808  1.00  0.00     0.116 C 
BRANCH  23  24
ATOM     24  N   UNL A   1      35.335  30.511  29.143  1.00  0.00    -0.352 N 
ATOM     25  C   UNL A   1      36.323  30.425  30.086  1.00  0.00     0.251 C 
ATOM     26  H   UNL A   1      34.545  31.038  29.404  1.00  0.00     0.163 HD
ATOM     27  O   UNL A   1      36.086  30.742  31.253  1.00  0.00    -0.269 OA
BRANCH  25  28
ATOM     28  C   UNL A   1      37.665  29.950  29.702  1.00  0.00     0.039 A 
ATOM     29  C   UNL A   1      38.024  29.936  28.353  1.00  0.00     0.014 A 
ATOM     30  C   UNL A   1      38.564  29.502  30.676  1.00  0.00     0.014 A 
ATOM     31  C   UNL A   1      39.305  29.521  27.985  1.00  0.00     0.010 A 
ATOM     32  C   UNL A   1      39.863  29.162  30.314  1.00  0.00     0.010 A 
ATOM     33  C   UNL A   1      40.244  29.158  28.965  1.00  0.00    -0.014 A 
BRANCH  33  34
ATOM     34  C   UNL A   1      41.629  28.769  28.597  1.00  0.00     0.031 A 
ATOM     35  C   UNL A   1      42.717  29.807  28.553  1.00  0.00     0.074 A 
ATOM     36  C   UNL A   1      41.887  27.495  28.243  1.00  0.00     0.049 A 
ATOM     37  N   UNL A   1      43.969  29.673  28.199  1.00  0.00    -0.248 NA
ATOM     38  C   UNL A   1      42.343  31.180  28.929  1.00  0.00     0.031 C 
ATOM     39  C   UNL A   1      40.902  26.413  28.201  1.00  0.00     0.029 A 
ATOM     40  N   UNL A   1      43.055  26.896  27.844  1.00  0.00    -0.354 N 
ATOM     41  C   UNL A   1      44.528  30.942  28.298  1.00  0.00     0.074 A 
ATOM     42  C   UNL A   1      43.466  31.842  28.689  1.00  0.00     0.031 C 
ATOM     43  C   UNL A   1      41.511  25.278  27.823  1.00  0.00     0.029 A 
ATOM     44  C   UNL A   1      42.918  25.558  27.556  1.00  0.00     0.049 A 
ATOM     45  H   UNL A   1      43.910  27.377  27.770  1.00  0.00     0.167 HD
ATOM     46  C   UNL A   1      45.815  31.318  28.106  1.00  0.00     0.037 A 
ATOM     47  C   UNL A   1      43.822  24.661  27.119  1.00  0.00     0.037 A 
ATOM     48  C   UNL A   1      46.870  30.410  27.735  1.00  0.00     0.049 A 
ATOM     49  C   UNL A   1      45.244  25.103  26.902  1.00  0.00     0.074 A 
ATOM     50  C   UNL A   1      48.217  30.677  27.571  1.00  0.00     0.029 A 
ATOM     51  N   UNL A   1      46.696  29.059  27.464  1.00  0.00    -0.354 N 
ATOM     52  N   UNL A   1      45.771  26.294  27.066  1.00  0.00    -0.248 NA
ATOM     53  C   UNL A   1      46.195  24.081  26.446  1.00  0.00     0.031 C 
ATOM     54  C   UNL A   1      48.848  29.501  27.150  1.00  0.00     0.029 A 
ATOM     55  C   UNL A   1      47.906  28.487  27.109  1.00  0.00     0.049 A 
ATOM     56  H   UNL A   1      45.837  28.580  27.517  1.00  0.00     0.167 HD
ATOM     57  C   UNL A   1      47.121  26.157  26.761  1.00  0.00     0.074 A 
ATOM     58  C   UNL A   1      47.330  24.766  26.414  1.00  0.00     0.031 C 
ATOM     59  C   UNL A   1      48.098  27.098  26.768  1.00  0.00     0.037 A 
BRANCH  46  60
ATOM     60  C   UNL A   1      46.153  32.773  28.292  1.00  0.00     0.058 A 
ATOM     61  C   UNL A   1      46.553  33.287  29.537  1.00  0.00     0.135 A 
ATOM     62  C   UNL A   1      46.102  33.663  27.206  1.00  0.00     0.135 A 
ATOM     63  F   UNL A   1      46.606  32.486  30.613  1.00  0.00    -0.206 F 
ATOM     64  C   UNL A   1      46.854  34.634  29.707  1.00  0.00     0.059 A 
ATOM     65  C   UNL A   1      46.431  35.008  27.346  1.00  0.00     0.059 A 
ATOM     66  F   UNL A   1      45.728  33.228  25.993  1.00  0.00    -0.206 F 
ATOM     67  C   UNL A   1      46.789  35.487  28.605  1.00  0.00     0.060 A 
BRANCH  67  68
ATOM     68  S   UNL A   1      47.179  37.234  28.844  1.00  0.00     0.124 S 
ATOM     69  O   UNL A   1      46.050  37.877  28.178  1.00  0.00    -0.237 OA
ATOM     70  O   UNL A   1      47.206  37.350  30.299  1.00  0.00    -0.237 OA
ATOM     71  O   UNL A   1      48.469  37.389  28.181  1.00  0.00    -0.744 OA
ENDBRANCH  67  68
ENDBRANCH  46  60
BRANCH  47  72
ATOM     72  C   UNL A   1      43.411  23.252  26.878  1.00  0.00     0.058 A 
ATOM     73  C   UNL A   1      43.302  22.745  25.575  1.00  0.00     0.135 A 
ATOM     74  C   UNL A   1      43.144  22.378  27.944  1.00  0.00     0.135 A 
ATOM     75  F   UNL A   1      43.542  23.543  24.523  1.00  0.00    -0.206 F 
ATOM     76  C   UNL A   1      42.929  21.427  25.334  1.00  0.00     0.059 A 
ATOM     77  C   UNL A   1      42.796  21.047  27.729  1.00  0.00     0.059 A 
ATOM     78  F   UNL A   1      43.253  22.807  29.210  1.00  0.00    -0.206 F 
ATOM     79  C   UNL A   1      42.683  20.584  26.419  1.00  0.00     0.060 A 
BRANCH  79  80
ATOM     80  S   UNL A   1      42.254  18.859  26.095  1.00  0.00     0.124 S 
ATOM     81  O   UNL A   1      40.843  18.968  25.748  1.00  0.00    -0.237 OA
ATOM     82  O   UNL A   1      43.159  18.520  25.001  1.00  0.00    -0.237 OA
ATOM     83  O   UNL A   1      42.545  18.198  27.365  1.00  0.00    -0.744 OA
ENDBRANCH  79  80
ENDBRANCH  47  72
BRANCH  59  84
ATOM     84  C   UNL A   1      49.492  26.650  26.421  1.00  0.00     0.058 A 
ATOM     85  C   UNL A   1      50.306  25.980  27.347  1.00  0.00     0.135 A 
ATOM     86  C   UNL A   1      49.998  26.850  25.126  1.00  0.00     0.135 A 
ATOM     87  F   UNL A   1      49.873  25.769  28.600  1.00  0.00    -0.206 F 
ATOM     88  C   UNL A   1      51.583  25.544  27.009  1.00  0.00     0.059 A 
ATOM     89  C   UNL A   1      51.260  26.396  24.757  1.00  0.00     0.059 A 
ATOM     90  F   UNL A   1      49.257  27.477  24.198  1.00  0.00    -0.206 F 
ATOM     91  C   UNL A   1      52.051  25.754  25.709  1.00  0.00     0.060 A 
BRANCH  91  92
ATOM     92  S   UNL A   1      53.696  25.153  25.275  1.00  0.00     0.124 S 
ATOM     93  O   UNL A   1      53.813  25.592  23.889  1.00  0.00    -0.237 OA
ATOM     94  O   UNL A   1      54.546  25.849  26.235  1.00  0.00    -0.237 OA
ATOM     95  O   UNL A   1      53.593  23.710  25.469  1.00  0.00    -0.744 OA
ENDBRANCH  91  92
ENDBRANCH  59  84
ENDBRANCH  33  34
ENDBRANCH  25  28
ENDBRANCH  23  24
ENDBRANCH  22  23
ENDBRANCH   1  22
TORSDOF 17
ENDMDL
MODEL 3
REMARK VINA RESULT:     -10.8      3.491      6.503
REMARK SMILES Cc1onc(-c2cccc(Br)c2)c1C(=O)NCCCCCCNC(=O)c1ccc(-c2c3nc(c(-c4c(F)cc(S(=O)(=O)[O-])cc4F)c4ccc([nH]4)c(-c4c(F)cc(S(=O)(=O)[O-])cc4F)c4nc(c(-c5c(F)cc(S(=O)(=O)[O-])cc5F)c5ccc2[nH]5)C=C4)C=C3)cc1
REMARK SMILES IDX 20 1 19 2 18 3 17 4 16 5 14 6 15 7 13 9 1 10 2 11 3 12 4 13
REMARK SMILES IDX 5 14 6 15 7 16 12 17 8 18 10 19 9 20 11 21 21 22 22 23 23 24
REMARK SMILES IDX 24 25 25 27 26 28 27 29 91 30 28 31 90 32 29 33 30 34 31 35
REMARK SMILES IDX 84 36 32 37 89 38 83 39 85 40 33 41 88 42 82 43 81 44 34 46
REMARK SMILES IDX 68 47 47 48 67 49 48 50 51 51 66 52 86 53 49 54 50 55 65 57
REMARK SMILES IDX 87 58 52 59 35 60 36 61 45 62 37 63 38 64 44 65 46 66 39 67
REMARK SMILES IDX 40 68 41 69 42 70 43 71 69 72 70 73 79 74 71 75 72 76 78 77
REMARK SMILES IDX 80 78 73 79 74 80 75 81 76 82 77 83 53 84 54 85 63 86 55 87
REMARK SMILES IDX 56 88 62 89 64 90 57 91 58 92 59 93 60 94 61 95
REMARK H PARENT 16 8 23 26 85 45 51 56
REMARK Flexibility Score: inf
ROOT
ATOM      1  C   UNL A   1      35.383  32.738  30.548  1.00  0.00     0.002 C 
ENDROOT
BRANCH   1   2
ATOM      2  C   UNL A   1      36.809  33.261  30.325  1.00  0.00     0.002 C 
BRANCH   2   3
ATOM      3  C   UNL A   1      37.498  33.805  31.587  1.00  0.00     0.021 C 
BRANCH   3   4
ATOM      4  C   UNL A   1      38.151  32.711  32.434  1.00  0.00     0.116 C 
BRANCH   4   5
ATOM      5  N   UNL A   1      39.155  33.281  33.288  1.00  0.00    -0.352 N 
ATOM      6  C   UNL A   1      39.521  33.131  34.591  1.00  0.00     0.257 C 
ATOM      7  O   UNL A   1      40.481  33.849  34.887  1.00  0.00    -0.269 OA
ATOM      8  H   UNL A   1      39.714  33.940  32.818  1.00  0.00     0.163 HD
BRANCH   6   9
ATOM      9  C   UNL A   1      38.923  32.231  35.576  1.00  0.00     0.110 A 
ATOM     10  C   UNL A   1      37.487  33.433  37.519  1.00  0.00     0.092 C 
ATOM     11  C   UNL A   1      38.115  32.377  36.699  1.00  0.00     0.147 A 
ATOM     12  O   UNL A   1      37.808  31.147  37.199  1.00  0.00    -0.360 OA
ATOM     13  N   UNL A   1      38.429  30.167  36.485  1.00  0.00    -0.079 NA
ATOM     14  C   UNL A   1      39.128  30.793  35.535  1.00  0.00     0.126 A 
BRANCH  14  15
ATOM     15  C   UNL A   1      39.953  29.996  34.635  1.00  0.00     0.006 A 
ATOM     16  C   UNL A   1      39.371  29.326  33.549  1.00  0.00     0.010 A 
ATOM     17  C   UNL A   1      41.333  29.908  34.844  1.00  0.00     0.026 A 
ATOM     18  C   UNL A   1      40.156  28.544  32.700  1.00  0.00     0.002 A 
ATOM     19  C   UNL A   1      42.112  29.134  33.986  1.00  0.00     0.018 A 
ATOM     20  C   UNL A   1      41.530  28.447  32.920  1.00  0.00     0.016 A 
ATOM     21  Br  UNL A   1      43.976  29.006  34.272  1.00  0.00    -0.051 Br
ENDBRANCH  14  15
ENDBRANCH   6   9
ENDBRANCH   4   5
ENDBRANCH   3   4
ENDBRANCH   2   3
ENDBRANCH   1   2
BRANCH   1  22
ATOM     22  C   UNL A   1      34.364  33.198  29.502  1.00  0.00     0.021 C 
BRANCH  22  23
ATOM     23  C   UNL A   1      34.565  32.570  28.126  1.00  0.00     0.116 C 
BRANCH  23  24
ATOM     24  N   UNL A   1      33.876  31.293  28.022  1.00  0.00    -0.352 N 
ATOM     25  C   UNL A   1      34.403  30.033  27.919  1.00  0.00     0.251 C 
ATOM     26  H   UNL A   1      32.893  31.341  28.025  1.00  0.00     0.163 HD
ATOM     27  O   UNL A   1      33.685  29.096  27.567  1.00  0.00    -0.269 OA
BRANCH  25  28
ATOM     28  C   UNL A   1      35.827  29.806  28.226  1.00  0.00     0.039 A 
ATOM     29  C   UNL A   1      36.191  29.386  29.507  1.00  0.00     0.014 A 
ATOM     30  C   UNL A   1      36.806  30.024  27.251  1.00  0.00     0.014 A 
ATOM     31  C   UNL A   1      37.533  29.135  29.795  1.00  0.00     0.010 A 
ATOM     32  C   UNL A   1      38.132  29.700  27.517  1.00  0.00     0.010 A 
ATOM     33  C   UNL A   1      38.511  29.262  28.794  1.00  0.00    -0.014 A 
BRANCH  33  34
ATOM     34  C   UNL A   1      39.935  28.944  29.065  1.00  0.00     0.031 A 
ATOM     35  C   UNL A   1      40.840  29.984  29.666  1.00  0.00     0.074 A 
ATOM     36  C   UNL A   1      40.423  27.739  28.712  1.00  0.00     0.049 A 
ATOM     37  N   UNL A   1      42.121  29.915  29.920  1.00  0.00    -0.248 NA
ATOM     38  C   UNL A   1      40.232  31.283  29.999  1.00  0.00     0.031 C 
ATOM     39  C   UNL A   1      39.653  26.668  28.077  1.00  0.00     0.029 A 
ATOM     40  N   UNL A   1      41.687  27.215  28.827  1.00  0.00    -0.354 N 
ATOM     41  C   UNL A   1      42.474  31.159  30.431  1.00  0.00     0.074 A 
ATOM     42  C   UNL A   1      41.285  31.983  30.395  1.00  0.00     0.031 C 
ATOM     43  C   UNL A   1      40.452  25.606  27.883  1.00  0.00     0.029 A 
ATOM     44  C   UNL A   1      41.799  25.934  28.339  1.00  0.00     0.049 A 
ATOM     45  H   UNL A   1      42.440  27.709  29.222  1.00  0.00     0.167 HD
ATOM     46  C   UNL A   1      43.673  31.570  30.908  1.00  0.00     0.037 A 
ATOM     47  C   UNL A   1      42.869  25.120  28.261  1.00  0.00     0.037 A 
ATOM     48  C   UNL A   1      44.846  30.736  30.956  1.00  0.00     0.049 A 
ATOM     49  C   UNL A   1      44.193  25.600  28.788  1.00  0.00     0.074 A 
ATOM     50  C   UNL A   1      46.094  31.034  31.473  1.00  0.00     0.029 A 
ATOM     51  N   UNL A   1      44.919  29.439  30.464  1.00  0.00    -0.354 N 
ATOM     52  N   UNL A   1      44.493  26.757  29.330  1.00  0.00    -0.248 NA
ATOM     53  C   UNL A   1      45.322  24.666  28.700  1.00  0.00     0.031 C 
ATOM     54  C   UNL A   1      46.935  29.940  31.246  1.00  0.00     0.029 A 
ATOM     55  C   UNL A   1      46.197  28.936  30.641  1.00  0.00     0.049 A 
ATOM     56  H   UNL A   1      44.171  28.951  30.050  1.00  0.00     0.167 HD
ATOM     57  C   UNL A   1      45.839  26.678  29.672  1.00  0.00     0.074 A 
ATOM     58  C   UNL A   1      46.290  25.356  29.287  1.00  0.00     0.031 C 
ATOM     59  C   UNL A   1      46.629  27.615  30.254  1.00  0.00     0.037 A 
BRANCH  46  60
ATOM     60  C   UNL A   1      43.776  32.983  31.416  1.00  0.00     0.058 A 
ATOM     61  C   UNL A   1      43.519  33.309  32.758  1.00  0.00     0.135 A 
ATOM     62  C   UNL A   1      44.161  34.025  30.555  1.00  0.00     0.135 A 
ATOM     63  F   UNL A   1      43.132  32.357  33.622  1.00  0.00    -0.206 F 
ATOM     64  C   UNL A   1      43.605  34.617  33.220  1.00  0.00     0.059 A 
ATOM     65  C   UNL A   1      44.286  35.336  31.003  1.00  0.00     0.059 A 
ATOM     66  F   UNL A   1      44.421  33.773  29.263  1.00  0.00    -0.206 F 
ATOM     67  C   UNL A   1      43.988  35.625  32.334  1.00  0.00     0.060 A 
BRANCH  67  68
ATOM     68  S   UNL A   1      44.091  37.319  32.950  1.00  0.00     0.124 S 
ATOM     69  O   UNL A   1      44.072  38.082  31.705  1.00  0.00    -0.237 OA
ATOM     70  O   UNL A   1      42.892  37.424  33.775  1.00  0.00    -0.237 OA
ATOM     71  O   UNL A   1      45.354  37.342  33.679  1.00  0.00    -0.744 OA
ENDBRANCH  67  68
ENDBRANCH  46  60
BRANCH  47  72
ATOM     72  C   UNL A   1      42.722  23.759  27.678  1.00  0.00     0.058 A 
ATOM     73  C   UNL A   1      42.852  23.548  26.297  1.00  0.00     0.135 A 
ATOM     74  C   UNL A   1      42.476  22.640  28.489  1.00  0.00     0.135 A 
ATOM     75  F   UNL A   1      43.083  24.587  25.479  1.00  0.00    -0.206 F 
ATOM     76  C   UNL A   1      42.728  22.281  25.738  1.00  0.00     0.059 A 
ATOM     77  C   UNL A   1      42.376  21.358  27.956  1.00  0.00     0.059 A 
ATOM     78  F   UNL A   1      42.363  22.785  29.818  1.00  0.00    -0.206 F 
ATOM     79  C   UNL A   1      42.495  21.191  26.577  1.00  0.00     0.060 A 
BRANCH  79  80
ATOM     80  S   UNL A   1      42.392  19.542  25.847  1.00  0.00     0.124 S 
ATOM     81  O   UNL A   1      40.991  19.483  25.450  1.00  0.00    -0.237 OA
ATOM     82  O   UNL A   1      43.363  19.629  24.760  1.00  0.00    -0.237 OA
ATOM     83  O   UNL A   1      42.775  18.663  26.949  1.00  0.00    -0.744 OA
ENDBRANCH  79  80
ENDBRANCH  47  72
BRANCH  59  84
ATOM     84  C   UNL A   1      48.057  27.235  30.540  1.00  0.00     0.058 A 
ATOM     85  C   UNL A   1      49.078  27.438  29.599  1.00  0.00     0.135 A 
ATOM     86  C   UNL A   1      48.414  26.709  31.792  1.00  0.00     0.135 A 
ATOM     87  F   UNL A   1      48.791  27.932  28.384  1.00  0.00    -0.206 F 
ATOM     88  C   UNL A   1      50.401  27.112  29.881  1.00  0.00     0.059 A 
ATOM     89  C   UNL A   1      49.734  26.404  32.107  1.00  0.00     0.059 A 
ATOM     90  F   UNL A   1      47.477  26.505  32.732  1.00  0.00    -0.206 F 
ATOM     91  C   UNL A   1      50.719  26.597  31.140  1.00  0.00     0.060 A 
BRANCH  91  92
ATOM     92  S   UNL A   1      52.444  26.209  31.504  1.00  0.00     0.124 S 
ATOM     93  O   UNL A   1      52.341  24.836  31.984  1.00  0.00    -0.237 OA
ATOM     94  O   UNL A   1      53.083  26.381  30.204  1.00  0.00    -0.237 OA
ATOM     95  O   UNL A   1      52.810  27.200  32.511  1.00  0.00    -0.744 OA
ENDBRANCH  91  92
ENDBRANCH  59  84
ENDBRANCH  33  34
ENDBRANCH  25  28
ENDBRANCH  23  24
ENDBRANCH  22  23
ENDBRANCH   1  22
TORSDOF 17
ENDMDL
