MODEL 1
REMARK VINA RESULT:     -10.8      0.000      0.000
REMARK SMILES COc1ccc(CCNC(=O)[C@@]2(C)CC[C@@H](C(=O)NCCCCCCNC(=O)c3ccc(-c4c5nc(c(-c6c(F)cc(S(=O)(=O)[O-])cc6F)c6ccc([nH]6)c(-c6c(F)cc(S(=O)(=O)[O-])cc6F)c6nc(c(-c7c(F)cc(S(=O)(=O)[O-])cc7F)c7ccc4[nH]7)C=C6)C=C5)cc3)C2(C)C)cc1OC
REMARK SMILES IDX 21 1 20 2 19 3 17 4 18 5 16 7 12 8 13 9 14 10 95 11 15 12
REMARK SMILES IDX 96 13 97 14 10 15 9 16 11 18 8 19 7 20 6 21 3 22 4 23 99 24
REMARK SMILES IDX 5 25 98 26 2 27 1 28 100 29 101 30 22 31 23 32 24 33 25 34
REMARK SMILES IDX 26 35 27 36 28 38 29 39 30 40 94 41 31 42 93 43 32 44 33 45
REMARK SMILES IDX 34 46 87 47 35 48 92 49 86 50 88 51 36 52 91 53 85 54 84 55
REMARK SMILES IDX 37 57 71 58 50 59 70 60 51 61 54 62 69 63 89 64 52 65 53 66
REMARK SMILES IDX 68 68 90 69 55 70 38 71 39 72 48 73 40 74 41 75 47 76 49 77
REMARK SMILES IDX 42 78 43 79 44 80 45 81 46 82 72 83 73 84 82 85 74 86 75 87
REMARK SMILES IDX 81 88 83 89 76 90 77 91 78 92 79 93 80 94 56 95 57 96 66 97
REMARK SMILES IDX 58 98 59 99 65 100 67 101 60 102 61 103 62 104 63 105 64 106
REMARK H PARENT 19 6 9 17 26 37 88 56 54 67
REMARK Flexibility Score: inf
ROOT
ATOM      1  C   UNL A   1      35.568  30.592  27.966  1.00  0.00     0.021 C 
ENDROOT
BRANCH   1   2
ATOM      2  C   UNL A   1      35.136  29.277  27.326  1.00  0.00     0.116 C 
BRANCH   2   3
ATOM      3  N   UNL A   1      33.814  28.874  27.736  1.00  0.00    -0.356 N 
ATOM      4  C   UNL A   1      32.701  28.593  27.022  1.00  0.00     0.223 C 
ATOM      5  O   UNL A   1      31.685  28.325  27.678  1.00  0.00    -0.275 OA
ATOM      6  H   UNL A   1      33.702  28.789  28.711  1.00  0.00     0.163 HD
BRANCH   4   7
ATOM      7  C   UNL A   1      32.638  28.525  25.487  1.00  0.00     0.085 C 
ATOM      8  C   UNL A   1      31.164  27.095  23.976  1.00  0.00     0.052 C 
ATOM      9  C   UNL A   1      31.285  26.994  22.439  1.00  0.00     0.022 C 
ATOM     10  C   UNL A   1      30.494  28.454  24.324  1.00  0.00     0.018 C 
ATOM     11  C   UNL A   1      32.619  27.170  24.709  1.00  0.00    -0.010 C 
ATOM     12  C   UNL A   1      31.547  29.389  24.882  1.00  0.00     0.015 C 
ATOM     13  C   UNL A   1      33.034  26.001  25.620  1.00  0.00     0.013 C 
ATOM     14  C   UNL A   1      33.788  27.222  23.677  1.00  0.00     0.013 C 
BRANCH   8  15
ATOM     15  C   UNL A   1      30.249  25.900  24.405  1.00  0.00     0.226 C 
ATOM     16  N   UNL A   1      30.292  24.673  23.819  1.00  0.00    -0.355 N 
ATOM     17  H   UNL A   1      29.575  24.075  24.132  1.00  0.00     0.163 HD
ATOM     18  O   UNL A   1      29.447  25.980  25.338  1.00  0.00    -0.274 OA
BRANCH  16  19
ATOM     19  C   UNL A   1      31.161  24.046  22.830  1.00  0.00     0.120 C 
BRANCH  19  20
ATOM     20  C   UNL A   1      31.681  22.676  23.291  1.00  0.00     0.057 C 
BRANCH  20  21
ATOM     21  C   UNL A   1      33.105  22.709  23.787  1.00  0.00    -0.042 A 
ATOM     22  C   UNL A   1      35.727  22.802  24.803  1.00  0.00     0.160 A 
ATOM     23  C   UNL A   1      35.426  23.369  23.557  1.00  0.00     0.051 A 
ATOM     24  C   UNL A   1      34.723  22.178  25.550  1.00  0.00     0.160 A 
ATOM     25  C   UNL A   1      34.126  23.311  23.046  1.00  0.00     0.008 A 
ATOM     26  C   UNL A   1      33.420  22.146  25.032  1.00  0.00     0.054 A 
BRANCH  22  27
ATOM     27  O   UNL A   1      36.978  23.001  25.317  1.00  0.00    -0.493 OA
ATOM     28  C   UNL A   1      37.812  21.849  25.201  1.00  0.00     0.278 C 
ENDBRANCH  22  27
BRANCH  24  29
ATOM     29  O   UNL A   1      34.812  21.586  26.781  1.00  0.00    -0.493 OA
ATOM     30  C   UNL A   1      33.881  21.972  27.781  1.00  0.00     0.278 C 
ENDBRANCH  24  29
ENDBRANCH  20  21
ENDBRANCH  19  20
ENDBRANCH  16  19
ENDBRANCH   8  15
ENDBRANCH   4   7
ENDBRANCH   2   3
ENDBRANCH   1   2
BRANCH   1  31
ATOM     31  C   UNL A   1      34.435  31.591  28.191  1.00  0.00     0.002 C 
BRANCH  31  32
ATOM     32  C   UNL A   1      34.883  33.044  28.345  1.00  0.00     0.002 C 
BRANCH  32  33
ATOM     33  C   UNL A   1      33.774  34.084  28.175  1.00  0.00     0.021 C 
BRANCH  33  34
ATOM     34  C   UNL A   1      34.033  35.414  28.875  1.00  0.00     0.116 C 
BRANCH  34  35
ATOM     35  N   UNL A   1      33.050  35.685  29.910  1.00  0.00    -0.352 N 
ATOM     36  C   UNL A   1      33.031  35.241  31.207  1.00  0.00     0.251 C 
ATOM     37  H   UNL A   1      32.298  36.263  29.645  1.00  0.00     0.163 HD
ATOM     38  O   UNL A   1      32.028  35.388  31.901  1.00  0.00    -0.269 OA
BRANCH  36  39
ATOM     39  C   UNL A   1      34.227  34.570  31.750  1.00  0.00     0.039 A 
ATOM     40  C   UNL A   1      34.205  33.188  31.948  1.00  0.00     0.014 A 
ATOM     41  C   UNL A   1      35.378  35.311  32.039  1.00  0.00     0.014 A 
ATOM     42  C   UNL A   1      35.358  32.539  32.392  1.00  0.00     0.010 A 
ATOM     43  C   UNL A   1      36.544  34.654  32.406  1.00  0.00     0.010 A 
ATOM     44  C   UNL A   1      36.543  33.263  32.601  1.00  0.00    -0.014 A 
BRANCH  44  45
ATOM     45  C   UNL A   1      37.790  32.605  33.062  1.00  0.00     0.031 A 
ATOM     46  C   UNL A   1      38.289  32.866  34.458  1.00  0.00     0.074 A 
ATOM     47  C   UNL A   1      38.508  31.845  32.213  1.00  0.00     0.049 A 
ATOM     48  N   UNL A   1      39.415  32.506  35.016  1.00  0.00    -0.248 NA
ATOM     49  C   UNL A   1      37.415  33.666  35.333  1.00  0.00     0.031 C 
ATOM     50  C   UNL A   1      38.141  31.542  30.828  1.00  0.00     0.029 A 
ATOM     51  N   UNL A   1      39.711  31.204  32.383  1.00  0.00    -0.354 N 
ATOM     52  C   UNL A   1      39.394  33.053  36.293  1.00  0.00     0.074 A 
ATOM     53  C   UNL A   1      38.170  33.811  36.411  1.00  0.00     0.031 C 
ATOM     54  C   UNL A   1      39.092  30.769  30.279  1.00  0.00     0.029 A 
ATOM     55  C   UNL A   1      40.159  30.560  31.254  1.00  0.00     0.049 A 
ATOM     56  H   UNL A   1      40.205  31.206  33.234  1.00  0.00     0.167 HD
ATOM     57  C   UNL A   1      40.306  32.917  37.285  1.00  0.00     0.037 A 
ATOM     58  C   UNL A   1      41.308  29.894  31.025  1.00  0.00     0.037 A 
ATOM     59  C   UNL A   1      41.511  32.139  37.163  1.00  0.00     0.049 A 
ATOM     60  C   UNL A   1      42.316  29.770  32.136  1.00  0.00     0.074 A 
ATOM     61  C   UNL A   1      42.478  31.899  38.122  1.00  0.00     0.029 A 
ATOM     62  N   UNL A   1      41.912  31.476  36.011  1.00  0.00    -0.354 N 
ATOM     63  N   UNL A   1      42.264  30.258  33.354  1.00  0.00    -0.248 NA
ATOM     64  C   UNL A   1      43.535  29.002  31.850  1.00  0.00     0.031 C 
ATOM     65  C   UNL A   1      43.491  31.134  37.535  1.00  0.00     0.029 A 
ATOM     66  C   UNL A   1      43.123  30.842  36.232  1.00  0.00     0.049 A 
ATOM     67  H   UNL A   1      41.411  31.460  35.165  1.00  0.00     0.167 HD
ATOM     68  C   UNL A   1      43.419  29.817  33.991  1.00  0.00     0.074 A 
ATOM     69  C   UNL A   1      44.154  29.029  33.023  1.00  0.00     0.031 C 
ATOM     70  C   UNL A   1      43.828  30.038  35.264  1.00  0.00     0.037 A 
BRANCH  57  71
ATOM     71  C   UNL A   1      40.038  33.627  38.585  1.00  0.00     0.058 A 
ATOM     72  C   UNL A   1      40.687  34.825  38.921  1.00  0.00     0.135 A 
ATOM     73  C   UNL A   1      39.093  33.121  39.491  1.00  0.00     0.135 A 
ATOM     74  F   UNL A   1      41.613  35.348  38.099  1.00  0.00    -0.206 F 
ATOM     75  C   UNL A   1      40.433  35.480  40.122  1.00  0.00     0.059 A 
ATOM     76  C   UNL A   1      38.798  33.775  40.684  1.00  0.00     0.059 A 
ATOM     77  F   UNL A   1      38.442  31.978  39.223  1.00  0.00    -0.206 F 
ATOM     78  C   UNL A   1      39.486  34.946  40.996  1.00  0.00     0.060 A 
BRANCH  78  79
ATOM     79  S   UNL A   1      39.163  35.812  42.547  1.00  0.00     0.124 S 
ATOM     80  O   UNL A   1      37.765  35.469  42.787  1.00  0.00    -0.237 OA
ATOM     81  O   UNL A   1      40.130  35.199  43.452  1.00  0.00    -0.237 OA
ATOM     82  O   UNL A   1      39.417  37.211  42.216  1.00  0.00    -0.744 OA
ENDBRANCH  78  79
ENDBRANCH  57  71
BRANCH  58  83
ATOM     83  C   UNL A   1      41.558  29.277  29.694  1.00  0.00     0.058 A 
ATOM     84  C   UNL A   1      41.028  28.019  29.370  1.00  0.00     0.135 A 
ATOM     85  C   UNL A   1      42.321  29.934  28.716  1.00  0.00     0.135 A 
ATOM     86  F   UNL A   1      40.299  27.346  30.273  1.00  0.00    -0.206 F 
ATOM     87  C   UNL A   1      41.260  27.425  28.134  1.00  0.00     0.059 A 
ATOM     88  C   UNL A   1      42.544  29.374  27.461  1.00  0.00     0.059 A 
ATOM     89  F   UNL A   1      42.841  31.145  28.969  1.00  0.00    -0.206 F 
ATOM     90  C   UNL A   1      42.018  28.113  27.184  1.00  0.00     0.060 A 
BRANCH  90  91
ATOM     91  S   UNL A   1      42.280  27.348  25.569  1.00  0.00     0.124 S 
ATOM     92  O   UNL A   1      43.578  26.711  25.753  1.00  0.00    -0.237 OA
ATOM     93  O   UNL A   1      41.135  26.448  25.468  1.00  0.00    -0.237 OA
ATOM     94  O   UNL A   1      42.257  28.484  24.652  1.00  0.00    -0.744 OA
ENDBRANCH  90  91
ENDBRANCH  58  83
BRANCH  70  95
ATOM     95  C   UNL A   1      45.095  29.369  35.722  1.00  0.00     0.058 A 
ATOM     96  C   UNL A   1      45.093  28.102  36.323  1.00  0.00     0.135 A 
ATOM     97  C   UNL A   1      46.337  29.973  35.464  1.00  0.00     0.135 A 
ATOM     98  F   UNL A   1      43.934  27.484  36.598  1.00  0.00    -0.206 F 
ATOM     99  C   UNL A   1      46.281  27.457  36.657  1.00  0.00     0.059 A 
ATOM    100  C   UNL A   1      47.536  29.335  35.762  1.00  0.00     0.059 A 
ATOM    101  F   UNL A   1      46.394  31.182  34.883  1.00  0.00    -0.206 F 
ATOM    102  C   UNL A   1      47.497  28.078  36.364  1.00  0.00     0.060 A 
BRANCH 102 103
ATOM    103  S   UNL A   1      49.029  27.199  36.738  1.00  0.00     0.124 S 
ATOM    104  O   UNL A   1      49.533  26.905  35.401  1.00  0.00    -0.237 OA
ATOM    105  O   UNL A   1      49.781  28.194  37.495  1.00  0.00    -0.237 OA
ATOM    106  O   UNL A   1      48.579  26.042  37.508  1.00  0.00    -0.744 OA
ENDBRANCH 102 103
ENDBRANCH  70  95
ENDBRANCH  44  45
ENDBRANCH  36  39
ENDBRANCH  34  35
ENDBRANCH  33  34
ENDBRANCH  32  33
ENDBRANCH  31  32
ENDBRANCH   1  31
TORSDOF 22
ENDMDL
MODEL 2
REMARK VINA RESULT:     -10.8      6.009     10.112
REMARK SMILES COc1ccc(CCNC(=O)[C@@]2(C)CC[C@@H](C(=O)NCCCCCCNC(=O)c3ccc(-c4c5nc(c(-c6c(F)cc(S(=O)(=O)[O-])cc6F)c6ccc([nH]6)c(-c6c(F)cc(S(=O)(=O)[O-])cc6F)c6nc(c(-c7c(F)cc(S(=O)(=O)[O-])cc7F)c7ccc4[nH]7)C=C6)C=C5)cc3)C2(C)C)cc1OC
REMARK SMILES IDX 21 1 20 2 19 3 17 4 18 5 16 7 12 8 13 9 14 10 95 11 15 12
REMARK SMILES IDX 96 13 97 14 10 15 9 16 11 18 8 19 7 20 6 21 3 22 4 23 99 24
REMARK SMILES IDX 5 25 98 26 2 27 1 28 100 29 101 30 22 31 23 32 24 33 25 34
REMARK SMILES IDX 26 35 27 36 28 38 29 39 30 40 94 41 31 42 93 43 32 44 33 45
REMARK SMILES IDX 34 46 87 47 35 48 92 49 86 50 88 51 36 52 91 53 85 54 84 55
REMARK SMILES IDX 37 57 71 58 50 59 70 60 51 61 54 62 69 63 89 64 52 65 53 66
REMARK SMILES IDX 68 68 90 69 55 70 38 71 39 72 48 73 40 74 41 75 47 76 49 77
REMARK SMILES IDX 42 78 43 79 44 80 45 81 46 82 72 83 73 84 82 85 74 86 75 87
REMARK SMILES IDX 81 88 83 89 76 90 77 91 78 92 79 93 80 94 56 95 57 96 66 97
REMARK SMILES IDX 58 98 59 99 65 100 67 101 60 102 61 103 62 104 63 105 64 106
REMARK H PARENT 19 6 9 17 26 37 88 56 54 67
REMARK Flexibility Score: inf
ROOT
ATOM      1  C   UNL A   1      35.345  30.208  27.592  1.00  0.00     0.021 C 
ENDROOT
BRANCH   1   2
ATOM      2  C   UNL A   1      34.312  29.127  27.290  1.00  0.00     0.116 C 
BRANCH   2   3
ATOM      3  N   UNL A   1      33.087  29.670  26.759  1.00  0.00    -0.356 N 
ATOM      4  C   UNL A   1      32.471  29.494  25.568  1.00  0.00     0.223 C 
ATOM      5  O   UNL A   1      31.439  30.153  25.384  1.00  0.00    -0.275 OA
ATOM      6  H   UNL A   1      32.614  30.278  27.372  1.00  0.00     0.163 HD
BRANCH   4   7
ATOM      7  C   UNL A   1      32.926  28.502  24.483  1.00  0.00     0.085 C 
ATOM      8  C   UNL A   1      31.615  26.669  23.293  1.00  0.00     0.052 C 
ATOM      9  C   UNL A   1      32.210  25.626  22.322  1.00  0.00     0.022 C 
ATOM     10  C   UNL A   1      31.517  28.030  22.549  1.00  0.00     0.018 C 
ATOM     11  C   UNL A   1      32.603  26.976  24.555  1.00  0.00    -0.010 C 
ATOM     12  C   UNL A   1      32.599  28.952  23.071  1.00  0.00     0.015 C 
ATOM     13  C   UNL A   1      32.128  26.574  25.963  1.00  0.00     0.013 C 
ATOM     14  C   UNL A   1      33.960  26.217  24.428  1.00  0.00     0.013 C 
BRANCH   8  15
ATOM     15  C   UNL A   1      30.190  26.135  23.662  1.00  0.00     0.226 C 
ATOM     16  N   UNL A   1      29.891  24.814  23.783  1.00  0.00    -0.355 N 
ATOM     17  H   UNL A   1      28.928  24.649  23.908  1.00  0.00     0.163 HD
ATOM     18  O   UNL A   1      29.243  26.886  23.908  1.00  0.00    -0.274 OA
BRANCH  16  19
ATOM     19  C   UNL A   1      30.677  23.585  23.769  1.00  0.00     0.120 C 
BRANCH  19  20
ATOM     20  C   UNL A   1      31.456  23.371  25.075  1.00  0.00     0.057 C 
BRANCH  20  21
ATOM     21  C   UNL A   1      32.596  22.392  24.942  1.00  0.00    -0.042 A 
ATOM     22  C   UNL A   1      34.671  20.502  24.755  1.00  0.00     0.160 A 
ATOM     23  C   UNL A   1      34.957  21.852  25.004  1.00  0.00     0.051 A 
ATOM     24  C   UNL A   1      33.347  20.085  24.591  1.00  0.00     0.160 A 
ATOM     25  C   UNL A   1      33.927  22.793  25.083  1.00  0.00     0.008 A 
ATOM     26  C   UNL A   1      32.324  21.039  24.693  1.00  0.00     0.054 A 
BRANCH  22  27
ATOM     27  O   UNL A   1      35.699  19.603  24.819  1.00  0.00    -0.493 OA
ATOM     28  C   UNL A   1      36.963  20.225  25.039  1.00  0.00     0.278 C 
ENDBRANCH  22  27
BRANCH  24  29
ATOM     29  O   UNL A   1      32.868  18.825  24.359  1.00  0.00    -0.493 OA
ATOM     30  C   UNL A   1      32.716  17.949  25.466  1.00  0.00     0.278 C 
ENDBRANCH  24  29
ENDBRANCH  20  21
ENDBRANCH  19  20
ENDBRANCH  16  19
ENDBRANCH   8  15
ENDBRANCH   4   7
ENDBRANCH   2   3
ENDBRANCH   1   2
BRANCH   1  31
ATOM     31  C   UNL A   1      34.751  31.573  27.935  1.00  0.00     0.002 C 
BRANCH  31  32
ATOM     32  C   UNL A   1      35.767  32.714  28.003  1.00  0.00     0.002 C 
BRANCH  32  33
ATOM     33  C   UNL A   1      35.785  33.485  29.324  1.00  0.00     0.021 C 
BRANCH  33  34
ATOM     34  C   UNL A   1      36.816  32.995  30.335  1.00  0.00     0.116 C 
BRANCH  34  35
ATOM     35  N   UNL A   1      36.342  31.840  31.080  1.00  0.00    -0.352 N 
ATOM     36  C   UNL A   1      36.888  30.584  31.146  1.00  0.00     0.251 C 
ATOM     37  H   UNL A   1      35.521  31.978  31.605  1.00  0.00     0.163 HD
ATOM     38  O   UNL A   1      36.261  29.658  31.653  1.00  0.00    -0.269 OA
BRANCH  36  39
ATOM     39  C   UNL A   1      38.234  30.360  30.584  1.00  0.00     0.039 A 
ATOM     40  C   UNL A   1      39.299  30.095  31.447  1.00  0.00     0.014 A 
ATOM     41  C   UNL A   1      38.430  30.388  29.200  1.00  0.00     0.014 A 
ATOM     42  C   UNL A   1      40.558  29.811  30.918  1.00  0.00     0.010 A 
ATOM     43  C   UNL A   1      39.664  30.029  28.674  1.00  0.00     0.010 A 
ATOM     44  C   UNL A   1      40.745  29.751  29.526  1.00  0.00    -0.014 A 
BRANCH  44  45
ATOM     45  C   UNL A   1      42.066  29.440  28.928  1.00  0.00     0.031 A 
ATOM     46  C   UNL A   1      42.339  28.046  28.430  1.00  0.00     0.074 A 
ATOM     47  C   UNL A   1      43.035  30.375  28.902  1.00  0.00     0.049 A 
ATOM     48  N   UNL A   1      43.458  27.524  28.000  1.00  0.00    -0.248 NA
ATOM     49  C   UNL A   1      41.207  27.104  28.450  1.00  0.00     0.031 C 
ATOM     50  C   UNL A   1      42.897  31.752  29.380  1.00  0.00     0.029 A 
ATOM     51  N   UNL A   1      44.338  30.303  28.474  1.00  0.00    -0.354 N 
ATOM     52  C   UNL A   1      43.171  26.195  27.720  1.00  0.00     0.074 A 
ATOM     53  C   UNL A   1      41.789  25.974  28.078  1.00  0.00     0.031 C 
ATOM     54  C   UNL A   1      44.064  32.396  29.210  1.00  0.00     0.029 A 
ATOM     55  C   UNL A   1      45.046  31.467  28.658  1.00  0.00     0.049 A 
ATOM     56  H   UNL A   1      44.728  29.493  28.073  1.00  0.00     0.167 HD
ATOM     57  C   UNL A   1      43.983  25.248  27.193  1.00  0.00     0.037 A 
ATOM     58  C   UNL A   1      46.344  31.748  28.427  1.00  0.00     0.037 A 
ATOM     59  C   UNL A   1      45.353  25.487  26.820  1.00  0.00     0.049 A 
ATOM     60  C   UNL A   1      47.233  30.675  27.857  1.00  0.00     0.074 A 
ATOM     61  C   UNL A   1      46.249  24.610  26.235  1.00  0.00     0.029 A 
ATOM     62  N   UNL A   1      46.023  26.690  26.994  1.00  0.00    -0.354 N 
ATOM     63  N   UNL A   1      46.938  29.431  27.559  1.00  0.00    -0.248 NA
ATOM     64  C   UNL A   1      48.631  31.041  27.586  1.00  0.00     0.031 C 
ATOM     65  C   UNL A   1      47.477  25.266  26.104  1.00  0.00     0.029 A 
ATOM     66  C   UNL A   1      47.327  26.571  26.545  1.00  0.00     0.049 A 
ATOM     67  H   UNL A   1      45.630  27.505  27.380  1.00  0.00     0.167 HD
ATOM     68  C   UNL A   1      48.097  28.882  27.022  1.00  0.00     0.074 A 
ATOM     69  C   UNL A   1      49.102  29.925  27.044  1.00  0.00     0.031 C 
ATOM     70  C   UNL A   1      48.307  27.630  26.547  1.00  0.00     0.037 A 
BRANCH  57  71
ATOM     71  C   UNL A   1      43.416  23.869  26.994  1.00  0.00     0.058 A 
ATOM     72  C   UNL A   1      42.975  23.423  25.738  1.00  0.00     0.135 A 
ATOM     73  C   UNL A   1      43.345  22.967  28.068  1.00  0.00     0.135 A 
ATOM     74  F   UNL A   1      43.005  24.248  24.678  1.00  0.00    -0.206 F 
ATOM     75  C   UNL A   1      42.454  22.145  25.559  1.00  0.00     0.059 A 
ATOM     76  C   UNL A   1      42.858  21.673  27.907  1.00  0.00     0.059 A 
ATOM     77  F   UNL A   1      43.752  23.338  29.292  1.00  0.00    -0.206 F 
ATOM     78  C   UNL A   1      42.402  21.277  26.650  1.00  0.00     0.060 A 
BRANCH  78  79
ATOM     79  S   UNL A   1      41.731  19.620  26.399  1.00  0.00     0.124 S 
ATOM     80  O   UNL A   1      40.320  19.910  26.168  1.00  0.00    -0.237 OA
ATOM     81  O   UNL A   1      42.481  19.154  25.237  1.00  0.00    -0.237 OA
ATOM     82  O   UNL A   1      42.034  18.936  27.653  1.00  0.00    -0.744 OA
ENDBRANCH  78  79
ENDBRANCH  57  71
BRANCH  58  83
ATOM     83  C   UNL A   1      46.874  33.107  28.716  1.00  0.00     0.058 A 
ATOM     84  C   UNL A   1      47.398  33.425  29.979  1.00  0.00     0.135 A 
ATOM     85  C   UNL A   1      46.877  34.114  27.738  1.00  0.00     0.135 A 
ATOM     86  F   UNL A   1      47.410  32.500  30.951  1.00  0.00    -0.206 F 
ATOM     87  C   UNL A   1      47.888  34.694  30.268  1.00  0.00     0.059 A 
ATOM     88  C   UNL A   1      47.389  35.383  27.994  1.00  0.00     0.059 A 
ATOM     89  F   UNL A   1      46.399  33.860  26.510  1.00  0.00    -0.206 F 
ATOM     90  C   UNL A   1      47.882  35.666  29.266  1.00  0.00     0.060 A 
BRANCH  90  91
ATOM     91  S   UNL A   1      48.557  37.299  29.643  1.00  0.00     0.124 S 
ATOM     92  O   UNL A   1      48.918  37.150  31.047  1.00  0.00    -0.237 OA
ATOM     93  O   UNL A   1      49.671  37.393  28.704  1.00  0.00    -0.237 OA
ATOM     94  O   UNL A   1      47.439  38.196  29.369  1.00  0.00    -0.744 OA
ENDBRANCH  90  91
ENDBRANCH  58  83
BRANCH  70  95
ATOM     95  C   UNL A   1      49.650  27.321  25.945  1.00  0.00     0.058 A 
ATOM     96  C   UNL A   1      50.742  26.914  26.726  1.00  0.00     0.135 A 
ATOM     97  C   UNL A   1      49.812  27.343  24.549  1.00  0.00     0.135 A 
ATOM     98  F   UNL A   1      50.642  26.882  28.064  1.00  0.00    -0.206 F 
ATOM     99  C   UNL A   1      51.950  26.544  26.144  1.00  0.00     0.059 A 
ATOM    100  C   UNL A   1      51.001  26.949  23.945  1.00  0.00     0.059 A 
ATOM    101  F   UNL A   1      48.795  27.717  23.756  1.00  0.00    -0.206 F 
ATOM    102  C   UNL A   1      52.067  26.556  24.752  1.00  0.00     0.060 A 
BRANCH 102 103
ATOM    103  S   UNL A   1      53.618  26.005  24.010  1.00  0.00     0.124 S 
ATOM    104  O   UNL A   1      54.541  27.044  24.453  1.00  0.00    -0.237 OA
ATOM    105  O   UNL A   1      53.803  24.691  24.618  1.00  0.00    -0.237 OA
ATOM    106  O   UNL A   1      53.326  25.992  22.579  1.00  0.00    -0.744 OA
ENDBRANCH 102 103
ENDBRANCH  70  95
ENDBRANCH  44  45
ENDBRANCH  36  39
ENDBRANCH  34  35
ENDBRANCH  33  34
ENDBRANCH  32  33
ENDBRANCH  31  32
ENDBRANCH   1  31
TORSDOF 22
ENDMDL
MODEL 3
REMARK VINA RESULT:     -10.3      2.774      9.138
REMARK SMILES COc1ccc(CCNC(=O)[C@@]2(C)CC[C@@H](C(=O)NCCCCCCNC(=O)c3ccc(-c4c5nc(c(-c6c(F)cc(S(=O)(=O)[O-])cc6F)c6ccc([nH]6)c(-c6c(F)cc(S(=O)(=O)[O-])cc6F)c6nc(c(-c7c(F)cc(S(=O)(=O)[O-])cc7F)c7ccc4[nH]7)C=C6)C=C5)cc3)C2(C)C)cc1OC
REMARK SMILES IDX 21 1 20 2 19 3 17 4 18 5 16 7 12 8 13 9 14 10 95 11 15 12
REMARK SMILES IDX 96 13 97 14 10 15 9 16 11 18 8 19 7 20 6 21 3 22 4 23 99 24
REMARK SMILES IDX 5 25 98 26 2 27 1 28 100 29 101 30 22 31 23 32 24 33 25 34
REMARK SMILES IDX 26 35 27 36 28 38 29 39 30 40 94 41 31 42 93 43 32 44 33 45
REMARK SMILES IDX 34 46 87 47 35 48 92 49 86 50 88 51 36 52 91 53 85 54 84 55
REMARK SMILES IDX 37 57 71 58 50 59 70 60 51 61 54 62 69 63 89 64 52 65 53 66
REMARK SMILES IDX 68 68 90 69 55 70 38 71 39 72 48 73 40 74 41 75 47 76 49 77
REMARK SMILES IDX 42 78 43 79 44 80 45 81 46 82 72 83 73 84 82 85 74 86 75 87
REMARK SMILES IDX 81 88 83 89 76 90 77 91 78 92 79 93 80 94 56 95 57 96 66 97
REMARK SMILES IDX 58 98 59 99 65 100 67 101 60 102 61 103 62 104 63 105 64 106
REMARK H PARENT 19 6 9 17 26 37 88 56 54 67
REMARK Flexibility Score: inf
ROOT
ATOM      1  C   UNL A   1      39.426  20.083  25.626  1.00  0.00     0.021 C 
ENDROOT
BRANCH   1   2
ATOM      2  C   UNL A   1      38.804  21.435  25.963  1.00  0.00     0.116 C 
BRANCH   2   3
ATOM      3  N   UNL A   1      38.195  22.060  24.816  1.00  0.00    -0.356 N 
ATOM      4  C   UNL A   1      36.898  22.217  24.464  1.00  0.00     0.223 C 
ATOM      5  O   UNL A   1      36.692  22.759  23.370  1.00  0.00    -0.275 OA
ATOM      6  H   UNL A   1      38.837  22.440  24.174  1.00  0.00     0.163 HD
BRANCH   4   7
ATOM      7  C   UNL A   1      35.698  21.831  25.345  1.00  0.00     0.085 C 
ATOM      8  C   UNL A   1      33.211  22.275  25.000  1.00  0.00     0.052 C 
ATOM      9  C   UNL A   1      32.095  21.974  26.025  1.00  0.00     0.022 C 
ATOM     10  C   UNL A   1      33.657  20.933  24.355  1.00  0.00     0.018 C 
ATOM     11  C   UNL A   1      34.566  22.845  25.708  1.00  0.00    -0.010 C 
ATOM     12  C   UNL A   1      35.012  20.548  24.913  1.00  0.00     0.015 C 
ATOM     13  C   UNL A   1      34.994  24.290  25.397  1.00  0.00     0.013 C 
ATOM     14  C   UNL A   1      34.448  22.857  27.264  1.00  0.00     0.013 C 
BRANCH   8  15
ATOM     15  C   UNL A   1      32.558  23.214  23.931  1.00  0.00     0.226 C 
ATOM     16  N   UNL A   1      31.839  24.325  24.246  1.00  0.00    -0.355 N 
ATOM     17  H   UNL A   1      31.406  24.735  23.463  1.00  0.00     0.163 HD
ATOM     18  O   UNL A   1      32.686  23.029  22.719  1.00  0.00    -0.274 OA
BRANCH  16  19
ATOM     19  C   UNL A   1      31.565  25.043  25.485  1.00  0.00     0.120 C 
BRANCH  19  20
ATOM     20  C   UNL A   1      30.230  25.801  25.440  1.00  0.00     0.057 C 
BRANCH  20  21
ATOM     21  C   UNL A   1      30.174  26.859  24.366  1.00  0.00    -0.042 A 
ATOM     22  C   UNL A   1      30.125  28.892  22.422  1.00  0.00     0.160 A 
ATOM     23  C   UNL A   1      28.953  28.199  22.758  1.00  0.00     0.051 A 
ATOM     24  C   UNL A   1      31.332  28.572  23.049  1.00  0.00     0.160 A 
ATOM     25  C   UNL A   1      28.980  27.179  23.714  1.00  0.00     0.008 A 
ATOM     26  C   UNL A   1      31.339  27.560  24.020  1.00  0.00     0.054 A 
BRANCH  22  27
ATOM     27  O   UNL A   1      30.020  29.966  21.583  1.00  0.00    -0.493 OA
ATOM     28  C   UNL A   1      28.677  30.426  21.440  1.00  0.00     0.278 C 
ENDBRANCH  22  27
BRANCH  24  29
ATOM     29  O   UNL A   1      32.566  29.137  22.873  1.00  0.00    -0.493 OA
ATOM     30  C   UNL A   1      33.628  28.306  22.427  1.00  0.00     0.278 C 
ENDBRANCH  24  29
ENDBRANCH  20  21
ENDBRANCH  19  20
ENDBRANCH  16  19
ENDBRANCH   8  15
ENDBRANCH   4   7
ENDBRANCH   2   3
ENDBRANCH   1   2
BRANCH   1  31
ATOM     31  C   UNL A   1      40.781  19.828  26.283  1.00  0.00     0.002 C 
BRANCH  31  32
ATOM     32  C   UNL A   1      41.067  20.685  27.515  1.00  0.00     0.002 C 
BRANCH  32  33
ATOM     33  C   UNL A   1      42.160  21.740  27.330  1.00  0.00     0.021 C 
BRANCH  33  34
ATOM     34  C   UNL A   1      41.658  23.178  27.284  1.00  0.00     0.116 C 
BRANCH  34  35
ATOM     35  N   UNL A   1      42.090  23.868  26.080  1.00  0.00    -0.352 N 
ATOM     36  C   UNL A   1      42.087  25.214  25.818  1.00  0.00     0.251 C 
ATOM     37  H   UNL A   1      42.431  23.293  25.357  1.00  0.00     0.163 HD
ATOM     38  O   UNL A   1      42.291  25.628  24.680  1.00  0.00    -0.269 OA
BRANCH  36  39
ATOM     39  C   UNL A   1      41.817  26.155  26.922  1.00  0.00     0.039 A 
ATOM     40  C   UNL A   1      40.785  25.877  27.820  1.00  0.00     0.014 A 
ATOM     41  C   UNL A   1      42.607  27.299  27.077  1.00  0.00     0.014 A 
ATOM     42  C   UNL A   1      40.572  26.727  28.907  1.00  0.00     0.010 A 
ATOM     43  C   UNL A   1      42.443  28.098  28.201  1.00  0.00     0.010 A 
ATOM     44  C   UNL A   1      41.416  27.830  29.119  1.00  0.00    -0.014 A 
BRANCH  44  45
ATOM     45  C   UNL A   1      41.228  28.747  30.271  1.00  0.00     0.031 A 
ATOM     46  C   UNL A   1      42.091  28.581  31.493  1.00  0.00     0.074 A 
ATOM     47  C   UNL A   1      40.243  29.666  30.250  1.00  0.00     0.049 A 
ATOM     48  N   UNL A   1      42.007  29.178  32.653  1.00  0.00    -0.248 NA
ATOM     49  C   UNL A   1      43.174  27.587  31.407  1.00  0.00     0.031 C 
ATOM     50  C   UNL A   1      39.326  29.901  29.134  1.00  0.00     0.029 A 
ATOM     51  N   UNL A   1      39.834  30.560  31.208  1.00  0.00    -0.354 N 
ATOM     52  C   UNL A   1      43.007  28.619  33.438  1.00  0.00     0.074 A 
ATOM     53  C   UNL A   1      43.651  27.599  32.642  1.00  0.00     0.031 C 
ATOM     54  C   UNL A   1      38.469  30.881  29.467  1.00  0.00     0.029 A 
ATOM     55  C   UNL A   1      38.744  31.310  30.836  1.00  0.00     0.049 A 
ATOM     56  H   UNL A   1      40.281  30.656  32.081  1.00  0.00     0.167 HD
ATOM     57  C   UNL A   1      43.368  28.940  34.702  1.00  0.00     0.037 A 
ATOM     58  C   UNL A   1      38.033  32.225  31.525  1.00  0.00     0.037 A 
ATOM     59  C   UNL A   1      42.732  29.975  35.476  1.00  0.00     0.049 A 
ATOM     60  C   UNL A   1      38.441  32.555  32.936  1.00  0.00     0.074 A 
ATOM     61  C   UNL A   1      43.052  30.412  36.750  1.00  0.00     0.029 A 
ATOM     62  N   UNL A   1      41.651  30.732  35.050  1.00  0.00    -0.354 N 
ATOM     63  N   UNL A   1      39.416  32.046  33.653  1.00  0.00    -0.248 NA
ATOM     64  C   UNL A   1      37.660  33.586  33.633  1.00  0.00     0.031 C 
ATOM     65  C   UNL A   1      42.129  31.398  37.114  1.00  0.00     0.029 A 
ATOM     66  C   UNL A   1      41.278  31.622  36.043  1.00  0.00     0.049 A 
ATOM     67  H   UNL A   1      41.213  30.649  34.172  1.00  0.00     0.167 HD
ATOM     68  C   UNL A   1      39.394  32.727  34.865  1.00  0.00     0.074 A 
ATOM     69  C   UNL A   1      38.305  33.679  34.789  1.00  0.00     0.031 C 
ATOM     70  C   UNL A   1      40.208  32.583  35.940  1.00  0.00     0.037 A 
BRANCH  57  71
ATOM     71  C   UNL A   1      44.495  28.165  35.329  1.00  0.00     0.058 A 
ATOM     72  C   UNL A   1      44.270  26.979  36.045  1.00  0.00     0.135 A 
ATOM     73  C   UNL A   1      45.824  28.595  35.179  1.00  0.00     0.135 A 
ATOM     74  F   UNL A   1      43.019  26.528  36.232  1.00  0.00    -0.206 F 
ATOM     75  C   UNL A   1      45.317  26.264  36.618  1.00  0.00     0.059 A 
ATOM     76  C   UNL A   1      46.890  27.879  35.716  1.00  0.00     0.059 A 
ATOM     77  F   UNL A   1      46.099  29.723  34.505  1.00  0.00    -0.206 F 
ATOM     78  C   UNL A   1      46.624  26.722  36.447  1.00  0.00     0.060 A 
BRANCH  78  79
ATOM     79  S   UNL A   1      47.971  25.778  37.191  1.00  0.00     0.124 S 
ATOM     80  O   UNL A   1      47.422  24.427  37.176  1.00  0.00    -0.237 OA
ATOM     81  O   UNL A   1      49.072  26.026  36.266  1.00  0.00    -0.237 OA
ATOM     82  O   UNL A   1      48.118  26.380  38.513  1.00  0.00    -0.744 OA
ENDBRANCH  78  79
ENDBRANCH  57  71
BRANCH  58  83
ATOM     83  C   UNL A   1      36.876  32.905  30.884  1.00  0.00     0.058 A 
ATOM     84  C   UNL A   1      35.558  32.534  31.192  1.00  0.00     0.135 A 
ATOM     85  C   UNL A   1      37.060  33.945  29.960  1.00  0.00     0.135 A 
ATOM     86  F   UNL A   1      35.328  31.540  32.064  1.00  0.00    -0.206 F 
ATOM     87  C   UNL A   1      34.466  33.153  30.595  1.00  0.00     0.059 A 
ATOM     88  C   UNL A   1      35.983  34.601  29.370  1.00  0.00     0.059 A 
ATOM     89  F   UNL A   1      38.299  34.348  29.638  1.00  0.00    -0.206 F 
ATOM     90  C   UNL A   1      34.690  34.189  29.685  1.00  0.00     0.060 A 
BRANCH  90  91
ATOM     91  S   UNL A   1      33.262  35.013  28.946  1.00  0.00     0.124 S 
ATOM     92  O   UNL A   1      32.798  34.004  28.001  1.00  0.00    -0.237 OA
ATOM     93  O   UNL A   1      32.407  35.243  30.106  1.00  0.00    -0.237 OA
ATOM     94  O   UNL A   1      33.838  36.216  28.353  1.00  0.00    -0.744 OA
ENDBRANCH  90  91
ENDBRANCH  58  83
BRANCH  70  95
ATOM     95  C   UNL A   1      40.009  33.515  37.104  1.00  0.00     0.058 A 
ATOM     96  C   UNL A   1      39.126  33.219  38.152  1.00  0.00     0.135 A 
ATOM     97  C   UNL A   1      40.792  34.676  37.211  1.00  0.00     0.135 A 
ATOM     98  F   UNL A   1      38.350  32.124  38.096  1.00  0.00    -0.206 F 
ATOM     99  C   UNL A   1      39.022  34.046  39.266  1.00  0.00     0.059 A 
ATOM    100  C   UNL A   1      40.726  35.502  38.328  1.00  0.00     0.059 A 
ATOM    101  F   UNL A   1      41.659  35.000  36.238  1.00  0.00    -0.206 F 
ATOM    102  C   UNL A   1      39.833  35.180  39.349  1.00  0.00     0.060 A 
BRANCH 102 103
ATOM    103  S   UNL A   1      39.738  36.204  40.833  1.00  0.00     0.124 S 
ATOM    104  O   UNL A   1      40.602  35.471  41.752  1.00  0.00    -0.237 OA
ATOM    105  O   UNL A   1      40.256  37.484  40.360  1.00  0.00    -0.237 OA
ATOM    106  O   UNL A   1      38.316  36.194  41.164  1.00  0.00    -0.744 OA
ENDBRANCH 102 103
ENDBRANCH  70  95
ENDBRANCH  44  45
ENDBRANCH  36  39
ENDBRANCH  34  35
ENDBRANCH  33  34
ENDBRANCH  32  33
ENDBRANCH  31  32
ENDBRANCH   1  31
TORSDOF 22
ENDMDL
