MODEL 1
REMARK VINA RESULT:     -13.5      0.000      0.000
REMARK SMILES O=C(NCCCCCCNC(=O)c1ccccc1C(=O)Nc1ccc(N2C(=O)[C@H]3[C@@H]4CC[C@@H](C4)[C@@H]3C2=O)cc1)c1ccc(-c2c3nc(c(-c4c(F)cc(S(=O)(=O)[O-])cc4F)c4ccc([nH]4)c(-c4c(F)cc(S(=O)(=O)[O-])cc4F)c4nc(c(-c5c(F)cc(S(=O)(=O)[O-])cc5F)c5ccc2[nH]5)C=C4)C=C3)cc1
REMARK SMILES IDX 6 1 5 2 4 3 3 4 1 5 2 6 40 8 41 9 105 10 42 11 104 12 43 13
REMARK SMILES IDX 44 14 45 15 98 16 46 17 103 18 97 19 99 20 47 21 102 22
REMARK SMILES IDX 96 23 95 24 48 26 82 27 61 28 81 29 62 30 65 31 80 32 100 33
REMARK SMILES IDX 63 34 64 35 79 37 101 38 66 39 49 40 50 41 59 42 51 43 52 44
REMARK SMILES IDX 58 45 60 46 53 47 54 48 55 49 56 50 57 51 83 52 84 53 93 54
REMARK SMILES IDX 85 55 86 56 92 57 94 58 87 59 88 60 89 61 90 62 91 63 67 64
REMARK SMILES IDX 68 65 77 66 69 67 70 68 76 69 78 70 71 71 72 72 73 73 74 74
REMARK SMILES IDX 75 75 7 76 8 77 9 78 10 79 11 80 12 82 13 83 14 84 18 85
REMARK SMILES IDX 15 86 17 87 16 88 19 89 20 90 21 91 22 93 23 94 39 95 24 96
REMARK SMILES IDX 38 97 25 98 26 99 27 100 36 101 28 102 29 103 35 104 37 105
REMARK SMILES IDX 30 106 33 107 31 108 34 109 32 110
REMARK H PARENT 3 7 99 25 65 36 10 81 21 92
REMARK Flexibility Score: inf
ROOT
ATOM      1  C   UNL A   1      33.612  28.673  27.184  1.00  0.00     0.002 C 
ENDROOT
BRANCH   1   2
ATOM      2  C   UNL A   1      35.090  28.949  26.962  1.00  0.00     0.021 C 
BRANCH   2   3
ATOM      3  C   UNL A   1      35.639  30.142  27.719  1.00  0.00     0.116 C 
BRANCH   3   4
ATOM      4  N   UNL A   1      35.392  30.092  29.153  1.00  0.00    -0.352 N 
ATOM      5  O   UNL A   1      35.960  29.840  31.333  1.00  0.00    -0.269 OA
ATOM      6  C   UNL A   1      36.316  29.958  30.166  1.00  0.00     0.251 C 
ATOM      7  H   UNL A   1      34.451  30.162  29.432  1.00  0.00     0.163 HD
BRANCH   6   8
ATOM      8  C   UNL A   1      37.750  29.910  29.803  1.00  0.00     0.039 A 
ATOM      9  C   UNL A   1      38.130  30.057  28.469  1.00  0.00     0.014 A 
ATOM     10  C   UNL A   1      38.696  29.588  30.778  1.00  0.00     0.014 A 
ATOM     11  C   UNL A   1      39.401  29.664  28.079  1.00  0.00     0.010 A 
ATOM     12  C   UNL A   1      40.014  29.325  30.394  1.00  0.00     0.010 A 
ATOM     13  C   UNL A   1      40.366  29.306  29.035  1.00  0.00    -0.014 A 
BRANCH  13  14
ATOM     14  C   UNL A   1      41.737  28.953  28.578  1.00  0.00     0.031 A 
ATOM     15  C   UNL A   1      42.853  29.966  28.581  1.00  0.00     0.074 A 
ATOM     16  C   UNL A   1      41.977  27.682  28.199  1.00  0.00     0.049 A 
ATOM     17  N   UNL A   1      44.105  29.809  28.232  1.00  0.00    -0.248 NA
ATOM     18  C   UNL A   1      42.524  31.332  29.018  1.00  0.00     0.031 C 
ATOM     19  C   UNL A   1      40.973  26.613  28.153  1.00  0.00     0.029 A 
ATOM     20  N   UNL A   1      43.134  27.060  27.807  1.00  0.00    -0.354 N 
ATOM     21  C   UNL A   1      44.705  31.057  28.375  1.00  0.00     0.074 A 
ATOM     22  C   UNL A   1      43.672  31.966  28.820  1.00  0.00     0.031 C 
ATOM     23  C   UNL A   1      41.568  25.461  27.821  1.00  0.00     0.029 A 
ATOM     24  C   UNL A   1      42.975  25.720  27.546  1.00  0.00     0.049 A 
ATOM     25  H   UNL A   1      43.996  27.528  27.722  1.00  0.00     0.167 HD
ATOM     26  C   UNL A   1      45.997  31.405  28.157  1.00  0.00     0.037 A 
ATOM     27  C   UNL A   1      43.855  24.800  27.112  1.00  0.00     0.037 A 
ATOM     28  C   UNL A   1      47.021  30.481  27.733  1.00  0.00     0.049 A 
ATOM     29  C   UNL A   1      45.274  25.220  26.860  1.00  0.00     0.074 A 
ATOM     30  C   UNL A   1      48.368  30.724  27.523  1.00  0.00     0.029 A 
ATOM     31  N   UNL A   1      46.812  29.138  27.447  1.00  0.00    -0.354 N 
ATOM     32  N   UNL A   1      45.826  26.397  27.025  1.00  0.00    -0.248 NA
ATOM     33  C   UNL A   1      46.189  24.185  26.365  1.00  0.00     0.031 C 
ATOM     34  C   UNL A   1      48.959  29.548  27.053  1.00  0.00     0.029 A 
ATOM     35  C   UNL A   1      47.999  28.549  27.039  1.00  0.00     0.049 A 
ATOM     36  H   UNL A   1      45.948  28.673  27.524  1.00  0.00     0.167 HD
ATOM     37  C   UNL A   1      47.164  26.238  26.685  1.00  0.00     0.074 A 
ATOM     38  C   UNL A   1      47.336  24.847  26.318  1.00  0.00     0.031 C 
ATOM     39  C   UNL A   1      48.159  27.160  26.683  1.00  0.00     0.037 A 
BRANCH  26  40
ATOM     40  C   UNL A   1      46.380  32.853  28.338  1.00  0.00     0.058 A 
ATOM     41  C   UNL A   1      46.287  33.789  27.296  1.00  0.00     0.135 A 
ATOM     42  C   UNL A   1      46.808  33.320  29.593  1.00  0.00     0.135 A 
ATOM     43  F   UNL A   1      45.895  33.401  26.071  1.00  0.00    -0.206 F 
ATOM     44  C   UNL A   1      46.633  35.126  27.481  1.00  0.00     0.059 A 
ATOM     45  C   UNL A   1      47.129  34.657  29.809  1.00  0.00     0.059 A 
ATOM     46  F   UNL A   1      46.914  32.473  30.629  1.00  0.00    -0.206 F 
ATOM     47  C   UNL A   1      47.054  35.550  28.743  1.00  0.00     0.060 A 
BRANCH  47  48
ATOM     48  S   UNL A   1      47.502  37.285  28.965  1.00  0.00     0.124 S 
ATOM     49  O   UNL A   1      46.672  37.656  30.107  1.00  0.00    -0.237 OA
ATOM     50  O   UNL A   1      48.936  37.207  29.224  1.00  0.00    -0.237 OA
ATOM     51  O   UNL A   1      47.130  37.899  27.695  1.00  0.00    -0.744 OA
ENDBRANCH  47  48
ENDBRANCH  26  40
BRANCH  27  52
ATOM     52  C   UNL A   1      43.412  23.398  26.893  1.00  0.00     0.058 A 
ATOM     53  C   UNL A   1      43.223  22.895  25.598  1.00  0.00     0.135 A 
ATOM     54  C   UNL A   1      43.192  22.526  27.971  1.00  0.00     0.135 A 
ATOM     55  F   UNL A   1      43.420  23.688  24.534  1.00  0.00    -0.206 F 
ATOM     56  C   UNL A   1      42.812  21.585  25.378  1.00  0.00     0.059 A 
ATOM     57  C   UNL A   1      42.815  21.202  27.778  1.00  0.00     0.059 A 
ATOM     58  F   UNL A   1      43.381  22.952  29.230  1.00  0.00    -0.206 F 
ATOM     59  C   UNL A   1      42.614  20.745  26.477  1.00  0.00     0.060 A 
BRANCH  59  60
ATOM     60  S   UNL A   1      42.121  19.034  26.178  1.00  0.00     0.124 S 
ATOM     61  O   UNL A   1      43.049  18.643  25.123  1.00  0.00    -0.237 OA
ATOM     62  O   UNL A   1      42.342  18.420  27.483  1.00  0.00    -0.237 OA
ATOM     63  O   UNL A   1      40.723  19.152  25.778  1.00  0.00    -0.744 OA
ENDBRANCH  59  60
ENDBRANCH  27  52
BRANCH  39  64
ATOM     64  C   UNL A   1      49.540  26.675  26.331  1.00  0.00     0.058 A 
ATOM     65  C   UNL A   1      50.071  26.802  25.037  1.00  0.00     0.135 A 
ATOM     66  C   UNL A   1      50.354  26.091  27.317  1.00  0.00     0.135 A 
ATOM     67  F   UNL A   1      49.334  27.346  24.055  1.00  0.00    -0.206 F 
ATOM     68  C   UNL A   1      51.341  26.330  24.724  1.00  0.00     0.059 A 
ATOM     69  C   UNL A   1      51.639  25.646  27.034  1.00  0.00     0.059 A 
ATOM     70  F   UNL A   1      49.901  25.955  28.574  1.00  0.00    -0.206 F 
ATOM     71  C   UNL A   1      52.119  25.752  25.730  1.00  0.00     0.060 A 
BRANCH  71  72
ATOM     72  S   UNL A   1      53.768  25.154  25.313  1.00  0.00     0.124 S 
ATOM     73  O   UNL A   1      54.579  25.777  26.353  1.00  0.00    -0.237 OA
ATOM     74  O   UNL A   1      53.610  23.706  25.416  1.00  0.00    -0.237 OA
ATOM     75  O   UNL A   1      53.983  25.660  23.961  1.00  0.00    -0.744 OA
ENDBRANCH  71  72
ENDBRANCH  39  64
ENDBRANCH  13  14
ENDBRANCH   6   8
ENDBRANCH   3   4
ENDBRANCH   2   3
ENDBRANCH   1   2
BRANCH   1  76
ATOM     76  C   UNL A   1      33.038  27.436  26.487  1.00  0.00     0.002 C 
BRANCH  76  77
ATOM     77  C   UNL A   1      33.869  26.890  25.316  1.00  0.00     0.021 C 
BRANCH  77  78
ATOM     78  C   UNL A   1      34.166  25.396  25.405  1.00  0.00     0.116 C 
BRANCH  78  79
ATOM     79  N   UNL A   1      34.735  24.893  24.169  1.00  0.00    -0.352 N 
ATOM     80  C   UNL A   1      34.844  23.610  23.716  1.00  0.00     0.252 C 
ATOM     81  H   UNL A   1      35.097  25.581  23.566  1.00  0.00     0.163 HD
ATOM     82  O   UNL A   1      35.532  23.373  22.720  1.00  0.00    -0.269 OA
BRANCH  80  83
ATOM     83  C   UNL A   1      34.276  22.469  24.456  1.00  0.00     0.052 A 
ATOM     84  C   UNL A   1      35.025  22.174  25.622  1.00  0.00     0.014 A 
ATOM     85  C   UNL A   1      33.129  21.719  24.154  1.00  0.00     0.052 A 
ATOM     86  C   UNL A   1      34.597  21.227  26.545  1.00  0.00     0.001 A 
ATOM     87  C   UNL A   1      32.696  20.791  25.136  1.00  0.00     0.014 A 
ATOM     88  C   UNL A   1      33.408  20.557  26.318  1.00  0.00     0.001 A 
BRANCH  85  89
ATOM     89  C   UNL A   1      32.198  21.820  22.985  1.00  0.00     0.256 C 
ATOM     90  O   UNL A   1      32.054  20.801  22.298  1.00  0.00    -0.269 OA
ATOM     91  N   UNL A   1      31.410  22.889  22.626  1.00  0.00    -0.322 N 
ATOM     92  H   UNL A   1      30.804  22.698  21.875  1.00  0.00     0.170 HD
BRANCH  91  93
ATOM     93  C   UNL A   1      31.302  24.188  23.116  1.00  0.00     0.041 A 
ATOM     94  C   UNL A   1      31.792  25.205  22.294  1.00  0.00     0.028 A 
ATOM     95  C   UNL A   1      30.664  24.508  24.305  1.00  0.00     0.028 A 
ATOM     96  C   UNL A   1      31.353  26.511  22.473  1.00  0.00     0.029 A 
ATOM     97  C   UNL A   1      30.361  25.846  24.573  1.00  0.00     0.029 A 
ATOM     98  C   UNL A   1      30.594  26.825  23.594  1.00  0.00     0.052 A 
BRANCH  98  99
ATOM     99  N   UNL A   1      29.904  28.045  23.668  1.00  0.00    -0.250 N 
ATOM    100  C   UNL A   1      28.547  28.177  23.357  1.00  0.00     0.237 C 
ATOM    101  C   UNL A   1      30.557  29.292  23.778  1.00  0.00     0.237 C 
ATOM    102  O   UNL A   1      27.655  27.355  23.357  1.00  0.00    -0.274 OA
ATOM    103  C   UNL A   1      28.470  29.571  22.847  1.00  0.00     0.095 C 
ATOM    104  C   UNL A   1      29.417  30.266  23.809  1.00  0.00     0.095 C 
ATOM    105  O   UNL A   1      31.737  29.560  23.932  1.00  0.00    -0.274 OA
ATOM    106  C   UNL A   1      27.345  30.593  22.693  1.00  0.00     0.002 C 
ATOM    107  C   UNL A   1      29.159  31.725  23.446  1.00  0.00     0.002 C 
ATOM    108  C   UNL A   1      27.760  31.409  21.450  1.00  0.00     0.005 C 
ATOM    109  C   UNL A   1      27.639  31.681  23.751  1.00  0.00     0.009 C 
ATOM    110  C   UNL A   1      29.109  32.029  21.921  1.00  0.00     0.005 C 
ENDBRANCH  98  99
ENDBRANCH  91  93
ENDBRANCH  85  89
ENDBRANCH  80  83
ENDBRANCH  78  79
ENDBRANCH  77  78
ENDBRANCH  76  77
ENDBRANCH   1  76
TORSDOF 19
ENDMDL
MODEL 2
REMARK VINA RESULT:     -13.1      0.491      7.725
REMARK SMILES O=C(NCCCCCCNC(=O)c1ccccc1C(=O)Nc1ccc(N2C(=O)[C@H]3[C@@H]4CC[C@@H](C4)[C@@H]3C2=O)cc1)c1ccc(-c2c3nc(c(-c4c(F)cc(S(=O)(=O)[O-])cc4F)c4ccc([nH]4)c(-c4c(F)cc(S(=O)(=O)[O-])cc4F)c4nc(c(-c5c(F)cc(S(=O)(=O)[O-])cc5F)c5ccc2[nH]5)C=C4)C=C3)cc1
REMARK SMILES IDX 6 1 5 2 4 3 3 4 1 5 2 6 40 8 41 9 105 10 42 11 104 12 43 13
REMARK SMILES IDX 44 14 45 15 98 16 46 17 103 18 97 19 99 20 47 21 102 22
REMARK SMILES IDX 96 23 95 24 48 26 82 27 61 28 81 29 62 30 65 31 80 32 100 33
REMARK SMILES IDX 63 34 64 35 79 37 101 38 66 39 49 40 50 41 59 42 51 43 52 44
REMARK SMILES IDX 58 45 60 46 53 47 54 48 55 49 56 50 57 51 83 52 84 53 93 54
REMARK SMILES IDX 85 55 86 56 92 57 94 58 87 59 88 60 89 61 90 62 91 63 67 64
REMARK SMILES IDX 68 65 77 66 69 67 70 68 76 69 78 70 71 71 72 72 73 73 74 74
REMARK SMILES IDX 75 75 7 76 8 77 9 78 10 79 11 80 12 82 13 83 14 84 18 85
REMARK SMILES IDX 15 86 17 87 16 88 19 89 20 90 21 91 22 93 23 94 39 95 24 96
REMARK SMILES IDX 38 97 25 98 26 99 27 100 36 101 28 102 29 103 35 104 37 105
REMARK SMILES IDX 30 106 33 107 31 108 34 109 32 110
REMARK H PARENT 3 7 99 25 65 36 10 81 21 92
REMARK Flexibility Score: inf
ROOT
ATOM      1  C   UNL A   1      33.742  28.845  27.135  1.00  0.00     0.002 C 
ENDROOT
BRANCH   1   2
ATOM      2  C   UNL A   1      35.258  28.929  27.192  1.00  0.00     0.021 C 
BRANCH   2   3
ATOM      3  C   UNL A   1      35.805  30.151  27.902  1.00  0.00     0.116 C 
BRANCH   3   4
ATOM      4  N   UNL A   1      35.540  30.165  29.334  1.00  0.00    -0.352 N 
ATOM      5  O   UNL A   1      36.079  29.995  31.529  1.00  0.00    -0.269 OA
ATOM      6  C   UNL A   1      36.451  30.058  30.364  1.00  0.00     0.251 C 
ATOM      7  H   UNL A   1      34.598  30.264  29.599  1.00  0.00     0.163 HD
BRANCH   6   8
ATOM      8  C   UNL A   1      37.887  29.970  30.020  1.00  0.00     0.039 A 
ATOM      9  C   UNL A   1      38.303  30.231  28.714  1.00  0.00     0.014 A 
ATOM     10  C   UNL A   1      38.794  29.502  30.972  1.00  0.00     0.014 A 
ATOM     11  C   UNL A   1      39.560  29.812  28.306  1.00  0.00     0.010 A 
ATOM     12  C   UNL A   1      40.105  29.209  30.584  1.00  0.00     0.010 A 
ATOM     13  C   UNL A   1      40.485  29.308  29.236  1.00  0.00    -0.014 A 
BRANCH  13  14
ATOM     14  C   UNL A   1      41.844  28.930  28.767  1.00  0.00     0.031 A 
ATOM     15  C   UNL A   1      42.145  27.544  28.256  1.00  0.00     0.074 A 
ATOM     16  C   UNL A   1      42.806  29.874  28.766  1.00  0.00     0.049 A 
ATOM     17  N   UNL A   1      43.272  27.065  27.794  1.00  0.00    -0.248 NA
ATOM     18  C   UNL A   1      41.046  26.565  28.274  1.00  0.00     0.031 C 
ATOM     19  C   UNL A   1      42.634  31.251  29.241  1.00  0.00     0.029 A 
ATOM     20  N   UNL A   1      44.106  29.839  28.333  1.00  0.00    -0.354 N 
ATOM     21  C   UNL A   1      43.031  25.726  27.498  1.00  0.00     0.074 A 
ATOM     22  C   UNL A   1      41.654  25.463  27.855  1.00  0.00     0.031 C 
ATOM     23  C   UNL A   1      43.757  31.942  29.013  1.00  0.00     0.029 A 
ATOM     24  C   UNL A   1      44.758  31.041  28.458  1.00  0.00     0.049 A 
ATOM     25  H   UNL A   1      44.530  29.029  27.967  1.00  0.00     0.167 HD
ATOM     26  C   UNL A   1      43.880  24.808  26.975  1.00  0.00     0.037 A 
ATOM     27  C   UNL A   1      46.030  31.384  28.179  1.00  0.00     0.037 A 
ATOM     28  C   UNL A   1      45.246  25.092  26.605  1.00  0.00     0.049 A 
ATOM     29  C   UNL A   1      46.952  30.341  27.620  1.00  0.00     0.074 A 
ATOM     30  C   UNL A   1      46.177  24.244  26.030  1.00  0.00     0.029 A 
ATOM     31  N   UNL A   1      45.879  26.316  26.778  1.00  0.00    -0.354 N 
ATOM     32  N   UNL A   1      46.698  29.089  27.325  1.00  0.00    -0.248 NA
ATOM     33  C   UNL A   1      48.334  30.758  27.355  1.00  0.00     0.031 C 
ATOM     34  C   UNL A   1      47.387  24.933  25.912  1.00  0.00     0.029 A 
ATOM     35  C   UNL A   1      47.195  26.236  26.345  1.00  0.00     0.049 A 
ATOM     36  H   UNL A   1      45.457  27.122  27.152  1.00  0.00     0.167 HD
ATOM     37  C   UNL A   1      47.881  28.576  26.806  1.00  0.00     0.074 A 
ATOM     38  C   UNL A   1      48.844  29.658  26.819  1.00  0.00     0.031 C 
ATOM     39  C   UNL A   1      48.142  27.324  26.355  1.00  0.00     0.037 A 
BRANCH  26  40
ATOM     40  C   UNL A   1      43.378  23.397  26.799  1.00  0.00     0.058 A 
ATOM     41  C   UNL A   1      43.128  22.843  25.534  1.00  0.00     0.135 A 
ATOM     42  C   UNL A   1      43.185  22.570  27.919  1.00  0.00     0.135 A 
ATOM     43  F   UNL A   1      43.284  23.586  24.426  1.00  0.00    -0.206 F 
ATOM     44  C   UNL A   1      42.676  21.533  25.386  1.00  0.00     0.059 A 
ATOM     45  C   UNL A   1      42.763  21.249  27.794  1.00  0.00     0.059 A 
ATOM     46  F   UNL A   1      43.410  23.043  29.155  1.00  0.00    -0.206 F 
ATOM     47  C   UNL A   1      42.495  20.744  26.524  1.00  0.00     0.060 A 
BRANCH  47  48
ATOM     48  S   UNL A   1      41.905  19.050  26.316  1.00  0.00     0.124 S 
ATOM     49  O   UNL A   1      42.709  18.600  25.184  1.00  0.00    -0.237 OA
ATOM     50  O   UNL A   1      42.229  18.446  27.603  1.00  0.00    -0.237 OA
ATOM     51  O   UNL A   1      40.480  19.216  26.045  1.00  0.00    -0.744 OA
ENDBRANCH  47  48
ENDBRANCH  26  40
BRANCH  27  52
ATOM     52  C   UNL A   1      46.492  32.775  28.426  1.00  0.00     0.058 A 
ATOM     53  C   UNL A   1      46.409  33.752  27.424  1.00  0.00     0.135 A 
ATOM     54  C   UNL A   1      47.002  33.162  29.675  1.00  0.00     0.135 A 
ATOM     55  F   UNL A   1      45.929  33.432  26.213  1.00  0.00    -0.206 F 
ATOM     56  C   UNL A   1      46.836  35.058  27.643  1.00  0.00     0.059 A 
ATOM     57  C   UNL A   1      47.403  34.469  29.931  1.00  0.00     0.059 A 
ATOM     58  F   UNL A   1      47.082  32.270  30.676  1.00  0.00    -0.206 F 
ATOM     59  C   UNL A   1      47.328  35.407  28.903  1.00  0.00     0.060 A 
BRANCH  59  60
ATOM     60  S   UNL A   1      47.838  37.114  29.188  1.00  0.00     0.124 S 
ATOM     61  O   UNL A   1      48.658  36.978  30.387  1.00  0.00    -0.237 OA
ATOM     62  O   UNL A   1      48.555  37.429  27.957  1.00  0.00    -0.237 OA
ATOM     63  O   UNL A   1      46.572  37.818  29.366  1.00  0.00    -0.744 OA
ENDBRANCH  59  60
ENDBRANCH  27  52
BRANCH  39  64
ATOM     64  C   UNL A   1      49.510  27.075  25.780  1.00  0.00     0.058 A 
ATOM     65  C   UNL A   1      50.593  26.662  26.573  1.00  0.00     0.135 A 
ATOM     66  C   UNL A   1      49.733  27.234  24.401  1.00  0.00     0.135 A 
ATOM     67  F   UNL A   1      50.438  26.501  27.896  1.00  0.00    -0.206 F 
ATOM     68  C   UNL A   1      51.856  26.456  26.027  1.00  0.00     0.059 A 
ATOM     69  C   UNL A   1      50.977  27.000  23.829  1.00  0.00     0.059 A 
ATOM     70  F   UNL A   1      48.730  27.617  23.593  1.00  0.00    -0.206 F 
ATOM     71  C   UNL A   1      52.039  26.628  24.653  1.00  0.00     0.060 A 
BRANCH  71  72
ATOM     72  S   UNL A   1      53.679  26.349  23.956  1.00  0.00     0.124 S 
ATOM     73  O   UNL A   1      53.378  26.232  22.534  1.00  0.00    -0.237 OA
ATOM     74  O   UNL A   1      54.398  27.555  24.356  1.00  0.00    -0.237 OA
ATOM     75  O   UNL A   1      54.120  25.119  24.607  1.00  0.00    -0.744 OA
ENDBRANCH  71  72
ENDBRANCH  39  64
ENDBRANCH  13  14
ENDBRANCH   6   8
ENDBRANCH   3   4
ENDBRANCH   2   3
ENDBRANCH   1   2
BRANCH   1  76
ATOM     76  C   UNL A   1      33.154  27.583  26.497  1.00  0.00     0.002 C 
BRANCH  76  77
ATOM     77  C   UNL A   1      33.967  26.985  25.339  1.00  0.00     0.021 C 
BRANCH  77  78
ATOM     78  C   UNL A   1      34.100  25.466  25.388  1.00  0.00     0.116 C 
BRANCH  78  79
ATOM     79  N   UNL A   1      34.700  24.945  24.175  1.00  0.00    -0.352 N 
ATOM     80  C   UNL A   1      34.851  23.653  23.760  1.00  0.00     0.252 C 
ATOM     81  H   UNL A   1      35.051  25.626  23.557  1.00  0.00     0.163 HD
ATOM     82  O   UNL A   1      35.559  23.408  22.780  1.00  0.00    -0.269 OA
BRANCH  80  83
ATOM     83  C   UNL A   1      34.305  22.518  24.524  1.00  0.00     0.052 A 
ATOM     84  C   UNL A   1      35.071  22.249  25.685  1.00  0.00     0.014 A 
ATOM     85  C   UNL A   1      33.163  21.751  24.248  1.00  0.00     0.052 A 
ATOM     86  C   UNL A   1      34.665  21.312  26.629  1.00  0.00     0.001 A 
ATOM     87  C   UNL A   1      32.752  20.833  25.249  1.00  0.00     0.014 A 
ATOM     88  C   UNL A   1      33.481  20.626  26.426  1.00  0.00     0.001 A 
BRANCH  85  89
ATOM     89  C   UNL A   1      32.217  21.823  23.090  1.00  0.00     0.256 C 
ATOM     90  O   UNL A   1      32.068  20.790  22.426  1.00  0.00    -0.269 OA
ATOM     91  N   UNL A   1      31.420  22.881  22.718  1.00  0.00    -0.322 N 
ATOM     92  H   UNL A   1      30.804  22.672  21.979  1.00  0.00     0.170 HD
BRANCH  91  93
ATOM     93  C   UNL A   1      31.312  24.190  23.182  1.00  0.00     0.041 A 
ATOM     94  C   UNL A   1      31.788  25.191  22.332  1.00  0.00     0.028 A 
ATOM     95  C   UNL A   1      30.688  24.533  24.372  1.00  0.00     0.028 A 
ATOM     96  C   UNL A   1      31.345  26.499  22.489  1.00  0.00     0.029 A 
ATOM     97  C   UNL A   1      30.383  25.875  24.615  1.00  0.00     0.029 A 
ATOM     98  C   UNL A   1      30.599  26.834  23.613  1.00  0.00     0.052 A 
BRANCH  98  99
ATOM     99  N   UNL A   1      29.904  28.052  23.670  1.00  0.00    -0.250 N 
ATOM    100  C   UNL A   1      28.548  28.176  23.354  1.00  0.00     0.237 C 
ATOM    101  C   UNL A   1      30.554  29.302  23.767  1.00  0.00     0.237 C 
ATOM    102  O   UNL A   1      27.659  27.351  23.361  1.00  0.00    -0.274 OA
ATOM    103  C   UNL A   1      28.468  29.563  22.826  1.00  0.00     0.095 C 
ATOM    104  C   UNL A   1      29.410  30.273  23.782  1.00  0.00     0.095 C 
ATOM    105  O   UNL A   1      31.732  29.576  23.920  1.00  0.00    -0.274 OA
ATOM    106  C   UNL A   1      27.340  30.579  22.656  1.00  0.00     0.002 C 
ATOM    107  C   UNL A   1      29.149  31.727  23.401  1.00  0.00     0.002 C 
ATOM    108  C   UNL A   1      27.756  31.382  21.405  1.00  0.00     0.005 C 
ATOM    109  C   UNL A   1      27.628  31.681  23.702  1.00  0.00     0.009 C 
ATOM    110  C   UNL A   1      29.101  32.012  21.872  1.00  0.00     0.005 C 
ENDBRANCH  98  99
ENDBRANCH  91  93
ENDBRANCH  85  89
ENDBRANCH  80  83
ENDBRANCH  78  79
ENDBRANCH  77  78
ENDBRANCH  76  77
ENDBRANCH   1  76
TORSDOF 19
ENDMDL
MODEL 3
REMARK VINA RESULT:     -13.0      6.207     11.009
REMARK SMILES O=C(NCCCCCCNC(=O)c1ccccc1C(=O)Nc1ccc(N2C(=O)[C@H]3[C@@H]4CC[C@@H](C4)[C@@H]3C2=O)cc1)c1ccc(-c2c3nc(c(-c4c(F)cc(S(=O)(=O)[O-])cc4F)c4ccc([nH]4)c(-c4c(F)cc(S(=O)(=O)[O-])cc4F)c4nc(c(-c5c(F)cc(S(=O)(=O)[O-])cc5F)c5ccc2[nH]5)C=C4)C=C3)cc1
REMARK SMILES IDX 6 1 5 2 4 3 3 4 1 5 2 6 40 8 41 9 105 10 42 11 104 12 43 13
REMARK SMILES IDX 44 14 45 15 98 16 46 17 103 18 97 19 99 20 47 21 102 22
REMARK SMILES IDX 96 23 95 24 48 26 82 27 61 28 81 29 62 30 65 31 80 32 100 33
REMARK SMILES IDX 63 34 64 35 79 37 101 38 66 39 49 40 50 41 59 42 51 43 52 44
REMARK SMILES IDX 58 45 60 46 53 47 54 48 55 49 56 50 57 51 83 52 84 53 93 54
REMARK SMILES IDX 85 55 86 56 92 57 94 58 87 59 88 60 89 61 90 62 91 63 67 64
REMARK SMILES IDX 68 65 77 66 69 67 70 68 76 69 78 70 71 71 72 72 73 73 74 74
REMARK SMILES IDX 75 75 7 76 8 77 9 78 10 79 11 80 12 82 13 83 14 84 18 85
REMARK SMILES IDX 15 86 17 87 16 88 19 89 20 90 21 91 22 93 23 94 39 95 24 96
REMARK SMILES IDX 38 97 25 98 26 99 27 100 36 101 28 102 29 103 35 104 37 105
REMARK SMILES IDX 30 106 33 107 31 108 34 109 32 110
REMARK H PARENT 3 7 99 25 65 36 10 81 21 92
REMARK Flexibility Score: inf
ROOT
ATOM      1  C   UNL A   1      39.500  22.065  26.051  1.00  0.00     0.002 C 
ENDROOT
BRANCH   1   2
ATOM      2  C   UNL A   1      40.339  22.247  27.305  1.00  0.00     0.021 C 
BRANCH   2   3
ATOM      3  C   UNL A   1      41.657  22.964  27.094  1.00  0.00     0.116 C 
BRANCH   3   4
ATOM      4  N   UNL A   1      41.646  23.898  25.977  1.00  0.00    -0.352 N 
ATOM      5  O   UNL A   1      41.472  25.935  24.999  1.00  0.00    -0.269 OA
ATOM      6  C   UNL A   1      41.562  25.273  26.026  1.00  0.00     0.251 C 
ATOM      7  H   UNL A   1      41.706  23.499  25.079  1.00  0.00     0.163 HD
BRANCH   6   8
ATOM      8  C   UNL A   1      41.532  25.925  27.354  1.00  0.00     0.039 A 
ATOM      9  C   UNL A   1      40.371  25.869  28.125  1.00  0.00     0.014 A 
ATOM     10  C   UNL A   1      42.619  26.698  27.764  1.00  0.00     0.014 A 
ATOM     11  C   UNL A   1      40.215  26.756  29.179  1.00  0.00     0.010 A 
ATOM     12  C   UNL A   1      42.503  27.490  28.911  1.00  0.00     0.010 A 
ATOM     13  C   UNL A   1      41.281  27.569  29.597  1.00  0.00    -0.014 A 
BRANCH  13  14
ATOM     14  C   UNL A   1      41.091  28.460  30.773  1.00  0.00     0.031 A 
ATOM     15  C   UNL A   1      42.000  28.384  31.973  1.00  0.00     0.074 A 
ATOM     16  C   UNL A   1      40.105  29.378  30.727  1.00  0.00     0.049 A 
ATOM     17  N   UNL A   1      41.978  29.103  33.067  1.00  0.00    -0.248 NA
ATOM     18  C   UNL A   1      43.062  27.366  31.953  1.00  0.00     0.031 C 
ATOM     19  C   UNL A   1      39.160  29.544  29.618  1.00  0.00     0.029 A 
ATOM     20  N   UNL A   1      39.746  30.361  31.612  1.00  0.00    -0.354 N 
ATOM     21  C   UNL A   1      42.995  28.607  33.877  1.00  0.00     0.074 A 
ATOM     22  C   UNL A   1      43.601  27.509  33.156  1.00  0.00     0.031 C 
ATOM     23  C   UNL A   1      38.377  30.602  29.857  1.00  0.00     0.029 A 
ATOM     24  C   UNL A   1      38.701  31.138  31.173  1.00  0.00     0.049 A 
ATOM     25  H   UNL A   1      40.193  30.497  32.478  1.00  0.00     0.167 HD
ATOM     26  C   UNL A   1      43.385  29.033  35.103  1.00  0.00     0.037 A 
ATOM     27  C   UNL A   1      38.056  32.159  31.766  1.00  0.00     0.037 A 
ATOM     28  C   UNL A   1      42.783  30.144  35.800  1.00  0.00     0.049 A 
ATOM     29  C   UNL A   1      38.498  32.595  33.133  1.00  0.00     0.074 A 
ATOM     30  C   UNL A   1      43.131  30.681  37.028  1.00  0.00     0.029 A 
ATOM     31  N   UNL A   1      41.706  30.886  35.334  1.00  0.00    -0.354 N 
ATOM     32  N   UNL A   1      39.476  32.130  33.870  1.00  0.00    -0.248 NA
ATOM     33  C   UNL A   1      37.747  33.696  33.747  1.00  0.00     0.031 C 
ATOM     34  C   UNL A   1      42.228  31.704  37.333  1.00  0.00     0.029 A 
ATOM     35  C   UNL A   1      41.361  31.857  36.263  1.00  0.00     0.049 A 
ATOM     36  H   UNL A   1      41.253  30.743  34.473  1.00  0.00     0.167 HD
ATOM     37  C   UNL A   1      39.482  32.904  35.024  1.00  0.00     0.074 A 
ATOM     38  C   UNL A   1      38.415  33.873  34.878  1.00  0.00     0.031 C 
ATOM     39  C   UNL A   1      40.301  32.823  36.102  1.00  0.00     0.037 A 
BRANCH  26  40
ATOM     40  C   UNL A   1      44.494  28.280  35.795  1.00  0.00     0.058 A 
ATOM     41  C   UNL A   1      45.842  28.658  35.680  1.00  0.00     0.135 A 
ATOM     42  C   UNL A   1      44.196  27.185  36.624  1.00  0.00     0.135 A 
ATOM     43  F   UNL A   1      46.191  29.689  34.894  1.00  0.00    -0.206 F 
ATOM     44  C   UNL A   1      46.854  27.960  36.335  1.00  0.00     0.059 A 
ATOM     45  C   UNL A   1      45.188  26.492  37.312  1.00  0.00     0.059 A 
ATOM     46  F   UNL A   1      42.926  26.779  36.776  1.00  0.00    -0.206 F 
ATOM     47  C   UNL A   1      46.517  26.877  37.149  1.00  0.00     0.060 A 
BRANCH  47  48
ATOM     48  S   UNL A   1      47.841  25.981  37.988  1.00  0.00     0.124 S 
ATOM     49  O   UNL A   1      47.464  26.147  39.388  1.00  0.00    -0.237 OA
ATOM     50  O   UNL A   1      47.697  24.633  37.448  1.00  0.00    -0.237 OA
ATOM     51  O   UNL A   1      49.048  26.692  37.576  1.00  0.00    -0.744 OA
ENDBRANCH  47  48
ENDBRANCH  26  40
BRANCH  27  52
ATOM     52  C   UNL A   1      36.929  32.830  31.065  1.00  0.00     0.058 A 
ATOM     53  C   UNL A   1      37.167  33.800  30.082  1.00  0.00     0.135 A 
ATOM     54  C   UNL A   1      35.595  32.497  31.347  1.00  0.00     0.135 A 
ATOM     55  F   UNL A   1      38.425  34.154  29.777  1.00  0.00    -0.206 F 
ATOM     56  C   UNL A   1      36.123  34.434  29.417  1.00  0.00     0.059 A 
ATOM     57  C   UNL A   1      34.534  33.090  30.671  1.00  0.00     0.059 A 
ATOM     58  F   UNL A   1      35.314  31.558  32.264  1.00  0.00    -0.206 F 
ATOM     59  C   UNL A   1      34.808  34.067  29.717  1.00  0.00     0.060 A 
BRANCH  59  60
ATOM     60  S   UNL A   1      33.463  34.865  28.817  1.00  0.00     0.124 S 
ATOM     61  O   UNL A   1      32.555  35.219  29.902  1.00  0.00    -0.237 OA
ATOM     62  O   UNL A   1      34.146  35.979  28.168  1.00  0.00    -0.237 OA
ATOM     63  O   UNL A   1      32.992  33.817  27.917  1.00  0.00    -0.744 OA
ENDBRANCH  59  60
ENDBRANCH  27  52
BRANCH  39  64
ATOM     64  C   UNL A   1      40.113  33.852  37.184  1.00  0.00     0.058 A 
ATOM     65  C   UNL A   1      39.334  33.605  38.326  1.00  0.00     0.135 A 
ATOM     66  C   UNL A   1      40.744  35.104  37.081  1.00  0.00     0.135 A 
ATOM     67  F   UNL A   1      38.703  32.428  38.472  1.00  0.00    -0.206 F 
ATOM     68  C   UNL A   1      39.154  34.575  39.306  1.00  0.00     0.059 A 
ATOM     69  C   UNL A   1      40.607  36.074  38.065  1.00  0.00     0.059 A 
ATOM     70  F   UNL A   1      41.509  35.390  36.015  1.00  0.00    -0.206 F 
ATOM     71  C   UNL A   1      39.795  35.808  39.167  1.00  0.00     0.060 A 
BRANCH  71  72
ATOM     72  S   UNL A   1      39.562  37.055  40.450  1.00  0.00     0.124 S 
ATOM     73  O   UNL A   1      39.486  38.279  39.661  1.00  0.00    -0.237 OA
ATOM     74  O   UNL A   1      38.315  36.627  41.078  1.00  0.00    -0.237 OA
ATOM     75  O   UNL A   1      40.755  36.916  41.280  1.00  0.00    -0.744 OA
ENDBRANCH  71  72
ENDBRANCH  39  64
ENDBRANCH  13  14
ENDBRANCH   6   8
ENDBRANCH   3   4
ENDBRANCH   2   3
ENDBRANCH   1   2
BRANCH   1  76
ATOM     76  C   UNL A   1      38.015  22.424  26.168  1.00  0.00     0.002 C 
BRANCH  76  77
ATOM     77  C   UNL A   1      37.434  23.231  24.997  1.00  0.00     0.021 C 
BRANCH  77  78
ATOM     78  C   UNL A   1      36.798  22.376  23.905  1.00  0.00     0.116 C 
BRANCH  78  79
ATOM     79  N   UNL A   1      35.816  23.127  23.148  1.00  0.00    -0.352 N 
ATOM     80  C   UNL A   1      34.453  23.034  23.149  1.00  0.00     0.252 C 
ATOM     81  H   UNL A   1      36.187  23.808  22.541  1.00  0.00     0.163 HD
ATOM     82  O   UNL A   1      33.802  23.635  22.292  1.00  0.00    -0.269 OA
BRANCH  80  83
ATOM     83  C   UNL A   1      33.733  22.129  24.063  1.00  0.00     0.052 A 
ATOM     84  C   UNL A   1      33.184  21.018  23.375  1.00  0.00     0.014 A 
ATOM     85  C   UNL A   1      33.575  22.238  25.453  1.00  0.00     0.052 A 
ATOM     86  C   UNL A   1      32.581  19.964  24.053  1.00  0.00     0.001 A 
ATOM     87  C   UNL A   1      32.994  21.128  26.119  1.00  0.00     0.014 A 
ATOM     88  C   UNL A   1      32.517  20.004  25.434  1.00  0.00     0.001 A 
BRANCH  85  89
ATOM     89  C   UNL A   1      34.034  23.314  26.387  1.00  0.00     0.256 C 
ATOM     90  O   UNL A   1      34.659  22.951  27.392  1.00  0.00    -0.269 OA
ATOM     91  N   UNL A   1      33.922  24.675  26.226  1.00  0.00    -0.322 N 
ATOM     92  H   UNL A   1      34.381  25.196  26.923  1.00  0.00     0.170 HD
BRANCH  91  93
ATOM     93  C   UNL A   1      33.286  25.462  25.268  1.00  0.00     0.041 A 
ATOM     94  C   UNL A   1      31.889  25.413  25.252  1.00  0.00     0.028 A 
ATOM     95  C   UNL A   1      33.956  26.332  24.422  1.00  0.00     0.028 A 
ATOM     96  C   UNL A   1      31.168  26.447  24.667  1.00  0.00     0.029 A 
ATOM     97  C   UNL A   1      33.221  27.275  23.698  1.00  0.00     0.029 A 
ATOM     98  C   UNL A   1      31.842  27.410  23.924  1.00  0.00     0.052 A 
BRANCH  98  99
ATOM     99  N   UNL A   1      31.202  28.604  23.559  1.00  0.00    -0.250 N 
ATOM    100  C   UNL A   1      30.923  29.631  24.466  1.00  0.00     0.237 C 
ATOM    101  C   UNL A   1      30.526  28.769  22.331  1.00  0.00     0.237 C 
ATOM    102  O   UNL A   1      31.444  29.910  25.526  1.00  0.00    -0.274 OA
ATOM    103  C   UNL A   1      29.688  30.232  23.899  1.00  0.00     0.095 C 
ATOM    104  C   UNL A   1      30.014  30.177  22.417  1.00  0.00     0.095 C 
ATOM    105  O   UNL A   1      30.447  28.033  21.362  1.00  0.00    -0.274 OA
ATOM    106  C   UNL A   1      28.998  31.588  24.037  1.00  0.00     0.002 C 
ATOM    107  C   UNL A   1      28.864  31.004  21.850  1.00  0.00     0.002 C 
ATOM    108  C   UNL A   1      27.499  31.254  23.879  1.00  0.00     0.005 C 
ATOM    109  C   UNL A   1      29.192  32.281  22.668  1.00  0.00     0.009 C 
ATOM    110  C   UNL A   1      27.460  30.675  22.434  1.00  0.00     0.005 C 
ENDBRANCH  98  99
ENDBRANCH  91  93
ENDBRANCH  85  89
ENDBRANCH  80  83
ENDBRANCH  78  79
ENDBRANCH  77  78
ENDBRANCH  76  77
ENDBRANCH   1  76
TORSDOF 19
ENDMDL
