MODEL 1
REMARK VINA RESULT:     -10.9      0.000      0.000
REMARK SMILES CC[N@@H+]1CCO[C@@H](Cn2cc(C(=O)NCCCCCCNC(=O)c3ccc(-c4c5nc(c(-c6c(F)cc(S(=O)(=O)[O-])cc6F)c6ccc([nH]6)c(-c6c(F)cc(S(=O)(=O)[O-])cc6F)c6nc(c(-c7c(F)cc(S(=O)(=O)[O-])cc7F)c7ccc4[nH]7)C=C6)C=C5)cc3)nn2)C1
REMARK SMILES IDX 17 1 16 2 15 3 14 4 12 5 13 6 11 8 9 9 10 10 91 11 90 12
REMARK SMILES IDX 8 13 7 14 3 15 4 16 92 17 5 19 6 20 2 21 1 22 18 23 19 24
REMARK SMILES IDX 20 25 21 26 22 27 23 29 24 30 25 31 89 32 26 33 88 34 27 35
REMARK SMILES IDX 28 36 29 37 82 38 30 39 87 40 81 41 83 42 31 43 86 44 80 45
REMARK SMILES IDX 79 46 32 48 66 49 45 50 65 51 46 52 49 53 64 54 84 55 47 56
REMARK SMILES IDX 48 57 63 59 85 60 50 61 33 62 34 63 43 64 35 65 36 66 42 67
REMARK SMILES IDX 44 68 37 69 38 70 39 71 40 72 41 73 67 74 68 75 77 76 69 77
REMARK SMILES IDX 70 78 76 79 78 80 71 81 72 82 73 83 74 84 75 85 51 86 52 87
REMARK SMILES IDX 61 88 53 89 54 90 60 91 62 92 55 93 56 94 57 95 58 96 59 97
REMARK H PARENT 14 7 3 18 21 28 83 47 49 58
REMARK Flexibility Score: inf
ROOT
ATOM      1  C   UNL A   1      40.387  21.958  27.566  1.00  0.00     0.002 C 
ENDROOT
BRANCH   1   2
ATOM      2  C   UNL A   1      39.869  22.268  26.155  1.00  0.00     0.021 C 
BRANCH   2   3
ATOM      3  C   UNL A   1      38.367  22.540  26.099  1.00  0.00     0.116 C 
BRANCH   3   4
ATOM      4  N   UNL A   1      37.906  22.617  24.728  1.00  0.00    -0.351 N 
ATOM      5  C   UNL A   1      36.708  23.013  24.183  1.00  0.00     0.273 C 
ATOM      6  O   UNL A   1      36.656  23.070  22.953  1.00  0.00    -0.267 OA
ATOM      7  H   UNL A   1      38.575  22.332  24.064  1.00  0.00     0.163 HD
BRANCH   5   8
ATOM      8  C   UNL A   1      35.585  23.413  25.024  1.00  0.00     0.170 A 
ATOM      9  N   UNL A   1      33.865  24.336  25.962  1.00  0.00    -0.249 N 
ATOM     10  C   UNL A   1      34.923  24.620  25.151  1.00  0.00     0.145 A 
ATOM     11  N   UNL A   1      33.937  23.088  26.444  1.00  0.00    -0.067 NA
ATOM     12  N   UNL A   1      34.991  22.513  25.884  1.00  0.00    -0.125 NA
BRANCH   9  13
ATOM     13  C   UNL A   1      32.676  25.127  26.173  1.00  0.00     0.184 C 
BRANCH  13  14
ATOM     14  C   UNL A   1      32.662  26.413  25.333  1.00  0.00     0.194 C 
ATOM     15  N   UNL A   1      31.187  28.329  24.508  1.00  0.00    -0.331 N 
ATOM     16  C   UNL A   1      32.154  29.213  25.192  1.00  0.00     0.291 C 
ATOM     17  C   UNL A   1      31.235  27.003  25.175  1.00  0.00     0.296 C 
ATOM     18  H   UNL A   1      30.255  28.736  24.587  1.00  0.00     0.348 HD
ATOM     19  C   UNL A   1      33.564  28.613  25.309  1.00  0.00     0.222 C 
ATOM     20  O   UNL A   1      33.533  27.354  25.990  1.00  0.00    -0.365 OA
BRANCH  15  21
ATOM     21  C   UNL A   1      31.417  28.220  23.060  1.00  0.00     0.258 C 
ATOM     22  C   UNL A   1      30.574  29.211  22.261  1.00  0.00     0.071 C 
ENDBRANCH  15  21
ENDBRANCH  13  14
ENDBRANCH   9  13
ENDBRANCH   5   8
ENDBRANCH   3   4
ENDBRANCH   2   3
ENDBRANCH   1   2
BRANCH   1  23
ATOM     23  C   UNL A   1      41.859  21.520  27.659  1.00  0.00     0.002 C 
BRANCH  23  24
ATOM     24  C   UNL A   1      42.177  20.089  27.198  1.00  0.00     0.021 C 
BRANCH  24  25
ATOM     25  C   UNL A   1      42.300  19.948  25.690  1.00  0.00     0.116 C 
BRANCH  25  26
ATOM     26  N   UNL A   1      43.679  19.699  25.267  1.00  0.00    -0.352 N 
ATOM     27  C   UNL A   1      44.637  20.616  24.868  1.00  0.00     0.251 C 
ATOM     28  H   UNL A   1      43.962  18.756  25.266  1.00  0.00     0.163 HD
ATOM     29  O   UNL A   1      45.588  20.270  24.189  1.00  0.00    -0.269 OA
BRANCH  27  30
ATOM     30  C   UNL A   1      44.479  22.018  25.295  1.00  0.00     0.039 A 
ATOM     31  C   UNL A   1      43.584  22.890  24.670  1.00  0.00     0.014 A 
ATOM     32  C   UNL A   1      45.243  22.439  26.378  1.00  0.00     0.014 A 
ATOM     33  C   UNL A   1      43.421  24.168  25.201  1.00  0.00     0.010 A 
ATOM     34  C   UNL A   1      44.928  23.603  27.018  1.00  0.00     0.010 A 
ATOM     35  C   UNL A   1      44.090  24.510  26.388  1.00  0.00    -0.014 A 
BRANCH  35  36
ATOM     36  C   UNL A   1      43.860  25.780  27.063  1.00  0.00     0.031 A 
ATOM     37  C   UNL A   1      44.878  26.810  26.739  1.00  0.00     0.074 A 
ATOM     38  C   UNL A   1      42.708  26.063  27.712  1.00  0.00     0.049 A 
ATOM     39  N   UNL A   1      45.863  27.204  27.475  1.00  0.00    -0.248 NA
ATOM     40  C   UNL A   1      44.938  27.318  25.358  1.00  0.00     0.031 C 
ATOM     41  C   UNL A   1      41.486  25.245  27.788  1.00  0.00     0.029 A 
ATOM     42  N   UNL A   1      42.338  27.198  28.367  1.00  0.00    -0.354 N 
ATOM     43  C   UNL A   1      46.478  28.225  26.756  1.00  0.00     0.074 A 
ATOM     44  C   UNL A   1      46.046  28.064  25.395  1.00  0.00     0.031 C 
ATOM     45  C   UNL A   1      40.457  25.995  28.239  1.00  0.00     0.029 A 
ATOM     46  C   UNL A   1      40.981  27.275  28.670  1.00  0.00     0.049 A 
ATOM     47  H   UNL A   1      42.979  27.906  28.607  1.00  0.00     0.167 HD
ATOM     48  C   UNL A   1      47.010  29.301  27.402  1.00  0.00     0.037 A 
ATOM     49  C   UNL A   1      40.334  28.316  29.252  1.00  0.00     0.037 A 
ATOM     50  C   UNL A   1      47.066  29.048  28.822  1.00  0.00     0.049 A 
ATOM     51  C   UNL A   1      41.362  29.107  29.969  1.00  0.00     0.074 A 
ATOM     52  C   UNL A   1      47.790  28.232  29.663  1.00  0.00     0.029 A 
ATOM     53  N   UNL A   1      45.932  29.430  29.496  1.00  0.00    -0.354 N 
ATOM     54  N   UNL A   1      42.049  28.645  30.980  1.00  0.00    -0.248 NA
ATOM     55  C   UNL A   1      41.927  30.282  29.320  1.00  0.00     0.031 C 
ATOM     56  C   UNL A   1      46.929  27.946  30.764  1.00  0.00     0.029 A 
ATOM     57  C   UNL A   1      45.731  28.641  30.595  1.00  0.00     0.049 A 
ATOM     58  H   UNL A   1      45.344  30.171  29.224  1.00  0.00     0.167 HD
ATOM     59  C   UNL A   1      43.310  29.191  30.825  1.00  0.00     0.074 A 
ATOM     60  C   UNL A   1      43.129  30.305  29.902  1.00  0.00     0.031 C 
ATOM     61  C   UNL A   1      44.423  28.496  31.206  1.00  0.00     0.037 A 
BRANCH  48  62
ATOM     62  C   UNL A   1      47.015  30.726  26.877  1.00  0.00     0.058 A 
ATOM     63  C   UNL A   1      48.209  31.478  26.956  1.00  0.00     0.135 A 
ATOM     64  C   UNL A   1      45.854  31.475  26.582  1.00  0.00     0.135 A 
ATOM     65  F   UNL A   1      49.376  30.878  27.239  1.00  0.00    -0.206 F 
ATOM     66  C   UNL A   1      48.234  32.868  26.819  1.00  0.00     0.059 A 
ATOM     67  C   UNL A   1      45.866  32.853  26.392  1.00  0.00     0.059 A 
ATOM     68  F   UNL A   1      44.632  30.932  26.559  1.00  0.00    -0.206 F 
ATOM     69  C   UNL A   1      47.051  33.548  26.548  1.00  0.00     0.060 A 
BRANCH  69  70
ATOM     70  S   UNL A   1      47.059  35.345  26.442  1.00  0.00     0.124 S 
ATOM     71  O   UNL A   1      47.892  35.566  25.266  1.00  0.00    -0.237 OA
ATOM     72  O   UNL A   1      45.639  35.644  26.291  1.00  0.00    -0.237 OA
ATOM     73  O   UNL A   1      47.646  35.752  27.717  1.00  0.00    -0.744 OA
ENDBRANCH  69  70
ENDBRANCH  48  62
BRANCH  49  74
ATOM     74  C   UNL A   1      38.959  28.818  29.007  1.00  0.00     0.058 A 
ATOM     75  C   UNL A   1      38.032  28.981  30.053  1.00  0.00     0.135 A 
ATOM     76  C   UNL A   1      38.627  29.429  27.782  1.00  0.00     0.135 A 
ATOM     77  F   UNL A   1      38.280  28.448  31.260  1.00  0.00    -0.206 F 
ATOM     78  C   UNL A   1      36.868  29.746  29.908  1.00  0.00     0.059 A 
ATOM     79  C   UNL A   1      37.472  30.195  27.613  1.00  0.00     0.059 A 
ATOM     80  F   UNL A   1      39.469  29.374  26.739  1.00  0.00    -0.206 F 
ATOM     81  C   UNL A   1      36.607  30.368  28.689  1.00  0.00     0.060 A 
BRANCH  81  82
ATOM     82  S   UNL A   1      35.193  31.490  28.545  1.00  0.00     0.124 S 
ATOM     83  O   UNL A   1      35.006  31.917  29.928  1.00  0.00    -0.237 OA
ATOM     84  O   UNL A   1      35.698  32.506  27.627  1.00  0.00    -0.237 OA
ATOM     85  O   UNL A   1      34.137  30.637  28.007  1.00  0.00    -0.744 OA
ENDBRANCH  81  82
ENDBRANCH  49  74
BRANCH  61  86
ATOM     86  C   UNL A   1      44.254  27.416  32.239  1.00  0.00     0.058 A 
ATOM     87  C   UNL A   1      43.998  27.625  33.604  1.00  0.00     0.135 A 
ATOM     88  C   UNL A   1      44.255  26.089  31.781  1.00  0.00     0.135 A 
ATOM     89  F   UNL A   1      43.901  28.863  34.108  1.00  0.00    -0.206 F 
ATOM     90  C   UNL A   1      43.784  26.556  34.481  1.00  0.00     0.059 A 
ATOM     91  C   UNL A   1      44.014  25.014  32.628  1.00  0.00     0.059 A 
ATOM     92  F   UNL A   1      44.446  25.829  30.477  1.00  0.00    -0.206 F 
ATOM     93  C   UNL A   1      43.793  25.253  33.980  1.00  0.00     0.060 A 
BRANCH  93  94
ATOM     94  S   UNL A   1      43.455  23.874  35.095  1.00  0.00     0.124 S 
ATOM     95  O   UNL A   1      44.753  23.667  35.730  1.00  0.00    -0.237 OA
ATOM     96  O   UNL A   1      42.405  24.411  35.955  1.00  0.00    -0.237 OA
ATOM     97  O   UNL A   1      43.025  22.805  34.195  1.00  0.00    -0.744 OA
ENDBRANCH  93  94
ENDBRANCH  61  86
ENDBRANCH  35  36
ENDBRANCH  27  30
ENDBRANCH  25  26
ENDBRANCH  24  25
ENDBRANCH  23  24
ENDBRANCH   1  23
TORSDOF 19
ENDMDL
MODEL 2
REMARK VINA RESULT:     -10.6      2.470      3.458
REMARK SMILES CC[N@@H+]1CCO[C@@H](Cn2cc(C(=O)NCCCCCCNC(=O)c3ccc(-c4c5nc(c(-c6c(F)cc(S(=O)(=O)[O-])cc6F)c6ccc([nH]6)c(-c6c(F)cc(S(=O)(=O)[O-])cc6F)c6nc(c(-c7c(F)cc(S(=O)(=O)[O-])cc7F)c7ccc4[nH]7)C=C6)C=C5)cc3)nn2)C1
REMARK SMILES IDX 17 1 16 2 15 3 14 4 12 5 13 6 11 8 9 9 10 10 91 11 90 12
REMARK SMILES IDX 8 13 7 14 3 15 4 16 92 17 5 19 6 20 2 21 1 22 18 23 19 24
REMARK SMILES IDX 20 25 21 26 22 27 23 29 24 30 25 31 89 32 26 33 88 34 27 35
REMARK SMILES IDX 28 36 29 37 82 38 30 39 87 40 81 41 83 42 31 43 86 44 80 45
REMARK SMILES IDX 79 46 32 48 66 49 45 50 65 51 46 52 49 53 64 54 84 55 47 56
REMARK SMILES IDX 48 57 63 59 85 60 50 61 33 62 34 63 43 64 35 65 36 66 42 67
REMARK SMILES IDX 44 68 37 69 38 70 39 71 40 72 41 73 67 74 68 75 77 76 69 77
REMARK SMILES IDX 70 78 76 79 78 80 71 81 72 82 73 83 74 84 75 85 51 86 52 87
REMARK SMILES IDX 61 88 53 89 54 90 60 91 62 92 55 93 56 94 57 95 58 96 59 97
REMARK H PARENT 14 7 3 18 21 28 83 47 49 58
REMARK Flexibility Score: inf
ROOT
ATOM      1  C   UNL A   1      38.222  22.683  25.773  1.00  0.00     0.002 C 
ENDROOT
BRANCH   1   2
ATOM      2  C   UNL A   1      36.921  23.294  25.235  1.00  0.00     0.021 C 
BRANCH   2   3
ATOM      3  C   UNL A   1      36.351  22.557  24.026  1.00  0.00     0.116 C 
BRANCH   3   4
ATOM      4  N   UNL A   1      35.093  21.919  24.353  1.00  0.00    -0.351 N 
ATOM      5  C   UNL A   1      33.800  22.186  23.968  1.00  0.00     0.273 C 
ATOM      6  O   UNL A   1      32.940  21.384  24.337  1.00  0.00    -0.267 OA
ATOM      7  H   UNL A   1      35.179  21.154  24.966  1.00  0.00     0.163 HD
BRANCH   5   8
ATOM      8  C   UNL A   1      33.482  23.318  23.106  1.00  0.00     0.170 A 
ATOM      9  N   UNL A   1      33.105  25.248  22.196  1.00  0.00    -0.249 N 
ATOM     10  C   UNL A   1      33.096  24.612  23.401  1.00  0.00     0.145 A 
ATOM     11  N   UNL A   1      33.323  24.389  21.191  1.00  0.00    -0.067 NA
ATOM     12  N   UNL A   1      33.547  23.200  21.732  1.00  0.00    -0.125 NA
BRANCH   9  13
ATOM     13  C   UNL A   1      33.096  26.669  21.946  1.00  0.00     0.184 C 
BRANCH  13  14
ATOM     14  C   UNL A   1      32.105  27.424  22.844  1.00  0.00     0.194 C 
ATOM     15  N   UNL A   1      31.375  29.744  23.626  1.00  0.00    -0.331 N 
ATOM     16  C   UNL A   1      30.050  29.384  23.077  1.00  0.00     0.291 C 
ATOM     17  C   UNL A   1      32.397  28.948  22.901  1.00  0.00     0.296 C 
ATOM     18  H   UNL A   1      31.530  30.742  23.483  1.00  0.00     0.348 HD
ATOM     19  C   UNL A   1      29.780  27.871  23.059  1.00  0.00     0.222 C 
ATOM     20  O   UNL A   1      30.787  27.176  22.317  1.00  0.00    -0.365 OA
BRANCH  15  21
ATOM     21  C   UNL A   1      31.474  29.563  25.082  1.00  0.00     0.258 C 
ATOM     22  C   UNL A   1      32.918  29.593  25.575  1.00  0.00     0.071 C 
ENDBRANCH  15  21
ENDBRANCH  13  14
ENDBRANCH   9  13
ENDBRANCH   5   8
ENDBRANCH   3   4
ENDBRANCH   2   3
ENDBRANCH   1   2
BRANCH   1  23
ATOM     23  C   UNL A   1      38.481  21.215  25.391  1.00  0.00     0.002 C 
BRANCH  23  24
ATOM     24  C   UNL A   1      39.684  20.535  26.062  1.00  0.00     0.021 C 
BRANCH  24  25
ATOM     25  C   UNL A   1      40.663  21.512  26.691  1.00  0.00     0.116 C 
BRANCH  25  26
ATOM     26  N   UNL A   1      41.833  21.748  25.843  1.00  0.00    -0.352 N 
ATOM     27  C   UNL A   1      42.437  22.952  25.522  1.00  0.00     0.251 C 
ATOM     28  H   UNL A   1      42.244  20.944  25.449  1.00  0.00     0.163 HD
ATOM     29  O   UNL A   1      43.139  23.055  24.531  1.00  0.00    -0.269 OA
BRANCH  27  30
ATOM     30  C   UNL A   1      42.216  24.102  26.418  1.00  0.00     0.039 A 
ATOM     31  C   UNL A   1      42.845  24.209  27.662  1.00  0.00     0.014 A 
ATOM     32  C   UNL A   1      41.369  25.106  25.962  1.00  0.00     0.014 A 
ATOM     33  C   UNL A   1      42.660  25.375  28.402  1.00  0.00     0.010 A 
ATOM     34  C   UNL A   1      41.362  26.322  26.583  1.00  0.00     0.010 A 
ATOM     35  C   UNL A   1      41.926  26.434  27.844  1.00  0.00    -0.014 A 
BRANCH  35  36
ATOM     36  C   UNL A   1      41.809  27.724  28.509  1.00  0.00     0.031 A 
ATOM     37  C   UNL A   1      42.936  28.643  28.213  1.00  0.00     0.074 A 
ATOM     38  C   UNL A   1      40.674  28.128  29.124  1.00  0.00     0.049 A 
ATOM     39  N   UNL A   1      43.935  28.937  28.975  1.00  0.00    -0.248 NA
ATOM     40  C   UNL A   1      43.087  29.136  26.832  1.00  0.00     0.031 C 
ATOM     41  C   UNL A   1      39.373  27.439  29.167  1.00  0.00     0.029 A 
ATOM     42  N   UNL A   1      40.405  29.298  29.766  1.00  0.00    -0.354 N 
ATOM     43  C   UNL A   1      44.672  29.886  28.272  1.00  0.00     0.074 A 
ATOM     44  C   UNL A   1      44.264  29.764  26.900  1.00  0.00     0.031 C 
ATOM     45  C   UNL A   1      38.414  28.293  29.586  1.00  0.00     0.029 A 
ATOM     46  C   UNL A   1      39.054  29.515  30.029  1.00  0.00     0.049 A 
ATOM     47  H   UNL A   1      41.108  29.938  30.023  1.00  0.00     0.167 HD
ATOM     48  C   UNL A   1      45.293  30.905  28.931  1.00  0.00     0.037 A 
ATOM     49  C   UNL A   1      38.501  30.620  30.591  1.00  0.00     0.037 A 
ATOM     50  C   UNL A   1      45.282  30.655  30.353  1.00  0.00     0.049 A 
ATOM     51  C   UNL A   1      39.585  31.305  31.335  1.00  0.00     0.074 A 
ATOM     52  C   UNL A   1      45.895  29.773  31.215  1.00  0.00     0.029 A 
ATOM     53  N   UNL A   1      44.175  31.155  30.993  1.00  0.00    -0.354 N 
ATOM     54  N   UNL A   1      40.191  30.780  32.367  1.00  0.00    -0.248 NA
ATOM     55  C   UNL A   1      40.285  32.413  30.700  1.00  0.00     0.031 C 
ATOM     56  C   UNL A   1      44.978  29.582  32.292  1.00  0.00     0.029 A 
ATOM     57  C   UNL A   1      43.863  30.396  32.087  1.00  0.00     0.049 A 
ATOM     58  H   UNL A   1      43.675  31.951  30.702  1.00  0.00     0.167 HD
ATOM     59  C   UNL A   1      41.506  31.192  32.247  1.00  0.00     0.074 A 
ATOM     60  C   UNL A   1      41.467  32.315  31.317  1.00  0.00     0.031 C 
ATOM     61  C   UNL A   1      42.530  30.390  32.661  1.00  0.00     0.037 A 
BRANCH  48  62
ATOM     62  C   UNL A   1      45.460  32.320  28.404  1.00  0.00     0.058 A 
ATOM     63  C   UNL A   1      46.761  32.862  28.302  1.00  0.00     0.135 A 
ATOM     64  C   UNL A   1      44.409  33.256  28.278  1.00  0.00     0.135 A 
ATOM     65  F   UNL A   1      47.840  32.071  28.414  1.00  0.00    -0.206 F 
ATOM     66  C   UNL A   1      46.998  34.231  28.156  1.00  0.00     0.059 A 
ATOM     67  C   UNL A   1      44.623  34.617  28.081  1.00  0.00     0.059 A 
ATOM     68  F   UNL A   1      43.123  32.924  28.438  1.00  0.00    -0.206 F 
ATOM     69  C   UNL A   1      45.918  35.102  28.058  1.00  0.00     0.060 A 
BRANCH  69  70
ATOM     70  S   UNL A   1      46.210  36.875  27.943  1.00  0.00     0.124 S 
ATOM     71  O   UNL A   1      45.179  37.400  28.831  1.00  0.00    -0.237 OA
ATOM     72  O   UNL A   1      47.585  36.985  28.417  1.00  0.00    -0.237 OA
ATOM     73  O   UNL A   1      46.020  37.153  26.521  1.00  0.00    -0.744 OA
ENDBRANCH  69  70
ENDBRANCH  48  62
BRANCH  49  74
ATOM     74  C   UNL A   1      37.192  31.260  30.305  1.00  0.00     0.058 A 
ATOM     75  C   UNL A   1      36.361  31.736  31.335  1.00  0.00     0.135 A 
ATOM     76  C   UNL A   1      36.872  31.683  29.000  1.00  0.00     0.135 A 
ATOM     77  F   UNL A   1      36.607  31.397  32.610  1.00  0.00    -0.206 F 
ATOM     78  C   UNL A   1      35.301  32.619  31.092  1.00  0.00     0.059 A 
ATOM     79  C   UNL A   1      35.820  32.562  28.734  1.00  0.00     0.059 A 
ATOM     80  F   UNL A   1      37.635  31.324  27.957  1.00  0.00    -0.206 F 
ATOM     81  C   UNL A   1      35.052  33.044  29.788  1.00  0.00     0.060 A 
BRANCH  81  82
ATOM     82  S   UNL A   1      33.793  34.311  29.489  1.00  0.00     0.124 S 
ATOM     83  O   UNL A   1      34.567  35.352  28.819  1.00  0.00    -0.237 OA
ATOM     84  O   UNL A   1      32.829  33.598  28.658  1.00  0.00    -0.237 OA
ATOM     85  O   UNL A   1      33.327  34.648  30.831  1.00  0.00    -0.744 OA
ENDBRANCH  81  82
ENDBRANCH  49  74
BRANCH  61  86
ATOM     86  C   UNL A   1      42.222  29.338  33.691  1.00  0.00     0.058 A 
ATOM     87  C   UNL A   1      41.818  28.020  33.417  1.00  0.00     0.135 A 
ATOM     88  C   UNL A   1      42.451  29.673  35.035  1.00  0.00     0.135 A 
ATOM     89  F   UNL A   1      41.655  27.596  32.156  1.00  0.00    -0.206 F 
ATOM     90  C   UNL A   1      41.622  27.087  34.440  1.00  0.00     0.059 A 
ATOM     91  C   UNL A   1      42.293  28.754  36.065  1.00  0.00     0.059 A 
ATOM     92  F   UNL A   1      42.885  30.904  35.355  1.00  0.00    -0.206 F 
ATOM     93  C   UNL A   1      41.865  27.465  35.762  1.00  0.00     0.060 A 
BRANCH  93  94
ATOM     94  S   UNL A   1      41.673  26.247  37.080  1.00  0.00     0.124 S 
ATOM     95  O   UNL A   1      40.374  26.603  37.642  1.00  0.00    -0.237 OA
ATOM     96  O   UNL A   1      41.727  24.982  36.354  1.00  0.00    -0.237 OA
ATOM     97  O   UNL A   1      42.819  26.504  37.951  1.00  0.00    -0.744 OA
ENDBRANCH  93  94
ENDBRANCH  61  86
ENDBRANCH  35  36
ENDBRANCH  27  30
ENDBRANCH  25  26
ENDBRANCH  24  25
ENDBRANCH  23  24
ENDBRANCH   1  23
TORSDOF 19
ENDMDL
MODEL 3
REMARK VINA RESULT:     -10.6      2.109      3.051
REMARK SMILES CC[N@@H+]1CCO[C@@H](Cn2cc(C(=O)NCCCCCCNC(=O)c3ccc(-c4c5nc(c(-c6c(F)cc(S(=O)(=O)[O-])cc6F)c6ccc([nH]6)c(-c6c(F)cc(S(=O)(=O)[O-])cc6F)c6nc(c(-c7c(F)cc(S(=O)(=O)[O-])cc7F)c7ccc4[nH]7)C=C6)C=C5)cc3)nn2)C1
REMARK SMILES IDX 17 1 16 2 15 3 14 4 12 5 13 6 11 8 9 9 10 10 91 11 90 12
REMARK SMILES IDX 8 13 7 14 3 15 4 16 92 17 5 19 6 20 2 21 1 22 18 23 19 24
REMARK SMILES IDX 20 25 21 26 22 27 23 29 24 30 25 31 89 32 26 33 88 34 27 35
REMARK SMILES IDX 28 36 29 37 82 38 30 39 87 40 81 41 83 42 31 43 86 44 80 45
REMARK SMILES IDX 79 46 32 48 66 49 45 50 65 51 46 52 49 53 64 54 84 55 47 56
REMARK SMILES IDX 48 57 63 59 85 60 50 61 33 62 34 63 43 64 35 65 36 66 42 67
REMARK SMILES IDX 44 68 37 69 38 70 39 71 40 72 41 73 67 74 68 75 77 76 69 77
REMARK SMILES IDX 70 78 76 79 78 80 71 81 72 82 73 83 74 84 75 85 51 86 52 87
REMARK SMILES IDX 61 88 53 89 54 90 60 91 62 92 55 93 56 94 57 95 58 96 59 97
REMARK H PARENT 14 7 3 18 21 28 83 47 49 58
REMARK Flexibility Score: inf
ROOT
ATOM      1  C   UNL A   1      37.620  22.548  25.271  1.00  0.00     0.002 C 
ENDROOT
BRANCH   1   2
ATOM      2  C   UNL A   1      36.612  21.396  25.161  1.00  0.00     0.021 C 
BRANCH   2   3
ATOM      3  C   UNL A   1      35.520  21.433  26.228  1.00  0.00     0.116 C 
BRANCH   3   4
ATOM      4  N   UNL A   1      34.374  20.644  25.823  1.00  0.00    -0.351 N 
ATOM      5  C   UNL A   1      33.039  20.952  25.718  1.00  0.00     0.273 C 
ATOM      6  O   UNL A   1      32.311  20.083  25.234  1.00  0.00    -0.267 OA
ATOM      7  H   UNL A   1      34.593  19.716  25.579  1.00  0.00     0.163 HD
BRANCH   5   8
ATOM      8  C   UNL A   1      32.529  22.266  26.093  1.00  0.00     0.170 A 
ATOM      9  N   UNL A   1      31.681  24.256  26.206  1.00  0.00    -0.249 N 
ATOM     10  C   UNL A   1      32.327  23.414  25.351  1.00  0.00     0.145 A 
ATOM     11  N   UNL A   1      31.619  23.745  27.443  1.00  0.00    -0.067 NA
ATOM     12  N   UNL A   1      32.143  22.529  27.392  1.00  0.00    -0.125 NA
BRANCH   9  13
ATOM     13  C   UNL A   1      30.948  25.456  25.880  1.00  0.00     0.184 C 
BRANCH  13  14
ATOM     14  C   UNL A   1      31.733  26.736  26.201  1.00  0.00     0.194 C 
ATOM     15  N   UNL A   1      32.488  28.990  25.265  1.00  0.00    -0.331 N 
ATOM     16  C   UNL A   1      31.759  29.578  26.409  1.00  0.00     0.291 C 
ATOM     17  C   UNL A   1      31.877  27.669  24.969  1.00  0.00     0.296 C 
ATOM     18  H   UNL A   1      32.399  29.613  24.462  1.00  0.00     0.348 HD
ATOM     19  C   UNL A   1      31.657  28.641  27.623  1.00  0.00     0.222 C 
ATOM     20  O   UNL A   1      31.030  27.404  27.268  1.00  0.00    -0.365 OA
BRANCH  15  21
ATOM     21  C   UNL A   1      33.937  28.884  25.487  1.00  0.00     0.258 C 
ATOM     22  C   UNL A   1      34.354  29.393  26.865  1.00  0.00     0.071 C 
ENDBRANCH  15  21
ENDBRANCH  13  14
ENDBRANCH   9  13
ENDBRANCH   5   8
ENDBRANCH   3   4
ENDBRANCH   2   3
ENDBRANCH   1   2
BRANCH   1  23
ATOM     23  C   UNL A   1      38.839  22.287  26.173  1.00  0.00     0.002 C 
BRANCH  23  24
ATOM     24  C   UNL A   1      39.443  20.876  26.115  1.00  0.00     0.021 C 
BRANCH  24  25
ATOM     25  C   UNL A   1      40.642  20.688  27.029  1.00  0.00     0.116 C 
BRANCH  25  26
ATOM     26  N   UNL A   1      41.911  20.773  26.304  1.00  0.00    -0.352 N 
ATOM     27  C   UNL A   1      42.651  21.901  25.990  1.00  0.00     0.251 C 
ATOM     28  H   UNL A   1      42.287  19.916  25.998  1.00  0.00     0.163 HD
ATOM     29  O   UNL A   1      43.459  21.885  25.078  1.00  0.00    -0.269 OA
BRANCH  27  30
ATOM     30  C   UNL A   1      42.442  23.117  26.798  1.00  0.00     0.039 A 
ATOM     31  C   UNL A   1      42.965  23.254  28.086  1.00  0.00     0.014 A 
ATOM     32  C   UNL A   1      41.719  24.149  26.210  1.00  0.00     0.014 A 
ATOM     33  C   UNL A   1      42.808  24.474  28.741  1.00  0.00     0.010 A 
ATOM     34  C   UNL A   1      41.752  25.399  26.760  1.00  0.00     0.010 A 
ATOM     35  C   UNL A   1      42.210  25.548  28.060  1.00  0.00    -0.014 A 
BRANCH  35  36
ATOM     36  C   UNL A   1      42.136  26.881  28.640  1.00  0.00     0.031 A 
ATOM     37  C   UNL A   1      43.303  27.734  28.305  1.00  0.00     0.074 A 
ATOM     38  C   UNL A   1      41.009  27.368  29.208  1.00  0.00     0.049 A 
ATOM     39  N   UNL A   1      44.303  28.037  29.064  1.00  0.00    -0.248 NA
ATOM     40  C   UNL A   1      43.494  28.130  26.898  1.00  0.00     0.031 C 
ATOM     41  C   UNL A   1      39.681  26.735  29.273  1.00  0.00     0.029 A 
ATOM     42  N   UNL A   1      40.779  28.587  29.771  1.00  0.00    -0.354 N 
ATOM     43  C   UNL A   1      45.087  28.909  28.314  1.00  0.00     0.074 A 
ATOM     44  C   UNL A   1      44.694  28.715  26.946  1.00  0.00     0.031 C 
ATOM     45  C   UNL A   1      38.751  27.652  29.621  1.00  0.00     0.029 A 
ATOM     46  C   UNL A   1      39.434  28.873  29.997  1.00  0.00     0.049 A 
ATOM     47  H   UNL A   1      41.503  29.213  29.998  1.00  0.00     0.167 HD
ATOM     48  C   UNL A   1      45.739  29.943  28.917  1.00  0.00     0.037 A 
ATOM     49  C   UNL A   1      38.918  30.033  30.477  1.00  0.00     0.037 A 
ATOM     50  C   UNL A   1      45.698  29.785  30.352  1.00  0.00     0.049 A 
ATOM     51  C   UNL A   1      40.018  30.721  31.194  1.00  0.00     0.074 A 
ATOM     52  C   UNL A   1      46.262  28.937  31.279  1.00  0.00     0.029 A 
ATOM     53  N   UNL A   1      44.603  30.368  30.940  1.00  0.00    -0.354 N 
ATOM     54  N   UNL A   1      40.588  30.240  32.267  1.00  0.00    -0.248 NA
ATOM     55  C   UNL A   1      40.772  31.757  30.502  1.00  0.00     0.031 C 
ATOM     56  C   UNL A   1      45.323  28.852  32.350  1.00  0.00     0.029 A 
ATOM     57  C   UNL A   1      44.244  29.694  32.075  1.00  0.00     0.049 A 
ATOM     58  H   UNL A   1      44.139  31.163  30.591  1.00  0.00     0.167 HD
ATOM     59  C   UNL A   1      41.920  30.592  32.144  1.00  0.00     0.074 A 
ATOM     60  C   UNL A   1      41.939  31.653  31.143  1.00  0.00     0.031 C 
ATOM     61  C   UNL A   1      42.904  29.777  32.626  1.00  0.00     0.037 A 
BRANCH  48  62
ATOM     62  C   UNL A   1      45.970  31.313  28.304  1.00  0.00     0.058 A 
ATOM     63  C   UNL A   1      44.856  32.057  27.854  1.00  0.00     0.135 A 
ATOM     64  C   UNL A   1      47.227  31.796  27.873  1.00  0.00     0.135 A 
ATOM     65  F   UNL A   1      43.610  31.690  28.191  1.00  0.00    -0.206 F 
ATOM     66  C   UNL A   1      44.979  33.149  26.990  1.00  0.00     0.059 A 
ATOM     67  C   UNL A   1      47.373  32.911  27.055  1.00  0.00     0.059 A 
ATOM     68  F   UNL A   1      48.373  31.159  28.136  1.00  0.00    -0.206 F 
ATOM     69  C   UNL A   1      46.245  33.561  26.588  1.00  0.00     0.060 A 
BRANCH  69  70
ATOM     70  S   UNL A   1      46.411  34.920  25.419  1.00  0.00     0.124 S 
ATOM     71  O   UNL A   1      46.043  36.064  26.246  1.00  0.00    -0.237 OA
ATOM     72  O   UNL A   1      47.817  34.824  25.043  1.00  0.00    -0.237 OA
ATOM     73  O   UNL A   1      45.462  34.571  24.365  1.00  0.00    -0.744 OA
ENDBRANCH  69  70
ENDBRANCH  48  62
BRANCH  49  74
ATOM     74  C   UNL A   1      37.641  30.704  30.129  1.00  0.00     0.058 A 
ATOM     75  C   UNL A   1      36.799  31.251  31.115  1.00  0.00     0.135 A 
ATOM     76  C   UNL A   1      37.369  31.082  28.800  1.00  0.00     0.135 A 
ATOM     77  F   UNL A   1      37.001  30.958  32.409  1.00  0.00    -0.206 F 
ATOM     78  C   UNL A   1      35.778  32.158  30.807  1.00  0.00     0.059 A 
ATOM     79  C   UNL A   1      36.356  31.984  28.468  1.00  0.00     0.059 A 
ATOM     80  F   UNL A   1      38.146  30.654  27.794  1.00  0.00    -0.206 F 
ATOM     81  C   UNL A   1      35.578  32.536  29.480  1.00  0.00     0.060 A 
BRANCH  81  82
ATOM     82  S   UNL A   1      34.373  33.832  29.094  1.00  0.00     0.124 S 
ATOM     83  O   UNL A   1      33.754  34.064  30.396  1.00  0.00    -0.237 OA
ATOM     84  O   UNL A   1      35.224  34.905  28.591  1.00  0.00    -0.237 OA
ATOM     85  O   UNL A   1      33.510  33.204  28.097  1.00  0.00    -0.744 OA
ENDBRANCH  81  82
ENDBRANCH  49  74
BRANCH  61  86
ATOM     86  C   UNL A   1      42.539  28.807  33.715  1.00  0.00     0.058 A 
ATOM     87  C   UNL A   1      42.317  27.431  33.542  1.00  0.00     0.135 A 
ATOM     88  C   UNL A   1      42.515  29.301  35.029  1.00  0.00     0.135 A 
ATOM     89  F   UNL A   1      42.402  26.865  32.330  1.00  0.00    -0.206 F 
ATOM     90  C   UNL A   1      42.052  26.590  34.627  1.00  0.00     0.059 A 
ATOM     91  C   UNL A   1      42.284  28.479  36.125  1.00  0.00     0.059 A 
ATOM     92  F   UNL A   1      42.767  30.600  35.262  1.00  0.00    -0.206 F 
ATOM     93  C   UNL A   1      42.039  27.125  35.916  1.00  0.00     0.060 A 
BRANCH  93  94
ATOM     94  S   UNL A   1      41.758  26.033  37.326  1.00  0.00     0.124 S 
ATOM     95  O   UNL A   1      42.881  26.361  38.197  1.00  0.00    -0.237 OA
ATOM     96  O   UNL A   1      40.443  26.455  37.797  1.00  0.00    -0.237 OA
ATOM     97  O   UNL A   1      41.799  24.696  36.735  1.00  0.00    -0.744 OA
ENDBRANCH  93  94
ENDBRANCH  61  86
ENDBRANCH  35  36
ENDBRANCH  27  30
ENDBRANCH  25  26
ENDBRANCH  24  25
ENDBRANCH  23  24
ENDBRANCH   1  23
TORSDOF 19
ENDMDL
