MODEL 1
REMARK VINA RESULT:     -12.4      0.000      0.000
REMARK SMILES Cc1ccc([C@@H](C)Nc2ccccc2C(=O)NCCCCCCNC(=O)c2ccc(-c3c4nc(c(-c5c(F)cc(S(=O)(=O)[O-])cc5F)c5ccc([nH]5)c(-c5c(F)cc(S(=O)(=O)[O-])cc5F)c5nc(c(-c6c(F)cc(S(=O)(=O)[O-])cc6F)c6ccc3[nH]6)C=C5)C=C4)cc2)cc1F
REMARK SMILES IDX 20 1 19 2 18 3 17 4 15 5 16 6 14 8 9 9 10 10 11 11 13 12
REMARK SMILES IDX 12 13 8 14 6 16 7 17 5 18 1 19 2 20 3 21 94 22 4 23 93 24
REMARK SMILES IDX 95 25 21 26 22 27 23 28 24 29 25 30 26 32 27 33 28 34 92 35
REMARK SMILES IDX 29 36 91 37 30 38 31 39 32 40 85 41 33 42 90 43 84 44 86 45
REMARK SMILES IDX 34 46 89 47 83 48 82 49 35 51 69 52 48 53 68 54 49 55 52 56
REMARK SMILES IDX 67 57 87 58 50 59 51 60 66 62 88 63 53 64 36 65 37 66 46 67
REMARK SMILES IDX 38 68 39 69 45 70 47 71 40 72 41 73 42 74 43 75 44 76 70 77
REMARK SMILES IDX 71 78 80 79 72 80 73 81 79 82 81 83 74 84 75 85 76 86 77 87
REMARK SMILES IDX 78 88 54 89 55 90 64 91 56 92 57 93 63 94 65 95 58 96 59 97
REMARK SMILES IDX 60 98 61 99 62 100
REMARK H PARENT 17 7 8 15 24 31 86 50 52 61
REMARK Flexibility Score: inf
ROOT
ATOM      1  C   UNL A   1      31.704  29.245  24.389  1.00  0.00     0.002 C 
ENDROOT
BRANCH   1   2
ATOM      2  C   UNL A   1      32.885  29.292  23.402  1.00  0.00     0.021 C 
BRANCH   2   3
ATOM      3  C   UNL A   1      33.731  28.043  23.124  1.00  0.00     0.116 C 
BRANCH   3   4
ATOM      4  N   UNL A   1      33.144  27.068  22.226  1.00  0.00    -0.352 N 
ATOM      5  C   UNL A   1      32.295  26.014  22.489  1.00  0.00     0.253 C 
ATOM      6  O   UNL A   1      31.943  25.305  21.541  1.00  0.00    -0.269 OA
ATOM      7  H   UNL A   1      33.392  27.175  21.278  1.00  0.00     0.163 HD
BRANCH   5   8
ATOM      8  C   UNL A   1      31.846  25.633  23.861  1.00  0.00     0.062 A 
ATOM      9  C   UNL A   1      32.581  24.937  24.835  1.00  0.00     0.047 A 
ATOM     10  C   UNL A   1      31.895  24.513  25.998  1.00  0.00     0.026 A 
ATOM     11  C   UNL A   1      30.565  24.849  26.246  1.00  0.00     0.002 A 
ATOM     12  C   UNL A   1      30.516  26.022  24.154  1.00  0.00     0.016 A 
ATOM     13  C   UNL A   1      29.885  25.643  25.339  1.00  0.00     0.001 A 
BRANCH   9  14
ATOM     14  N   UNL A   1      33.949  24.682  24.832  1.00  0.00    -0.378 N 
ATOM     15  H   UNL A   1      34.519  25.199  25.448  1.00  0.00     0.161 HD
BRANCH  14  16
ATOM     16  C   UNL A   1      34.592  23.686  23.965  1.00  0.00     0.106 C 
ATOM     17  C   UNL A   1      33.709  22.485  23.678  1.00  0.00     0.036 C 
BRANCH  16  18
ATOM     18  C   UNL A   1      35.857  23.155  24.644  1.00  0.00    -0.023 A 
ATOM     19  C   UNL A   1      39.586  21.846  26.401  1.00  0.00     0.047 C 
ATOM     20  C   UNL A   1      38.293  22.313  25.810  1.00  0.00    -0.015 A 
ATOM     21  C   UNL A   1      37.823  23.615  26.013  1.00  0.00     0.007 A 
ATOM     22  C   UNL A   1      37.551  21.452  25.005  1.00  0.00     0.126 A 
ATOM     23  C   UNL A   1      36.615  24.027  25.444  1.00  0.00     0.006 A 
ATOM     24  C   UNL A   1      36.359  21.861  24.420  1.00  0.00     0.045 A 
ATOM     25  F   UNL A   1      37.990  20.208  24.771  1.00  0.00    -0.207 F 
ENDBRANCH  16  18
ENDBRANCH  14  16
ENDBRANCH   9  14
ENDBRANCH   5   8
ENDBRANCH   3   4
ENDBRANCH   2   3
ENDBRANCH   1   2
BRANCH   1  26
ATOM     26  C   UNL A   1      31.906  29.358  25.909  1.00  0.00     0.002 C 
BRANCH  26  27
ATOM     27  C   UNL A   1      32.640  28.218  26.619  1.00  0.00     0.021 C 
BRANCH  27  28
ATOM     28  C   UNL A   1      34.108  28.508  26.815  1.00  0.00     0.116 C 
BRANCH  28  29
ATOM     29  N   UNL A   1      34.387  29.934  26.737  1.00  0.00    -0.352 N 
ATOM     30  C   UNL A   1      35.039  30.699  27.691  1.00  0.00     0.251 C 
ATOM     31  H   UNL A   1      34.083  30.403  25.926  1.00  0.00     0.163 HD
ATOM     32  O   UNL A   1      34.601  31.791  27.998  1.00  0.00    -0.269 OA
BRANCH  30  33
ATOM     33  C   UNL A   1      36.265  30.131  28.299  1.00  0.00     0.039 A 
ATOM     34  C   UNL A   1      36.303  29.695  29.632  1.00  0.00     0.014 A 
ATOM     35  C   UNL A   1      37.426  30.128  27.537  1.00  0.00     0.014 A 
ATOM     36  C   UNL A   1      37.505  29.239  30.175  1.00  0.00     0.010 A 
ATOM     37  C   UNL A   1      38.550  29.537  27.996  1.00  0.00     0.010 A 
ATOM     38  C   UNL A   1      38.610  29.169  29.336  1.00  0.00    -0.014 A 
BRANCH  38  39
ATOM     39  C   UNL A   1      39.928  28.679  29.659  1.00  0.00     0.031 A 
ATOM     40  C   UNL A   1      40.287  27.345  29.173  1.00  0.00     0.074 A 
ATOM     41  C   UNL A   1      40.804  29.674  29.917  1.00  0.00     0.049 A 
ATOM     42  N   UNL A   1      41.401  26.769  29.430  1.00  0.00    -0.248 NA
ATOM     43  C   UNL A   1      39.401  26.539  28.334  1.00  0.00     0.031 C 
ATOM     44  C   UNL A   1      42.229  29.777  29.652  1.00  0.00     0.029 A 
ATOM     45  N   UNL A   1      40.503  30.882  30.547  1.00  0.00    -0.354 N 
ATOM     46  C   UNL A   1      41.528  25.723  28.540  1.00  0.00     0.074 A 
ATOM     47  C   UNL A   1      40.207  25.526  27.998  1.00  0.00     0.031 C 
ATOM     48  C   UNL A   1      42.721  30.809  30.369  1.00  0.00     0.029 A 
ATOM     49  C   UNL A   1      41.652  31.279  31.242  1.00  0.00     0.049 A 
ATOM     50  H   UNL A   1      39.644  31.363  30.510  1.00  0.00     0.167 HD
ATOM     51  C   UNL A   1      42.788  25.281  28.257  1.00  0.00     0.037 A 
ATOM     52  C   UNL A   1      41.611  31.120  32.606  1.00  0.00     0.037 A 
ATOM     53  C   UNL A   1      43.763  26.081  29.008  1.00  0.00     0.049 A 
ATOM     54  C   UNL A   1      42.462  29.953  33.084  1.00  0.00     0.074 A 
ATOM     55  C   UNL A   1      44.552  27.179  28.712  1.00  0.00     0.029 A 
ATOM     56  N   UNL A   1      43.739  25.995  30.382  1.00  0.00    -0.354 N 
ATOM     57  N   UNL A   1      43.063  29.106  32.291  1.00  0.00    -0.248 NA
ATOM     58  C   UNL A   1      42.694  29.635  34.490  1.00  0.00     0.031 C 
ATOM     59  C   UNL A   1      44.957  27.773  29.949  1.00  0.00     0.029 A 
ATOM     60  C   UNL A   1      44.417  27.031  30.986  1.00  0.00     0.049 A 
ATOM     61  H   UNL A   1      43.290  25.272  30.877  1.00  0.00     0.167 HD
ATOM     62  C   UNL A   1      43.701  28.144  33.017  1.00  0.00     0.074 A 
ATOM     63  C   UNL A   1      43.438  28.518  34.397  1.00  0.00     0.031 C 
ATOM     64  C   UNL A   1      44.376  27.104  32.440  1.00  0.00     0.037 A 
BRANCH  51  65
ATOM     65  C   UNL A   1      43.206  24.293  27.191  1.00  0.00     0.058 A 
ATOM     66  C   UNL A   1      43.985  23.171  27.561  1.00  0.00     0.135 A 
ATOM     67  C   UNL A   1      42.881  24.350  25.821  1.00  0.00     0.135 A 
ATOM     68  F   UNL A   1      44.333  22.942  28.835  1.00  0.00    -0.206 F 
ATOM     69  C   UNL A   1      44.440  22.220  26.651  1.00  0.00     0.059 A 
ATOM     70  C   UNL A   1      43.348  23.420  24.883  1.00  0.00     0.059 A 
ATOM     71  F   UNL A   1      42.055  25.277  25.326  1.00  0.00    -0.206 F 
ATOM     72  C   UNL A   1      44.128  22.357  25.309  1.00  0.00     0.060 A 
BRANCH  72  73
ATOM     73  S   UNL A   1      44.731  21.108  24.163  1.00  0.00     0.124 S 
ATOM     74  O   UNL A   1      44.461  21.728  22.869  1.00  0.00    -0.237 OA
ATOM     75  O   UNL A   1      46.138  21.006  24.536  1.00  0.00    -0.237 OA
ATOM     76  O   UNL A   1      43.916  19.937  24.473  1.00  0.00    -0.744 OA
ENDBRANCH  72  73
ENDBRANCH  51  65
BRANCH  52  77
ATOM     77  C   UNL A   1      40.251  31.513  33.138  1.00  0.00     0.058 A 
ATOM     78  C   UNL A   1      39.457  30.465  33.658  1.00  0.00     0.135 A 
ATOM     79  C   UNL A   1      40.037  32.798  33.669  1.00  0.00     0.135 A 
ATOM     80  F   UNL A   1      39.596  29.219  33.176  1.00  0.00    -0.206 F 
ATOM     81  C   UNL A   1      38.675  30.633  34.799  1.00  0.00     0.059 A 
ATOM     82  C   UNL A   1      39.244  32.990  34.807  1.00  0.00     0.059 A 
ATOM     83  F   UNL A   1      40.735  33.845  33.204  1.00  0.00    -0.206 F 
ATOM     84  C   UNL A   1      38.643  31.884  35.410  1.00  0.00     0.060 A 
BRANCH  84  85
ATOM     85  S   UNL A   1      37.975  31.982  37.093  1.00  0.00     0.124 S 
ATOM     86  O   UNL A   1      39.136  32.428  37.857  1.00  0.00    -0.237 OA
ATOM     87  O   UNL A   1      36.918  32.978  36.924  1.00  0.00    -0.237 OA
ATOM     88  O   UNL A   1      37.538  30.616  37.357  1.00  0.00    -0.744 OA
ENDBRANCH  84  85
ENDBRANCH  52  77
BRANCH  64  89
ATOM     89  C   UNL A   1      45.039  26.021  33.240  1.00  0.00     0.058 A 
ATOM     90  C   UNL A   1      46.428  25.842  33.233  1.00  0.00     0.135 A 
ATOM     91  C   UNL A   1      44.292  25.064  33.966  1.00  0.00     0.135 A 
ATOM     92  F   UNL A   1      47.220  26.649  32.508  1.00  0.00    -0.206 F 
ATOM     93  C   UNL A   1      47.043  24.834  33.971  1.00  0.00     0.059 A 
ATOM     94  C   UNL A   1      44.876  24.006  34.642  1.00  0.00     0.059 A 
ATOM     95  F   UNL A   1      42.960  25.147  34.093  1.00  0.00    -0.206 F 
ATOM     96  C   UNL A   1      46.257  23.926  34.680  1.00  0.00     0.060 A 
BRANCH  96  97
ATOM     97  S   UNL A   1      47.044  22.660  35.682  1.00  0.00     0.124 S 
ATOM     98  O   UNL A   1      46.238  22.674  36.899  1.00  0.00    -0.237 OA
ATOM     99  O   UNL A   1      46.885  21.485  34.832  1.00  0.00    -0.237 OA
ATOM    100  O   UNL A   1      48.412  23.145  35.835  1.00  0.00    -0.744 OA
ENDBRANCH  96  97
ENDBRANCH  64  89
ENDBRANCH  38  39
ENDBRANCH  30  33
ENDBRANCH  28  29
ENDBRANCH  27  28
ENDBRANCH  26  27
ENDBRANCH   1  26
TORSDOF 19
ENDMDL
MODEL 2
REMARK VINA RESULT:     -12.4      1.812      2.432
REMARK SMILES Cc1ccc([C@@H](C)Nc2ccccc2C(=O)NCCCCCCNC(=O)c2ccc(-c3c4nc(c(-c5c(F)cc(S(=O)(=O)[O-])cc5F)c5ccc([nH]5)c(-c5c(F)cc(S(=O)(=O)[O-])cc5F)c5nc(c(-c6c(F)cc(S(=O)(=O)[O-])cc6F)c6ccc3[nH]6)C=C5)C=C4)cc2)cc1F
REMARK SMILES IDX 20 1 19 2 18 3 17 4 15 5 16 6 14 8 9 9 10 10 11 11 13 12
REMARK SMILES IDX 12 13 8 14 6 16 7 17 5 18 1 19 2 20 3 21 94 22 4 23 93 24
REMARK SMILES IDX 95 25 21 26 22 27 23 28 24 29 25 30 26 32 27 33 28 34 92 35
REMARK SMILES IDX 29 36 91 37 30 38 31 39 32 40 85 41 33 42 90 43 84 44 86 45
REMARK SMILES IDX 34 46 89 47 83 48 82 49 35 51 69 52 48 53 68 54 49 55 52 56
REMARK SMILES IDX 67 57 87 58 50 59 51 60 66 62 88 63 53 64 36 65 37 66 46 67
REMARK SMILES IDX 38 68 39 69 45 70 47 71 40 72 41 73 42 74 43 75 44 76 70 77
REMARK SMILES IDX 71 78 80 79 72 80 73 81 79 82 81 83 74 84 75 85 76 86 77 87
REMARK SMILES IDX 78 88 54 89 55 90 64 91 56 92 57 93 63 94 65 95 58 96 59 97
REMARK SMILES IDX 60 98 61 99 62 100
REMARK H PARENT 17 7 8 15 24 31 86 50 52 61
REMARK Flexibility Score: inf
ROOT
ATOM      1  C   UNL A   1      31.324  27.953  25.349  1.00  0.00     0.002 C 
ENDROOT
BRANCH   1   2
ATOM      2  C   UNL A   1      31.115  26.658  26.155  1.00  0.00     0.021 C 
BRANCH   2   3
ATOM      3  C   UNL A   1      29.896  25.761  25.906  1.00  0.00     0.116 C 
BRANCH   3   4
ATOM      4  N   UNL A   1      30.153  24.335  25.890  1.00  0.00    -0.352 N 
ATOM      5  C   UNL A   1      31.029  23.598  25.121  1.00  0.00     0.253 C 
ATOM      6  O   UNL A   1      31.051  22.374  25.282  1.00  0.00    -0.269 OA
ATOM      7  H   UNL A   1      29.616  23.809  26.527  1.00  0.00     0.163 HD
BRANCH   5   8
ATOM      8  C   UNL A   1      31.890  24.185  24.051  1.00  0.00     0.062 A 
ATOM      9  C   UNL A   1      33.293  24.238  24.021  1.00  0.00     0.047 A 
ATOM     10  C   UNL A   1      33.900  25.011  23.001  1.00  0.00     0.026 A 
ATOM     11  C   UNL A   1      33.163  25.622  21.987  1.00  0.00     0.002 A 
ATOM     12  C   UNL A   1      31.159  24.755  22.981  1.00  0.00     0.016 A 
ATOM     13  C   UNL A   1      31.789  25.458  21.953  1.00  0.00     0.001 A 
BRANCH   9  14
ATOM     14  N   UNL A   1      34.179  23.541  24.837  1.00  0.00    -0.378 N 
ATOM     15  H   UNL A   1      34.280  23.835  25.772  1.00  0.00     0.161 HD
BRANCH  14  16
ATOM     16  C   UNL A   1      34.972  22.391  24.385  1.00  0.00     0.106 C 
ATOM     17  C   UNL A   1      34.326  21.055  24.707  1.00  0.00     0.036 C 
BRANCH  16  18
ATOM     18  C   UNL A   1      36.336  22.403  25.079  1.00  0.00    -0.023 A 
ATOM     19  C   UNL A   1      40.281  22.630  26.837  1.00  0.00     0.047 C 
ATOM     20  C   UNL A   1      38.910  22.567  26.243  1.00  0.00    -0.015 A 
ATOM     21  C   UNL A   1      38.070  23.686  26.219  1.00  0.00     0.007 A 
ATOM     22  C   UNL A   1      38.462  21.383  25.662  1.00  0.00     0.126 A 
ATOM     23  C   UNL A   1      36.795  23.601  25.652  1.00  0.00     0.006 A 
ATOM     24  C   UNL A   1      37.204  21.297  25.079  1.00  0.00     0.045 A 
ATOM     25  F   UNL A   1      39.255  20.303  25.646  1.00  0.00    -0.207 F 
ENDBRANCH  16  18
ENDBRANCH  14  16
ENDBRANCH   9  14
ENDBRANCH   5   8
ENDBRANCH   3   4
ENDBRANCH   2   3
ENDBRANCH   1   2
BRANCH   1  26
ATOM     26  C   UNL A   1      32.559  28.172  24.460  1.00  0.00     0.002 C 
BRANCH  26  27
ATOM     27  C   UNL A   1      33.906  28.396  25.151  1.00  0.00     0.021 C 
BRANCH  27  28
ATOM     28  C   UNL A   1      33.756  28.941  26.550  1.00  0.00     0.116 C 
BRANCH  28  29
ATOM     29  N   UNL A   1      33.959  30.382  26.589  1.00  0.00    -0.352 N 
ATOM     30  C   UNL A   1      34.526  31.107  27.623  1.00  0.00     0.251 C 
ATOM     31  H   UNL A   1      33.665  30.893  25.800  1.00  0.00     0.163 HD
ATOM     32  O   UNL A   1      34.017  32.150  27.988  1.00  0.00    -0.269 OA
BRANCH  30  33
ATOM     33  C   UNL A   1      35.755  30.559  28.247  1.00  0.00     0.039 A 
ATOM     34  C   UNL A   1      35.727  29.864  29.465  1.00  0.00     0.014 A 
ATOM     35  C   UNL A   1      36.971  30.839  27.637  1.00  0.00     0.014 A 
ATOM     36  C   UNL A   1      36.922  29.437  30.043  1.00  0.00     0.010 A 
ATOM     37  C   UNL A   1      38.115  30.289  28.098  1.00  0.00     0.010 A 
ATOM     38  C   UNL A   1      38.099  29.660  29.339  1.00  0.00    -0.014 A 
BRANCH  38  39
ATOM     39  C   UNL A   1      39.434  29.257  29.710  1.00  0.00     0.031 A 
ATOM     40  C   UNL A   1      39.881  27.932  29.277  1.00  0.00     0.074 A 
ATOM     41  C   UNL A   1      40.245  30.309  29.956  1.00  0.00     0.049 A 
ATOM     42  N   UNL A   1      41.019  27.429  29.579  1.00  0.00    -0.248 NA
ATOM     43  C   UNL A   1      39.065  27.050  28.443  1.00  0.00     0.031 C 
ATOM     44  C   UNL A   1      41.668  30.486  29.723  1.00  0.00     0.029 A 
ATOM     45  N   UNL A   1      39.859  31.517  30.538  1.00  0.00    -0.354 N 
ATOM     46  C   UNL A   1      41.229  26.365  28.727  1.00  0.00     0.074 A 
ATOM     47  C   UNL A   1      39.935  26.075  28.161  1.00  0.00     0.031 C 
ATOM     48  C   UNL A   1      42.082  31.566  30.416  1.00  0.00     0.029 A 
ATOM     49  C   UNL A   1      40.965  32.001  31.248  1.00  0.00     0.049 A 
ATOM     50  H   UNL A   1      38.976  31.946  30.465  1.00  0.00     0.167 HD
ATOM     51  C   UNL A   1      42.518  25.988  28.490  1.00  0.00     0.037 A 
ATOM     52  C   UNL A   1      40.899  31.883  32.615  1.00  0.00     0.037 A 
ATOM     53  C   UNL A   1      43.426  26.866  29.238  1.00  0.00     0.049 A 
ATOM     54  C   UNL A   1      41.801  30.783  33.151  1.00  0.00     0.074 A 
ATOM     55  C   UNL A   1      44.159  27.998  28.925  1.00  0.00     0.029 A 
ATOM     56  N   UNL A   1      43.372  26.822  30.612  1.00  0.00    -0.354 N 
ATOM     57  N   UNL A   1      42.470  29.947  32.402  1.00  0.00    -0.248 NA
ATOM     58  C   UNL A   1      42.014  30.523  34.572  1.00  0.00     0.031 C 
ATOM     59  C   UNL A   1      44.497  28.653  30.151  1.00  0.00     0.029 A 
ATOM     60  C   UNL A   1      43.973  27.914  31.198  1.00  0.00     0.049 A 
ATOM     61  H   UNL A   1      42.952  26.090  31.119  1.00  0.00     0.167 HD
ATOM     62  C   UNL A   1      43.143  29.047  33.174  1.00  0.00     0.074 A 
ATOM     63  C   UNL A   1      42.823  29.448  34.534  1.00  0.00     0.031 C 
ATOM     64  C   UNL A   1      43.891  28.031  32.647  1.00  0.00     0.037 A 
BRANCH  51  65
ATOM     65  C   UNL A   1      43.020  24.993  27.467  1.00  0.00     0.058 A 
ATOM     66  C   UNL A   1      43.736  23.855  27.908  1.00  0.00     0.135 A 
ATOM     67  C   UNL A   1      42.833  25.058  26.072  1.00  0.00     0.135 A 
ATOM     68  F   UNL A   1      43.952  23.617  29.210  1.00  0.00    -0.206 F 
ATOM     69  C   UNL A   1      44.259  22.896  27.045  1.00  0.00     0.059 A 
ATOM     70  C   UNL A   1      43.371  24.120  25.181  1.00  0.00     0.059 A 
ATOM     71  F   UNL A   1      42.079  26.002  25.500  1.00  0.00    -0.206 F 
ATOM     72  C   UNL A   1      44.084  23.041  25.679  1.00  0.00     0.060 A 
BRANCH  72  73
ATOM     73  S   UNL A   1      44.772  21.781  24.594  1.00  0.00     0.124 S 
ATOM     74  O   UNL A   1      44.501  22.339  23.273  1.00  0.00    -0.237 OA
ATOM     75  O   UNL A   1      46.173  21.762  25.000  1.00  0.00    -0.237 OA
ATOM     76  O   UNL A   1      44.007  20.584  24.932  1.00  0.00    -0.744 OA
ENDBRANCH  72  73
ENDBRANCH  51  65
BRANCH  52  77
ATOM     77  C   UNL A   1      39.504  32.213  33.101  1.00  0.00     0.058 A 
ATOM     78  C   UNL A   1      39.133  33.577  33.054  1.00  0.00     0.135 A 
ATOM     79  C   UNL A   1      38.469  31.267  32.994  1.00  0.00     0.135 A 
ATOM     80  F   UNL A   1      40.072  34.529  33.176  1.00  0.00    -0.206 F 
ATOM     81  C   UNL A   1      37.852  33.976  32.681  1.00  0.00     0.059 A 
ATOM     82  C   UNL A   1      37.171  31.649  32.633  1.00  0.00     0.059 A 
ATOM     83  F   UNL A   1      38.744  29.955  33.057  1.00  0.00    -0.206 F 
ATOM     84  C   UNL A   1      36.903  32.998  32.394  1.00  0.00     0.060 A 
BRANCH  84  85
ATOM     85  S   UNL A   1      35.399  33.514  31.522  1.00  0.00     0.124 S 
ATOM     86  O   UNL A   1      34.518  32.369  31.727  1.00  0.00    -0.237 OA
ATOM     87  O   UNL A   1      35.038  34.722  32.263  1.00  0.00    -0.237 OA
ATOM     88  O   UNL A   1      35.861  33.712  30.152  1.00  0.00    -0.744 OA
ENDBRANCH  84  85
ENDBRANCH  52  77
BRANCH  64  89
ATOM     89  C   UNL A   1      44.594  27.013  33.499  1.00  0.00     0.058 A 
ATOM     90  C   UNL A   1      45.990  26.903  33.517  1.00  0.00     0.135 A 
ATOM     91  C   UNL A   1      43.883  26.049  34.251  1.00  0.00     0.135 A 
ATOM     92  F   UNL A   1      46.753  27.720  32.772  1.00  0.00    -0.206 F 
ATOM     93  C   UNL A   1      46.641  25.956  34.303  1.00  0.00     0.059 A 
ATOM     94  C   UNL A   1      44.507  25.047  34.976  1.00  0.00     0.059 A 
ATOM     95  F   UNL A   1      42.547  26.070  34.357  1.00  0.00    -0.206 F 
ATOM     96  C   UNL A   1      45.889  25.038  35.036  1.00  0.00     0.060 A 
BRANCH  96  97
ATOM     97  S   UNL A   1      46.722  23.852  36.098  1.00  0.00     0.124 S 
ATOM     98  O   UNL A   1      47.932  24.570  36.485  1.00  0.00    -0.237 OA
ATOM     99  O   UNL A   1      45.730  23.669  37.152  1.00  0.00    -0.237 OA
ATOM    100  O   UNL A   1      46.933  22.700  35.225  1.00  0.00    -0.744 OA
ENDBRANCH  96  97
ENDBRANCH  64  89
ENDBRANCH  38  39
ENDBRANCH  30  33
ENDBRANCH  28  29
ENDBRANCH  27  28
ENDBRANCH  26  27
ENDBRANCH   1  26
TORSDOF 19
ENDMDL
MODEL 3
REMARK VINA RESULT:     -12.1      1.517      2.141
REMARK SMILES Cc1ccc([C@@H](C)Nc2ccccc2C(=O)NCCCCCCNC(=O)c2ccc(-c3c4nc(c(-c5c(F)cc(S(=O)(=O)[O-])cc5F)c5ccc([nH]5)c(-c5c(F)cc(S(=O)(=O)[O-])cc5F)c5nc(c(-c6c(F)cc(S(=O)(=O)[O-])cc6F)c6ccc3[nH]6)C=C5)C=C4)cc2)cc1F
REMARK SMILES IDX 20 1 19 2 18 3 17 4 15 5 16 6 14 8 9 9 10 10 11 11 13 12
REMARK SMILES IDX 12 13 8 14 6 16 7 17 5 18 1 19 2 20 3 21 94 22 4 23 93 24
REMARK SMILES IDX 95 25 21 26 22 27 23 28 24 29 25 30 26 32 27 33 28 34 92 35
REMARK SMILES IDX 29 36 91 37 30 38 31 39 32 40 85 41 33 42 90 43 84 44 86 45
REMARK SMILES IDX 34 46 89 47 83 48 82 49 35 51 69 52 48 53 68 54 49 55 52 56
REMARK SMILES IDX 67 57 87 58 50 59 51 60 66 62 88 63 53 64 36 65 37 66 46 67
REMARK SMILES IDX 38 68 39 69 45 70 47 71 40 72 41 73 42 74 43 75 44 76 70 77
REMARK SMILES IDX 71 78 80 79 72 80 73 81 79 82 81 83 74 84 75 85 76 86 77 87
REMARK SMILES IDX 78 88 54 89 55 90 64 91 56 92 57 93 63 94 65 95 58 96 59 97
REMARK SMILES IDX 60 98 61 99 62 100
REMARK H PARENT 17 7 8 15 24 31 86 50 52 61
REMARK Flexibility Score: inf
ROOT
ATOM      1  C   UNL A   1      31.329  28.464  25.223  1.00  0.00     0.002 C 
ENDROOT
BRANCH   1   2
ATOM      2  C   UNL A   1      30.793  27.033  25.414  1.00  0.00     0.021 C 
BRANCH   2   3
ATOM      3  C   UNL A   1      29.534  26.557  24.678  1.00  0.00     0.116 C 
BRANCH   3   4
ATOM      4  N   UNL A   1      29.586  25.212  24.142  1.00  0.00    -0.352 N 
ATOM      5  C   UNL A   1      30.574  24.581  23.417  1.00  0.00     0.253 C 
ATOM      6  O   UNL A   1      30.371  23.419  23.052  1.00  0.00    -0.269 OA
ATOM      7  H   UNL A   1      28.788  24.662  24.323  1.00  0.00     0.163 HD
BRANCH   5   8
ATOM      8  C   UNL A   1      31.835  25.249  22.977  1.00  0.00     0.062 A 
ATOM      9  C   UNL A   1      33.153  24.838  23.240  1.00  0.00     0.047 A 
ATOM     10  C   UNL A   1      34.200  25.725  22.891  1.00  0.00     0.026 A 
ATOM     11  C   UNL A   1      33.972  26.922  22.214  1.00  0.00     0.002 A 
ATOM     12  C   UNL A   1      31.622  26.435  22.234  1.00  0.00     0.016 A 
ATOM     13  C   UNL A   1      32.680  27.259  21.847  1.00  0.00     0.001 A 
BRANCH   9  14
ATOM     14  N   UNL A   1      33.566  23.605  23.735  1.00  0.00    -0.378 N 
ATOM     15  H   UNL A   1      33.741  22.881  23.090  1.00  0.00     0.161 HD
BRANCH  14  16
ATOM     16  C   UNL A   1      33.756  23.321  25.163  1.00  0.00     0.106 C 
ATOM     17  C   UNL A   1      33.563  24.541  26.046  1.00  0.00     0.036 C 
BRANCH  16  18
ATOM     18  C   UNL A   1      35.184  22.823  25.402  1.00  0.00    -0.023 A 
ATOM     19  C   UNL A   1      39.304  21.585  25.850  1.00  0.00     0.047 C 
ATOM     20  C   UNL A   1      37.882  22.029  25.710  1.00  0.00    -0.015 A 
ATOM     21  C   UNL A   1      37.505  23.358  25.930  1.00  0.00     0.007 A 
ATOM     22  C   UNL A   1      36.908  21.115  25.313  1.00  0.00     0.126 A 
ATOM     23  C   UNL A   1      36.170  23.747  25.786  1.00  0.00     0.006 A 
ATOM     24  C   UNL A   1      35.583  21.499  25.149  1.00  0.00     0.045 A 
ATOM     25  F   UNL A   1      37.245  19.842  25.069  1.00  0.00    -0.207 F 
ENDBRANCH  16  18
ENDBRANCH  14  16
ENDBRANCH   9  14
ENDBRANCH   5   8
ENDBRANCH   3   4
ENDBRANCH   2   3
ENDBRANCH   1   2
BRANCH   1  26
ATOM     26  C   UNL A   1      32.795  28.831  25.504  1.00  0.00     0.002 C 
BRANCH  26  27
ATOM     27  C   UNL A   1      33.550  28.007  26.549  1.00  0.00     0.021 C 
BRANCH  27  28
ATOM     28  C   UNL A   1      35.026  28.325  26.580  1.00  0.00     0.116 C 
BRANCH  28  29
ATOM     29  N   UNL A   1      35.264  29.733  26.859  1.00  0.00    -0.352 N 
ATOM     30  C   UNL A   1      36.051  30.250  27.876  1.00  0.00     0.251 C 
ATOM     31  H   UNL A   1      34.823  30.384  26.266  1.00  0.00     0.163 HD
ATOM     32  O   UNL A   1      35.651  31.189  28.538  1.00  0.00    -0.269 OA
BRANCH  30  33
ATOM     33  C   UNL A   1      37.370  29.614  28.108  1.00  0.00     0.039 A 
ATOM     34  C   UNL A   1      38.376  29.607  27.130  1.00  0.00     0.014 A 
ATOM     35  C   UNL A   1      37.559  28.928  29.300  1.00  0.00     0.014 A 
ATOM     36  C   UNL A   1      39.570  28.929  27.374  1.00  0.00     0.010 A 
ATOM     37  C   UNL A   1      38.766  28.413  29.614  1.00  0.00     0.010 A 
ATOM     38  C   UNL A   1      39.739  28.343  28.623  1.00  0.00    -0.014 A 
BRANCH  38  39
ATOM     39  C   UNL A   1      40.904  27.648  29.115  1.00  0.00     0.031 A 
ATOM     40  C   UNL A   1      41.092  26.262  28.681  1.00  0.00     0.074 A 
ATOM     41  C   UNL A   1      41.895  28.488  29.483  1.00  0.00     0.049 A 
ATOM     42  N   UNL A   1      42.051  25.514  29.081  1.00  0.00    -0.248 NA
ATOM     43  C   UNL A   1      40.198  25.596  27.735  1.00  0.00     0.031 C 
ATOM     44  C   UNL A   1      43.338  28.347  29.405  1.00  0.00     0.029 A 
ATOM     45  N   UNL A   1      41.723  29.744  30.067  1.00  0.00    -0.354 N 
ATOM     46  C   UNL A   1      42.114  24.441  28.217  1.00  0.00     0.074 A 
ATOM     47  C   UNL A   1      40.858  24.455  27.509  1.00  0.00     0.031 C 
ATOM     48  C   UNL A   1      43.902  29.298  30.178  1.00  0.00     0.029 A 
ATOM     49  C   UNL A   1      42.825  29.960  30.905  1.00  0.00     0.049 A 
ATOM     50  H   UNL A   1      40.970  30.361  29.918  1.00  0.00     0.167 HD
ATOM     51  C   UNL A   1      43.306  23.789  28.100  1.00  0.00     0.037 A 
ATOM     52  C   UNL A   1      42.584  29.841  32.252  1.00  0.00     0.037 A 
ATOM     53  C   UNL A   1      44.298  24.432  28.971  1.00  0.00     0.049 A 
ATOM     54  C   UNL A   1      43.158  28.560  32.838  1.00  0.00     0.074 A 
ATOM     55  C   UNL A   1      45.292  25.376  28.778  1.00  0.00     0.029 A 
ATOM     56  N   UNL A   1      44.085  24.383  30.329  1.00  0.00    -0.354 N 
ATOM     57  N   UNL A   1      43.705  27.607  32.131  1.00  0.00    -0.248 NA
ATOM     58  C   UNL A   1      43.152  28.241  34.263  1.00  0.00     0.031 C 
ATOM     59  C   UNL A   1      45.630  25.923  30.056  1.00  0.00     0.029 A 
ATOM     60  C   UNL A   1      44.845  25.305  31.015  1.00  0.00     0.049 A 
ATOM     61  H   UNL A   1      43.461  23.757  30.763  1.00  0.00     0.167 HD
ATOM     62  C   UNL A   1      44.073  26.569  32.935  1.00  0.00     0.074 A 
ATOM     63  C   UNL A   1      43.703  27.013  34.269  1.00  0.00     0.031 C 
ATOM     64  C   UNL A   1      44.632  25.418  32.451  1.00  0.00     0.037 A 
BRANCH  51  65
ATOM     65  C   UNL A   1      43.685  22.720  27.099  1.00  0.00     0.058 A 
ATOM     66  C   UNL A   1      42.980  21.494  27.102  1.00  0.00     0.135 A 
ATOM     67  C   UNL A   1      44.684  22.815  26.110  1.00  0.00     0.135 A 
ATOM     68  F   UNL A   1      41.963  21.266  27.945  1.00  0.00    -0.206 F 
ATOM     69  C   UNL A   1      43.269  20.441  26.238  1.00  0.00     0.059 A 
ATOM     70  C   UNL A   1      45.012  21.761  25.247  1.00  0.00     0.059 A 
ATOM     71  F   UNL A   1      45.362  23.946  25.892  1.00  0.00    -0.206 F 
ATOM     72  C   UNL A   1      44.297  20.576  25.320  1.00  0.00     0.060 A 
BRANCH  72  73
ATOM     73  S   UNL A   1      44.641  19.196  24.218  1.00  0.00     0.124 S 
ATOM     74  O   UNL A   1      43.636  18.221  24.630  1.00  0.00    -0.237 OA
ATOM     75  O   UNL A   1      44.440  19.798  22.904  1.00  0.00    -0.237 OA
ATOM     76  O   UNL A   1      46.020  18.839  24.537  1.00  0.00    -0.744 OA
ENDBRANCH  72  73
ENDBRANCH  51  65
BRANCH  52  77
ATOM     77  C   UNL A   1      41.253  30.468  32.603  1.00  0.00     0.058 A 
ATOM     78  C   UNL A   1      40.228  29.577  32.998  1.00  0.00     0.135 A 
ATOM     79  C   UNL A   1      41.194  31.776  33.117  1.00  0.00     0.135 A 
ATOM     80  F   UNL A   1      40.214  28.322  32.522  1.00  0.00    -0.206 F 
ATOM     81  C   UNL A   1      39.341  29.889  34.026  1.00  0.00     0.059 A 
ATOM     82  C   UNL A   1      40.300  32.113  34.141  1.00  0.00     0.059 A 
ATOM     83  F   UNL A   1      42.118  32.683  32.764  1.00  0.00    -0.206 F 
ATOM     84  C   UNL A   1      39.443  31.133  34.644  1.00  0.00     0.060 A 
BRANCH  84  85
ATOM     85  S   UNL A   1      38.583  31.361  36.224  1.00  0.00     0.124 S 
ATOM     86  O   UNL A   1      39.597  32.034  37.030  1.00  0.00    -0.237 OA
ATOM     87  O   UNL A   1      37.453  32.196  35.816  1.00  0.00    -0.237 OA
ATOM     88  O   UNL A   1      38.264  29.997  36.629  1.00  0.00    -0.744 OA
ENDBRANCH  84  85
ENDBRANCH  52  77
BRANCH  64  89
ATOM     89  C   UNL A   1      44.995  24.258  33.332  1.00  0.00     0.058 A 
ATOM     90  C   UNL A   1      46.271  24.131  33.896  1.00  0.00     0.135 A 
ATOM     91  C   UNL A   1      44.103  23.185  33.561  1.00  0.00     0.135 A 
ATOM     92  F   UNL A   1      47.217  25.056  33.670  1.00  0.00    -0.206 F 
ATOM     93  C   UNL A   1      46.610  23.051  34.709  1.00  0.00     0.059 A 
ATOM     94  C   UNL A   1      44.444  22.064  34.300  1.00  0.00     0.059 A 
ATOM     95  F   UNL A   1      42.838  23.203  33.119  1.00  0.00    -0.206 F 
ATOM     96  C   UNL A   1      45.684  22.028  34.912  1.00  0.00     0.060 A 
BRANCH  96  97
ATOM     97  S   UNL A   1      46.092  20.664  36.006  1.00  0.00     0.124 S 
ATOM     98  O   UNL A   1      45.598  21.135  37.296  1.00  0.00    -0.237 OA
ATOM     99  O   UNL A   1      45.335  19.574  35.398  1.00  0.00    -0.237 OA
ATOM    100  O   UNL A   1      47.544  20.558  35.897  1.00  0.00    -0.744 OA
ENDBRANCH  96  97
ENDBRANCH  64  89
ENDBRANCH  38  39
ENDBRANCH  30  33
ENDBRANCH  28  29
ENDBRANCH  27  28
ENDBRANCH  26  27
ENDBRANCH   1  26
TORSDOF 19
ENDMDL
