MODEL 1
REMARK VINA RESULT:     -13.2      0.000      0.000
REMARK SMILES Cc1ccnc(C(=O)c2[nH]c3cc(Cl)c(F)cc3c2CC(=O)NCCCCCCNC(=O)c2ccc(-c3c4nc(c(-c5c(F)cc(S(=O)(=O)[O-])cc5F)c5ccc([nH]5)c(-c5c(F)cc(S(=O)(=O)[O-])cc5F)c5nc(c(-c6c(F)cc(S(=O)(=O)[O-])cc6F)c6ccc3[nH]6)C=C5)C=C4)cc2)c1
REMARK SMILES IDX 26 1 25 2 24 3 23 4 21 5 22 6 20 8 19 9 9 10 10 11 11 12
REMARK SMILES IDX 18 14 12 15 17 16 13 17 15 18 14 19 16 20 7 21 8 22 6 23
REMARK SMILES IDX 1 24 2 25 3 26 99 27 4 28 5 29 27 30 28 31 29 32 30 33 31 34
REMARK SMILES IDX 32 36 33 37 34 38 98 39 35 40 97 41 36 42 37 43 38 44 91 45
REMARK SMILES IDX 39 46 96 47 90 48 92 49 40 50 95 51 89 52 88 53 41 55 75 56
REMARK SMILES IDX 54 57 74 58 55 59 58 60 73 61 93 62 56 63 57 64 72 66 94 67
REMARK SMILES IDX 59 68 42 69 43 70 52 71 44 72 45 73 51 74 53 75 46 76 47 77
REMARK SMILES IDX 48 78 49 79 50 80 76 81 77 82 86 83 78 84 79 85 85 86 87 87
REMARK SMILES IDX 80 88 81 89 82 90 83 91 84 92 60 93 61 94 70 95 62 96 63 97
REMARK SMILES IDX 69 98 71 99 64 100 65 101 66 102 67 103 68 104
REMARK H PARENT 23 7 10 13 30 35 92 54 58 65
REMARK Flexibility Score: inf
ROOT
ATOM      1  C   UNL A   1      36.697  23.721  26.068  1.00  0.00     0.002 C 
ENDROOT
BRANCH   1   2
ATOM      2  C   UNL A   1      35.998  23.172  24.821  1.00  0.00     0.021 C 
BRANCH   2   3
ATOM      3  C   UNL A   1      34.899  24.054  24.213  1.00  0.00     0.116 C 
BRANCH   3   4
ATOM      4  N   UNL A   1      34.396  23.591  22.933  1.00  0.00    -0.356 N 
ATOM      5  C   UNL A   1      33.176  23.106  22.564  1.00  0.00     0.224 C 
ATOM      6  O   UNL A   1      32.988  22.912  21.358  1.00  0.00    -0.275 OA
ATOM      7  H   UNL A   1      35.053  23.634  22.200  1.00  0.00     0.163 HD
BRANCH   5   8
ATOM      8  C   UNL A   1      32.054  22.858  23.551  1.00  0.00     0.138 C 
BRANCH   8   9
ATOM      9  C   UNL A   1      32.294  21.815  24.606  1.00  0.00    -0.002 A 
ATOM     10  C   UNL A   1      32.444  21.960  25.989  1.00  0.00     0.093 A 
ATOM     11  N   UNL A   1      32.777  20.710  26.478  1.00  0.00    -0.351 N 
ATOM     12  C   UNL A   1      32.742  19.753  25.500  1.00  0.00     0.048 A 
ATOM     13  H   UNL A   1      33.010  20.530  27.418  1.00  0.00     0.167 HD
ATOM     14  C   UNL A   1      32.517  20.419  24.301  1.00  0.00     0.007 A 
ATOM     15  C   UNL A   1      32.913  18.363  25.585  1.00  0.00     0.050 A 
ATOM     16  C   UNL A   1      32.520  19.659  23.109  1.00  0.00     0.051 A 
ATOM     17  C   UNL A   1      32.845  17.630  24.395  1.00  0.00     0.078 A 
ATOM     18  C   UNL A   1      32.662  18.273  23.178  1.00  0.00     0.142 A 
ATOM     19  Cl  UNL A   1      32.991  15.914  24.463  1.00  0.00    -0.081 Cl
ATOM     20  F   UNL A   1      32.600  17.570  22.036  1.00  0.00    -0.205 F 
BRANCH  10  21
ATOM     21  C   UNL A   1      32.440  23.086  26.922  1.00  0.00     0.227 C 
ATOM     22  O   UNL A   1      32.784  22.890  28.090  1.00  0.00    -0.285 OA
BRANCH  21  23
ATOM     23  C   UNL A   1      31.900  24.447  26.565  1.00  0.00     0.113 A 
ATOM     24  C   UNL A   1      32.983  28.028  25.873  1.00  0.00     0.044 C 
ATOM     25  C   UNL A   1      32.161  26.783  26.017  1.00  0.00    -0.047 A 
ATOM     26  C   UNL A   1      30.784  26.849  25.827  1.00  0.00     0.023 A 
ATOM     27  C   UNL A   1      32.729  25.540  26.332  1.00  0.00     0.036 A 
ATOM     28  C   UNL A   1      30.036  25.700  26.010  1.00  0.00     0.112 A 
ATOM     29  N   UNL A   1      30.555  24.511  26.381  1.00  0.00    -0.253 NA
ENDBRANCH  21  23
ENDBRANCH  10  21
ENDBRANCH   8   9
ENDBRANCH   5   8
ENDBRANCH   3   4
ENDBRANCH   2   3
ENDBRANCH   1   2
BRANCH   1  30
ATOM     30  C   UNL A   1      38.215  23.571  26.093  1.00  0.00     0.002 C 
BRANCH  30  31
ATOM     31  C   UNL A   1      38.699  22.124  25.964  1.00  0.00     0.021 C 
BRANCH  31  32
ATOM     32  C   UNL A   1      40.024  21.858  26.682  1.00  0.00     0.116 C 
BRANCH  32  33
ATOM     33  N   UNL A   1      41.176  22.039  25.823  1.00  0.00    -0.352 N 
ATOM     34  C   UNL A   1      42.095  23.038  25.656  1.00  0.00     0.251 C 
ATOM     35  H   UNL A   1      41.332  21.272  25.226  1.00  0.00     0.163 HD
ATOM     36  O   UNL A   1      43.001  22.806  24.850  1.00  0.00    -0.269 OA
BRANCH  34  37
ATOM     37  C   UNL A   1      42.050  24.366  26.330  1.00  0.00     0.039 A 
ATOM     38  C   UNL A   1      42.615  24.663  27.570  1.00  0.00     0.014 A 
ATOM     39  C   UNL A   1      41.329  25.378  25.667  1.00  0.00     0.014 A 
ATOM     40  C   UNL A   1      42.395  25.896  28.169  1.00  0.00     0.010 A 
ATOM     41  C   UNL A   1      41.125  26.624  26.252  1.00  0.00     0.010 A 
ATOM     42  C   UNL A   1      41.622  26.864  27.528  1.00  0.00    -0.014 A 
BRANCH  42  43
ATOM     43  C   UNL A   1      41.421  28.122  28.241  1.00  0.00     0.031 A 
ATOM     44  C   UNL A   1      42.518  29.122  28.089  1.00  0.00     0.074 A 
ATOM     45  C   UNL A   1      40.316  28.407  28.956  1.00  0.00     0.049 A 
ATOM     46  N   UNL A   1      43.329  29.572  28.994  1.00  0.00    -0.248 NA
ATOM     47  C   UNL A   1      42.821  29.590  26.729  1.00  0.00     0.031 C 
ATOM     48  C   UNL A   1      39.047  27.678  28.998  1.00  0.00     0.029 A 
ATOM     49  N   UNL A   1      40.077  29.489  29.749  1.00  0.00    -0.354 N 
ATOM     50  C   UNL A   1      44.123  30.526  28.358  1.00  0.00     0.074 A 
ATOM     51  C   UNL A   1      43.861  30.397  26.947  1.00  0.00     0.031 C 
ATOM     52  C   UNL A   1      38.110  28.451  29.591  1.00  0.00     0.029 A 
ATOM     53  C   UNL A   1      38.745  29.653  30.101  1.00  0.00     0.049 A 
ATOM     54  H   UNL A   1      40.788  30.102  30.048  1.00  0.00     0.167 HD
ATOM     55  C   UNL A   1      44.798  31.488  29.048  1.00  0.00     0.037 A 
ATOM     56  C   UNL A   1      38.200  30.736  30.709  1.00  0.00     0.037 A 
ATOM     57  C   UNL A   1      44.933  31.153  30.439  1.00  0.00     0.049 A 
ATOM     58  C   UNL A   1      39.297  31.447  31.412  1.00  0.00     0.074 A 
ATOM     59  C   UNL A   1      45.573  30.160  31.153  1.00  0.00     0.029 A 
ATOM     60  N   UNL A   1      44.068  31.749  31.320  1.00  0.00    -0.354 N 
ATOM     61  N   UNL A   1      39.953  30.963  32.432  1.00  0.00    -0.248 NA
ATOM     62  C   UNL A   1      39.937  32.565  30.737  1.00  0.00     0.031 C 
ATOM     63  C   UNL A   1      44.738  29.913  32.281  1.00  0.00     0.029 A 
ATOM     64  C   UNL A   1      43.654  30.790  32.208  1.00  0.00     0.049 A 
ATOM     65  H   UNL A   1      43.794  32.695  31.317  1.00  0.00     0.167 HD
ATOM     66  C   UNL A   1      41.250  31.426  32.274  1.00  0.00     0.074 A 
ATOM     67  C   UNL A   1      41.150  32.497  31.288  1.00  0.00     0.031 C 
ATOM     68  C   UNL A   1      42.315  30.723  32.758  1.00  0.00     0.037 A 
BRANCH  55  69
ATOM     69  C   UNL A   1      45.040  32.888  28.530  1.00  0.00     0.058 A 
ATOM     70  C   UNL A   1      46.360  33.358  28.362  1.00  0.00     0.135 A 
ATOM     71  C   UNL A   1      44.031  33.875  28.470  1.00  0.00     0.135 A 
ATOM     72  F   UNL A   1      47.400  32.509  28.415  1.00  0.00    -0.206 F 
ATOM     73  C   UNL A   1      46.658  34.713  28.212  1.00  0.00     0.059 A 
ATOM     74  C   UNL A   1      44.303  35.224  28.267  1.00  0.00     0.059 A 
ATOM     75  F   UNL A   1      42.745  33.591  28.705  1.00  0.00    -0.206 F 
ATOM     76  C   UNL A   1      45.621  35.640  28.183  1.00  0.00     0.060 A 
BRANCH  76  77
ATOM     77  S   UNL A   1      46.006  37.400  28.111  1.00  0.00     0.124 S 
ATOM     78  O   UNL A   1      47.433  37.372  27.811  1.00  0.00    -0.237 OA
ATOM     79  O   UNL A   1      45.134  37.857  27.034  1.00  0.00    -0.237 OA
ATOM     80  O   UNL A   1      45.650  37.877  29.444  1.00  0.00    -0.744 OA
ENDBRANCH  76  77
ENDBRANCH  55  69
BRANCH  56  81
ATOM     81  C   UNL A   1      36.910  31.395  30.375  1.00  0.00     0.058 A 
ATOM     82  C   UNL A   1      36.036  31.822  31.390  1.00  0.00     0.135 A 
ATOM     83  C   UNL A   1      36.651  31.891  29.081  1.00  0.00     0.135 A 
ATOM     84  F   UNL A   1      36.220  31.412  32.655  1.00  0.00    -0.206 F 
ATOM     85  C   UNL A   1      35.009  32.740  31.151  1.00  0.00     0.059 A 
ATOM     86  C   UNL A   1      35.626  32.796  28.817  1.00  0.00     0.059 A 
ATOM     87  F   UNL A   1      37.450  31.587  28.048  1.00  0.00    -0.206 F 
ATOM     88  C   UNL A   1      34.828  33.242  29.862  1.00  0.00     0.060 A 
BRANCH  88  89
ATOM     89  S   UNL A   1      33.631  34.568  29.588  1.00  0.00     0.124 S 
ATOM     90  O   UNL A   1      34.446  35.576  28.918  1.00  0.00    -0.237 OA
ATOM     91  O   UNL A   1      32.627  33.907  28.762  1.00  0.00    -0.237 OA
ATOM     92  O   UNL A   1      33.194  34.916  30.938  1.00  0.00    -0.744 OA
ENDBRANCH  88  89
ENDBRANCH  56  81
BRANCH  68  93
ATOM     93  C   UNL A   1      42.046  29.637  33.769  1.00  0.00     0.058 A 
ATOM     94  C   UNL A   1      41.674  28.321  33.446  1.00  0.00     0.135 A 
ATOM     95  C   UNL A   1      42.305  29.914  35.121  1.00  0.00     0.135 A 
ATOM     96  F   UNL A   1      41.506  27.944  32.171  1.00  0.00    -0.206 F 
ATOM     97  C   UNL A   1      41.522  27.338  34.428  1.00  0.00     0.059 A 
ATOM     98  C   UNL A   1      42.193  28.942  36.113  1.00  0.00     0.059 A 
ATOM     99  F   UNL A   1      42.724  31.136  35.489  1.00  0.00    -0.206 F 
ATOM    100  C   UNL A   1      41.788  27.657  35.759  1.00  0.00     0.060 A 
BRANCH 100 101
ATOM    101  S   UNL A   1      41.671  26.366  37.016  1.00  0.00     0.124 S 
ATOM    102  O   UNL A   1      40.396  26.681  37.663  1.00  0.00    -0.237 OA
ATOM    103  O   UNL A   1      41.683  25.143  36.213  1.00  0.00    -0.237 OA
ATOM    104  O   UNL A   1      42.853  26.573  37.837  1.00  0.00    -0.744 OA
ENDBRANCH 100 101
ENDBRANCH  68  93
ENDBRANCH  42  43
ENDBRANCH  34  37
ENDBRANCH  32  33
ENDBRANCH  31  32
ENDBRANCH  30  31
ENDBRANCH   1  30
TORSDOF 19
ENDMDL
MODEL 2
REMARK VINA RESULT:     -13.1      2.977      4.535
REMARK SMILES Cc1ccnc(C(=O)c2[nH]c3cc(Cl)c(F)cc3c2CC(=O)NCCCCCCNC(=O)c2ccc(-c3c4nc(c(-c5c(F)cc(S(=O)(=O)[O-])cc5F)c5ccc([nH]5)c(-c5c(F)cc(S(=O)(=O)[O-])cc5F)c5nc(c(-c6c(F)cc(S(=O)(=O)[O-])cc6F)c6ccc3[nH]6)C=C5)C=C4)cc2)c1
REMARK SMILES IDX 26 1 25 2 24 3 23 4 21 5 22 6 20 8 19 9 9 10 10 11 11 12
REMARK SMILES IDX 18 14 12 15 17 16 13 17 15 18 14 19 16 20 7 21 8 22 6 23
REMARK SMILES IDX 1 24 2 25 3 26 99 27 4 28 5 29 27 30 28 31 29 32 30 33 31 34
REMARK SMILES IDX 32 36 33 37 34 38 98 39 35 40 97 41 36 42 37 43 38 44 91 45
REMARK SMILES IDX 39 46 96 47 90 48 92 49 40 50 95 51 89 52 88 53 41 55 75 56
REMARK SMILES IDX 54 57 74 58 55 59 58 60 73 61 93 62 56 63 57 64 72 66 94 67
REMARK SMILES IDX 59 68 42 69 43 70 52 71 44 72 45 73 51 74 53 75 46 76 47 77
REMARK SMILES IDX 48 78 49 79 50 80 76 81 77 82 86 83 78 84 79 85 85 86 87 87
REMARK SMILES IDX 80 88 81 89 82 90 83 91 84 92 60 93 61 94 70 95 62 96 63 97
REMARK SMILES IDX 69 98 71 99 64 100 65 101 66 102 67 103 68 104
REMARK H PARENT 23 7 10 13 30 35 92 54 58 65
REMARK Flexibility Score: inf
ROOT
ATOM      1  C   UNL A   1      40.454  21.866  27.297  1.00  0.00     0.002 C 
ENDROOT
BRANCH   1   2
ATOM      2  C   UNL A   1      39.438  21.607  26.181  1.00  0.00     0.021 C 
BRANCH   2   3
ATOM      3  C   UNL A   1      38.421  22.725  25.912  1.00  0.00     0.116 C 
BRANCH   3   4
ATOM      4  N   UNL A   1      37.728  22.615  24.642  1.00  0.00    -0.356 N 
ATOM      5  C   UNL A   1      36.539  23.129  24.215  1.00  0.00     0.224 C 
ATOM      6  O   UNL A   1      36.258  22.981  23.022  1.00  0.00    -0.275 OA
ATOM      7  H   UNL A   1      38.200  22.073  23.969  1.00  0.00     0.163 HD
BRANCH   5   8
ATOM      8  C   UNL A   1      35.603  23.905  25.120  1.00  0.00     0.138 C 
BRANCH   8   9
ATOM      9  C   UNL A   1      34.139  23.852  24.790  1.00  0.00    -0.002 A 
ATOM     10  C   UNL A   1      33.223  22.808  24.951  1.00  0.00     0.093 A 
ATOM     11  N   UNL A   1      32.042  23.229  24.367  1.00  0.00    -0.351 N 
ATOM     12  C   UNL A   1      32.121  24.526  23.936  1.00  0.00     0.048 A 
ATOM     13  H   UNL A   1      31.241  22.664  24.272  1.00  0.00     0.167 HD
ATOM     14  C   UNL A   1      33.440  24.925  24.115  1.00  0.00     0.007 A 
ATOM     15  C   UNL A   1      31.136  25.360  23.386  1.00  0.00     0.050 A 
ATOM     16  C   UNL A   1      33.812  26.213  23.666  1.00  0.00     0.051 A 
ATOM     17  C   UNL A   1      31.519  26.653  23.012  1.00  0.00     0.078 A 
ATOM     18  C   UNL A   1      32.840  27.065  23.142  1.00  0.00     0.142 A 
ATOM     19  Cl  UNL A   1      30.327  27.729  22.387  1.00  0.00    -0.081 Cl
ATOM     20  F   UNL A   1      33.208  28.304  22.780  1.00  0.00    -0.205 F 
BRANCH  10  21
ATOM     21  C   UNL A   1      33.288  21.437  25.460  1.00  0.00     0.227 C 
ATOM     22  O   UNL A   1      33.554  21.258  26.650  1.00  0.00    -0.285 OA
BRANCH  21  23
ATOM     23  C   UNL A   1      33.186  20.226  24.570  1.00  0.00     0.113 A 
ATOM     24  C   UNL A   1      34.640  16.751  24.034  1.00  0.00     0.044 C 
ATOM     25  C   UNL A   1      33.791  17.982  23.922  1.00  0.00    -0.047 A 
ATOM     26  C   UNL A   1      32.827  18.055  22.921  1.00  0.00     0.023 A 
ATOM     27  C   UNL A   1      33.923  19.068  24.797  1.00  0.00     0.036 A 
ATOM     28  C   UNL A   1      32.085  19.216  22.802  1.00  0.00     0.112 A 
ATOM     29  N   UNL A   1      32.246  20.300  23.590  1.00  0.00    -0.253 NA
ENDBRANCH  21  23
ENDBRANCH  10  21
ENDBRANCH   8   9
ENDBRANCH   5   8
ENDBRANCH   3   4
ENDBRANCH   2   3
ENDBRANCH   1   2
BRANCH   1  30
ATOM     30  C   UNL A   1      41.444  20.736  27.563  1.00  0.00     0.002 C 
BRANCH  30  31
ATOM     31  C   UNL A   1      41.505  19.688  26.448  1.00  0.00     0.021 C 
BRANCH  31  32
ATOM     32  C   UNL A   1      42.813  18.895  26.428  1.00  0.00     0.116 C 
BRANCH  32  33
ATOM     33  N   UNL A   1      43.623  19.174  25.259  1.00  0.00    -0.352 N 
ATOM     34  C   UNL A   1      44.250  20.290  24.776  1.00  0.00     0.251 C 
ATOM     35  H   UNL A   1      43.750  18.385  24.685  1.00  0.00     0.163 HD
ATOM     36  O   UNL A   1      44.922  20.130  23.753  1.00  0.00    -0.269 OA
BRANCH  34  37
ATOM     37  C   UNL A   1      44.142  21.656  25.363  1.00  0.00     0.039 A 
ATOM     38  C   UNL A   1      44.807  22.101  26.505  1.00  0.00     0.014 A 
ATOM     39  C   UNL A   1      43.251  22.539  24.724  1.00  0.00     0.014 A 
ATOM     40  C   UNL A   1      44.528  23.349  27.044  1.00  0.00     0.010 A 
ATOM     41  C   UNL A   1      42.984  23.802  25.246  1.00  0.00     0.010 A 
ATOM     42  C   UNL A   1      43.592  24.186  26.436  1.00  0.00    -0.014 A 
BRANCH  42  43
ATOM     43  C   UNL A   1      43.341  25.470  27.084  1.00  0.00     0.031 A 
ATOM     44  C   UNL A   1      44.381  26.515  26.851  1.00  0.00     0.074 A 
ATOM     45  C   UNL A   1      42.239  25.739  27.810  1.00  0.00     0.049 A 
ATOM     46  N   UNL A   1      45.188  27.054  27.709  1.00  0.00    -0.248 NA
ATOM     47  C   UNL A   1      44.630  26.921  25.460  1.00  0.00     0.031 C 
ATOM     48  C   UNL A   1      41.011  24.950  27.922  1.00  0.00     0.029 A 
ATOM     49  N   UNL A   1      41.962  26.850  28.548  1.00  0.00    -0.354 N 
ATOM     50  C   UNL A   1      45.916  28.011  27.003  1.00  0.00     0.074 A 
ATOM     51  C   UNL A   1      45.631  27.789  25.608  1.00  0.00     0.031 C 
ATOM     52  C   UNL A   1      40.048  25.706  28.495  1.00  0.00     0.029 A 
ATOM     53  C   UNL A   1      40.631  26.965  28.923  1.00  0.00     0.049 A 
ATOM     54  H   UNL A   1      42.646  27.513  28.794  1.00  0.00     0.167 HD
ATOM     55  C   UNL A   1      46.556  29.043  27.622  1.00  0.00     0.037 A 
ATOM     56  C   UNL A   1      40.044  28.051  29.483  1.00  0.00     0.037 A 
ATOM     57  C   UNL A   1      46.739  28.794  29.026  1.00  0.00     0.049 A 
ATOM     58  C   UNL A   1      41.117  28.855  30.119  1.00  0.00     0.074 A 
ATOM     59  C   UNL A   1      47.444  27.876  29.777  1.00  0.00     0.029 A 
ATOM     60  N   UNL A   1      45.863  29.393  29.894  1.00  0.00    -0.354 N 
ATOM     61  N   UNL A   1      41.820  28.464  31.148  1.00  0.00    -0.248 NA
ATOM     62  C   UNL A   1      41.683  29.965  29.368  1.00  0.00     0.031 C 
ATOM     63  C   UNL A   1      46.648  27.650  30.937  1.00  0.00     0.029 A 
ATOM     64  C   UNL A   1      45.519  28.466  30.843  1.00  0.00     0.049 A 
ATOM     65  H   UNL A   1      45.540  30.322  29.845  1.00  0.00     0.167 HD
ATOM     66  C   UNL A   1      43.087  28.982  30.933  1.00  0.00     0.074 A 
ATOM     67  C   UNL A   1      42.910  29.989  29.892  1.00  0.00     0.031 C 
ATOM     68  C   UNL A   1      44.198  28.362  31.428  1.00  0.00     0.037 A 
BRANCH  55  69
ATOM     69  C   UNL A   1      46.714  30.422  27.022  1.00  0.00     0.058 A 
ATOM     70  C   UNL A   1      47.977  31.052  27.028  1.00  0.00     0.135 A 
ATOM     71  C   UNL A   1      45.619  31.258  26.707  1.00  0.00     0.135 A 
ATOM     72  F   UNL A   1      49.086  30.357  27.329  1.00  0.00    -0.206 F 
ATOM     73  C   UNL A   1      48.130  32.421  26.803  1.00  0.00     0.059 A 
ATOM     74  C   UNL A   1      45.757  32.613  26.426  1.00  0.00     0.059 A 
ATOM     75  F   UNL A   1      44.355  30.821  26.755  1.00  0.00    -0.206 F 
ATOM     76  C   UNL A   1      47.010  33.196  26.519  1.00  0.00     0.060 A 
BRANCH  76  77
ATOM     77  S   UNL A   1      47.186  34.981  26.347  1.00  0.00     0.124 S 
ATOM     78  O   UNL A   1      48.367  35.235  27.166  1.00  0.00    -0.237 OA
ATOM     79  O   UNL A   1      47.361  35.131  24.907  1.00  0.00    -0.237 OA
ATOM     80  O   UNL A   1      45.927  35.497  26.878  1.00  0.00    -0.744 OA
ENDBRANCH  76  77
ENDBRANCH  55  69
BRANCH  56  81
ATOM     81  C   UNL A   1      38.714  28.625  29.146  1.00  0.00     0.058 A 
ATOM     82  C   UNL A   1      37.749  28.841  30.146  1.00  0.00     0.135 A 
ATOM     83  C   UNL A   1      38.477  29.250  27.905  1.00  0.00     0.135 A 
ATOM     84  F   UNL A   1      37.904  28.298  31.363  1.00  0.00    -0.206 F 
ATOM     85  C   UNL A   1      36.650  29.683  29.949  1.00  0.00     0.059 A 
ATOM     86  C   UNL A   1      37.383  30.083  27.683  1.00  0.00     0.059 A 
ATOM     87  F   UNL A   1      39.356  29.151  26.897  1.00  0.00    -0.206 F 
ATOM     88  C   UNL A   1      36.490  30.321  28.719  1.00  0.00     0.060 A 
BRANCH  88  89
ATOM     89  S   UNL A   1      35.183  31.554  28.525  1.00  0.00     0.124 S 
ATOM     90  O   UNL A   1      35.798  32.501  27.601  1.00  0.00    -0.237 OA
ATOM     91  O   UNL A   1      34.087  30.757  27.986  1.00  0.00    -0.237 OA
ATOM     92  O   UNL A   1      34.980  32.051  29.884  1.00  0.00    -0.744 OA
ENDBRANCH  88  89
ENDBRANCH  56  81
BRANCH  68  93
ATOM     93  C   UNL A   1      44.008  27.323  32.504  1.00  0.00     0.058 A 
ATOM     94  C   UNL A   1      43.956  25.936  32.274  1.00  0.00     0.135 A 
ATOM     95  C   UNL A   1      44.008  27.748  33.842  1.00  0.00     0.135 A 
ATOM     96  F   UNL A   1      44.053  25.439  31.033  1.00  0.00    -0.206 F 
ATOM     97  C   UNL A   1      43.864  25.020  33.324  1.00  0.00     0.059 A 
ATOM     98  C   UNL A   1      43.951  26.851  34.906  1.00  0.00     0.059 A 
ATOM     99  F   UNL A   1      44.117  29.055  34.131  1.00  0.00    -0.206 F 
ATOM    100  C   UNL A   1      43.865  25.487  34.638  1.00  0.00     0.060 A 
BRANCH 100 101
ATOM    101  S   UNL A   1      43.828  24.297  35.997  1.00  0.00     0.124 S 
ATOM    102  O   UNL A   1      42.794  24.858  36.868  1.00  0.00    -0.237 OA
ATOM    103  O   UNL A   1      43.469  23.052  35.316  1.00  0.00    -0.237 OA
ATOM    104  O   UNL A   1      45.180  24.338  36.530  1.00  0.00    -0.744 OA
ENDBRANCH 100 101
ENDBRANCH  68  93
ENDBRANCH  42  43
ENDBRANCH  34  37
ENDBRANCH  32  33
ENDBRANCH  31  32
ENDBRANCH  30  31
ENDBRANCH   1  30
TORSDOF 19
ENDMDL
MODEL 3
REMARK VINA RESULT:     -13.1      2.294      3.778
REMARK SMILES Cc1ccnc(C(=O)c2[nH]c3cc(Cl)c(F)cc3c2CC(=O)NCCCCCCNC(=O)c2ccc(-c3c4nc(c(-c5c(F)cc(S(=O)(=O)[O-])cc5F)c5ccc([nH]5)c(-c5c(F)cc(S(=O)(=O)[O-])cc5F)c5nc(c(-c6c(F)cc(S(=O)(=O)[O-])cc6F)c6ccc3[nH]6)C=C5)C=C4)cc2)c1
REMARK SMILES IDX 26 1 25 2 24 3 23 4 21 5 22 6 20 8 19 9 9 10 10 11 11 12
REMARK SMILES IDX 18 14 12 15 17 16 13 17 15 18 14 19 16 20 7 21 8 22 6 23
REMARK SMILES IDX 1 24 2 25 3 26 99 27 4 28 5 29 27 30 28 31 29 32 30 33 31 34
REMARK SMILES IDX 32 36 33 37 34 38 98 39 35 40 97 41 36 42 37 43 38 44 91 45
REMARK SMILES IDX 39 46 96 47 90 48 92 49 40 50 95 51 89 52 88 53 41 55 75 56
REMARK SMILES IDX 54 57 74 58 55 59 58 60 73 61 93 62 56 63 57 64 72 66 94 67
REMARK SMILES IDX 59 68 42 69 43 70 52 71 44 72 45 73 51 74 53 75 46 76 47 77
REMARK SMILES IDX 48 78 49 79 50 80 76 81 77 82 86 83 78 84 79 85 85 86 87 87
REMARK SMILES IDX 80 88 81 89 82 90 83 91 84 92 60 93 61 94 70 95 62 96 63 97
REMARK SMILES IDX 69 98 71 99 64 100 65 101 66 102 67 103 68 104
REMARK H PARENT 23 7 10 13 30 35 92 54 58 65
REMARK Flexibility Score: inf
ROOT
ATOM      1  C   UNL A   1      37.093  21.866  24.251  1.00  0.00     0.002 C 
ENDROOT
BRANCH   1   2
ATOM      2  C   UNL A   1      35.675  22.285  24.651  1.00  0.00     0.021 C 
BRANCH   2   3
ATOM      3  C   UNL A   1      35.149  23.586  24.029  1.00  0.00     0.116 C 
BRANCH   3   4
ATOM      4  N   UNL A   1      34.902  24.652  24.981  1.00  0.00    -0.356 N 
ATOM      5  C   UNL A   1      34.042  25.709  24.951  1.00  0.00     0.224 C 
ATOM      6  O   UNL A   1      33.950  26.391  25.977  1.00  0.00    -0.275 OA
ATOM      7  H   UNL A   1      35.454  24.603  25.795  1.00  0.00     0.163 HD
BRANCH   5   8
ATOM      8  C   UNL A   1      33.175  26.033  23.751  1.00  0.00     0.138 C 
BRANCH   8   9
ATOM      9  C   UNL A   1      31.691  26.089  23.980  1.00  0.00    -0.002 A 
ATOM     10  C   UNL A   1      30.855  25.191  24.651  1.00  0.00     0.093 A 
ATOM     11  N   UNL A   1      29.562  25.642  24.457  1.00  0.00    -0.351 N 
ATOM     12  C   UNL A   1      29.533  26.837  23.789  1.00  0.00     0.048 A 
ATOM     13  H   UNL A   1      28.759  25.161  24.762  1.00  0.00     0.167 HD
ATOM     14  C   UNL A   1      30.840  27.111  23.408  1.00  0.00     0.007 A 
ATOM     15  C   UNL A   1      28.452  27.676  23.480  1.00  0.00     0.050 A 
ATOM     16  C   UNL A   1      31.076  28.262  22.622  1.00  0.00     0.051 A 
ATOM     17  C   UNL A   1      28.726  28.842  22.756  1.00  0.00     0.078 A 
ATOM     18  C   UNL A   1      30.017  29.121  22.327  1.00  0.00     0.142 A 
ATOM     19  Cl  UNL A   1      27.435  29.929  22.406  1.00  0.00    -0.081 Cl
ATOM     20  F   UNL A   1      30.280  30.238  21.631  1.00  0.00    -0.205 F 
BRANCH  10  21
ATOM     21  C   UNL A   1      31.044  23.921  25.352  1.00  0.00     0.227 C 
ATOM     22  O   UNL A   1      30.878  23.887  26.573  1.00  0.00    -0.285 OA
BRANCH  21  23
ATOM     23  C   UNL A   1      31.569  22.681  24.676  1.00  0.00     0.113 A 
ATOM     24  C   UNL A   1      32.818  19.159  25.396  1.00  0.00     0.044 C 
ATOM     25  C   UNL A   1      32.364  20.403  24.690  1.00  0.00    -0.047 A 
ATOM     26  C   UNL A   1      32.429  20.461  23.302  1.00  0.00     0.023 A 
ATOM     27  C   UNL A   1      31.865  21.517  25.379  1.00  0.00     0.036 A 
ATOM     28  C   UNL A   1      32.050  21.632  22.671  1.00  0.00     0.112 A 
ATOM     29  N   UNL A   1      31.634  22.739  23.320  1.00  0.00    -0.253 NA
ENDBRANCH  21  23
ENDBRANCH  10  21
ENDBRANCH   8   9
ENDBRANCH   5   8
ENDBRANCH   3   4
ENDBRANCH   2   3
ENDBRANCH   1   2
BRANCH   1  30
ATOM     30  C   UNL A   1      37.970  21.344  25.385  1.00  0.00     0.002 C 
BRANCH  30  31
ATOM     31  C   UNL A   1      38.828  22.423  26.054  1.00  0.00     0.021 C 
BRANCH  31  32
ATOM     32  C   UNL A   1      40.130  21.883  26.650  1.00  0.00     0.116 C 
BRANCH  32  33
ATOM     33  N   UNL A   1      41.272  22.082  25.781  1.00  0.00    -0.352 N 
ATOM     34  C   UNL A   1      42.175  23.095  25.608  1.00  0.00     0.251 C 
ATOM     35  H   UNL A   1      41.434  21.319  25.182  1.00  0.00     0.163 HD
ATOM     36  O   UNL A   1      43.077  22.879  24.794  1.00  0.00    -0.269 OA
BRANCH  34  37
ATOM     37  C   UNL A   1      42.116  24.421  26.286  1.00  0.00     0.039 A 
ATOM     38  C   UNL A   1      42.724  24.737  27.500  1.00  0.00     0.014 A 
ATOM     39  C   UNL A   1      41.334  25.409  25.656  1.00  0.00     0.014 A 
ATOM     40  C   UNL A   1      42.491  25.962  28.110  1.00  0.00     0.010 A 
ATOM     41  C   UNL A   1      41.115  26.648  26.251  1.00  0.00     0.010 A 
ATOM     42  C   UNL A   1      41.659  26.905  27.504  1.00  0.00    -0.014 A 
BRANCH  42  43
ATOM     43  C   UNL A   1      41.448  28.155  28.227  1.00  0.00     0.031 A 
ATOM     44  C   UNL A   1      42.542  29.161  28.091  1.00  0.00     0.074 A 
ATOM     45  C   UNL A   1      40.339  28.429  28.939  1.00  0.00     0.049 A 
ATOM     46  N   UNL A   1      43.346  29.606  29.003  1.00  0.00    -0.248 NA
ATOM     47  C   UNL A   1      42.850  29.643  26.736  1.00  0.00     0.031 C 
ATOM     48  C   UNL A   1      39.073  27.694  28.968  1.00  0.00     0.029 A 
ATOM     49  N   UNL A   1      40.091  29.503  29.740  1.00  0.00    -0.354 N 
ATOM     50  C   UNL A   1      44.138  30.570  28.380  1.00  0.00     0.074 A 
ATOM     51  C   UNL A   1      43.885  30.452  26.967  1.00  0.00     0.031 C 
ATOM     52  C   UNL A   1      38.129  28.457  29.562  1.00  0.00     0.029 A 
ATOM     53  C   UNL A   1      38.756  29.657  30.086  1.00  0.00     0.049 A 
ATOM     54  H   UNL A   1      40.797  30.116  30.048  1.00  0.00     0.167 HD
ATOM     55  C   UNL A   1      44.806  31.529  29.082  1.00  0.00     0.037 A 
ATOM     56  C   UNL A   1      38.202  30.732  30.701  1.00  0.00     0.037 A 
ATOM     57  C   UNL A   1      44.935  31.183  30.471  1.00  0.00     0.049 A 
ATOM     58  C   UNL A   1      39.292  31.442  31.416  1.00  0.00     0.074 A 
ATOM     59  C   UNL A   1      45.575  30.186  31.180  1.00  0.00     0.029 A 
ATOM     60  N   UNL A   1      44.063  31.766  31.353  1.00  0.00    -0.354 N 
ATOM     61  N   UNL A   1      39.945  30.953  32.435  1.00  0.00    -0.248 NA
ATOM     62  C   UNL A   1      39.930  32.569  30.754  1.00  0.00     0.031 C 
ATOM     63  C   UNL A   1      44.735  29.925  32.301  1.00  0.00     0.029 A 
ATOM     64  C   UNL A   1      43.648  30.798  32.230  1.00  0.00     0.049 A 
ATOM     65  H   UNL A   1      43.784  32.711  31.356  1.00  0.00     0.167 HD
ATOM     66  C   UNL A   1      41.241  31.422  32.288  1.00  0.00     0.074 A 
ATOM     67  C   UNL A   1      41.141  32.501  31.311  1.00  0.00     0.031 C 
ATOM     68  C   UNL A   1      42.307  30.720  32.772  1.00  0.00     0.037 A 
BRANCH  55  69
ATOM     69  C   UNL A   1      45.045  32.935  28.578  1.00  0.00     0.058 A 
ATOM     70  C   UNL A   1      46.362  33.423  28.452  1.00  0.00     0.135 A 
ATOM     71  C   UNL A   1      44.024  33.908  28.491  1.00  0.00     0.135 A 
ATOM     72  F   UNL A   1      47.411  32.588  28.534  1.00  0.00    -0.206 F 
ATOM     73  C   UNL A   1      46.646  34.783  28.317  1.00  0.00     0.059 A 
ATOM     74  C   UNL A   1      44.283  35.261  28.303  1.00  0.00     0.059 A 
ATOM     75  F   UNL A   1      42.735  33.605  28.685  1.00  0.00    -0.206 F 
ATOM     76  C   UNL A   1      45.597  35.696  28.260  1.00  0.00     0.060 A 
BRANCH  76  77
ATOM     77  S   UNL A   1      45.960  37.461  28.207  1.00  0.00     0.124 S 
ATOM     78  O   UNL A   1      45.067  37.971  29.243  1.00  0.00    -0.237 OA
ATOM     79  O   UNL A   1      47.384  37.487  28.520  1.00  0.00    -0.237 OA
ATOM     80  O   UNL A   1      45.617  37.835  26.838  1.00  0.00    -0.744 OA
ENDBRANCH  76  77
ENDBRANCH  55  69
BRANCH  56  81
ATOM     81  C   UNL A   1      36.911  31.388  30.366  1.00  0.00     0.058 A 
ATOM     82  C   UNL A   1      36.050  31.843  31.380  1.00  0.00     0.135 A 
ATOM     83  C   UNL A   1      36.640  31.855  29.063  1.00  0.00     0.135 A 
ATOM     84  F   UNL A   1      36.247  31.463  32.652  1.00  0.00    -0.206 F 
ATOM     85  C   UNL A   1      35.024  32.759  31.130  1.00  0.00     0.059 A 
ATOM     86  C   UNL A   1      35.616  32.758  28.789  1.00  0.00     0.059 A 
ATOM     87  F   UNL A   1      37.425  31.523  28.028  1.00  0.00    -0.206 F 
ATOM     88  C   UNL A   1      34.831  33.231  29.833  1.00  0.00     0.060 A 
BRANCH  88  89
ATOM     89  S   UNL A   1      33.636  34.555  29.540  1.00  0.00     0.124 S 
ATOM     90  O   UNL A   1      32.607  33.866  28.768  1.00  0.00    -0.237 OA
ATOM     91  O   UNL A   1      33.266  34.939  30.897  1.00  0.00    -0.237 OA
ATOM     92  O   UNL A   1      34.407  35.551  28.800  1.00  0.00    -0.744 OA
ENDBRANCH  88  89
ENDBRANCH  56  81
BRANCH  68  93
ATOM     93  C   UNL A   1      42.037  29.625  33.772  1.00  0.00     0.058 A 
ATOM     94  C   UNL A   1      41.706  28.300  33.435  1.00  0.00     0.135 A 
ATOM     95  C   UNL A   1      42.253  29.903  35.131  1.00  0.00     0.135 A 
ATOM     96  F   UNL A   1      41.582  27.924  32.155  1.00  0.00    -0.206 F 
ATOM     97  C   UNL A   1      41.552  27.311  34.409  1.00  0.00     0.059 A 
ATOM     98  C   UNL A   1      42.138  28.924  36.116  1.00  0.00     0.059 A 
ATOM     99  F   UNL A   1      42.632  31.133  35.514  1.00  0.00    -0.206 F 
ATOM    100  C   UNL A   1      41.774  27.631  35.748  1.00  0.00     0.060 A 
BRANCH 100 101
ATOM    101  S   UNL A   1      41.655  26.333  36.998  1.00  0.00     0.124 S 
ATOM    102  O   UNL A   1      40.399  26.667  37.670  1.00  0.00    -0.237 OA
ATOM    103  O   UNL A   1      41.629  25.116  36.185  1.00  0.00    -0.237 OA
ATOM    104  O   UNL A   1      42.856  26.511  37.798  1.00  0.00    -0.744 OA
ENDBRANCH 100 101
ENDBRANCH  68  93
ENDBRANCH  42  43
ENDBRANCH  34  37
ENDBRANCH  32  33
ENDBRANCH  31  32
ENDBRANCH  30  31
ENDBRANCH   1  30
TORSDOF 19
ENDMDL
