MODEL 1
REMARK VINA RESULT:     -10.3      0.000      0.000
REMARK SMILES COc1ccc(Br)cc1S(=O)(=O)N(C)CC(=O)NCCCCCCNC(=O)c1ccc(-c2c3nc(c(-c4c(F)cc(S(=O)(=O)[O-])cc4F)c4ccc([nH]4)c(-c4c(F)cc(S(=O)(=O)[O-])cc4F)c4nc(c(-c5c(F)cc(S(=O)(=O)[O-])cc5F)c5ccc2[nH]5)C=C4)C=C3)cc1
REMARK SMILES IDX 21 1 20 2 19 3 18 4 16 5 17 6 15 8 13 9 14 10 10 11 11 12
REMARK SMILES IDX 12 13 9 14 3 15 4 16 5 17 8 18 6 19 7 20 2 21 1 22 22 23
REMARK SMILES IDX 23 24 24 25 25 26 26 27 27 29 28 30 29 31 93 32 30 33 92 34
REMARK SMILES IDX 31 35 32 36 33 37 86 38 34 39 91 40 85 41 87 42 35 43 90 44
REMARK SMILES IDX 84 45 83 46 36 48 70 49 49 50 69 51 50 52 53 53 68 54 88 55
REMARK SMILES IDX 51 56 52 57 67 59 89 60 54 61 37 62 38 63 47 64 39 65 40 66
REMARK SMILES IDX 46 67 48 68 41 69 42 70 43 71 44 72 45 73 71 74 72 75 81 76
REMARK SMILES IDX 73 77 74 78 80 79 82 80 75 81 76 82 77 83 78 84 79 85 55 86
REMARK SMILES IDX 56 87 65 88 57 89 58 90 64 91 66 92 59 93 60 94 61 95 62 96
REMARK SMILES IDX 63 97
REMARK H PARENT 18 7 25 28 87 47 53 58
REMARK Flexibility Score: inf
ROOT
ATOM      1  C   UNL A   1      35.385  32.390  27.780  1.00  0.00     0.002 C 
ENDROOT
BRANCH   1   2
ATOM      2  C   UNL A   1      34.092  31.617  28.054  1.00  0.00     0.021 C 
BRANCH   2   3
ATOM      3  C   UNL A   1      33.889  30.390  27.157  1.00  0.00     0.116 C 
BRANCH   3   4
ATOM      4  N   UNL A   1      32.832  29.528  27.650  1.00  0.00    -0.355 N 
ATOM      5  C   UNL A   1      32.316  28.363  27.156  1.00  0.00     0.235 C 
ATOM      6  O   UNL A   1      31.438  27.812  27.828  1.00  0.00    -0.274 OA
ATOM      7  H   UNL A   1      32.412  29.837  28.485  1.00  0.00     0.163 HD
BRANCH   5   8
ATOM      8  C   UNL A   1      32.830  27.732  25.859  1.00  0.00     0.202 C 
BRANCH   8   9
ATOM      9  N   UNL A   1      32.348  28.290  24.548  1.00  0.00    -0.191 NA
ATOM     10  C   UNL A   1      31.047  28.948  24.673  1.00  0.00     0.125 C 
BRANCH   9  11
ATOM     11  S   UNL A   1      32.638  27.252  23.238  1.00  0.00     0.247 S 
ATOM     12  O   UNL A   1      33.965  27.579  22.747  1.00  0.00    -0.207 OA
ATOM     13  O   UNL A   1      31.485  27.361  22.368  1.00  0.00    -0.207 OA
BRANCH  11  14
ATOM     14  C   UNL A   1      32.739  25.522  23.659  1.00  0.00     0.125 A 
ATOM     15  C   UNL A   1      31.767  24.713  24.251  1.00  0.00     0.138 A 
ATOM     16  C   UNL A   1      32.105  23.386  24.586  1.00  0.00     0.049 A 
ATOM     17  C   UNL A   1      33.385  22.876  24.360  1.00  0.00     0.019 A 
ATOM     18  C   UNL A   1      34.024  24.985  23.407  1.00  0.00     0.041 A 
ATOM     19  C   UNL A   1      34.340  23.679  23.761  1.00  0.00     0.019 A 
ATOM     20  Br  UNL A   1      36.071  22.998  23.429  1.00  0.00    -0.051 Br
BRANCH  15  21
ATOM     21  O   UNL A   1      30.492  25.159  24.444  1.00  0.00    -0.495 OA
ATOM     22  C   UNL A   1      30.097  25.290  25.815  1.00  0.00     0.278 C 
ENDBRANCH  15  21
ENDBRANCH  11  14
ENDBRANCH   9  11
ENDBRANCH   8   9
ENDBRANCH   5   8
ENDBRANCH   3   4
ENDBRANCH   2   3
ENDBRANCH   1   2
BRANCH   1  23
ATOM     23  C   UNL A   1      35.612  33.601  28.694  1.00  0.00     0.002 C 
BRANCH  23  24
ATOM     24  C   UNL A   1      37.042  33.789  29.220  1.00  0.00     0.021 C 
BRANCH  24  25
ATOM     25  C   UNL A   1      37.256  33.444  30.693  1.00  0.00     0.116 C 
BRANCH  25  26
ATOM     26  N   UNL A   1      36.482  32.284  31.103  1.00  0.00    -0.352 N 
ATOM     27  C   UNL A   1      36.739  30.945  30.932  1.00  0.00     0.251 C 
ATOM     28  H   UNL A   1      35.643  32.489  31.576  1.00  0.00     0.163 HD
ATOM     29  O   UNL A   1      35.855  30.125  31.161  1.00  0.00    -0.269 OA
BRANCH  27  30
ATOM     30  C   UNL A   1      38.066  30.483  30.465  1.00  0.00     0.039 A 
ATOM     31  C   UNL A   1      38.282  30.334  29.091  1.00  0.00     0.014 A 
ATOM     32  C   UNL A   1      39.075  30.140  31.370  1.00  0.00     0.014 A 
ATOM     33  C   UNL A   1      39.523  29.892  28.623  1.00  0.00     0.010 A 
ATOM     34  C   UNL A   1      40.328  29.745  30.901  1.00  0.00     0.010 A 
ATOM     35  C   UNL A   1      40.564  29.614  29.523  1.00  0.00    -0.014 A 
BRANCH  35  36
ATOM     36  C   UNL A   1      41.901  29.182  29.041  1.00  0.00     0.031 A 
ATOM     37  C   UNL A   1      43.030  30.172  28.944  1.00  0.00     0.074 A 
ATOM     38  C   UNL A   1      42.085  27.910  28.633  1.00  0.00     0.049 A 
ATOM     39  N   UNL A   1      44.239  30.004  28.472  1.00  0.00    -0.248 NA
ATOM     40  C   UNL A   1      42.754  31.538  29.416  1.00  0.00     0.031 C 
ATOM     41  C   UNL A   1      41.060  26.864  28.638  1.00  0.00     0.029 A 
ATOM     42  N   UNL A   1      43.195  27.285  28.122  1.00  0.00    -0.354 N 
ATOM     43  C   UNL A   1      44.862  31.242  28.572  1.00  0.00     0.074 A 
ATOM     44  C   UNL A   1      43.886  32.161  29.118  1.00  0.00     0.031 C 
ATOM     45  C   UNL A   1      41.592  25.726  28.164  1.00  0.00     0.029 A 
ATOM     46  C   UNL A   1      42.985  25.966  27.797  1.00  0.00     0.049 A 
ATOM     47  H   UNL A   1      44.060  27.740  28.000  1.00  0.00     0.167 HD
ATOM     48  C   UNL A   1      46.135  31.579  28.252  1.00  0.00     0.037 A 
ATOM     49  C   UNL A   1      43.819  25.054  27.260  1.00  0.00     0.037 A 
ATOM     50  C   UNL A   1      47.116  30.655  27.744  1.00  0.00     0.049 A 
ATOM     51  C   UNL A   1      45.236  25.442  26.947  1.00  0.00     0.074 A 
ATOM     52  C   UNL A   1      48.446  30.892  27.441  1.00  0.00     0.029 A 
ATOM     53  N   UNL A   1      46.876  29.318  27.470  1.00  0.00    -0.354 N 
ATOM     54  N   UNL A   1      45.820  26.609  27.086  1.00  0.00    -0.248 NA
ATOM     55  C   UNL A   1      46.112  24.391  26.411  1.00  0.00     0.031 C 
ATOM     56  C   UNL A   1      49.005  29.701  26.963  1.00  0.00     0.029 A 
ATOM     57  C   UNL A   1      48.030  28.717  26.995  1.00  0.00     0.049 A 
ATOM     58  H   UNL A   1      46.013  28.862  27.595  1.00  0.00     0.167 HD
ATOM     59  C   UNL A   1      47.135  26.427  26.676  1.00  0.00     0.074 A 
ATOM     60  C   UNL A   1      47.264  25.036  26.290  1.00  0.00     0.031 C 
ATOM     61  C   UNL A   1      48.145  27.330  26.624  1.00  0.00     0.037 A 
BRANCH  48  62
ATOM     62  C   UNL A   1      46.540  33.012  28.449  1.00  0.00     0.058 A 
ATOM     63  C   UNL A   1      47.074  33.462  29.668  1.00  0.00     0.135 A 
ATOM     64  C   UNL A   1      46.415  33.941  27.405  1.00  0.00     0.135 A 
ATOM     65  F   UNL A   1      47.200  32.617  30.703  1.00  0.00    -0.206 F 
ATOM     66  C   UNL A   1      47.440  34.791  29.854  1.00  0.00     0.059 A 
ATOM     67  C   UNL A   1      46.795  35.271  27.561  1.00  0.00     0.059 A 
ATOM     68  F   UNL A   1      45.910  33.562  26.220  1.00  0.00    -0.206 F 
ATOM     69  C   UNL A   1      47.290  35.689  28.796  1.00  0.00     0.060 A 
BRANCH  69  70
ATOM     70  S   UNL A   1      47.758  37.415  29.049  1.00  0.00     0.124 S 
ATOM     71  O   UNL A   1      46.519  37.974  29.581  1.00  0.00    -0.237 OA
ATOM     72  O   UNL A   1      48.862  37.308  29.998  1.00  0.00    -0.237 OA
ATOM     73  O   UNL A   1      48.127  37.865  27.711  1.00  0.00    -0.744 OA
ENDBRANCH  69  70
ENDBRANCH  48  62
BRANCH  49  74
ATOM     74  C   UNL A   1      43.337  23.672  27.010  1.00  0.00     0.058 A 
ATOM     75  C   UNL A   1      43.000  23.253  25.714  1.00  0.00     0.135 A 
ATOM     76  C   UNL A   1      43.227  22.740  28.052  1.00  0.00     0.135 A 
ATOM     77  F   UNL A   1      43.085  24.112  24.689  1.00  0.00    -0.206 F 
ATOM     78  C   UNL A   1      42.560  21.958  25.461  1.00  0.00     0.059 A 
ATOM     79  C   UNL A   1      42.806  21.434  27.821  1.00  0.00     0.059 A 
ATOM     80  F   UNL A   1      43.554  23.091  29.306  1.00  0.00    -0.206 F 
ATOM     81  C   UNL A   1      42.467  21.055  26.522  1.00  0.00     0.060 A 
BRANCH  81  82
ATOM     82  S   UNL A   1      41.955  19.358  26.178  1.00  0.00     0.124 S 
ATOM     83  O   UNL A   1      42.879  18.984  25.114  1.00  0.00    -0.237 OA
ATOM     84  O   UNL A   1      42.164  18.703  27.466  1.00  0.00    -0.237 OA
ATOM     85  O   UNL A   1      40.558  19.507  25.782  1.00  0.00    -0.744 OA
ENDBRANCH  81  82
ENDBRANCH  49  74
BRANCH  61  86
ATOM     86  C   UNL A   1      49.484  26.838  26.158  1.00  0.00     0.058 A 
ATOM     87  C   UNL A   1      49.912  27.021  24.835  1.00  0.00     0.135 A 
ATOM     88  C   UNL A   1      50.365  26.215  27.057  1.00  0.00     0.135 A 
ATOM     89  F   UNL A   1      49.103  27.604  23.937  1.00  0.00    -0.206 F 
ATOM     90  C   UNL A   1      51.165  26.587  24.412  1.00  0.00     0.059 A 
ATOM     91  C   UNL A   1      51.629  25.790  26.661  1.00  0.00     0.059 A 
ATOM     92  F   UNL A   1      50.002  26.025  28.335  1.00  0.00    -0.206 F 
ATOM     93  C   UNL A   1      52.016  25.971  25.332  1.00  0.00     0.060 A 
BRANCH  93  94
ATOM     94  S   UNL A   1      53.652  25.439  24.785  1.00  0.00     0.124 S 
ATOM     95  O   UNL A   1      54.521  26.324  25.554  1.00  0.00    -0.237 OA
ATOM     96  O   UNL A   1      53.674  24.033  25.175  1.00  0.00    -0.237 OA
ATOM     97  O   UNL A   1      53.622  25.682  23.346  1.00  0.00    -0.744 OA
ENDBRANCH  93  94
ENDBRANCH  61  86
ENDBRANCH  35  36
ENDBRANCH  27  30
ENDBRANCH  25  26
ENDBRANCH  24  25
ENDBRANCH  23  24
ENDBRANCH   1  23
TORSDOF 20
ENDMDL
MODEL 2
REMARK VINA RESULT:     -10.2      1.377      8.414
REMARK SMILES COc1ccc(Br)cc1S(=O)(=O)N(C)CC(=O)NCCCCCCNC(=O)c1ccc(-c2c3nc(c(-c4c(F)cc(S(=O)(=O)[O-])cc4F)c4ccc([nH]4)c(-c4c(F)cc(S(=O)(=O)[O-])cc4F)c4nc(c(-c5c(F)cc(S(=O)(=O)[O-])cc5F)c5ccc2[nH]5)C=C4)C=C3)cc1
REMARK SMILES IDX 21 1 20 2 19 3 18 4 16 5 17 6 15 8 13 9 14 10 10 11 11 12
REMARK SMILES IDX 12 13 9 14 3 15 4 16 5 17 8 18 6 19 7 20 2 21 1 22 22 23
REMARK SMILES IDX 23 24 24 25 25 26 26 27 27 29 28 30 29 31 93 32 30 33 92 34
REMARK SMILES IDX 31 35 32 36 33 37 86 38 34 39 91 40 85 41 87 42 35 43 90 44
REMARK SMILES IDX 84 45 83 46 36 48 70 49 49 50 69 51 50 52 53 53 68 54 88 55
REMARK SMILES IDX 51 56 52 57 67 59 89 60 54 61 37 62 38 63 47 64 39 65 40 66
REMARK SMILES IDX 46 67 48 68 41 69 42 70 43 71 44 72 45 73 71 74 72 75 81 76
REMARK SMILES IDX 73 77 74 78 80 79 82 80 75 81 76 82 77 83 78 84 79 85 55 86
REMARK SMILES IDX 56 87 65 88 57 89 58 90 64 91 66 92 59 93 60 94 61 95 62 96
REMARK SMILES IDX 63 97
REMARK H PARENT 18 7 25 28 87 47 53 58
REMARK Flexibility Score: inf
ROOT
ATOM      1  C   UNL A   1      34.070  28.671  27.205  1.00  0.00     0.002 C 
ENDROOT
BRANCH   1   2
ATOM      2  C   UNL A   1      33.848  27.648  26.089  1.00  0.00     0.021 C 
BRANCH   2   3
ATOM      3  C   UNL A   1      32.596  27.900  25.241  1.00  0.00     0.116 C 
BRANCH   3   4
ATOM      4  N   UNL A   1      31.423  27.257  25.803  1.00  0.00    -0.355 N 
ATOM      5  C   UNL A   1      31.058  25.941  25.860  1.00  0.00     0.235 C 
ATOM      6  O   UNL A   1      30.009  25.677  26.457  1.00  0.00    -0.274 OA
ATOM      7  H   UNL A   1      30.778  27.875  26.215  1.00  0.00     0.163 HD
BRANCH   5   8
ATOM      8  C   UNL A   1      31.926  24.830  25.263  1.00  0.00     0.202 C 
BRANCH   8   9
ATOM      9  N   UNL A   1      31.918  24.636  23.771  1.00  0.00    -0.191 NA
ATOM     10  C   UNL A   1      30.780  23.832  23.324  1.00  0.00     0.125 C 
BRANCH   9  11
ATOM     11  S   UNL A   1      33.460  24.330  23.133  1.00  0.00     0.247 S 
ATOM     12  O   UNL A   1      34.198  25.576  23.238  1.00  0.00    -0.207 OA
ATOM     13  O   UNL A   1      33.251  23.706  21.843  1.00  0.00    -0.207 OA
BRANCH  11  14
ATOM     14  C   UNL A   1      34.438  23.162  24.061  1.00  0.00     0.125 A 
ATOM     15  C   UNL A   1      34.146  21.830  24.362  1.00  0.00     0.138 A 
ATOM     16  C   UNL A   1      35.027  21.118  25.202  1.00  0.00     0.049 A 
ATOM     17  C   UNL A   1      36.162  21.719  25.750  1.00  0.00     0.019 A 
ATOM     18  C   UNL A   1      35.607  23.751  24.598  1.00  0.00     0.041 A 
ATOM     19  C   UNL A   1      36.453  23.036  25.436  1.00  0.00     0.019 A 
ATOM     20  Br  UNL A   1      37.996  23.857  26.152  1.00  0.00    -0.051 Br
BRANCH  15  21
ATOM     21  O   UNL A   1      33.074  21.194  23.809  1.00  0.00    -0.495 OA
ATOM     22  C   UNL A   1      32.740  19.936  24.408  1.00  0.00     0.278 C 
ENDBRANCH  15  21
ENDBRANCH  11  14
ENDBRANCH   9  11
ENDBRANCH   8   9
ENDBRANCH   5   8
ENDBRANCH   3   4
ENDBRANCH   2   3
ENDBRANCH   1   2
BRANCH   1  23
ATOM     23  C   UNL A   1      33.591  30.091  26.876  1.00  0.00     0.002 C 
BRANCH  23  24
ATOM     24  C   UNL A   1      34.279  31.228  27.644  1.00  0.00     0.021 C 
BRANCH  24  25
ATOM     25  C   UNL A   1      35.666  30.907  28.200  1.00  0.00     0.116 C 
BRANCH  25  26
ATOM     26  N   UNL A   1      35.624  30.563  29.612  1.00  0.00    -0.352 N 
ATOM     27  C   UNL A   1      36.544  29.897  30.386  1.00  0.00     0.251 C 
ATOM     28  H   UNL A   1      34.811  30.849  30.087  1.00  0.00     0.163 HD
ATOM     29  O   UNL A   1      36.227  29.517  31.509  1.00  0.00    -0.269 OA
BRANCH  27  30
ATOM     30  C   UNL A   1      37.908  29.627  29.876  1.00  0.00     0.039 A 
ATOM     31  C   UNL A   1      38.941  29.418  30.795  1.00  0.00     0.014 A 
ATOM     32  C   UNL A   1      38.185  29.636  28.506  1.00  0.00     0.014 A 
ATOM     33  C   UNL A   1      40.240  29.167  30.342  1.00  0.00     0.010 A 
ATOM     34  C   UNL A   1      39.472  29.339  28.053  1.00  0.00     0.010 A 
ATOM     35  C   UNL A   1      40.512  29.105  28.967  1.00  0.00    -0.014 A 
BRANCH  35  36
ATOM     36  C   UNL A   1      41.878  28.801  28.467  1.00  0.00     0.031 A 
ATOM     37  C   UNL A   1      42.233  27.406  28.029  1.00  0.00     0.074 A 
ATOM     38  C   UNL A   1      42.819  29.766  28.465  1.00  0.00     0.049 A 
ATOM     39  N   UNL A   1      43.389  26.930  27.643  1.00  0.00    -0.248 NA
ATOM     40  C   UNL A   1      41.150  26.410  28.052  1.00  0.00     0.031 C 
ATOM     41  C   UNL A   1      42.613  31.148  28.903  1.00  0.00     0.029 A 
ATOM     42  N   UNL A   1      44.139  29.729  28.093  1.00  0.00    -0.354 N 
ATOM     43  C   UNL A   1      43.180  25.578  27.395  1.00  0.00     0.074 A 
ATOM     44  C   UNL A   1      41.794  25.302  27.708  1.00  0.00     0.031 C 
ATOM     45  C   UNL A   1      43.762  31.829  28.765  1.00  0.00     0.029 A 
ATOM     46  C   UNL A   1      44.792  30.928  28.254  1.00  0.00     0.049 A 
ATOM     47  H   UNL A   1      44.577  28.919  27.744  1.00  0.00     0.167 HD
ATOM     48  C   UNL A   1      44.059  24.655  26.935  1.00  0.00     0.037 A 
ATOM     49  C   UNL A   1      46.075  31.263  28.021  1.00  0.00     0.037 A 
ATOM     50  C   UNL A   1      45.428  24.938  26.589  1.00  0.00     0.049 A 
ATOM     51  C   UNL A   1      47.022  30.231  27.478  1.00  0.00     0.074 A 
ATOM     52  C   UNL A   1      46.380  24.080  26.065  1.00  0.00     0.029 A 
ATOM     53  N   UNL A   1      46.038  26.175  26.726  1.00  0.00    -0.354 N 
ATOM     54  N   UNL A   1      46.796  28.966  27.212  1.00  0.00    -0.248 NA
ATOM     55  C   UNL A   1      48.396  30.669  27.196  1.00  0.00     0.031 C 
ATOM     56  C   UNL A   1      47.572  24.794  25.905  1.00  0.00     0.029 A 
ATOM     57  C   UNL A   1      47.355  26.103  26.303  1.00  0.00     0.049 A 
ATOM     58  H   UNL A   1      45.601  26.986  27.072  1.00  0.00     0.167 HD
ATOM     59  C   UNL A   1      47.992  28.464  26.711  1.00  0.00     0.074 A 
ATOM     60  C   UNL A   1      48.937  29.563  26.704  1.00  0.00     0.031 C 
ATOM     61  C   UNL A   1      48.281  27.207  26.294  1.00  0.00     0.037 A 
BRANCH  48  62
ATOM     62  C   UNL A   1      43.560  23.247  26.775  1.00  0.00     0.058 A 
ATOM     63  C   UNL A   1      43.263  22.443  27.888  1.00  0.00     0.135 A 
ATOM     64  C   UNL A   1      43.357  22.701  25.498  1.00  0.00     0.135 A 
ATOM     65  F   UNL A   1      43.454  22.913  29.131  1.00  0.00    -0.206 F 
ATOM     66  C   UNL A   1      42.811  21.136  27.740  1.00  0.00     0.059 A 
ATOM     67  C   UNL A   1      42.885  21.403  25.326  1.00  0.00     0.059 A 
ATOM     68  F   UNL A   1      43.627  23.427  24.402  1.00  0.00    -0.206 F 
ATOM     69  C   UNL A   1      42.632  20.623  26.454  1.00  0.00     0.060 A 
BRANCH  69  70
ATOM     70  S   UNL A   1      42.056  18.921  26.271  1.00  0.00     0.124 S 
ATOM     71  O   UNL A   1      42.221  18.413  27.630  1.00  0.00    -0.237 OA
ATOM     72  O   UNL A   1      40.677  19.100  25.826  1.00  0.00    -0.237 OA
ATOM     73  O   UNL A   1      42.964  18.362  25.276  1.00  0.00    -0.744 OA
ENDBRANCH  69  70
ENDBRANCH  48  62
BRANCH  49  74
ATOM     74  C   UNL A   1      46.532  32.653  28.277  1.00  0.00     0.058 A 
ATOM     75  C   UNL A   1      47.116  33.002  29.505  1.00  0.00     0.135 A 
ATOM     76  C   UNL A   1      46.417  33.649  27.297  1.00  0.00     0.135 A 
ATOM     77  F   UNL A   1      47.241  32.082  30.472  1.00  0.00    -0.206 F 
ATOM     78  C   UNL A   1      47.561  34.295  29.755  1.00  0.00     0.059 A 
ATOM     79  C   UNL A   1      46.871  34.945  27.518  1.00  0.00     0.059 A 
ATOM     80  F   UNL A   1      45.880  33.358  26.102  1.00  0.00    -0.206 F 
ATOM     81  C   UNL A   1      47.435  35.260  28.754  1.00  0.00     0.060 A 
BRANCH  81  82
ATOM     82  S   UNL A   1      48.072  36.922  29.062  1.00  0.00     0.124 S 
ATOM     83  O   UNL A   1      49.253  36.946  28.209  1.00  0.00    -0.237 OA
ATOM     84  O   UNL A   1      46.959  37.765  28.638  1.00  0.00    -0.237 OA
ATOM     85  O   UNL A   1      48.328  36.917  30.500  1.00  0.00    -0.744 OA
ENDBRANCH  81  82
ENDBRANCH  49  74
BRANCH  61  86
ATOM     86  C   UNL A   1      49.665  26.957  25.771  1.00  0.00     0.058 A 
ATOM     87  C   UNL A   1      49.987  27.172  24.423  1.00  0.00     0.135 A 
ATOM     88  C   UNL A   1      50.688  26.539  26.635  1.00  0.00     0.135 A 
ATOM     89  F   UNL A   1      49.041  27.565  23.555  1.00  0.00    -0.206 F 
ATOM     90  C   UNL A   1      51.278  26.964  23.944  1.00  0.00     0.059 A 
ATOM     91  C   UNL A   1      51.989  26.344  26.183  1.00  0.00     0.059 A 
ATOM     92  F   UNL A   1      50.429  26.328  27.936  1.00  0.00    -0.206 F 
ATOM     93  C   UNL A   1      52.271  26.548  24.832  1.00  0.00     0.060 A 
BRANCH  93  94
ATOM     94  S   UNL A   1      53.950  26.311  24.212  1.00  0.00     0.124 S 
ATOM     95  O   UNL A   1      54.610  27.525  24.681  1.00  0.00    -0.237 OA
ATOM     96  O   UNL A   1      54.358  25.073  24.868  1.00  0.00    -0.237 OA
ATOM     97  O   UNL A   1      53.765  26.213  22.767  1.00  0.00    -0.744 OA
ENDBRANCH  93  94
ENDBRANCH  61  86
ENDBRANCH  35  36
ENDBRANCH  27  30
ENDBRANCH  25  26
ENDBRANCH  24  25
ENDBRANCH  23  24
ENDBRANCH   1  23
TORSDOF 20
ENDMDL
MODEL 3
REMARK VINA RESULT:     -10.2      6.262     12.048
REMARK SMILES COc1ccc(Br)cc1S(=O)(=O)N(C)CC(=O)NCCCCCCNC(=O)c1ccc(-c2c3nc(c(-c4c(F)cc(S(=O)(=O)[O-])cc4F)c4ccc([nH]4)c(-c4c(F)cc(S(=O)(=O)[O-])cc4F)c4nc(c(-c5c(F)cc(S(=O)(=O)[O-])cc5F)c5ccc2[nH]5)C=C4)C=C3)cc1
REMARK SMILES IDX 21 1 20 2 19 3 18 4 16 5 17 6 15 8 13 9 14 10 10 11 11 12
REMARK SMILES IDX 12 13 9 14 3 15 4 16 5 17 8 18 6 19 7 20 2 21 1 22 22 23
REMARK SMILES IDX 23 24 24 25 25 26 26 27 27 29 28 30 29 31 93 32 30 33 92 34
REMARK SMILES IDX 31 35 32 36 33 37 86 38 34 39 91 40 85 41 87 42 35 43 90 44
REMARK SMILES IDX 84 45 83 46 36 48 70 49 49 50 69 51 50 52 53 53 68 54 88 55
REMARK SMILES IDX 51 56 52 57 67 59 89 60 54 61 37 62 38 63 47 64 39 65 40 66
REMARK SMILES IDX 46 67 48 68 41 69 42 70 43 71 44 72 45 73 71 74 72 75 81 76
REMARK SMILES IDX 73 77 74 78 80 79 82 80 75 81 76 82 77 83 78 84 79 85 55 86
REMARK SMILES IDX 56 87 65 88 57 89 58 90 64 91 66 92 59 93 60 94 61 95 62 96
REMARK SMILES IDX 63 97
REMARK H PARENT 18 7 25 28 87 47 53 58
REMARK Flexibility Score: inf
ROOT
ATOM      1  C   UNL A   1      39.119  22.833  26.425  1.00  0.00     0.002 C 
ENDROOT
BRANCH   1   2
ATOM      2  C   UNL A   1      38.371  21.678  25.753  1.00  0.00     0.021 C 
BRANCH   2   3
ATOM      3  C   UNL A   1      36.935  22.015  25.336  1.00  0.00     0.116 C 
BRANCH   3   4
ATOM      4  N   UNL A   1      35.973  21.637  26.353  1.00  0.00    -0.355 N 
ATOM      5  C   UNL A   1      34.659  21.977  26.522  1.00  0.00     0.235 C 
ATOM      6  O   UNL A   1      34.064  21.452  27.468  1.00  0.00    -0.274 OA
ATOM      7  H   UNL A   1      36.327  21.032  27.044  1.00  0.00     0.163 HD
BRANCH   5   8
ATOM      8  C   UNL A   1      33.933  22.918  25.557  1.00  0.00     0.202 C 
BRANCH   8   9
ATOM      9  N   UNL A   1      32.657  22.445  24.916  1.00  0.00    -0.191 NA
ATOM     10  C   UNL A   1      32.906  21.593  23.753  1.00  0.00     0.125 C 
BRANCH   9  11
ATOM     11  S   UNL A   1      31.470  23.654  24.829  1.00  0.00     0.247 S 
ATOM     12  O   UNL A   1      30.748  23.605  26.088  1.00  0.00    -0.207 OA
ATOM     13  O   UNL A   1      30.776  23.454  23.574  1.00  0.00    -0.207 OA
BRANCH  11  14
ATOM     14  C   UNL A   1      32.101  25.320  24.750  1.00  0.00     0.125 A 
ATOM     15  C   UNL A   1      32.916  25.895  23.773  1.00  0.00     0.138 A 
ATOM     16  C   UNL A   1      33.378  27.213  23.968  1.00  0.00     0.049 A 
ATOM     17  C   UNL A   1      33.057  27.939  25.117  1.00  0.00     0.019 A 
ATOM     18  C   UNL A   1      31.758  26.077  25.896  1.00  0.00     0.041 A 
ATOM     19  C   UNL A   1      32.238  27.369  26.075  1.00  0.00     0.019 A 
ATOM     20  Br  UNL A   1      31.778  28.344  27.626  1.00  0.00    -0.051 Br
BRANCH  15  21
ATOM     21  O   UNL A   1      33.211  25.237  22.615  1.00  0.00    -0.495 OA
ATOM     22  C   UNL A   1      32.898  25.954  21.415  1.00  0.00     0.278 C 
ENDBRANCH  15  21
ENDBRANCH  11  14
ENDBRANCH   9  11
ENDBRANCH   8   9
ENDBRANCH   5   8
ENDBRANCH   3   4
ENDBRANCH   2   3
ENDBRANCH   1   2
BRANCH   1  23
ATOM     23  C   UNL A   1      40.123  22.404  27.502  1.00  0.00     0.002 C 
BRANCH  23  24
ATOM     24  C   UNL A   1      41.550  22.116  27.016  1.00  0.00     0.021 C 
BRANCH  24  25
ATOM     25  C   UNL A   1      42.541  23.273  27.148  1.00  0.00     0.116 C 
BRANCH  25  26
ATOM     26  N   UNL A   1      42.591  24.091  25.948  1.00  0.00    -0.352 N 
ATOM     27  C   UNL A   1      42.263  25.412  25.766  1.00  0.00     0.251 C 
ATOM     28  H   UNL A   1      42.907  23.626  25.139  1.00  0.00     0.163 HD
ATOM     29  O   UNL A   1      42.172  25.862  24.627  1.00  0.00    -0.269 OA
BRANCH  27  30
ATOM     30  C   UNL A   1      42.012  26.297  26.927  1.00  0.00     0.039 A 
ATOM     31  C   UNL A   1      40.940  26.004  27.776  1.00  0.00     0.014 A 
ATOM     32  C   UNL A   1      42.785  27.440  27.148  1.00  0.00     0.014 A 
ATOM     33  C   UNL A   1      40.675  26.826  28.876  1.00  0.00     0.010 A 
ATOM     34  C   UNL A   1      42.550  28.234  28.273  1.00  0.00     0.010 A 
ATOM     35  C   UNL A   1      41.491  27.936  29.145  1.00  0.00    -0.014 A 
BRANCH  35  36
ATOM     36  C   UNL A   1      41.248  28.798  30.331  1.00  0.00     0.031 A 
ATOM     37  C   UNL A   1      42.081  28.631  31.573  1.00  0.00     0.074 A 
ATOM     38  C   UNL A   1      40.238  29.689  30.314  1.00  0.00     0.049 A 
ATOM     39  N   UNL A   1      41.967  29.230  32.732  1.00  0.00    -0.248 NA
ATOM     40  C   UNL A   1      43.170  27.644  31.513  1.00  0.00     0.031 C 
ATOM     41  C   UNL A   1      39.332  29.918  29.186  1.00  0.00     0.029 A 
ATOM     42  N   UNL A   1      39.795  30.560  31.277  1.00  0.00    -0.354 N 
ATOM     43  C   UNL A   1      42.953  28.681  33.543  1.00  0.00     0.074 A 
ATOM     44  C   UNL A   1      43.634  27.676  32.754  1.00  0.00     0.031 C 
ATOM     45  C   UNL A   1      38.449  30.874  29.518  1.00  0.00     0.029 A 
ATOM     46  C   UNL A   1      38.708  31.307  30.889  1.00  0.00     0.049 A 
ATOM     47  H   UNL A   1      40.216  30.642  32.163  1.00  0.00     0.167 HD
ATOM     48  C   UNL A   1      43.271  28.996  34.821  1.00  0.00     0.037 A 
ATOM     49  C   UNL A   1      37.997  32.232  31.561  1.00  0.00     0.037 A 
ATOM     50  C   UNL A   1      42.616  30.021  35.592  1.00  0.00     0.049 A 
ATOM     51  C   UNL A   1      38.391  32.590  32.967  1.00  0.00     0.074 A 
ATOM     52  C   UNL A   1      42.903  30.448  36.878  1.00  0.00     0.029 A 
ATOM     53  N   UNL A   1      41.548  30.784  35.147  1.00  0.00    -0.354 N 
ATOM     54  N   UNL A   1      39.353  32.088  33.704  1.00  0.00    -0.248 NA
ATOM     55  C   UNL A   1      37.610  33.642  33.631  1.00  0.00     0.031 C 
ATOM     56  C   UNL A   1      41.994  31.455  37.218  1.00  0.00     0.029 A 
ATOM     57  C   UNL A   1      41.159  31.675  36.134  1.00  0.00     0.049 A 
ATOM     58  H   UNL A   1      41.128  30.705  34.261  1.00  0.00     0.167 HD
ATOM     59  C   UNL A   1      39.307  32.778  34.910  1.00  0.00     0.074 A 
ATOM     60  C   UNL A   1      38.227  33.738  34.801  1.00  0.00     0.031 C 
ATOM     61  C   UNL A   1      40.088  32.630  36.007  1.00  0.00     0.037 A 
BRANCH  48  62
ATOM     62  C   UNL A   1      44.384  28.221  35.467  1.00  0.00     0.058 A 
ATOM     63  C   UNL A   1      44.135  27.041  36.188  1.00  0.00     0.135 A 
ATOM     64  C   UNL A   1      45.716  28.648  35.347  1.00  0.00     0.135 A 
ATOM     65  F   UNL A   1      42.877  26.598  36.343  1.00  0.00    -0.206 F 
ATOM     66  C   UNL A   1      45.165  26.329  36.793  1.00  0.00     0.059 A 
ATOM     67  C   UNL A   1      46.764  27.939  35.927  1.00  0.00     0.059 A 
ATOM     68  F   UNL A   1      46.008  29.769  34.670  1.00  0.00    -0.206 F 
ATOM     69  C   UNL A   1      46.475  26.790  36.663  1.00  0.00     0.060 A 
BRANCH  69  70
ATOM     70  S   UNL A   1      47.805  25.865  37.462  1.00  0.00     0.124 S 
ATOM     71  O   UNL A   1      47.666  24.556  36.831  1.00  0.00    -0.237 OA
ATOM     72  O   UNL A   1      48.992  26.627  37.085  1.00  0.00    -0.237 OA
ATOM     73  O   UNL A   1      47.453  25.921  38.877  1.00  0.00    -0.744 OA
ENDBRANCH  69  70
ENDBRANCH  48  62
BRANCH  49  74
ATOM     74  C   UNL A   1      36.853  32.907  30.899  1.00  0.00     0.058 A 
ATOM     75  C   UNL A   1      35.531  32.577  31.236  1.00  0.00     0.135 A 
ATOM     76  C   UNL A   1      37.055  33.908  29.938  1.00  0.00     0.135 A 
ATOM     77  F   UNL A   1      35.291  31.622  32.147  1.00  0.00    -0.206 F 
ATOM     78  C   UNL A   1      34.448  33.209  30.635  1.00  0.00     0.059 A 
ATOM     79  C   UNL A   1      35.988  34.567  29.335  1.00  0.00     0.059 A 
ATOM     80  F   UNL A   1      38.301  34.270  29.595  1.00  0.00    -0.206 F 
ATOM     81  C   UNL A   1      34.687  34.204  29.686  1.00  0.00     0.060 A 
BRANCH  81  82
ATOM     82  S   UNL A   1      33.279  35.065  28.954  1.00  0.00     0.124 S 
ATOM     83  O   UNL A   1      33.921  36.239  28.376  1.00  0.00    -0.237 OA
ATOM     84  O   UNL A   1      32.772  34.081  28.003  1.00  0.00    -0.237 OA
ATOM     85  O   UNL A   1      32.412  35.317  30.101  1.00  0.00    -0.744 OA
ENDBRANCH  81  82
ENDBRANCH  49  74
BRANCH  61  86
ATOM     86  C   UNL A   1      39.823  33.544  37.168  1.00  0.00     0.058 A 
ATOM     87  C   UNL A   1      40.516  34.754  37.321  1.00  0.00     0.135 A 
ATOM     88  C   UNL A   1      38.836  33.226  38.114  1.00  0.00     0.135 A 
ATOM     89  F   UNL A   1      41.475  35.099  36.447  1.00  0.00    -0.206 F 
ATOM     90  C   UNL A   1      40.252  35.612  38.384  1.00  0.00     0.059 A 
ATOM     91  C   UNL A   1      38.541  34.077  39.173  1.00  0.00     0.059 A 
ATOM     92  F   UNL A   1      38.141  32.082  38.005  1.00  0.00    -0.206 F 
ATOM     93  C   UNL A   1      39.263  35.264  39.306  1.00  0.00     0.060 A 
BRANCH  93  94
ATOM     94  S   UNL A   1      38.902  36.397  40.665  1.00  0.00     0.124 S 
ATOM     95  O   UNL A   1      40.206  36.506  41.309  1.00  0.00    -0.237 OA
ATOM     96  O   UNL A   1      38.437  37.591  39.967  1.00  0.00    -0.237 OA
ATOM     97  O   UNL A   1      37.879  35.690  41.431  1.00  0.00    -0.744 OA
ENDBRANCH  93  94
ENDBRANCH  61  86
ENDBRANCH  35  36
ENDBRANCH  27  30
ENDBRANCH  25  26
ENDBRANCH  24  25
ENDBRANCH  23  24
ENDBRANCH   1  23
TORSDOF 20
ENDMDL
