MODEL 1
REMARK VINA RESULT:     -10.4      0.000      0.000
REMARK SMILES CC[C@](C)(NC(=O)CCOc1ccc(Cl)c(Cl)c1)C(=O)NCCCCCCNC(=O)c1ccc(-c2c3nc(c(-c4c(F)cc(S(=O)(=O)[O-])cc4F)c4ccc([nH]4)c(-c4c(F)cc(S(=O)(=O)[O-])cc4F)c4nc(c(-c5c(F)cc(S(=O)(=O)[O-])cc5F)c5ccc2[nH]5)C=C4)C=C3)cc1
REMARK SMILES IDX 23 1 22 2 21 3 19 4 20 5 3 7 4 8 2 9 1 10 5 11 6 12 7 14
REMARK SMILES IDX 8 15 9 16 10 17 11 18 12 19 18 20 13 21 16 22 14 23 17 24
REMARK SMILES IDX 15 25 24 26 25 27 26 28 27 29 28 30 29 31 30 33 31 34 32 35
REMARK SMILES IDX 96 36 33 37 95 38 34 39 35 40 36 41 89 42 37 43 94 44 88 45
REMARK SMILES IDX 90 46 38 47 93 48 87 49 86 50 39 52 73 53 52 54 72 55 53 56
REMARK SMILES IDX 56 57 71 58 91 59 54 60 55 61 70 63 92 64 57 65 40 66 41 67
REMARK SMILES IDX 50 68 42 69 43 70 49 71 51 72 44 73 45 74 46 75 47 76 48 77
REMARK SMILES IDX 74 78 75 79 84 80 76 81 77 82 83 83 85 84 78 85 79 86 80 87
REMARK SMILES IDX 81 88 82 89 58 90 59 91 68 92 60 93 61 94 67 95 69 96 62 97
REMARK SMILES IDX 63 98 64 99 65 100 66 101
REMARK H PARENT 21 6 5 13 28 32 90 51 56 62
REMARK Flexibility Score: inf
ROOT
ATOM      1  C   UNL A   1      33.585  30.131  26.150  1.00  0.00     0.021 C 
ENDROOT
BRANCH   1   2
ATOM      2  C   UNL A   1      32.113  29.937  25.802  1.00  0.00     0.116 C 
BRANCH   2   3
ATOM      3  N   UNL A   1      31.492  28.881  26.579  1.00  0.00    -0.354 N 
ATOM      4  C   UNL A   1      31.228  27.584  26.259  1.00  0.00     0.245 C 
ATOM      5  O   UNL A   1      30.791  26.861  27.158  1.00  0.00    -0.272 OA
ATOM      6  H   UNL A   1      31.215  29.145  27.486  1.00  0.00     0.163 HD
BRANCH   4   7
ATOM      7  C   UNL A   1      31.557  27.028  24.847  1.00  0.00     0.116 C 
ATOM      8  C   UNL A   1      31.419  28.134  23.803  1.00  0.00     0.045 C 
BRANCH   7   9
ATOM      9  C   UNL A   1      30.539  25.881  24.543  1.00  0.00     0.035 C 
ATOM     10  C   UNL A   1      29.159  26.328  24.068  1.00  0.00     0.007 C 
ENDBRANCH   7   9
BRANCH   7  11
ATOM     11  N   UNL A   1      32.933  26.457  24.804  1.00  0.00    -0.342 N 
ATOM     12  C   UNL A   1      33.511  25.490  24.040  1.00  0.00     0.224 C 
ATOM     13  H   UNL A   1      33.547  26.861  25.460  1.00  0.00     0.164 HD
ATOM     14  O   UNL A   1      34.687  25.205  24.289  1.00  0.00    -0.275 OA
BRANCH  12  15
ATOM     15  C   UNL A   1      32.806  24.854  22.860  1.00  0.00     0.141 C 
BRANCH  15  16
ATOM     16  C   UNL A   1      32.759  23.325  22.849  1.00  0.00     0.239 C 
BRANCH  16  17
ATOM     17  O   UNL A   1      32.356  22.703  24.074  1.00  0.00    -0.493 OA
BRANCH  17  18
ATOM     18  C   UNL A   1      32.891  21.488  24.401  1.00  0.00     0.120 A 
ATOM     19  C   UNL A   1      32.225  20.270  24.344  1.00  0.00     0.048 A 
ATOM     20  C   UNL A   1      34.253  21.505  24.713  1.00  0.00     0.068 A 
ATOM     21  C   UNL A   1      32.944  19.074  24.374  1.00  0.00     0.026 A 
ATOM     22  C   UNL A   1      34.974  20.309  24.794  1.00  0.00     0.063 A 
ATOM     23  C   UNL A   1      34.323  19.090  24.570  1.00  0.00     0.059 A 
ATOM     24  Cl  UNL A   1      36.673  20.409  25.085  1.00  0.00    -0.083 Cl
ATOM     25  Cl  UNL A   1      35.167  17.588  24.476  1.00  0.00    -0.083 Cl
ENDBRANCH  17  18
ENDBRANCH  16  17
ENDBRANCH  15  16
ENDBRANCH  12  15
ENDBRANCH   7  11
ENDBRANCH   4   7
ENDBRANCH   2   3
ENDBRANCH   1   2
BRANCH   1  26
ATOM     26  C   UNL A   1      33.830  30.850  27.477  1.00  0.00     0.002 C 
BRANCH  26  27
ATOM     27  C   UNL A   1      35.282  31.274  27.702  1.00  0.00     0.002 C 
BRANCH  27  28
ATOM     28  C   UNL A   1      35.445  32.680  28.281  1.00  0.00     0.021 C 
BRANCH  28  29
ATOM     29  C   UNL A   1      36.520  32.783  29.353  1.00  0.00     0.116 C 
BRANCH  29  30
ATOM     30  N   UNL A   1      36.179  31.981  30.514  1.00  0.00    -0.352 N 
ATOM     31  C   UNL A   1      36.836  30.879  30.994  1.00  0.00     0.251 C 
ATOM     32  H   UNL A   1      35.380  32.262  31.016  1.00  0.00     0.163 HD
ATOM     33  O   UNL A   1      36.294  30.130  31.806  1.00  0.00    -0.269 OA
BRANCH  31  34
ATOM     34  C   UNL A   1      38.198  30.601  30.502  1.00  0.00     0.039 A 
ATOM     35  C   UNL A   1      39.252  30.534  31.412  1.00  0.00     0.014 A 
ATOM     36  C   UNL A   1      38.409  30.354  29.141  1.00  0.00     0.014 A 
ATOM     37  C   UNL A   1      40.519  30.165  30.960  1.00  0.00     0.010 A 
ATOM     38  C   UNL A   1      39.652  29.908  28.709  1.00  0.00     0.010 A 
ATOM     39  C   UNL A   1      40.720  29.816  29.613  1.00  0.00    -0.014 A 
BRANCH  39  40
ATOM     40  C   UNL A   1      42.043  29.348  29.132  1.00  0.00     0.031 A 
ATOM     41  C   UNL A   1      43.180  30.319  28.989  1.00  0.00     0.074 A 
ATOM     42  C   UNL A   1      42.197  28.061  28.762  1.00  0.00     0.049 A 
ATOM     43  N   UNL A   1      44.388  30.115  28.529  1.00  0.00    -0.248 NA
ATOM     44  C   UNL A   1      42.917  31.712  29.388  1.00  0.00     0.031 C 
ATOM     45  C   UNL A   1      41.148  27.040  28.801  1.00  0.00     0.029 A 
ATOM     46  N   UNL A   1      43.289  27.396  28.264  1.00  0.00    -0.354 N 
ATOM     47  C   UNL A   1      45.025  31.350  28.580  1.00  0.00     0.074 A 
ATOM     48  C   UNL A   1      44.050  32.309  29.051  1.00  0.00     0.031 C 
ATOM     49  C   UNL A   1      41.650  25.876  28.359  1.00  0.00     0.029 A 
ATOM     50  C   UNL A   1      43.042  26.076  27.966  1.00  0.00     0.049 A 
ATOM     51  H   UNL A   1      44.166  27.823  28.132  1.00  0.00     0.167 HD
ATOM     52  C   UNL A   1      46.312  31.651  28.285  1.00  0.00     0.037 A 
ATOM     53  C   UNL A   1      43.840  25.138  27.419  1.00  0.00     0.037 A 
ATOM     54  C   UNL A   1      47.273  30.686  27.818  1.00  0.00     0.049 A 
ATOM     55  C   UNL A   1      45.261  25.495  27.081  1.00  0.00     0.074 A 
ATOM     56  C   UNL A   1      48.615  30.873  27.540  1.00  0.00     0.029 A 
ATOM     57  N   UNL A   1      46.991  29.354  27.545  1.00  0.00    -0.354 N 
ATOM     58  N   UNL A   1      45.872  26.649  27.210  1.00  0.00    -0.248 NA
ATOM     59  C   UNL A   1      46.102  24.426  26.531  1.00  0.00     0.031 C 
ATOM     60  C   UNL A   1      49.130  29.671  27.045  1.00  0.00     0.029 A 
ATOM     61  C   UNL A   1      48.126  28.716  27.073  1.00  0.00     0.049 A 
ATOM     62  H   UNL A   1      46.114  28.925  27.671  1.00  0.00     0.167 HD
ATOM     63  C   UNL A   1      47.176  26.441  26.773  1.00  0.00     0.074 A 
ATOM     64  C   UNL A   1      47.267  25.045  26.394  1.00  0.00     0.031 C 
ATOM     65  C   UNL A   1      48.201  27.325  26.693  1.00  0.00     0.037 A 
BRANCH  52  66
ATOM     66  C   UNL A   1      46.744  33.084  28.452  1.00  0.00     0.058 A 
ATOM     67  C   UNL A   1      46.668  34.008  27.394  1.00  0.00     0.135 A 
ATOM     68  C   UNL A   1      47.236  33.544  29.683  1.00  0.00     0.135 A 
ATOM     69  F   UNL A   1      46.217  33.621  26.191  1.00  0.00    -0.206 F 
ATOM     70  C   UNL A   1      47.107  35.319  27.539  1.00  0.00     0.059 A 
ATOM     71  C   UNL A   1      47.649  34.862  29.861  1.00  0.00     0.059 A 
ATOM     72  F   UNL A   1      47.330  32.709  30.729  1.00  0.00    -0.206 F 
ATOM     73  C   UNL A   1      47.601  35.736  28.776  1.00  0.00     0.060 A 
BRANCH  73  74
ATOM     74  S   UNL A   1      48.188  37.435  28.939  1.00  0.00     0.124 S 
ATOM     75  O   UNL A   1      47.318  37.943  29.995  1.00  0.00    -0.237 OA
ATOM     76  O   UNL A   1      49.587  37.246  29.309  1.00  0.00    -0.237 OA
ATOM     77  O   UNL A   1      47.964  38.001  27.613  1.00  0.00    -0.744 OA
ENDBRANCH  73  74
ENDBRANCH  52  66
BRANCH  53  78
ATOM     78  C   UNL A   1      43.300  23.776  27.164  1.00  0.00     0.058 A 
ATOM     79  C   UNL A   1      43.293  22.795  28.166  1.00  0.00     0.135 A 
ATOM     80  C   UNL A   1      42.734  23.444  25.921  1.00  0.00     0.135 A 
ATOM     81  F   UNL A   1      43.827  23.061  29.368  1.00  0.00    -0.206 F 
ATOM     82  C   UNL A   1      42.750  21.533  27.946  1.00  0.00     0.059 A 
ATOM     83  C   UNL A   1      42.161  22.199  25.687  1.00  0.00     0.059 A 
ATOM     84  F   UNL A   1      42.699  24.353  24.935  1.00  0.00    -0.206 F 
ATOM     85  C   UNL A   1      42.178  21.248  26.705  1.00  0.00     0.060 A 
BRANCH  85  86
ATOM     86  S   UNL A   1      41.408  19.633  26.456  1.00  0.00     0.124 S 
ATOM     87  O   UNL A   1      41.439  19.081  27.805  1.00  0.00    -0.237 OA
ATOM     88  O   UNL A   1      40.092  19.999  25.943  1.00  0.00    -0.237 OA
ATOM     89  O   UNL A   1      42.291  18.987  25.488  1.00  0.00    -0.744 OA
ENDBRANCH  85  86
ENDBRANCH  53  78
BRANCH  65  90
ATOM     90  C   UNL A   1      49.523  26.811  26.189  1.00  0.00     0.058 A 
ATOM     91  C   UNL A   1      49.906  26.951  24.847  1.00  0.00     0.135 A 
ATOM     92  C   UNL A   1      50.444  26.228  27.077  1.00  0.00     0.135 A 
ATOM     93  F   UNL A   1      49.062  27.492  23.954  1.00  0.00    -0.206 F 
ATOM     94  C   UNL A   1      51.149  26.515  24.397  1.00  0.00     0.059 A 
ATOM     95  C   UNL A   1      51.703  25.815  26.655  1.00  0.00     0.059 A 
ATOM     96  F   UNL A   1      50.130  26.078  28.374  1.00  0.00    -0.206 F 
ATOM     97  C   UNL A   1      52.043  25.954  25.311  1.00  0.00     0.060 A 
BRANCH  97  98
ATOM     98  S   UNL A   1      53.670  25.438  24.722  1.00  0.00     0.124 S 
ATOM     99  O   UNL A   1      53.700  26.026  23.387  1.00  0.00    -0.237 OA
ATOM    100  O   UNL A   1      54.563  26.047  25.703  1.00  0.00    -0.237 OA
ATOM    101  O   UNL A   1      53.602  23.981  24.764  1.00  0.00    -0.744 OA
ENDBRANCH  97  98
ENDBRANCH  65  90
ENDBRANCH  39  40
ENDBRANCH  31  34
ENDBRANCH  29  30
ENDBRANCH  28  29
ENDBRANCH  27  28
ENDBRANCH  26  27
ENDBRANCH   1  26
TORSDOF 22
ENDMDL
MODEL 2
REMARK VINA RESULT:     -10.3      6.359     13.422
REMARK SMILES CC[C@](C)(NC(=O)CCOc1ccc(Cl)c(Cl)c1)C(=O)NCCCCCCNC(=O)c1ccc(-c2c3nc(c(-c4c(F)cc(S(=O)(=O)[O-])cc4F)c4ccc([nH]4)c(-c4c(F)cc(S(=O)(=O)[O-])cc4F)c4nc(c(-c5c(F)cc(S(=O)(=O)[O-])cc5F)c5ccc2[nH]5)C=C4)C=C3)cc1
REMARK SMILES IDX 23 1 22 2 21 3 19 4 20 5 3 7 4 8 2 9 1 10 5 11 6 12 7 14
REMARK SMILES IDX 8 15 9 16 10 17 11 18 12 19 18 20 13 21 16 22 14 23 17 24
REMARK SMILES IDX 15 25 24 26 25 27 26 28 27 29 28 30 29 31 30 33 31 34 32 35
REMARK SMILES IDX 96 36 33 37 95 38 34 39 35 40 36 41 89 42 37 43 94 44 88 45
REMARK SMILES IDX 90 46 38 47 93 48 87 49 86 50 39 52 73 53 52 54 72 55 53 56
REMARK SMILES IDX 56 57 71 58 91 59 54 60 55 61 70 63 92 64 57 65 40 66 41 67
REMARK SMILES IDX 50 68 42 69 43 70 49 71 51 72 44 73 45 74 46 75 47 76 48 77
REMARK SMILES IDX 74 78 75 79 84 80 76 81 77 82 83 83 85 84 78 85 79 86 80 87
REMARK SMILES IDX 81 88 82 89 58 90 59 91 68 92 60 93 61 94 67 95 69 96 62 97
REMARK SMILES IDX 63 98 64 99 65 100 66 101
REMARK H PARENT 21 6 5 13 28 32 90 51 56 62
REMARK Flexibility Score: inf
ROOT
ATOM      1  C   UNL A   1      44.087  25.685  29.669  1.00  0.00     0.021 C 
ENDROOT
BRANCH   1   2
ATOM      2  C   UNL A   1      45.282  25.830  28.733  1.00  0.00     0.116 C 
BRANCH   2   3
ATOM      3  N   UNL A   1      45.084  26.863  27.734  1.00  0.00    -0.354 N 
ATOM      4  C   UNL A   1      45.950  27.397  26.829  1.00  0.00     0.245 C 
ATOM      5  O   UNL A   1      45.484  28.192  26.007  1.00  0.00    -0.272 OA
ATOM      6  H   UNL A   1      44.176  27.239  27.704  1.00  0.00     0.163 HD
BRANCH   4   7
ATOM      7  C   UNL A   1      47.435  26.946  26.781  1.00  0.00     0.116 C 
ATOM      8  C   UNL A   1      47.683  25.850  27.817  1.00  0.00     0.045 C 
BRANCH   7   9
ATOM      9  C   UNL A   1      48.319  28.194  27.108  1.00  0.00     0.035 C 
ATOM     10  C   UNL A   1      49.318  28.017  28.248  1.00  0.00     0.007 C 
ENDBRANCH   7   9
BRANCH   7  11
ATOM     11  N   UNL A   1      47.802  26.454  25.423  1.00  0.00    -0.342 N 
ATOM     12  C   UNL A   1      47.396  25.385  24.684  1.00  0.00     0.224 C 
ATOM     13  H   UNL A   1      48.473  27.014  24.970  1.00  0.00     0.164 HD
ATOM     14  O   UNL A   1      47.940  25.220  23.588  1.00  0.00    -0.275 OA
BRANCH  12  15
ATOM     15  C   UNL A   1      46.253  24.487  25.111  1.00  0.00     0.141 C 
BRANCH  15  16
ATOM     16  C   UNL A   1      46.108  23.172  24.342  1.00  0.00     0.239 C 
BRANCH  16  17
ATOM     17  O   UNL A   1      46.508  21.990  25.044  1.00  0.00    -0.493 OA
BRANCH  17  18
ATOM     18  C   UNL A   1      45.655  20.921  25.069  1.00  0.00     0.120 A 
ATOM     19  C   UNL A   1      46.030  19.587  24.973  1.00  0.00     0.048 A 
ATOM     20  C   UNL A   1      44.317  21.236  25.316  1.00  0.00     0.068 A 
ATOM     21  C   UNL A   1      45.137  18.578  25.340  1.00  0.00     0.026 A 
ATOM     22  C   UNL A   1      43.402  20.227  25.636  1.00  0.00     0.063 A 
ATOM     23  C   UNL A   1      43.830  18.897  25.700  1.00  0.00     0.059 A 
ATOM     24  Cl  UNL A   1      41.787  20.698  26.027  1.00  0.00    -0.083 Cl
ATOM     25  Cl  UNL A   1      42.814  17.617  26.258  1.00  0.00    -0.083 Cl
ENDBRANCH  17  18
ENDBRANCH  16  17
ENDBRANCH  15  16
ENDBRANCH  12  15
ENDBRANCH   7  11
ENDBRANCH   4   7
ENDBRANCH   2   3
ENDBRANCH   1   2
BRANCH   1  26
ATOM     26  C   UNL A   1      43.805  24.249  30.114  1.00  0.00     0.002 C 
BRANCH  26  27
ATOM     27  C   UNL A   1      43.699  23.247  28.964  1.00  0.00     0.002 C 
BRANCH  27  28
ATOM     28  C   UNL A   1      42.411  23.359  28.148  1.00  0.00     0.021 C 
BRANCH  28  29
ATOM     29  C   UNL A   1      42.588  24.071  26.815  1.00  0.00     0.116 C 
BRANCH  29  30
ATOM     30  N   UNL A   1      41.322  24.191  26.113  1.00  0.00    -0.352 N 
ATOM     31  C   UNL A   1      40.190  24.839  26.532  1.00  0.00     0.251 C 
ATOM     32  H   UNL A   1      41.271  23.754  25.233  1.00  0.00     0.163 HD
ATOM     33  O   UNL A   1      39.109  24.630  25.983  1.00  0.00    -0.269 OA
BRANCH  31  34
ATOM     34  C   UNL A   1      40.294  25.776  27.666  1.00  0.00     0.039 A 
ATOM     35  C   UNL A   1      41.192  26.841  27.590  1.00  0.00     0.014 A 
ATOM     36  C   UNL A   1      39.457  25.623  28.775  1.00  0.00     0.014 A 
ATOM     37  C   UNL A   1      41.211  27.788  28.614  1.00  0.00     0.010 A 
ATOM     38  C   UNL A   1      39.422  26.610  29.752  1.00  0.00     0.010 A 
ATOM     39  C   UNL A   1      40.304  27.698  29.684  1.00  0.00    -0.014 A 
BRANCH  39  40
ATOM     40  C   UNL A   1      40.260  28.738  30.741  1.00  0.00     0.031 A 
ATOM     41  C   UNL A   1      41.139  28.618  31.954  1.00  0.00     0.074 A 
ATOM     42  C   UNL A   1      39.379  29.752  30.638  1.00  0.00     0.049 A 
ATOM     43  N   UNL A   1      41.200  29.388  33.009  1.00  0.00    -0.248 NA
ATOM     44  C   UNL A   1      42.050  27.462  32.000  1.00  0.00     0.031 C 
ATOM     45  C   UNL A   1      38.434  29.942  29.535  1.00  0.00     0.029 A 
ATOM     46  N   UNL A   1      39.123  30.806  31.478  1.00  0.00    -0.354 N 
ATOM     47  C   UNL A   1      42.149  28.810  33.844  1.00  0.00     0.074 A 
ATOM     48  C   UNL A   1      42.588  27.590  33.204  1.00  0.00     0.031 C 
ATOM     49  C   UNL A   1      37.711  31.050  29.759  1.00  0.00     0.029 A 
ATOM     50  C   UNL A   1      38.109  31.627  31.040  1.00  0.00     0.049 A 
ATOM     51  H   UNL A   1      39.617  30.961  32.315  1.00  0.00     0.167 HD
ATOM     52  C   UNL A   1      42.629  29.269  35.025  1.00  0.00     0.037 A 
ATOM     53  C   UNL A   1      37.551  32.711  31.613  1.00  0.00     0.037 A 
ATOM     54  C   UNL A   1      42.184  30.486  35.651  1.00  0.00     0.049 A 
ATOM     55  C   UNL A   1      38.084  33.195  32.933  1.00  0.00     0.074 A 
ATOM     56  C   UNL A   1      42.641  31.070  36.820  1.00  0.00     0.029 A 
ATOM     57  N   UNL A   1      41.169  31.302  35.169  1.00  0.00    -0.354 N 
ATOM     58  N   UNL A   1      39.039  32.682  33.673  1.00  0.00    -0.248 NA
ATOM     59  C   UNL A   1      37.473  34.406  33.493  1.00  0.00     0.031 C 
ATOM     60  C   UNL A   1      41.864  32.204  37.074  1.00  0.00     0.029 A 
ATOM     61  C   UNL A   1      40.964  32.366  36.032  1.00  0.00     0.049 A 
ATOM     62  H   UNL A   1      40.669  31.148  34.335  1.00  0.00     0.167 HD
ATOM     63  C   UNL A   1      39.155  33.517  34.779  1.00  0.00     0.074 A 
ATOM     64  C   UNL A   1      38.185  34.579  34.600  1.00  0.00     0.031 C 
ATOM     65  C   UNL A   1      39.988  33.413  35.844  1.00  0.00     0.037 A 
BRANCH  52  66
ATOM     66  C   UNL A   1      43.682  28.441  35.714  1.00  0.00     0.058 A 
ATOM     67  C   UNL A   1      43.346  27.441  36.643  1.00  0.00     0.135 A 
ATOM     68  C   UNL A   1      45.044  28.643  35.440  1.00  0.00     0.135 A 
ATOM     69  F   UNL A   1      42.060  27.212  36.954  1.00  0.00    -0.206 F 
ATOM     70  C   UNL A   1      44.321  26.707  37.309  1.00  0.00     0.059 A 
ATOM     71  C   UNL A   1      46.036  27.896  36.068  1.00  0.00     0.059 A 
ATOM     72  F   UNL A   1      45.425  29.582  34.559  1.00  0.00    -0.206 F 
ATOM     73  C   UNL A   1      45.666  26.945  37.018  1.00  0.00     0.060 A 
BRANCH  73  74
ATOM     74  S   UNL A   1      46.919  25.999  37.908  1.00  0.00     0.124 S 
ATOM     75  O   UNL A   1      46.210  25.663  39.138  1.00  0.00    -0.237 OA
ATOM     76  O   UNL A   1      47.173  24.886  36.999  1.00  0.00    -0.237 OA
ATOM     77  O   UNL A   1      48.018  26.947  38.056  1.00  0.00    -0.744 OA
ENDBRANCH  73  74
ENDBRANCH  52  66
BRANCH  53  78
ATOM     78  C   UNL A   1      36.424  33.401  30.931  1.00  0.00     0.058 A 
ATOM     79  C   UNL A   1      35.126  33.375  31.462  1.00  0.00     0.135 A 
ATOM     80  C   UNL A   1      36.634  34.143  29.756  1.00  0.00     0.135 A 
ATOM     81  F   UNL A   1      34.872  32.676  32.578  1.00  0.00    -0.206 F 
ATOM     82  C   UNL A   1      34.076  34.055  30.852  1.00  0.00     0.059 A 
ATOM     83  C   UNL A   1      35.607  34.852  29.144  1.00  0.00     0.059 A 
ATOM     84  F   UNL A   1      37.862  34.215  29.218  1.00  0.00    -0.206 F 
ATOM     85  C   UNL A   1      34.329  34.798  29.697  1.00  0.00     0.060 A 
BRANCH  85  86
ATOM     86  S   UNL A   1      32.976  35.737  28.957  1.00  0.00     0.124 S 
ATOM     87  O   UNL A   1      33.697  36.806  28.275  1.00  0.00    -0.237 OA
ATOM     88  O   UNL A   1      32.347  34.740  28.098  1.00  0.00    -0.237 OA
ATOM     89  O   UNL A   1      32.182  36.148  30.112  1.00  0.00    -0.744 OA
ENDBRANCH  85  86
ENDBRANCH  53  78
BRANCH  65  90
ATOM     90  C   UNL A   1      39.903  34.483  36.898  1.00  0.00     0.058 A 
ATOM     91  C   UNL A   1      39.138  34.313  38.063  1.00  0.00     0.135 A 
ATOM     92  C   UNL A   1      40.649  35.668  36.771  1.00  0.00     0.135 A 
ATOM     93  F   UNL A   1      38.400  33.205  38.231  1.00  0.00    -0.206 F 
ATOM     94  C   UNL A   1      39.101  35.287  39.056  1.00  0.00     0.059 A 
ATOM     95  C   UNL A   1      40.650  36.640  37.766  1.00  0.00     0.059 A 
ATOM     96  F   UNL A   1      41.404  35.877  35.681  1.00  0.00    -0.206 F 
ATOM     97  C   UNL A   1      39.866  36.445  38.901  1.00  0.00     0.060 A 
BRANCH  97  98
ATOM     98  S   UNL A   1      39.845  37.677  40.220  1.00  0.00     0.124 S 
ATOM     99  O   UNL A   1      38.683  38.480  39.854  1.00  0.00    -0.237 OA
ATOM    100  O   UNL A   1      39.695  36.852  41.414  1.00  0.00    -0.237 OA
ATOM    101  O   UNL A   1      41.136  38.345  40.084  1.00  0.00    -0.744 OA
ENDBRANCH  97  98
ENDBRANCH  65  90
ENDBRANCH  39  40
ENDBRANCH  31  34
ENDBRANCH  29  30
ENDBRANCH  28  29
ENDBRANCH  27  28
ENDBRANCH  26  27
ENDBRANCH   1  26
TORSDOF 22
ENDMDL
MODEL 3
REMARK VINA RESULT:      -9.7      5.745     13.091
REMARK SMILES CC[C@](C)(NC(=O)CCOc1ccc(Cl)c(Cl)c1)C(=O)NCCCCCCNC(=O)c1ccc(-c2c3nc(c(-c4c(F)cc(S(=O)(=O)[O-])cc4F)c4ccc([nH]4)c(-c4c(F)cc(S(=O)(=O)[O-])cc4F)c4nc(c(-c5c(F)cc(S(=O)(=O)[O-])cc5F)c5ccc2[nH]5)C=C4)C=C3)cc1
REMARK SMILES IDX 23 1 22 2 21 3 19 4 20 5 3 7 4 8 2 9 1 10 5 11 6 12 7 14
REMARK SMILES IDX 8 15 9 16 10 17 11 18 12 19 18 20 13 21 16 22 14 23 17 24
REMARK SMILES IDX 15 25 24 26 25 27 26 28 27 29 28 30 29 31 30 33 31 34 32 35
REMARK SMILES IDX 96 36 33 37 95 38 34 39 35 40 36 41 89 42 37 43 94 44 88 45
REMARK SMILES IDX 90 46 38 47 93 48 87 49 86 50 39 52 73 53 52 54 72 55 53 56
REMARK SMILES IDX 56 57 71 58 91 59 54 60 55 61 70 63 92 64 57 65 40 66 41 67
REMARK SMILES IDX 50 68 42 69 43 70 49 71 51 72 44 73 45 74 46 75 47 76 48 77
REMARK SMILES IDX 74 78 75 79 84 80 76 81 77 82 83 83 85 84 78 85 79 86 80 87
REMARK SMILES IDX 81 88 82 89 58 90 59 91 68 92 60 93 61 94 67 95 69 96 62 97
REMARK SMILES IDX 63 98 64 99 65 100 66 101
REMARK H PARENT 21 6 5 13 28 32 90 51 56 62
REMARK Flexibility Score: inf
ROOT
ATOM      1  C   UNL A   1      41.678  35.483  27.968  1.00  0.00     0.021 C 
ENDROOT
BRANCH   1   2
ATOM      2  C   UNL A   1      42.216  36.880  27.672  1.00  0.00     0.116 C 
BRANCH   2   3
ATOM      3  N   UNL A   1      42.814  37.503  28.837  1.00  0.00    -0.354 N 
ATOM      4  C   UNL A   1      43.352  38.744  29.000  1.00  0.00     0.245 C 
ATOM      5  O   UNL A   1      43.691  39.064  30.143  1.00  0.00    -0.272 OA
ATOM      6  H   UNL A   1      42.835  36.938  29.642  1.00  0.00     0.163 HD
BRANCH   4   7
ATOM      7  C   UNL A   1      43.440  39.738  27.811  1.00  0.00     0.116 C 
ATOM      8  C   UNL A   1      44.295  39.143  26.693  1.00  0.00     0.045 C 
BRANCH   7   9
ATOM      9  C   UNL A   1      44.100  41.052  28.342  1.00  0.00     0.035 C 
ATOM     10  C   UNL A   1      45.617  41.136  28.197  1.00  0.00     0.007 C 
ENDBRANCH   7   9
BRANCH   7  11
ATOM     11  N   UNL A   1      42.084  40.071  27.290  1.00  0.00    -0.342 N 
ATOM     12  C   UNL A   1      41.652  40.861  26.268  1.00  0.00     0.224 C 
ATOM     13  H   UNL A   1      41.354  39.633  27.785  1.00  0.00     0.164 HD
ATOM     14  O   UNL A   1      40.431  40.972  26.121  1.00  0.00    -0.275 OA
BRANCH  12  15
ATOM     15  C   UNL A   1      42.601  41.495  25.272  1.00  0.00     0.141 C 
BRANCH  15  16
ATOM     16  C   UNL A   1      41.994  41.897  23.927  1.00  0.00     0.239 C 
BRANCH  16  17
ATOM     17  O   UNL A   1      42.569  43.049  23.301  1.00  0.00    -0.493 OA
BRANCH  17  18
ATOM     18  C   UNL A   1      42.683  43.068  21.939  1.00  0.00     0.120 A 
ATOM     19  C   UNL A   1      41.630  43.192  21.041  1.00  0.00     0.048 A 
ATOM     20  C   UNL A   1      43.994  43.063  21.453  1.00  0.00     0.068 A 
ATOM     21  C   UNL A   1      41.877  43.531  19.709  1.00  0.00     0.026 A 
ATOM     22  C   UNL A   1      44.249  43.355  20.109  1.00  0.00     0.063 A 
ATOM     23  C   UNL A   1      43.186  43.642  19.247  1.00  0.00     0.059 A 
ATOM     24  Cl  UNL A   1      45.898  43.429  19.600  1.00  0.00    -0.083 Cl
ATOM     25  Cl  UNL A   1      43.423  44.183  17.624  1.00  0.00    -0.083 Cl
ENDBRANCH  17  18
ENDBRANCH  16  17
ENDBRANCH  15  16
ENDBRANCH  12  15
ENDBRANCH   7  11
ENDBRANCH   4   7
ENDBRANCH   2   3
ENDBRANCH   1   2
BRANCH   1  26
ATOM     26  C   UNL A   1      41.048  35.331  29.352  1.00  0.00     0.002 C 
BRANCH  26  27
ATOM     27  C   UNL A   1      40.111  34.129  29.485  1.00  0.00     0.002 C 
BRANCH  27  28
ATOM     28  C   UNL A   1      38.715  34.475  30.005  1.00  0.00     0.021 C 
BRANCH  28  29
ATOM     29  C   UNL A   1      37.594  33.719  29.307  1.00  0.00     0.116 C 
BRANCH  29  30
ATOM     30  N   UNL A   1      36.873  32.871  30.241  1.00  0.00    -0.352 N 
ATOM     31  C   UNL A   1      37.101  31.549  30.520  1.00  0.00     0.251 C 
ATOM     32  H   UNL A   1      36.134  33.297  30.731  1.00  0.00     0.163 HD
ATOM     33  O   UNL A   1      36.255  30.879  31.110  1.00  0.00    -0.269 OA
BRANCH  31  34
ATOM     34  C   UNL A   1      38.373  30.946  30.082  1.00  0.00     0.039 A 
ATOM     35  C   UNL A   1      38.490  30.474  28.775  1.00  0.00     0.014 A 
ATOM     36  C   UNL A   1      39.462  30.906  30.958  1.00  0.00     0.014 A 
ATOM     37  C   UNL A   1      39.725  30.003  28.329  1.00  0.00     0.010 A 
ATOM     38  C   UNL A   1      40.709  30.514  30.487  1.00  0.00     0.010 A 
ATOM     39  C   UNL A   1      40.851  30.052  29.171  1.00  0.00    -0.014 A 
BRANCH  39  40
ATOM     40  C   UNL A   1      42.188  29.628  28.687  1.00  0.00     0.031 A 
ATOM     41  C   UNL A   1      42.436  28.192  28.321  1.00  0.00     0.074 A 
ATOM     42  C   UNL A   1      43.193  30.524  28.644  1.00  0.00     0.049 A 
ATOM     43  N   UNL A   1      43.547  27.617  27.939  1.00  0.00    -0.248 NA
ATOM     44  C   UNL A   1      41.290  27.274  28.426  1.00  0.00     0.031 C 
ATOM     45  C   UNL A   1      43.086  31.933  29.031  1.00  0.00     0.029 A 
ATOM     46  N   UNL A   1      44.506  30.382  28.272  1.00  0.00    -0.354 N 
ATOM     47  C   UNL A   1      43.237  26.274  27.763  1.00  0.00     0.074 A 
ATOM     48  C   UNL A   1      41.852  26.107  28.144  1.00  0.00     0.031 C 
ATOM     49  C   UNL A   1      44.277  32.527  28.864  1.00  0.00     0.029 A 
ATOM     50  C   UNL A   1      45.243  31.536  28.399  1.00  0.00     0.049 A 
ATOM     51  H   UNL A   1      44.884  29.535  27.945  1.00  0.00     0.167 HD
ATOM     52  C   UNL A   1      44.028  25.276  27.301  1.00  0.00     0.037 A 
ATOM     53  C   UNL A   1      46.553  31.766  28.185  1.00  0.00     0.037 A 
ATOM     54  C   UNL A   1      45.405  25.456  26.924  1.00  0.00     0.049 A 
ATOM     55  C   UNL A   1      47.420  30.642  27.689  1.00  0.00     0.074 A 
ATOM     56  C   UNL A   1      46.281  24.525  26.394  1.00  0.00     0.029 A 
ATOM     57  N   UNL A   1      46.113  26.643  27.048  1.00  0.00    -0.354 N 
ATOM     58  N   UNL A   1      47.092  29.394  27.451  1.00  0.00    -0.248 NA
ATOM     59  C   UNL A   1      48.830  30.954  27.427  1.00  0.00     0.031 C 
ATOM     60  C   UNL A   1      47.532  25.133  26.254  1.00  0.00     0.029 A 
ATOM     61  C   UNL A   1      47.423  26.461  26.636  1.00  0.00     0.049 A 
ATOM     62  H   UNL A   1      45.740  27.492  27.380  1.00  0.00     0.167 HD
ATOM     63  C   UNL A   1      48.251  28.775  26.994  1.00  0.00     0.074 A 
ATOM     64  C   UNL A   1      49.283  29.793  26.973  1.00  0.00     0.031 C 
ATOM     65  C   UNL A   1      48.442  27.484  26.627  1.00  0.00     0.037 A 
BRANCH  52  66
ATOM     66  C   UNL A   1      43.418  23.904  27.190  1.00  0.00     0.058 A 
ATOM     67  C   UNL A   1      42.955  23.397  25.963  1.00  0.00     0.135 A 
ATOM     68  C   UNL A   1      43.299  23.080  28.320  1.00  0.00     0.135 A 
ATOM     69  F   UNL A   1      43.031  24.145  24.851  1.00  0.00    -0.206 F 
ATOM     70  C   UNL A   1      42.355  22.146  25.871  1.00  0.00     0.059 A 
ATOM     71  C   UNL A   1      42.733  21.810  28.245  1.00  0.00     0.059 A 
ATOM     72  F   UNL A   1      43.726  23.508  29.518  1.00  0.00    -0.206 F 
ATOM     73  C   UNL A   1      42.244  21.360  27.019  1.00  0.00     0.060 A 
BRANCH  73  74
ATOM     74  S   UNL A   1      41.441  19.750  26.886  1.00  0.00     0.124 S 
ATOM     75  O   UNL A   1      42.589  18.867  26.701  1.00  0.00    -0.237 OA
ATOM     76  O   UNL A   1      40.756  19.636  28.169  1.00  0.00    -0.237 OA
ATOM     77  O   UNL A   1      40.570  19.899  25.725  1.00  0.00    -0.744 OA
ENDBRANCH  73  74
ENDBRANCH  52  66
BRANCH  53  78
ATOM     78  C   UNL A   1      47.111  33.120  28.442  1.00  0.00     0.058 A 
ATOM     79  C   UNL A   1      47.620  33.472  29.701  1.00  0.00     0.135 A 
ATOM     80  C   UNL A   1      47.189  34.077  27.416  1.00  0.00     0.135 A 
ATOM     81  F   UNL A   1      47.562  32.595  30.715  1.00  0.00    -0.206 F 
ATOM     82  C   UNL A   1      48.182  34.722  29.936  1.00  0.00     0.059 A 
ATOM     83  C   UNL A   1      47.771  35.324  27.620  1.00  0.00     0.059 A 
ATOM     84  F   UNL A   1      46.733  33.784  26.189  1.00  0.00    -0.206 F 
ATOM     85  C   UNL A   1      48.261  35.639  28.885  1.00  0.00     0.060 A 
BRANCH  85  86
ATOM     86  S   UNL A   1      49.061  37.230  29.182  1.00  0.00     0.124 S 
ATOM     87  O   UNL A   1      49.535  37.071  30.552  1.00  0.00    -0.237 OA
ATOM     88  O   UNL A   1      50.090  37.251  28.147  1.00  0.00    -0.237 OA
ATOM     89  O   UNL A   1      47.977  38.190  28.995  1.00  0.00    -0.744 OA
ENDBRANCH  85  86
ENDBRANCH  53  78
BRANCH  65  90
ATOM     90  C   UNL A   1      49.816  27.093  26.153  1.00  0.00     0.058 A 
ATOM     91  C   UNL A   1      50.817  26.684  27.048  1.00  0.00     0.135 A 
ATOM     92  C   UNL A   1      50.115  27.067  24.780  1.00  0.00     0.135 A 
ATOM     93  F   UNL A   1      50.589  26.699  28.371  1.00  0.00    -0.206 F 
ATOM     94  C   UNL A   1      52.071  26.280  26.600  1.00  0.00     0.059 A 
ATOM     95  C   UNL A   1      51.350  26.636  24.310  1.00  0.00     0.059 A 
ATOM     96  F   UNL A   1      49.190  27.440  23.881  1.00  0.00    -0.206 F 
ATOM     97  C   UNL A   1      52.326  26.252  25.228  1.00  0.00     0.060 A 
BRANCH  97  98
ATOM     98  S   UNL A   1      53.940  25.679  24.660  1.00  0.00     0.124 S 
ATOM     99  O   UNL A   1      53.945  26.138  23.276  1.00  0.00    -0.237 OA
ATOM    100  O   UNL A   1      54.852  26.375  25.562  1.00  0.00    -0.237 OA
ATOM    101  O   UNL A   1      53.872  24.232  24.841  1.00  0.00    -0.744 OA
ENDBRANCH  97  98
ENDBRANCH  65  90
ENDBRANCH  39  40
ENDBRANCH  31  34
ENDBRANCH  29  30
ENDBRANCH  28  29
ENDBRANCH  27  28
ENDBRANCH  26  27
ENDBRANCH   1  26
TORSDOF 22
ENDMDL
