MODEL 1
REMARK VINA RESULT:     -12.0      0.000      0.000
REMARK SMILES O=C(Cc1cccn1-c1ccccc1F)NCCCCCCNC(=O)c1ccc(-c2c3nc(c(-c4c(F)cc(S(=O)(=O)[O-])cc4F)c4ccc([nH]4)c(-c4c(F)cc(S(=O)(=O)[O-])cc4F)c4nc(c(-c5c(F)cc(S(=O)(=O)[O-])cc5F)c5ccc2[nH]5)C=C4)C=C3)cc1
REMARK SMILES IDX 20 1 19 2 18 3 17 4 16 5 1 6 2 7 3 9 4 10 5 11 8 12 6 13
REMARK SMILES IDX 7 14 9 15 10 16 14 17 11 18 13 19 15 20 12 21 21 22 22 23
REMARK SMILES IDX 23 24 24 25 25 27 26 28 27 29 91 30 28 31 90 32 29 33 30 34
REMARK SMILES IDX 31 35 84 36 32 37 89 38 83 39 85 40 33 41 88 42 82 43 81 44
REMARK SMILES IDX 34 46 68 47 47 48 67 49 48 50 51 51 66 52 86 53 49 54 50 55
REMARK SMILES IDX 65 57 87 58 52 59 35 60 36 61 45 62 37 63 38 64 44 65 46 66
REMARK SMILES IDX 39 67 40 68 41 69 42 70 43 71 69 72 70 73 79 74 71 75 72 76
REMARK SMILES IDX 78 77 80 78 73 79 74 80 75 81 76 82 77 83 53 84 54 85 63 86
REMARK SMILES IDX 55 87 56 88 62 89 64 90 57 91 58 92 59 93 60 94 61 95
REMARK H PARENT 16 8 23 26 85 45 51 56
REMARK Flexibility Score: inf
ROOT
ATOM      1  C   UNL A   1      32.583  27.494  26.216  1.00  0.00     0.002 C 
ENDROOT
BRANCH   1   2
ATOM      2  C   UNL A   1      33.460  26.620  25.315  1.00  0.00     0.002 C 
BRANCH   2   3
ATOM      3  C   UNL A   1      33.660  27.136  23.883  1.00  0.00     0.021 C 
BRANCH   3   4
ATOM      4  C   UNL A   1      33.601  26.066  22.790  1.00  0.00     0.116 C 
BRANCH   4   5
ATOM      5  N   UNL A   1      33.391  24.744  23.345  1.00  0.00    -0.356 N 
ATOM      6  O   UNL A   1      33.510  23.590  21.361  1.00  0.00    -0.275 OA
ATOM      7  C   UNL A   1      33.346  23.600  22.578  1.00  0.00     0.225 C 
ATOM      8  H   UNL A   1      33.274  24.659  24.318  1.00  0.00     0.163 HD
BRANCH   7   9
ATOM      9  C   UNL A   1      33.065  22.334  23.380  1.00  0.00     0.154 C 
BRANCH   9  10
ATOM     10  C   UNL A   1      32.822  22.671  24.825  1.00  0.00     0.032 A 
ATOM     11  C   UNL A   1      31.586  22.891  25.417  1.00  0.00     0.024 A 
ATOM     12  N   UNL A   1      33.781  22.695  25.834  1.00  0.00    -0.318 N 
ATOM     13  C   UNL A   1      31.771  22.953  26.810  1.00  0.00     0.020 A 
ATOM     14  C   UNL A   1      33.113  22.776  27.044  1.00  0.00     0.091 A 
BRANCH  12  15
ATOM     15  C   UNL A   1      35.194  22.616  25.730  1.00  0.00     0.081 A 
ATOM     16  C   UNL A   1      35.957  23.788  25.850  1.00  0.00     0.030 A 
ATOM     17  C   UNL A   1      35.839  21.406  25.472  1.00  0.00     0.147 A 
ATOM     18  C   UNL A   1      37.350  23.727  25.757  1.00  0.00     0.002 A 
ATOM     19  C   UNL A   1      37.228  21.345  25.389  1.00  0.00     0.041 A 
ATOM     20  F   UNL A   1      35.146  20.288  25.219  1.00  0.00    -0.205 F 
ATOM     21  C   UNL A   1      37.986  22.505  25.541  1.00  0.00     0.003 A 
ENDBRANCH  12  15
ENDBRANCH   9  10
ENDBRANCH   7   9
ENDBRANCH   4   5
ENDBRANCH   3   4
ENDBRANCH   2   3
ENDBRANCH   1   2
BRANCH   1  22
ATOM     22  C   UNL A   1      33.335  28.401  27.194  1.00  0.00     0.021 C 
BRANCH  22  23
ATOM     23  C   UNL A   1      34.780  28.672  26.781  1.00  0.00     0.116 C 
BRANCH  23  24
ATOM     24  N   UNL A   1      35.134  30.073  26.967  1.00  0.00    -0.352 N 
ATOM     25  C   UNL A   1      36.180  30.611  27.680  1.00  0.00     0.251 C 
ATOM     26  H   UNL A   1      34.544  30.724  26.522  1.00  0.00     0.163 HD
ATOM     27  O   UNL A   1      36.152  31.785  28.019  1.00  0.00    -0.269 OA
BRANCH  25  28
ATOM     28  C   UNL A   1      37.327  29.759  28.047  1.00  0.00     0.039 A 
ATOM     29  C   UNL A   1      38.458  29.756  27.224  1.00  0.00     0.014 A 
ATOM     30  C   UNL A   1      37.263  28.943  29.182  1.00  0.00     0.014 A 
ATOM     31  C   UNL A   1      39.560  28.990  27.585  1.00  0.00     0.010 A 
ATOM     32  C   UNL A   1      38.375  28.213  29.568  1.00  0.00     0.010 A 
ATOM     33  C   UNL A   1      39.524  28.245  28.771  1.00  0.00    -0.014 A 
BRANCH  33  34
ATOM     34  C   UNL A   1      40.749  27.561  29.236  1.00  0.00     0.031 A 
ATOM     35  C   UNL A   1      41.055  26.301  28.390  1.00  0.00     0.074 A 
ATOM     36  C   UNL A   1      41.377  28.140  30.306  1.00  0.00     0.049 A 
ATOM     37  N   UNL A   1      41.619  25.182  28.726  1.00  0.00    -0.248 NA
ATOM     38  C   UNL A   1      40.570  26.243  26.982  1.00  0.00     0.031 C 
ATOM     39  C   UNL A   1      40.924  29.386  30.970  1.00  0.00     0.029 A 
ATOM     40  N   UNL A   1      42.497  27.838  31.051  1.00  0.00    -0.354 N 
ATOM     41  C   UNL A   1      41.730  24.380  27.561  1.00  0.00     0.074 A 
ATOM     42  C   UNL A   1      40.956  25.037  26.553  1.00  0.00     0.031 C 
ATOM     43  C   UNL A   1      41.697  29.677  32.037  1.00  0.00     0.029 A 
ATOM     44  C   UNL A   1      42.724  28.669  32.183  1.00  0.00     0.049 A 
ATOM     45  H   UNL A   1      43.099  27.097  30.814  1.00  0.00     0.167 HD
ATOM     46  C   UNL A   1      42.556  23.290  27.472  1.00  0.00     0.037 A 
ATOM     47  C   UNL A   1      43.633  28.513  33.199  1.00  0.00     0.037 A 
ATOM     48  C   UNL A   1      43.271  23.142  28.696  1.00  0.00     0.049 A 
ATOM     49  C   UNL A   1      44.434  27.340  32.808  1.00  0.00     0.074 A 
ATOM     50  C   UNL A   1      42.895  22.713  29.941  1.00  0.00     0.029 A 
ATOM     51  N   UNL A   1      44.460  23.827  28.791  1.00  0.00    -0.354 N 
ATOM     52  N   UNL A   1      45.296  27.306  31.835  1.00  0.00    -0.248 NA
ATOM     53  C   UNL A   1      44.145  26.061  33.470  1.00  0.00     0.031 C 
ATOM     54  C   UNL A   1      43.594  23.584  30.802  1.00  0.00     0.029 A 
ATOM     55  C   UNL A   1      44.531  24.324  30.069  1.00  0.00     0.049 A 
ATOM     56  H   UNL A   1      45.130  23.939  28.080  1.00  0.00     0.167 HD
ATOM     57  C   UNL A   1      45.391  25.961  31.571  1.00  0.00     0.074 A 
ATOM     58  C   UNL A   1      44.930  25.265  32.752  1.00  0.00     0.031 C 
ATOM     59  C   UNL A   1      45.319  25.513  30.294  1.00  0.00     0.037 A 
BRANCH  46  60
ATOM     60  C   UNL A   1      43.019  22.418  26.328  1.00  0.00     0.058 A 
ATOM     61  C   UNL A   1      44.046  22.761  25.442  1.00  0.00     0.135 A 
ATOM     62  C   UNL A   1      42.652  21.044  26.350  1.00  0.00     0.135 A 
ATOM     63  F   UNL A   1      44.460  24.030  25.327  1.00  0.00    -0.206 F 
ATOM     64  C   UNL A   1      44.735  21.792  24.698  1.00  0.00     0.059 A 
ATOM     65  C   UNL A   1      43.348  20.062  25.650  1.00  0.00     0.059 A 
ATOM     66  F   UNL A   1      41.633  20.618  27.116  1.00  0.00    -0.206 F 
ATOM     67  C   UNL A   1      44.409  20.442  24.843  1.00  0.00     0.060 A 
BRANCH  67  68
ATOM     68  S   UNL A   1      45.430  19.184  24.041  1.00  0.00     0.124 S 
ATOM     69  O   UNL A   1      45.337  18.080  24.991  1.00  0.00    -0.237 OA
ATOM     70  O   UNL A   1      44.745  18.990  22.769  1.00  0.00    -0.237 OA
ATOM     71  O   UNL A   1      46.743  19.817  23.949  1.00  0.00    -0.744 OA
ENDBRANCH  67  68
ENDBRANCH  46  60
BRANCH  47  72
ATOM     72  C   UNL A   1      43.847  29.055  34.602  1.00  0.00     0.058 A 
ATOM     73  C   UNL A   1      42.806  28.917  35.567  1.00  0.00     0.135 A 
ATOM     74  C   UNL A   1      44.923  29.838  35.045  1.00  0.00     0.135 A 
ATOM     75  F   UNL A   1      41.809  28.037  35.404  1.00  0.00    -0.206 F 
ATOM     76  C   UNL A   1      42.703  29.694  36.716  1.00  0.00     0.059 A 
ATOM     77  C   UNL A   1      44.873  30.591  36.234  1.00  0.00     0.059 A 
ATOM     78  F   UNL A   1      46.062  29.909  34.346  1.00  0.00    -0.206 F 
ATOM     79  C   UNL A   1      43.719  30.581  37.012  1.00  0.00     0.060 A 
BRANCH  79  80
ATOM     80  S   UNL A   1      43.477  31.725  38.386  1.00  0.00     0.124 S 
ATOM     81  O   UNL A   1      44.001  32.966  37.822  1.00  0.00    -0.237 OA
ATOM     82  O   UNL A   1      42.031  31.686  38.588  1.00  0.00    -0.237 OA
ATOM     83  O   UNL A   1      44.272  31.137  39.458  1.00  0.00    -0.744 OA
ENDBRANCH  79  80
ENDBRANCH  47  72
BRANCH  59  84
ATOM     84  C   UNL A   1      45.788  26.483  29.230  1.00  0.00     0.058 A 
ATOM     85  C   UNL A   1      44.937  27.170  28.346  1.00  0.00     0.135 A 
ATOM     86  C   UNL A   1      47.156  26.764  29.109  1.00  0.00     0.135 A 
ATOM     87  F   UNL A   1      43.616  27.008  28.411  1.00  0.00    -0.206 F 
ATOM     88  C   UNL A   1      45.411  28.051  27.368  1.00  0.00     0.059 A 
ATOM     89  C   UNL A   1      47.658  27.648  28.149  1.00  0.00     0.059 A 
ATOM     90  F   UNL A   1      48.034  26.156  29.922  1.00  0.00    -0.206 F 
ATOM     91  C   UNL A   1      46.779  28.280  27.272  1.00  0.00     0.060 A 
BRANCH  91  92
ATOM     92  S   UNL A   1      47.389  29.367  25.963  1.00  0.00     0.124 S 
ATOM     93  O   UNL A   1      47.558  30.635  26.668  1.00  0.00    -0.237 OA
ATOM     94  O   UNL A   1      48.627  28.706  25.561  1.00  0.00    -0.237 OA
ATOM     95  O   UNL A   1      46.318  29.344  24.971  1.00  0.00    -0.744 OA
ENDBRANCH  91  92
ENDBRANCH  59  84
ENDBRANCH  33  34
ENDBRANCH  25  28
ENDBRANCH  23  24
ENDBRANCH  22  23
ENDBRANCH   1  22
TORSDOF 18
ENDMDL
MODEL 2
REMARK VINA RESULT:     -11.5      2.891      9.151
REMARK SMILES O=C(Cc1cccn1-c1ccccc1F)NCCCCCCNC(=O)c1ccc(-c2c3nc(c(-c4c(F)cc(S(=O)(=O)[O-])cc4F)c4ccc([nH]4)c(-c4c(F)cc(S(=O)(=O)[O-])cc4F)c4nc(c(-c5c(F)cc(S(=O)(=O)[O-])cc5F)c5ccc2[nH]5)C=C4)C=C3)cc1
REMARK SMILES IDX 20 1 19 2 18 3 17 4 16 5 1 6 2 7 3 9 4 10 5 11 8 12 6 13
REMARK SMILES IDX 7 14 9 15 10 16 14 17 11 18 13 19 15 20 12 21 21 22 22 23
REMARK SMILES IDX 23 24 24 25 25 27 26 28 27 29 91 30 28 31 90 32 29 33 30 34
REMARK SMILES IDX 31 35 84 36 32 37 89 38 83 39 85 40 33 41 88 42 82 43 81 44
REMARK SMILES IDX 34 46 68 47 47 48 67 49 48 50 51 51 66 52 86 53 49 54 50 55
REMARK SMILES IDX 65 57 87 58 52 59 35 60 36 61 45 62 37 63 38 64 44 65 46 66
REMARK SMILES IDX 39 67 40 68 41 69 42 70 43 71 69 72 70 73 79 74 71 75 72 76
REMARK SMILES IDX 78 77 80 78 73 79 74 80 75 81 76 82 77 83 53 84 54 85 63 86
REMARK SMILES IDX 55 87 56 88 62 89 64 90 57 91 58 92 59 93 60 94 61 95
REMARK H PARENT 16 8 23 26 85 45 51 56
REMARK Flexibility Score: inf
ROOT
ATOM      1  C   UNL A   1      32.888  28.154  24.888  1.00  0.00     0.002 C 
ENDROOT
BRANCH   1   2
ATOM      2  C   UNL A   1      32.890  26.828  24.122  1.00  0.00     0.002 C 
BRANCH   2   3
ATOM      3  C   UNL A   1      33.136  26.936  22.611  1.00  0.00     0.021 C 
BRANCH   3   4
ATOM      4  C   UNL A   1      32.344  25.951  21.749  1.00  0.00     0.116 C 
BRANCH   4   5
ATOM      5  N   UNL A   1      32.035  24.734  22.471  1.00  0.00    -0.356 N 
ATOM      6  O   UNL A   1      33.880  23.539  21.802  1.00  0.00    -0.275 OA
ATOM      7  C   UNL A   1      32.826  23.607  22.429  1.00  0.00     0.225 C 
ATOM      8  H   UNL A   1      31.218  24.711  23.020  1.00  0.00     0.163 HD
BRANCH   7   9
ATOM      9  C   UNL A   1      32.271  22.436  23.231  1.00  0.00     0.154 C 
BRANCH   9  10
ATOM     10  C   UNL A   1      32.231  22.775  24.695  1.00  0.00     0.032 A 
ATOM     11  C   UNL A   1      31.100  23.109  25.427  1.00  0.00     0.024 A 
ATOM     12  N   UNL A   1      33.297  22.687  25.587  1.00  0.00    -0.318 N 
ATOM     13  C   UNL A   1      31.448  23.132  26.789  1.00  0.00     0.020 A 
ATOM     14  C   UNL A   1      32.783  22.818  26.866  1.00  0.00     0.091 A 
BRANCH  12  15
ATOM     15  C   UNL A   1      34.673  22.468  25.320  1.00  0.00     0.081 A 
ATOM     16  C   UNL A   1      35.155  21.152  25.243  1.00  0.00     0.030 A 
ATOM     17  C   UNL A   1      35.565  23.531  25.174  1.00  0.00     0.147 A 
ATOM     18  C   UNL A   1      36.507  20.919  24.976  1.00  0.00     0.002 A 
ATOM     19  C   UNL A   1      36.910  23.296  24.897  1.00  0.00     0.041 A 
ATOM     20  F   UNL A   1      35.177  24.798  25.371  1.00  0.00    -0.205 F 
ATOM     21  C   UNL A   1      37.381  21.989  24.789  1.00  0.00     0.003 A 
ENDBRANCH  12  15
ENDBRANCH   9  10
ENDBRANCH   7   9
ENDBRANCH   4   5
ENDBRANCH   3   4
ENDBRANCH   2   3
ENDBRANCH   1   2
BRANCH   1  22
ATOM     22  C   UNL A   1      34.031  28.340  25.891  1.00  0.00     0.021 C 
BRANCH  22  23
ATOM     23  C   UNL A   1      33.551  28.598  27.317  1.00  0.00     0.116 C 
BRANCH  23  24
ATOM     24  N   UNL A   1      33.510  30.025  27.616  1.00  0.00    -0.352 N 
ATOM     25  C   UNL A   1      34.432  30.790  28.292  1.00  0.00     0.251 C 
ATOM     26  H   UNL A   1      32.715  30.506  27.291  1.00  0.00     0.163 HD
ATOM     27  O   UNL A   1      34.109  31.875  28.751  1.00  0.00    -0.269 OA
BRANCH  25  28
ATOM     28  C   UNL A   1      35.806  30.286  28.473  1.00  0.00     0.039 A 
ATOM     29  C   UNL A   1      36.688  30.324  27.388  1.00  0.00     0.014 A 
ATOM     30  C   UNL A   1      36.203  29.747  29.702  1.00  0.00     0.014 A 
ATOM     31  C   UNL A   1      37.998  29.893  27.561  1.00  0.00     0.010 A 
ATOM     32  C   UNL A   1      37.518  29.357  29.890  1.00  0.00     0.010 A 
ATOM     33  C   UNL A   1      38.415  29.438  28.820  1.00  0.00    -0.014 A 
BRANCH  33  34
ATOM     34  C   UNL A   1      39.843  29.131  29.044  1.00  0.00     0.031 A 
ATOM     35  C   UNL A   1      40.594  30.331  29.670  1.00  0.00     0.074 A 
ATOM     36  C   UNL A   1      40.242  27.878  28.664  1.00  0.00     0.049 A 
ATOM     37  N   UNL A   1      41.826  30.713  29.534  1.00  0.00    -0.248 NA
ATOM     38  C   UNL A   1      39.829  31.310  30.493  1.00  0.00     0.031 C 
ATOM     39  C   UNL A   1      39.341  26.847  28.095  1.00  0.00     0.029 A 
ATOM     40  N   UNL A   1      41.442  27.200  28.673  1.00  0.00    -0.354 N 
ATOM     41  C   UNL A   1      42.035  31.832  30.380  1.00  0.00     0.074 A 
ATOM     42  C   UNL A   1      40.740  32.224  30.845  1.00  0.00     0.031 C 
ATOM     43  C   UNL A   1      40.026  25.737  27.751  1.00  0.00     0.029 A 
ATOM     44  C   UNL A   1      41.429  25.918  28.056  1.00  0.00     0.049 A 
ATOM     45  H   UNL A   1      42.254  27.577  29.081  1.00  0.00     0.167 HD
ATOM     46  C   UNL A   1      43.278  32.285  30.739  1.00  0.00     0.037 A 
ATOM     47  C   UNL A   1      42.484  25.096  27.752  1.00  0.00     0.037 A 
ATOM     48  C   UNL A   1      44.269  31.442  30.159  1.00  0.00     0.049 A 
ATOM     49  C   UNL A   1      43.662  25.772  28.321  1.00  0.00     0.074 A 
ATOM     50  C   UNL A   1      44.728  31.300  28.877  1.00  0.00     0.029 A 
ATOM     51  N   UNL A   1      44.639  30.343  30.898  1.00  0.00    -0.354 N 
ATOM     52  N   UNL A   1      43.927  25.887  29.589  1.00  0.00    -0.248 NA
ATOM     53  C   UNL A   1      44.544  26.503  27.401  1.00  0.00     0.031 C 
ATOM     54  C   UNL A   1      44.910  29.907  28.756  1.00  0.00     0.029 A 
ATOM     55  C   UNL A   1      44.793  29.303  30.014  1.00  0.00     0.049 A 
ATOM     56  H   UNL A   1      44.769  30.308  31.873  1.00  0.00     0.167 HD
ATOM     57  C   UNL A   1      44.792  26.954  29.615  1.00  0.00     0.074 A 
ATOM     58  C   UNL A   1      45.350  27.078  28.287  1.00  0.00     0.031 C 
ATOM     59  C   UNL A   1      44.606  27.958  30.507  1.00  0.00     0.037 A 
BRANCH  46  60
ATOM     60  C   UNL A   1      43.774  33.281  31.761  1.00  0.00     0.058 A 
ATOM     61  C   UNL A   1      44.177  34.586  31.457  1.00  0.00     0.135 A 
ATOM     62  C   UNL A   1      43.498  33.021  33.131  1.00  0.00     0.135 A 
ATOM     63  F   UNL A   1      44.480  34.938  30.200  1.00  0.00    -0.206 F 
ATOM     64  C   UNL A   1      44.207  35.596  32.429  1.00  0.00     0.059 A 
ATOM     65  C   UNL A   1      43.483  34.017  34.105  1.00  0.00     0.059 A 
ATOM     66  F   UNL A   1      43.167  31.784  33.543  1.00  0.00    -0.206 F 
ATOM     67  C   UNL A   1      43.815  35.312  33.739  1.00  0.00     0.060 A 
BRANCH  67  68
ATOM     68  S   UNL A   1      43.659  36.657  34.938  1.00  0.00     0.124 S 
ATOM     69  O   UNL A   1      44.235  36.053  36.135  1.00  0.00    -0.237 OA
ATOM     70  O   UNL A   1      44.444  37.719  34.318  1.00  0.00    -0.237 OA
ATOM     71  O   UNL A   1      42.220  36.901  34.993  1.00  0.00    -0.744 OA
ENDBRANCH  67  68
ENDBRANCH  46  60
BRANCH  47  72
ATOM     72  C   UNL A   1      42.746  23.893  26.861  1.00  0.00     0.058 A 
ATOM     73  C   UNL A   1      42.677  22.584  27.422  1.00  0.00     0.135 A 
ATOM     74  C   UNL A   1      43.214  23.914  25.539  1.00  0.00     0.135 A 
ATOM     75  F   UNL A   1      42.057  22.351  28.587  1.00  0.00    -0.206 F 
ATOM     76  C   UNL A   1      43.271  21.463  26.853  1.00  0.00     0.059 A 
ATOM     77  C   UNL A   1      43.767  22.780  24.913  1.00  0.00     0.059 A 
ATOM     78  F   UNL A   1      43.157  25.029  24.801  1.00  0.00    -0.206 F 
ATOM     79  C   UNL A   1      43.873  21.583  25.617  1.00  0.00     0.060 A 
BRANCH  79  80
ATOM     80  S   UNL A   1      44.816  20.179  24.988  1.00  0.00     0.124 S 
ATOM     81  O   UNL A   1      44.145  19.063  25.648  1.00  0.00    -0.237 OA
ATOM     82  O   UNL A   1      44.610  20.273  23.545  1.00  0.00    -0.237 OA
ATOM     83  O   UNL A   1      46.174  20.454  25.444  1.00  0.00    -0.744 OA
ENDBRANCH  79  80
ENDBRANCH  47  72
BRANCH  59  84
ATOM     84  C   UNL A   1      43.911  27.573  31.796  1.00  0.00     0.058 A 
ATOM     85  C   UNL A   1      42.614  27.979  32.157  1.00  0.00     0.135 A 
ATOM     86  C   UNL A   1      44.564  26.725  32.702  1.00  0.00     0.135 A 
ATOM     87  F   UNL A   1      41.892  28.746  31.341  1.00  0.00    -0.206 F 
ATOM     88  C   UNL A   1      42.011  27.609  33.363  1.00  0.00     0.059 A 
ATOM     89  C   UNL A   1      43.982  26.330  33.911  1.00  0.00     0.059 A 
ATOM     90  F   UNL A   1      45.802  26.284  32.428  1.00  0.00    -0.206 F 
ATOM     91  C   UNL A   1      42.708  26.786  34.241  1.00  0.00     0.060 A 
BRANCH  91  92
ATOM     92  S   UNL A   1      41.950  26.367  35.827  1.00  0.00     0.124 S 
ATOM     93  O   UNL A   1      40.669  25.799  35.417  1.00  0.00    -0.237 OA
ATOM     94  O   UNL A   1      42.904  25.415  36.388  1.00  0.00    -0.237 OA
ATOM     95  O   UNL A   1      41.869  27.651  36.519  1.00  0.00    -0.744 OA
ENDBRANCH  91  92
ENDBRANCH  59  84
ENDBRANCH  33  34
ENDBRANCH  25  28
ENDBRANCH  23  24
ENDBRANCH  22  23
ENDBRANCH   1  22
TORSDOF 18
ENDMDL
MODEL 3
REMARK VINA RESULT:     -11.5      3.062      9.358
REMARK SMILES O=C(Cc1cccn1-c1ccccc1F)NCCCCCCNC(=O)c1ccc(-c2c3nc(c(-c4c(F)cc(S(=O)(=O)[O-])cc4F)c4ccc([nH]4)c(-c4c(F)cc(S(=O)(=O)[O-])cc4F)c4nc(c(-c5c(F)cc(S(=O)(=O)[O-])cc5F)c5ccc2[nH]5)C=C4)C=C3)cc1
REMARK SMILES IDX 20 1 19 2 18 3 17 4 16 5 1 6 2 7 3 9 4 10 5 11 8 12 6 13
REMARK SMILES IDX 7 14 9 15 10 16 14 17 11 18 13 19 15 20 12 21 21 22 22 23
REMARK SMILES IDX 23 24 24 25 25 27 26 28 27 29 91 30 28 31 90 32 29 33 30 34
REMARK SMILES IDX 31 35 84 36 32 37 89 38 83 39 85 40 33 41 88 42 82 43 81 44
REMARK SMILES IDX 34 46 68 47 47 48 67 49 48 50 51 51 66 52 86 53 49 54 50 55
REMARK SMILES IDX 65 57 87 58 52 59 35 60 36 61 45 62 37 63 38 64 44 65 46 66
REMARK SMILES IDX 39 67 40 68 41 69 42 70 43 71 69 72 70 73 79 74 71 75 72 76
REMARK SMILES IDX 78 77 80 78 73 79 74 80 75 81 76 82 77 83 53 84 54 85 63 86
REMARK SMILES IDX 55 87 56 88 62 89 64 90 57 91 58 92 59 93 60 94 61 95
REMARK H PARENT 16 8 23 26 85 45 51 56
REMARK Flexibility Score: inf
ROOT
ATOM      1  C   UNL A   1      31.386  28.461  25.870  1.00  0.00     0.002 C 
ENDROOT
BRANCH   1   2
ATOM      2  C   UNL A   1      31.637  27.435  24.760  1.00  0.00     0.002 C 
BRANCH   2   3
ATOM      3  C   UNL A   1      30.394  26.990  23.977  1.00  0.00     0.021 C 
BRANCH   3   4
ATOM      4  C   UNL A   1      29.943  25.550  24.231  1.00  0.00     0.116 C 
BRANCH   4   5
ATOM      5  N   UNL A   1      30.953  24.790  24.940  1.00  0.00    -0.356 N 
ATOM      6  O   UNL A   1      29.731  24.419  26.851  1.00  0.00    -0.275 OA
ATOM      7  C   UNL A   1      30.772  24.293  26.212  1.00  0.00     0.225 C 
ATOM      8  H   UNL A   1      31.812  24.620  24.490  1.00  0.00     0.163 HD
BRANCH   7   9
ATOM      9  C   UNL A   1      31.993  23.569  26.768  1.00  0.00     0.154 C 
BRANCH   9  10
ATOM     10  C   UNL A   1      33.204  23.858  25.925  1.00  0.00     0.032 A 
ATOM     11  C   UNL A   1      33.968  25.015  25.961  1.00  0.00     0.024 A 
ATOM     12  N   UNL A   1      33.833  22.966  25.061  1.00  0.00    -0.318 N 
ATOM     13  C   UNL A   1      35.127  24.802  25.192  1.00  0.00     0.020 A 
ATOM     14  C   UNL A   1      35.047  23.523  24.696  1.00  0.00     0.091 A 
BRANCH  12  15
ATOM     15  C   UNL A   1      33.399  21.690  24.616  1.00  0.00     0.081 A 
ATOM     16  C   UNL A   1      33.792  20.546  25.328  1.00  0.00     0.030 A 
ATOM     17  C   UNL A   1      32.625  21.544  23.465  1.00  0.00     0.147 A 
ATOM     18  C   UNL A   1      33.369  19.283  24.908  1.00  0.00     0.002 A 
ATOM     19  C   UNL A   1      32.194  20.285  23.053  1.00  0.00     0.041 A 
ATOM     20  F   UNL A   1      32.337  22.592  22.682  1.00  0.00    -0.205 F 
ATOM     21  C   UNL A   1      32.559  19.153  23.779  1.00  0.00     0.003 A 
ENDBRANCH  12  15
ENDBRANCH   9  10
ENDBRANCH   7   9
ENDBRANCH   4   5
ENDBRANCH   3   4
ENDBRANCH   2   3
ENDBRANCH   1   2
BRANCH   1  22
ATOM     22  C   UNL A   1      32.038  28.148  27.219  1.00  0.00     0.021 C 
BRANCH  22  23
ATOM     23  C   UNL A   1      33.442  28.730  27.365  1.00  0.00     0.116 C 
BRANCH  23  24
ATOM     24  N   UNL A   1      33.400  30.158  27.652  1.00  0.00    -0.352 N 
ATOM     25  C   UNL A   1      34.314  30.928  28.333  1.00  0.00     0.251 C 
ATOM     26  H   UNL A   1      32.610  30.638  27.312  1.00  0.00     0.163 HD
ATOM     27  O   UNL A   1      33.986  32.018  28.779  1.00  0.00    -0.269 OA
BRANCH  25  28
ATOM     28  C   UNL A   1      35.685  30.423  28.537  1.00  0.00     0.039 A 
ATOM     29  C   UNL A   1      36.593  30.488  27.476  1.00  0.00     0.014 A 
ATOM     30  C   UNL A   1      36.052  29.858  29.763  1.00  0.00     0.014 A 
ATOM     31  C   UNL A   1      37.900  30.056  27.671  1.00  0.00     0.010 A 
ATOM     32  C   UNL A   1      37.363  29.467  29.975  1.00  0.00     0.010 A 
ATOM     33  C   UNL A   1      38.286  29.574  28.930  1.00  0.00    -0.014 A 
BRANCH  33  34
ATOM     34  C   UNL A   1      39.709  29.266  29.183  1.00  0.00     0.031 A 
ATOM     35  C   UNL A   1      40.454  30.472  29.802  1.00  0.00     0.074 A 
ATOM     36  C   UNL A   1      40.109  28.005  28.829  1.00  0.00     0.049 A 
ATOM     37  N   UNL A   1      41.690  30.847  29.681  1.00  0.00    -0.248 NA
ATOM     38  C   UNL A   1      39.679  31.467  30.597  1.00  0.00     0.031 C 
ATOM     39  C   UNL A   1      39.214  26.968  28.260  1.00  0.00     0.029 A 
ATOM     40  N   UNL A   1      41.307  27.323  28.868  1.00  0.00    -0.354 N 
ATOM     41  C   UNL A   1      41.889  31.979  30.513  1.00  0.00     0.074 A 
ATOM     42  C   UNL A   1      40.588  32.383  30.950  1.00  0.00     0.031 C 
ATOM     43  C   UNL A   1      39.901  25.851  27.946  1.00  0.00     0.029 A 
ATOM     44  C   UNL A   1      41.299  26.031  28.271  1.00  0.00     0.049 A 
ATOM     45  H   UNL A   1      42.113  27.704  29.284  1.00  0.00     0.167 HD
ATOM     46  C   UNL A   1      43.128  32.433  30.885  1.00  0.00     0.037 A 
ATOM     47  C   UNL A   1      42.356  25.201  27.998  1.00  0.00     0.037 A 
ATOM     48  C   UNL A   1      44.125  31.577  30.335  1.00  0.00     0.049 A 
ATOM     49  C   UNL A   1      43.527  25.882  28.576  1.00  0.00     0.074 A 
ATOM     50  C   UNL A   1      44.605  31.414  29.063  1.00  0.00     0.029 A 
ATOM     51  N   UNL A   1      44.479  30.488  31.097  1.00  0.00    -0.354 N 
ATOM     52  N   UNL A   1      43.771  26.016  29.846  1.00  0.00    -0.248 NA
ATOM     53  C   UNL A   1      44.427  26.595  27.659  1.00  0.00     0.031 C 
ATOM     54  C   UNL A   1      44.783  30.018  28.967  1.00  0.00     0.029 A 
ATOM     55  C   UNL A   1      44.643  29.435  30.232  1.00  0.00     0.049 A 
ATOM     56  H   UNL A   1      44.592  30.468  32.074  1.00  0.00     0.167 HD
ATOM     57  C   UNL A   1      44.640  27.080  29.870  1.00  0.00     0.074 A 
ATOM     58  C   UNL A   1      45.220  27.181  28.549  1.00  0.00     0.031 C 
ATOM     59  C   UNL A   1      44.443  28.098  30.742  1.00  0.00     0.037 A 
BRANCH  46  60
ATOM     60  C   UNL A   1      43.611  33.443  31.899  1.00  0.00     0.058 A 
ATOM     61  C   UNL A   1      44.042  34.735  31.580  1.00  0.00     0.135 A 
ATOM     62  C   UNL A   1      43.293  33.216  33.267  1.00  0.00     0.135 A 
ATOM     63  F   UNL A   1      44.385  35.055  30.325  1.00  0.00    -0.206 F 
ATOM     64  C   UNL A   1      44.061  35.765  32.531  1.00  0.00     0.059 A 
ATOM     65  C   UNL A   1      43.266  34.233  34.218  1.00  0.00     0.059 A 
ATOM     66  F   UNL A   1      42.932  31.994  33.694  1.00  0.00    -0.206 F 
ATOM     67  C   UNL A   1      43.628  35.515  33.835  1.00  0.00     0.060 A 
BRANCH  67  68
ATOM     68  S   UNL A   1      43.460  36.887  35.001  1.00  0.00     0.124 S 
ATOM     69  O   UNL A   1      42.521  37.756  34.299  1.00  0.00    -0.237 OA
ATOM     70  O   UNL A   1      42.945  36.223  36.192  1.00  0.00    -0.237 OA
ATOM     71  O   UNL A   1      44.820  37.406  35.117  1.00  0.00    -0.744 OA
ENDBRANCH  67  68
ENDBRANCH  46  60
BRANCH  47  72
ATOM     72  C   UNL A   1      42.628  23.984  27.129  1.00  0.00     0.058 A 
ATOM     73  C   UNL A   1      42.953  22.744  27.754  1.00  0.00     0.135 A 
ATOM     74  C   UNL A   1      42.753  23.959  25.733  1.00  0.00     0.135 A 
ATOM     75  F   UNL A   1      42.686  22.517  29.048  1.00  0.00    -0.206 F 
ATOM     76  C   UNL A   1      43.602  21.696  27.110  1.00  0.00     0.059 A 
ATOM     77  C   UNL A   1      43.353  22.887  25.045  1.00  0.00     0.059 A 
ATOM     78  F   UNL A   1      42.305  24.970  24.979  1.00  0.00    -0.206 F 
ATOM     79  C   UNL A   1      43.856  21.802  25.757  1.00  0.00     0.060 A 
BRANCH  79  80
ATOM     80  S   UNL A   1      44.877  20.533  24.981  1.00  0.00     0.124 S 
ATOM     81  O   UNL A   1      46.204  20.888  25.477  1.00  0.00    -0.237 OA
ATOM     82  O   UNL A   1      44.316  19.295  25.514  1.00  0.00    -0.237 OA
ATOM     83  O   UNL A   1      44.661  20.753  23.555  1.00  0.00    -0.744 OA
ENDBRANCH  79  80
ENDBRANCH  47  72
BRANCH  59  84
ATOM     84  C   UNL A   1      43.725  27.735  32.025  1.00  0.00     0.058 A 
ATOM     85  C   UNL A   1      42.400  28.096  32.330  1.00  0.00     0.135 A 
ATOM     86  C   UNL A   1      44.385  26.957  32.987  1.00  0.00     0.135 A 
ATOM     87  F   UNL A   1      41.671  28.795  31.460  1.00  0.00    -0.206 F 
ATOM     88  C   UNL A   1      41.777  27.750  33.532  1.00  0.00     0.059 A 
ATOM     89  C   UNL A   1      43.784  26.586  34.193  1.00  0.00     0.059 A 
ATOM     90  F   UNL A   1      45.650  26.563  32.769  1.00  0.00    -0.206 F 
ATOM     91  C   UNL A   1      42.481  26.997  34.465  1.00  0.00     0.060 A 
BRANCH  91  92
ATOM     92  S   UNL A   1      41.692  26.610  36.045  1.00  0.00     0.124 S 
ATOM     93  O   UNL A   1      42.829  26.204  36.866  1.00  0.00    -0.237 OA
ATOM     94  O   UNL A   1      41.082  27.885  36.410  1.00  0.00    -0.237 OA
ATOM     95  O   UNL A   1      40.754  25.543  35.707  1.00  0.00    -0.744 OA
ENDBRANCH  91  92
ENDBRANCH  59  84
ENDBRANCH  33  34
ENDBRANCH  25  28
ENDBRANCH  23  24
ENDBRANCH  22  23
ENDBRANCH   1  22
TORSDOF 18
ENDMDL
