MODEL 1
REMARK VINA RESULT:     -11.5      0.000      0.000
REMARK SMILES Cc1cc(C[N@@H+]2CC[C@@H](C(=O)NCCCCCCNC(=O)c3ccc(-c4c5nc(c(-c6c(F)cc(S(=O)(=O)[O-])cc6F)c6ccc([nH]6)c(-c6c(F)cc(S(=O)(=O)[O-])cc6F)c6nc(c(-c7c(F)cc(S(=O)(=O)[O-])cc7F)c7ccc4[nH]7)C=C6)C=C5)cc3)C2)ccc1Br
REMARK SMILES IDX 16 1 15 2 14 3 13 4 12 5 10 6 11 7 9 9 6 10 7 11 88 12 8 14
REMARK SMILES IDX 5 15 4 16 1 17 2 18 3 19 91 20 90 21 92 22 89 23 17 24 18 25
REMARK SMILES IDX 19 26 20 27 21 29 22 30 23 31 87 32 24 33 86 34 25 35 26 36
REMARK SMILES IDX 27 37 80 38 28 39 85 40 79 41 81 42 29 43 84 44 78 45 77 46
REMARK SMILES IDX 30 48 64 49 43 50 63 51 44 52 47 53 62 54 82 55 45 56 46 57
REMARK SMILES IDX 61 59 83 60 48 61 31 62 32 63 41 64 33 65 34 66 40 67 42 68
REMARK SMILES IDX 35 69 36 70 37 71 38 72 39 73 65 74 66 75 75 76 67 77 68 78
REMARK SMILES IDX 74 79 76 80 69 81 70 82 71 83 72 84 73 85 49 86 50 87 59 88
REMARK SMILES IDX 51 89 52 90 58 91 60 92 53 93 54 94 55 95 56 96 57 97
REMARK H PARENT 12 8 6 13 19 28 81 47 47 58
REMARK Flexibility Score: inf
ROOT
ATOM      1  C   UNL A   1      37.811  23.694  25.774  1.00  0.00     0.002 C 
ENDROOT
BRANCH   1   2
ATOM      2  C   UNL A   1      36.345  23.248  25.756  1.00  0.00     0.002 C 
BRANCH   2   3
ATOM      3  C   UNL A   1      36.099  21.744  25.809  1.00  0.00     0.021 C 
BRANCH   3   4
ATOM      4  C   UNL A   1      35.487  21.129  24.565  1.00  0.00     0.116 C 
BRANCH   4   5
ATOM      5  N   UNL A   1      34.322  20.306  24.778  1.00  0.00    -0.356 N 
ATOM      6  C   UNL A   1      33.038  20.718  24.999  1.00  0.00     0.229 C 
ATOM      7  O   UNL A   1      32.178  19.845  25.157  1.00  0.00    -0.275 OA
ATOM      8  H   UNL A   1      34.469  19.333  24.763  1.00  0.00     0.163 HD
BRANCH   6   9
ATOM      9  C   UNL A   1      32.652  22.201  25.093  1.00  0.00     0.139 C 
ATOM     10  N   UNL A   1      30.623  23.459  24.729  1.00  0.00    -0.330 N 
ATOM     11  C   UNL A   1      30.690  23.164  26.159  1.00  0.00     0.263 C 
ATOM     12  C   UNL A   1      31.626  22.630  24.048  1.00  0.00     0.276 C 
ATOM     13  H   UNL A   1      29.701  23.199  24.378  1.00  0.00     0.348 HD
ATOM     14  C   UNL A   1      32.109  22.680  26.435  1.00  0.00     0.081 C 
BRANCH  10  15
ATOM     15  C   UNL A   1      30.622  24.886  24.381  1.00  0.00     0.299 C 
BRANCH  15  16
ATOM     16  C   UNL A   1      31.588  25.779  25.136  1.00  0.00     0.007 A 
ATOM     17  C   UNL A   1      31.474  28.574  27.720  1.00  0.00     0.045 C 
ATOM     18  C   UNL A   1      32.008  27.619  26.692  1.00  0.00    -0.036 A 
ATOM     19  C   UNL A   1      31.122  26.742  26.040  1.00  0.00     0.014 A 
ATOM     20  C   UNL A   1      33.370  27.574  26.356  1.00  0.00     0.020 A 
ATOM     21  C   UNL A   1      33.852  26.586  25.503  1.00  0.00     0.016 A 
ATOM     22  Br  UNL A   1      34.620  28.838  27.021  1.00  0.00    -0.051 Br
ATOM     23  C   UNL A   1      32.972  25.661  24.947  1.00  0.00     0.011 A 
ENDBRANCH  15  16
ENDBRANCH  10  15
ENDBRANCH   6   9
ENDBRANCH   4   5
ENDBRANCH   3   4
ENDBRANCH   2   3
ENDBRANCH   1   2
BRANCH   1  24
ATOM     24  C   UNL A   1      38.800  22.769  26.493  1.00  0.00     0.021 C 
BRANCH  24  25
ATOM     25  C   UNL A   1      40.027  23.449  27.095  1.00  0.00     0.116 C 
BRANCH  25  26
ATOM     26  N   UNL A   1      40.833  24.128  26.095  1.00  0.00    -0.352 N 
ATOM     27  C   UNL A   1      41.303  25.414  26.072  1.00  0.00     0.251 C 
ATOM     28  H   UNL A   1      41.078  23.580  25.313  1.00  0.00     0.163 HD
ATOM     29  O   UNL A   1      41.818  25.856  25.043  1.00  0.00    -0.269 OA
BRANCH  27  30
ATOM     30  C   UNL A   1      41.182  26.275  27.266  1.00  0.00     0.039 A 
ATOM     31  C   UNL A   1      42.031  27.377  27.393  1.00  0.00     0.014 A 
ATOM     32  C   UNL A   1      40.252  25.987  28.270  1.00  0.00     0.014 A 
ATOM     33  C   UNL A   1      41.910  28.222  28.499  1.00  0.00     0.010 A 
ATOM     34  C   UNL A   1      40.084  26.870  29.334  1.00  0.00     0.010 A 
ATOM     35  C   UNL A   1      40.916  27.992  29.464  1.00  0.00    -0.014 A 
BRANCH  35  36
ATOM     36  C   UNL A   1      40.732  28.914  30.614  1.00  0.00     0.031 A 
ATOM     37  C   UNL A   1      41.589  28.771  31.842  1.00  0.00     0.074 A 
ATOM     38  C   UNL A   1      39.759  29.844  30.570  1.00  0.00     0.049 A 
ATOM     39  N   UNL A   1      41.543  29.442  32.964  1.00  0.00    -0.248 NA
ATOM     40  C   UNL A   1      42.618  27.719  31.814  1.00  0.00     0.031 C 
ATOM     41  C   UNL A   1      38.838  30.053  29.450  1.00  0.00     0.029 A 
ATOM     42  N   UNL A   1      39.374  30.784  31.493  1.00  0.00    -0.354 N 
ATOM     43  C   UNL A   1      42.527  28.890  33.777  1.00  0.00     0.074 A 
ATOM     44  C   UNL A   1      43.111  27.790  33.042  1.00  0.00     0.031 C 
ATOM     45  C   UNL A   1      38.017  31.075  29.739  1.00  0.00     0.029 A 
ATOM     46  C   UNL A   1      38.323  31.568  31.079  1.00  0.00     0.049 A 
ATOM     47  H   UNL A   1      39.811  30.888  32.370  1.00  0.00     0.167 HD
ATOM     48  C   UNL A   1      42.924  29.282  35.012  1.00  0.00     0.037 A 
ATOM     49  C   UNL A   1      37.674  32.566  31.709  1.00  0.00     0.037 A 
ATOM     50  C   UNL A   1      42.343  30.387  35.730  1.00  0.00     0.049 A 
ATOM     51  C   UNL A   1      38.117  32.967  33.091  1.00  0.00     0.074 A 
ATOM     52  C   UNL A   1      42.700  30.891  36.969  1.00  0.00     0.029 A 
ATOM     53  N   UNL A   1      41.281  31.157  35.277  1.00  0.00    -0.354 N 
ATOM     54  N   UNL A   1      39.085  32.471  33.824  1.00  0.00    -0.248 NA
ATOM     55  C   UNL A   1      37.383  34.067  33.730  1.00  0.00     0.031 C 
ATOM     56  C   UNL A   1      41.823  31.934  37.285  1.00  0.00     0.029 A 
ATOM     57  C   UNL A   1      40.955  32.118  36.221  1.00  0.00     0.049 A 
ATOM     58  H   UNL A   1      40.826  31.038  34.413  1.00  0.00     0.167 HD
ATOM     59  C   UNL A   1      39.097  33.218  34.996  1.00  0.00     0.074 A 
ATOM     60  C   UNL A   1      38.044  34.206  34.870  1.00  0.00     0.031 C 
ATOM     61  C   UNL A   1      39.907  33.099  36.078  1.00  0.00     0.037 A 
BRANCH  48  62
ATOM     62  C   UNL A   1      44.041  28.507  35.660  1.00  0.00     0.058 A 
ATOM     63  C   UNL A   1      45.389  28.844  35.452  1.00  0.00     0.135 A 
ATOM     64  C   UNL A   1      43.763  27.425  36.511  1.00  0.00     0.135 A 
ATOM     65  F   UNL A   1      45.715  29.860  34.638  1.00  0.00    -0.206 F 
ATOM     66  C   UNL A   1      46.421  28.112  36.031  1.00  0.00     0.059 A 
ATOM     67  C   UNL A   1      44.779  26.699  37.127  1.00  0.00     0.059 A 
ATOM     68  F   UNL A   1      42.494  27.060  36.749  1.00  0.00    -0.206 F 
ATOM     69  C   UNL A   1      46.106  27.039  36.865  1.00  0.00     0.060 A 
BRANCH  69  70
ATOM     70  S   UNL A   1      47.457  26.091  37.597  1.00  0.00     0.124 S 
ATOM     71  O   UNL A   1      48.146  27.118  38.371  1.00  0.00    -0.237 OA
ATOM     72  O   UNL A   1      46.744  25.083  38.375  1.00  0.00    -0.237 OA
ATOM     73  O   UNL A   1      48.185  25.585  36.438  1.00  0.00    -0.744 OA
ENDBRANCH  69  70
ENDBRANCH  48  62
BRANCH  49  74
ATOM     74  C   UNL A   1      36.560  33.277  31.026  1.00  0.00     0.058 A 
ATOM     75  C   UNL A   1      36.817  34.200  30.001  1.00  0.00     0.135 A 
ATOM     76  C   UNL A   1      35.221  33.036  31.366  1.00  0.00     0.135 A 
ATOM     77  F   UNL A   1      38.082  34.470  29.644  1.00  0.00    -0.206 F 
ATOM     78  C   UNL A   1      35.789  34.870  29.348  1.00  0.00     0.059 A 
ATOM     79  C   UNL A   1      34.172  33.673  30.710  1.00  0.00     0.059 A 
ATOM     80  F   UNL A   1      34.919  32.150  32.328  1.00  0.00    -0.206 F 
ATOM     81  C   UNL A   1      34.467  34.597  29.707  1.00  0.00     0.060 A 
BRANCH  81  82
ATOM     82  S   UNL A   1      33.138  35.433  28.816  1.00  0.00     0.124 S 
ATOM     83  O   UNL A   1      33.888  36.329  27.943  1.00  0.00    -0.237 OA
ATOM     84  O   UNL A   1      32.461  34.319  28.161  1.00  0.00    -0.237 OA
ATOM     85  O   UNL A   1      32.378  36.080  29.881  1.00  0.00    -0.744 OA
ENDBRANCH  81  82
ENDBRANCH  49  74
BRANCH  61  86
ATOM     86  C   UNL A   1      39.715  34.084  37.198  1.00  0.00     0.058 A 
ATOM     87  C   UNL A   1      38.905  33.796  38.308  1.00  0.00     0.135 A 
ATOM     88  C   UNL A   1      40.392  35.315  37.184  1.00  0.00     0.135 A 
ATOM     89  F   UNL A   1      38.229  32.637  38.368  1.00  0.00    -0.206 F 
ATOM     90  C   UNL A   1      38.753  34.703  39.351  1.00  0.00     0.059 A 
ATOM     91  C   UNL A   1      40.280  36.224  38.231  1.00  0.00     0.059 A 
ATOM     92  F   UNL A   1      41.188  35.637  36.153  1.00  0.00    -0.206 F 
ATOM     93  C   UNL A   1      39.447  35.913  39.306  1.00  0.00     0.060 A 
BRANCH  93  94
ATOM     94  S   UNL A   1      39.268  37.064  40.685  1.00  0.00     0.124 S 
ATOM     95  O   UNL A   1      38.357  38.056  40.124  1.00  0.00    -0.237 OA
ATOM     96  O   UNL A   1      38.713  36.212  41.732  1.00  0.00    -0.237 OA
ATOM     97  O   UNL A   1      40.633  37.528  40.920  1.00  0.00    -0.744 OA
ENDBRANCH  93  94
ENDBRANCH  61  86
ENDBRANCH  35  36
ENDBRANCH  27  30
ENDBRANCH  25  26
ENDBRANCH  24  25
ENDBRANCH   1  24
TORSDOF 18
ENDMDL
MODEL 2
REMARK VINA RESULT:     -11.4      4.612     11.446
REMARK SMILES Cc1cc(C[N@@H+]2CC[C@@H](C(=O)NCCCCCCNC(=O)c3ccc(-c4c5nc(c(-c6c(F)cc(S(=O)(=O)[O-])cc6F)c6ccc([nH]6)c(-c6c(F)cc(S(=O)(=O)[O-])cc6F)c6nc(c(-c7c(F)cc(S(=O)(=O)[O-])cc7F)c7ccc4[nH]7)C=C6)C=C5)cc3)C2)ccc1Br
REMARK SMILES IDX 16 1 15 2 14 3 13 4 12 5 10 6 11 7 9 9 6 10 7 11 88 12 8 14
REMARK SMILES IDX 5 15 4 16 1 17 2 18 3 19 91 20 90 21 92 22 89 23 17 24 18 25
REMARK SMILES IDX 19 26 20 27 21 29 22 30 23 31 87 32 24 33 86 34 25 35 26 36
REMARK SMILES IDX 27 37 80 38 28 39 85 40 79 41 81 42 29 43 84 44 78 45 77 46
REMARK SMILES IDX 30 48 64 49 43 50 63 51 44 52 47 53 62 54 82 55 45 56 46 57
REMARK SMILES IDX 61 59 83 60 48 61 31 62 32 63 41 64 33 65 34 66 40 67 42 68
REMARK SMILES IDX 35 69 36 70 37 71 38 72 39 73 65 74 66 75 75 76 67 77 68 78
REMARK SMILES IDX 74 79 76 80 69 81 70 82 71 83 72 84 73 85 49 86 50 87 59 88
REMARK SMILES IDX 51 89 52 90 58 91 60 92 53 93 54 94 55 95 56 96 57 97
REMARK H PARENT 12 8 6 13 19 28 81 47 47 58
REMARK Flexibility Score: inf
ROOT
ATOM      1  C   UNL A   1      34.599  34.757  28.347  1.00  0.00     0.002 C 
ENDROOT
BRANCH   1   2
ATOM      2  C   UNL A   1      33.123  34.913  28.728  1.00  0.00     0.002 C 
BRANCH   2   3
ATOM      3  C   UNL A   1      32.657  36.330  29.046  1.00  0.00     0.021 C 
BRANCH   3   4
ATOM      4  C   UNL A   1      33.653  37.204  29.786  1.00  0.00     0.116 C 
BRANCH   4   5
ATOM      5  N   UNL A   1      33.300  37.549  31.141  1.00  0.00    -0.356 N 
ATOM      6  C   UNL A   1      33.651  36.895  32.288  1.00  0.00     0.229 C 
ATOM      7  O   UNL A   1      33.243  37.361  33.357  1.00  0.00    -0.275 OA
ATOM      8  H   UNL A   1      32.740  38.352  31.252  1.00  0.00     0.163 HD
BRANCH   6   9
ATOM      9  C   UNL A   1      34.485  35.607  32.280  1.00  0.00     0.139 C 
ATOM     10  N   UNL A   1      35.091  33.961  33.941  1.00  0.00    -0.330 N 
ATOM     11  C   UNL A   1      33.907  33.453  33.251  1.00  0.00     0.263 C 
ATOM     12  C   UNL A   1      35.256  35.374  33.576  1.00  0.00     0.276 C 
ATOM     13  H   UNL A   1      34.939  33.906  34.948  1.00  0.00     0.348 HD
ATOM     14  C   UNL A   1      33.732  34.310  32.002  1.00  0.00     0.081 C 
BRANCH  10  15
ATOM     15  C   UNL A   1      36.291  33.121  33.829  1.00  0.00     0.299 C 
BRANCH  15  16
ATOM     16  C   UNL A   1      37.362  33.579  32.858  1.00  0.00     0.007 A 
ATOM     17  C   UNL A   1      38.104  33.401  29.127  1.00  0.00     0.045 C 
ATOM     18  C   UNL A   1      38.290  33.650  30.595  1.00  0.00    -0.036 A 
ATOM     19  C   UNL A   1      37.267  33.289  31.490  1.00  0.00     0.014 A 
ATOM     20  C   UNL A   1      39.459  34.233  31.108  1.00  0.00     0.020 A 
ATOM     21  C   UNL A   1      39.542  34.577  32.454  1.00  0.00     0.016 A 
ATOM     22  Br  UNL A   1      40.978  34.578  30.024  1.00  0.00    -0.051 Br
ATOM     23  C   UNL A   1      38.475  34.304  33.306  1.00  0.00     0.011 A 
ENDBRANCH  15  16
ENDBRANCH  10  15
ENDBRANCH   6   9
ENDBRANCH   4   5
ENDBRANCH   3   4
ENDBRANCH   2   3
ENDBRANCH   1   2
BRANCH   1  24
ATOM     24  C   UNL A   1      35.071  33.340  28.001  1.00  0.00     0.021 C 
BRANCH  24  25
ATOM     25  C   UNL A   1      34.404  32.208  28.778  1.00  0.00     0.116 C 
BRANCH  25  26
ATOM     26  N   UNL A   1      34.042  31.087  27.927  1.00  0.00    -0.352 N 
ATOM     27  C   UNL A   1      34.787  30.006  27.538  1.00  0.00     0.251 C 
ATOM     28  H   UNL A   1      33.122  31.109  27.576  1.00  0.00     0.163 HD
ATOM     29  O   UNL A   1      34.357  29.254  26.661  1.00  0.00    -0.269 OA
BRANCH  27  30
ATOM     30  C   UNL A   1      36.106  29.748  28.152  1.00  0.00     0.039 A 
ATOM     31  C   UNL A   1      36.158  29.242  29.453  1.00  0.00     0.014 A 
ATOM     32  C   UNL A   1      37.289  30.023  27.459  1.00  0.00     0.014 A 
ATOM     33  C   UNL A   1      37.394  28.960  30.039  1.00  0.00     0.010 A 
ATOM     34  C   UNL A   1      38.517  29.674  28.016  1.00  0.00     0.010 A 
ATOM     35  C   UNL A   1      38.583  29.146  29.314  1.00  0.00    -0.014 A 
BRANCH  35  36
ATOM     36  C   UNL A   1      39.902  28.794  29.898  1.00  0.00     0.031 A 
ATOM     37  C   UNL A   1      40.412  29.525  31.111  1.00  0.00     0.074 A 
ATOM     38  C   UNL A   1      40.663  27.855  29.303  1.00  0.00     0.049 A 
ATOM     39  N   UNL A   1      41.558  29.399  31.730  1.00  0.00    -0.248 NA
ATOM     40  C   UNL A   1      39.527  30.549  31.689  1.00  0.00     0.031 C 
ATOM     41  C   UNL A   1      40.294  27.106  28.100  1.00  0.00     0.029 A 
ATOM     42  N   UNL A   1      41.906  27.372  29.624  1.00  0.00    -0.354 N 
ATOM     43  C   UNL A   1      41.534  30.330  32.763  1.00  0.00     0.074 A 
ATOM     44  C   UNL A   1      40.288  31.055  32.648  1.00  0.00     0.031 C 
ATOM     45  C   UNL A   1      41.274  26.239  27.802  1.00  0.00     0.029 A 
ATOM     46  C   UNL A   1      42.360  26.397  28.766  1.00  0.00     0.049 A 
ATOM     47  H   UNL A   1      42.426  27.693  30.397  1.00  0.00     0.167 HD
ATOM     48  C   UNL A   1      42.457  30.542  33.733  1.00  0.00     0.037 A 
ATOM     49  C   UNL A   1      43.520  25.713  28.753  1.00  0.00     0.037 A 
ATOM     50  C   UNL A   1      43.689  29.806  33.846  1.00  0.00     0.049 A 
ATOM     51  C   UNL A   1      44.540  25.984  29.826  1.00  0.00     0.074 A 
ATOM     52  C   UNL A   1      44.671  29.916  34.814  1.00  0.00     0.029 A 
ATOM     53  N   UNL A   1      44.112  28.826  32.958  1.00  0.00    -0.354 N 
ATOM     54  N   UNL A   1      44.479  26.830  30.828  1.00  0.00    -0.248 NA
ATOM     55  C   UNL A   1      45.784  25.206  29.772  1.00  0.00     0.031 C 
ATOM     56  C   UNL A   1      45.709  29.037  34.485  1.00  0.00     0.029 A 
ATOM     57  C   UNL A   1      45.350  28.339  33.343  1.00  0.00     0.049 A 
ATOM     58  H   UNL A   1      43.606  28.523  32.170  1.00  0.00     0.167 HD
ATOM     59  C   UNL A   1      45.661  26.662  31.540  1.00  0.00     0.074 A 
ATOM     60  C   UNL A   1      46.414  25.627  30.859  1.00  0.00     0.031 C 
ATOM     61  C   UNL A   1      46.085  27.304  32.657  1.00  0.00     0.037 A 
BRANCH  48  62
ATOM     62  C   UNL A   1      42.161  31.615  34.749  1.00  0.00     0.058 A 
ATOM     63  C   UNL A   1      41.534  31.320  35.971  1.00  0.00     0.135 A 
ATOM     64  C   UNL A   1      42.521  32.950  34.506  1.00  0.00     0.135 A 
ATOM     65  F   UNL A   1      41.155  30.063  36.251  1.00  0.00    -0.206 F 
ATOM     66  C   UNL A   1      41.239  32.315  36.897  1.00  0.00     0.059 A 
ATOM     67  C   UNL A   1      42.265  33.957  35.433  1.00  0.00     0.059 A 
ATOM     68  F   UNL A   1      43.125  33.290  33.357  1.00  0.00    -0.206 F 
ATOM     69  C   UNL A   1      41.606  33.631  36.618  1.00  0.00     0.060 A 
BRANCH  69  70
ATOM     70  S   UNL A   1      41.202  34.912  37.824  1.00  0.00     0.124 S 
ATOM     71  O   UNL A   1      41.174  34.144  39.065  1.00  0.00    -0.237 OA
ATOM     72  O   UNL A   1      42.321  35.840  37.680  1.00  0.00    -0.237 OA
ATOM     73  O   UNL A   1      39.911  35.416  37.368  1.00  0.00    -0.744 OA
ENDBRANCH  69  70
ENDBRANCH  48  62
BRANCH  49  74
ATOM     74  C   UNL A   1      43.764  24.684  27.707  1.00  0.00     0.058 A 
ATOM     75  C   UNL A   1      44.485  24.996  26.545  1.00  0.00     0.135 A 
ATOM     76  C   UNL A   1      43.303  23.367  27.856  1.00  0.00     0.135 A 
ATOM     77  F   UNL A   1      44.942  26.243  26.354  1.00  0.00    -0.206 F 
ATOM     78  C   UNL A   1      44.728  24.045  25.559  1.00  0.00     0.059 A 
ATOM     79  C   UNL A   1      43.555  22.391  26.896  1.00  0.00     0.059 A 
ATOM     80  F   UNL A   1      42.623  23.011  28.956  1.00  0.00    -0.206 F 
ATOM     81  C   UNL A   1      44.262  22.742  25.746  1.00  0.00     0.060 A 
BRANCH  81  82
ATOM     82  S   UNL A   1      44.628  21.504  24.485  1.00  0.00     0.124 S 
ATOM     83  O   UNL A   1      44.242  22.203  23.265  1.00  0.00    -0.237 OA
ATOM     84  O   UNL A   1      46.059  21.289  24.674  1.00  0.00    -0.237 OA
ATOM     85  O   UNL A   1      43.777  20.379  24.864  1.00  0.00    -0.744 OA
ENDBRANCH  81  82
ENDBRANCH  49  74
BRANCH  61  86
ATOM     86  C   UNL A   1      47.406  26.882  33.240  1.00  0.00     0.058 A 
ATOM     87  C   UNL A   1      47.505  25.839  34.173  1.00  0.00     0.135 A 
ATOM     88  C   UNL A   1      48.596  27.500  32.819  1.00  0.00     0.135 A 
ATOM     89  F   UNL A   1      46.398  25.219  34.614  1.00  0.00    -0.206 F 
ATOM     90  C   UNL A   1      48.734  25.438  34.687  1.00  0.00     0.059 A 
ATOM     91  C   UNL A   1      49.838  27.096  33.297  1.00  0.00     0.059 A 
ATOM     92  F   UNL A   1      48.559  28.496  31.921  1.00  0.00    -0.206 F 
ATOM     93  C   UNL A   1      49.895  26.071  34.241  1.00  0.00     0.060 A 
BRANCH  93  94
ATOM     94  S   UNL A   1      51.486  25.516  34.890  1.00  0.00     0.124 S 
ATOM     95  O   UNL A   1      51.082  24.834  36.116  1.00  0.00    -0.237 OA
ATOM     96  O   UNL A   1      51.978  24.657  33.818  1.00  0.00    -0.237 OA
ATOM     97  O   UNL A   1      52.228  26.760  35.080  1.00  0.00    -0.744 OA
ENDBRANCH  93  94
ENDBRANCH  61  86
ENDBRANCH  35  36
ENDBRANCH  27  30
ENDBRANCH  25  26
ENDBRANCH  24  25
ENDBRANCH   1  24
TORSDOF 18
ENDMDL
MODEL 3
REMARK VINA RESULT:     -11.3      6.745     13.316
REMARK SMILES Cc1cc(C[N@@H+]2CC[C@@H](C(=O)NCCCCCCNC(=O)c3ccc(-c4c5nc(c(-c6c(F)cc(S(=O)(=O)[O-])cc6F)c6ccc([nH]6)c(-c6c(F)cc(S(=O)(=O)[O-])cc6F)c6nc(c(-c7c(F)cc(S(=O)(=O)[O-])cc7F)c7ccc4[nH]7)C=C6)C=C5)cc3)C2)ccc1Br
REMARK SMILES IDX 16 1 15 2 14 3 13 4 12 5 10 6 11 7 9 9 6 10 7 11 88 12 8 14
REMARK SMILES IDX 5 15 4 16 1 17 2 18 3 19 91 20 90 21 92 22 89 23 17 24 18 25
REMARK SMILES IDX 19 26 20 27 21 29 22 30 23 31 87 32 24 33 86 34 25 35 26 36
REMARK SMILES IDX 27 37 80 38 28 39 85 40 79 41 81 42 29 43 84 44 78 45 77 46
REMARK SMILES IDX 30 48 64 49 43 50 63 51 44 52 47 53 62 54 82 55 45 56 46 57
REMARK SMILES IDX 61 59 83 60 48 61 31 62 32 63 41 64 33 65 34 66 40 67 42 68
REMARK SMILES IDX 35 69 36 70 37 71 38 72 39 73 65 74 66 75 75 76 67 77 68 78
REMARK SMILES IDX 74 79 76 80 69 81 70 82 71 83 72 84 73 85 49 86 50 87 59 88
REMARK SMILES IDX 51 89 52 90 58 91 60 92 53 93 54 94 55 95 56 96 57 97
REMARK H PARENT 12 8 6 13 19 28 81 47 47 58
REMARK Flexibility Score: inf
ROOT
ATOM      1  C   UNL A   1      34.241  32.233  28.104  1.00  0.00     0.002 C 
ENDROOT
BRANCH   1   2
ATOM      2  C   UNL A   1      35.156  33.459  28.011  1.00  0.00     0.002 C 
BRANCH   2   3
ATOM      3  C   UNL A   1      34.589  34.764  28.558  1.00  0.00     0.021 C 
BRANCH   3   4
ATOM      4  C   UNL A   1      33.219  34.672  29.203  1.00  0.00     0.116 C 
BRANCH   4   5
ATOM      5  N   UNL A   1      33.070  35.359  30.463  1.00  0.00    -0.356 N 
ATOM      6  C   UNL A   1      33.747  35.126  31.627  1.00  0.00     0.229 C 
ATOM      7  O   UNL A   1      33.468  35.835  32.599  1.00  0.00    -0.275 OA
ATOM      8  H   UNL A   1      32.402  36.082  30.486  1.00  0.00     0.163 HD
BRANCH   6   9
ATOM      9  C   UNL A   1      34.789  34.008  31.764  1.00  0.00     0.139 C 
ATOM     10  N   UNL A   1      36.835  33.733  33.020  1.00  0.00    -0.330 N 
ATOM     11  C   UNL A   1      35.765  33.127  33.810  1.00  0.00     0.263 C 
ATOM     12  C   UNL A   1      36.214  34.525  31.950  1.00  0.00     0.276 C 
ATOM     13  H   UNL A   1      37.372  34.364  33.615  1.00  0.00     0.348 HD
ATOM     14  C   UNL A   1      34.561  32.998  32.884  1.00  0.00     0.081 C 
BRANCH  10  15
ATOM     15  C   UNL A   1      37.906  32.817  32.605  1.00  0.00     0.299 C 
BRANCH  15  16
ATOM     16  C   UNL A   1      38.926  33.354  31.619  1.00  0.00     0.007 A 
ATOM     17  C   UNL A   1      42.521  34.609  31.623  1.00  0.00     0.045 C 
ATOM     18  C   UNL A   1      41.132  34.300  31.145  1.00  0.00    -0.036 A 
ATOM     19  C   UNL A   1      40.206  33.736  32.042  1.00  0.00     0.014 A 
ATOM     20  C   UNL A   1      40.723  34.558  29.828  1.00  0.00     0.020 A 
ATOM     21  C   UNL A   1      39.476  34.132  29.382  1.00  0.00     0.016 A 
ATOM     22  Br  UNL A   1      41.819  35.493  28.593  1.00  0.00    -0.051 Br
ATOM     23  C   UNL A   1      38.611  33.483  30.259  1.00  0.00     0.011 A 
ENDBRANCH  15  16
ENDBRANCH  10  15
ENDBRANCH   6   9
ENDBRANCH   4   5
ENDBRANCH   3   4
ENDBRANCH   2   3
ENDBRANCH   1   2
BRANCH   1  24
ATOM     24  C   UNL A   1      34.692  30.981  27.343  1.00  0.00     0.021 C 
BRANCH  24  25
ATOM     25  C   UNL A   1      35.434  29.933  28.169  1.00  0.00     0.116 C 
BRANCH  25  26
ATOM     26  N   UNL A   1      35.423  30.236  29.590  1.00  0.00    -0.352 N 
ATOM     27  C   UNL A   1      36.427  30.135  30.515  1.00  0.00     0.251 C 
ATOM     28  H   UNL A   1      34.562  30.564  29.941  1.00  0.00     0.163 HD
ATOM     29  O   UNL A   1      36.166  30.267  31.713  1.00  0.00    -0.269 OA
BRANCH  27  30
ATOM     30  C   UNL A   1      37.812  29.854  30.088  1.00  0.00     0.039 A 
ATOM     31  C   UNL A   1      38.721  29.356  31.025  1.00  0.00     0.014 A 
ATOM     32  C   UNL A   1      38.224  30.100  28.774  1.00  0.00     0.014 A 
ATOM     33  C   UNL A   1      40.026  29.053  30.632  1.00  0.00     0.010 A 
ATOM     34  C   UNL A   1      39.504  29.730  28.368  1.00  0.00     0.010 A 
ATOM     35  C   UNL A   1      40.420  29.209  29.294  1.00  0.00    -0.014 A 
BRANCH  35  36
ATOM     36  C   UNL A   1      41.786  28.834  28.845  1.00  0.00     0.031 A 
ATOM     37  C   UNL A   1      42.876  29.870  28.793  1.00  0.00     0.074 A 
ATOM     38  C   UNL A   1      42.028  27.574  28.435  1.00  0.00     0.049 A 
ATOM     39  N   UNL A   1      44.111  29.750  28.379  1.00  0.00    -0.248 NA
ATOM     40  C   UNL A   1      42.524  31.227  29.242  1.00  0.00     0.031 C 
ATOM     41  C   UNL A   1      41.041  26.492  28.402  1.00  0.00     0.029 A 
ATOM     42  N   UNL A   1      43.175  26.990  27.961  1.00  0.00    -0.354 N 
ATOM     43  C   UNL A   1      44.680  31.011  28.511  1.00  0.00     0.074 A 
ATOM     44  C   UNL A   1      43.638  31.895  28.982  1.00  0.00     0.031 C 
ATOM     45  C   UNL A   1      41.633  25.369  27.962  1.00  0.00     0.029 A 
ATOM     46  C   UNL A   1      43.027  25.660  27.642  1.00  0.00     0.049 A 
ATOM     47  H   UNL A   1      44.025  27.477  27.859  1.00  0.00     0.167 HD
ATOM     48  C   UNL A   1      45.961  31.391  28.282  1.00  0.00     0.037 A 
ATOM     49  C   UNL A   1      43.913  24.777  27.142  1.00  0.00     0.037 A 
ATOM     50  C   UNL A   1      46.995  30.499  27.824  1.00  0.00     0.049 A 
ATOM     51  C   UNL A   1      45.323  25.228  26.873  1.00  0.00     0.074 A 
ATOM     52  C   UNL A   1      48.332  30.775  27.601  1.00  0.00     0.029 A 
ATOM     53  N   UNL A   1      46.806  29.160  27.512  1.00  0.00    -0.354 N 
ATOM     54  N   UNL A   1      45.859  26.412  27.054  1.00  0.00    -0.248 NA
ATOM     55  C   UNL A   1      46.251  24.224  26.337  1.00  0.00     0.031 C 
ATOM     56  C   UNL A   1      48.942  29.615  27.109  1.00  0.00     0.029 A 
ATOM     57  C   UNL A   1      47.997  28.601  27.079  1.00  0.00     0.049 A 
ATOM     58  H   UNL A   1      45.951  28.678  27.588  1.00  0.00     0.167 HD
ATOM     59  C   UNL A   1      47.193  26.286  26.684  1.00  0.00     0.074 A 
ATOM     60  C   UNL A   1      47.384  24.908  26.278  1.00  0.00     0.031 C 
ATOM     61  C   UNL A   1      48.172  27.225  26.683  1.00  0.00     0.037 A 
BRANCH  48  62
ATOM     62  C   UNL A   1      46.311  32.835  28.529  1.00  0.00     0.058 A 
ATOM     63  C   UNL A   1      46.294  33.785  27.494  1.00  0.00     0.135 A 
ATOM     64  C   UNL A   1      46.653  33.280  29.816  1.00  0.00     0.135 A 
ATOM     65  F   UNL A   1      45.988  33.415  26.241  1.00  0.00    -0.206 F 
ATOM     66  C   UNL A   1      46.642  35.113  27.718  1.00  0.00     0.059 A 
ATOM     67  C   UNL A   1      46.974  34.611  30.070  1.00  0.00     0.059 A 
ATOM     68  F   UNL A   1      46.684  32.417  30.844  1.00  0.00    -0.206 F 
ATOM     69  C   UNL A   1      46.984  35.516  29.010  1.00  0.00     0.060 A 
BRANCH  69  70
ATOM     70  S   UNL A   1      47.447  37.240  29.280  1.00  0.00     0.124 S 
ATOM     71  O   UNL A   1      46.288  37.940  28.737  1.00  0.00    -0.237 OA
ATOM     72  O   UNL A   1      47.599  37.297  30.731  1.00  0.00    -0.237 OA
ATOM     73  O   UNL A   1      48.682  37.385  28.517  1.00  0.00    -0.744 OA
ENDBRANCH  69  70
ENDBRANCH  48  62
BRANCH  49  74
ATOM     74  C   UNL A   1      43.500  23.369  26.895  1.00  0.00     0.058 A 
ATOM     75  C   UNL A   1      43.296  22.897  25.590  1.00  0.00     0.135 A 
ATOM     76  C   UNL A   1      43.320  22.464  27.952  1.00  0.00     0.135 A 
ATOM     77  F   UNL A   1      43.449  23.726  24.546  1.00  0.00    -0.206 F 
ATOM     78  C   UNL A   1      42.914  21.583  25.340  1.00  0.00     0.059 A 
ATOM     79  C   UNL A   1      42.964  21.137  27.727  1.00  0.00     0.059 A 
ATOM     80  F   UNL A   1      43.518  22.859  29.219  1.00  0.00    -0.206 F 
ATOM     81  C   UNL A   1      42.755  20.708  26.416  1.00  0.00     0.060 A 
BRANCH  81  82
ATOM     82  S   UNL A   1      42.311  18.992  26.076  1.00  0.00     0.124 S 
ATOM     83  O   UNL A   1      43.220  18.663  24.985  1.00  0.00    -0.237 OA
ATOM     84  O   UNL A   1      42.587  18.346  27.355  1.00  0.00    -0.237 OA
ATOM     85  O   UNL A   1      40.898  19.077  25.717  1.00  0.00    -0.744 OA
ENDBRANCH  81  82
ENDBRANCH  49  74
BRANCH  61  86
ATOM     86  C   UNL A   1      49.550  26.788  26.265  1.00  0.00     0.058 A 
ATOM     87  C   UNL A   1      50.447  26.199  27.170  1.00  0.00     0.135 A 
ATOM     88  C   UNL A   1      49.960  26.918  24.928  1.00  0.00     0.135 A 
ATOM     89  F   UNL A   1      50.108  26.058  28.462  1.00  0.00    -0.206 F 
ATOM     90  C   UNL A   1      51.709  25.775  26.770  1.00  0.00     0.059 A 
ATOM     91  C   UNL A   1      51.206  26.473  24.498  1.00  0.00     0.059 A 
ATOM     92  F   UNL A   1      49.139  27.465  24.019  1.00  0.00    -0.206 F 
ATOM     93  C   UNL A   1      52.079  25.913  25.431  1.00  0.00     0.060 A 
BRANCH  93  94
ATOM     94  S   UNL A   1      53.707  25.326  24.918  1.00  0.00     0.124 S 
ATOM     95  O   UNL A   1      54.549  25.797  26.014  1.00  0.00    -0.237 OA
ATOM     96  O   UNL A   1      53.509  23.882  24.846  1.00  0.00    -0.237 OA
ATOM     97  O   UNL A   1      53.920  25.989  23.635  1.00  0.00    -0.744 OA
ENDBRANCH  93  94
ENDBRANCH  61  86
ENDBRANCH  35  36
ENDBRANCH  27  30
ENDBRANCH  25  26
ENDBRANCH  24  25
ENDBRANCH   1  24
TORSDOF 18
ENDMDL
