MODEL 1
REMARK VINA RESULT:     -11.7      0.000      0.000
REMARK SMILES Cn1ccc(CNC(=O)[C@@H]2[C@@H]3CC[C@@H](C3)[C@@H]2C(=O)NCCCCCCNC(=O)c2ccc(-c3c4nc(c(-c5c(F)cc(S(=O)(=O)[O-])cc5F)c5ccc([nH]5)c(-c5c(F)cc(S(=O)(=O)[O-])cc5F)c5nc(c(-c6c(F)cc(S(=O)(=O)[O-])cc6F)c6ccc3[nH]6)C=C5)C=C4)cc2)n1
REMARK SMILES IDX 22 1 21 2 20 3 19 4 17 5 18 6 16 8 10 9 11 10 12 11 15 12
REMARK SMILES IDX 14 13 13 14 8 15 7 16 9 18 6 19 5 20 1 21 2 22 3 23 95 24
REMARK SMILES IDX 4 25 23 26 24 27 25 28 26 29 27 30 28 32 29 33 30 34 94 35
REMARK SMILES IDX 31 36 93 37 32 38 33 39 34 40 87 41 35 42 92 43 86 44 88 45
REMARK SMILES IDX 36 46 91 47 85 48 84 49 37 51 71 52 50 53 70 54 51 55 54 56
REMARK SMILES IDX 69 57 89 58 52 59 53 60 68 62 90 63 55 64 38 65 39 66 48 67
REMARK SMILES IDX 40 68 41 69 47 70 49 71 42 72 43 73 44 74 45 75 46 76 72 77
REMARK SMILES IDX 73 78 82 79 74 80 75 81 81 82 83 83 76 84 77 85 78 86 79 87
REMARK SMILES IDX 80 88 56 89 57 90 66 91 58 92 59 93 65 94 67 95 60 96 61 97
REMARK SMILES IDX 62 98 63 99 64 100
REMARK H PARENT 19 7 7 17 26 31 88 50 54 61
REMARK Flexibility Score: inf
ROOT
ATOM      1  C   UNL A   1      32.956  30.049  27.184  1.00  0.00     0.002 C 
ENDROOT
BRANCH   1   2
ATOM      2  C   UNL A   1      32.829  28.523  27.189  1.00  0.00     0.021 C 
BRANCH   2   3
ATOM      3  C   UNL A   1      31.658  27.945  26.401  1.00  0.00     0.116 C 
BRANCH   3   4
ATOM      4  N   UNL A   1      31.341  26.591  26.794  1.00  0.00    -0.356 N 
ATOM      5  C   UNL A   1      31.913  25.406  26.458  1.00  0.00     0.224 C 
ATOM      6  O   UNL A   1      31.361  24.408  26.919  1.00  0.00    -0.275 OA
ATOM      7  H   UNL A   1      30.579  26.514  27.412  1.00  0.00     0.163 HD
BRANCH   5   8
ATOM      8  C   UNL A   1      33.067  25.345  25.458  1.00  0.00     0.094 C 
ATOM      9  C   UNL A   1      32.720  25.119  23.950  1.00  0.00     0.094 C 
ATOM     10  C   UNL A   1      33.645  23.927  23.554  1.00  0.00     0.002 C 
ATOM     11  C   UNL A   1      33.245  22.593  24.210  1.00  0.00     0.005 C 
ATOM     12  C   UNL A   1      34.895  24.249  24.372  1.00  0.00     0.009 C 
ATOM     13  C   UNL A   1      34.133  24.242  25.699  1.00  0.00     0.002 C 
ATOM     14  C   UNL A   1      33.475  22.853  25.698  1.00  0.00     0.005 C 
BRANCH   9  15
ATOM     15  C   UNL A   1      31.265  24.937  23.517  1.00  0.00     0.224 C 
ATOM     16  N   UNL A   1      30.584  25.984  22.985  1.00  0.00    -0.350 N 
ATOM     17  H   UNL A   1      29.659  25.784  22.711  1.00  0.00     0.163 HD
ATOM     18  O   UNL A   1      30.675  23.858  23.582  1.00  0.00    -0.275 OA
BRANCH  16  19
ATOM     19  C   UNL A   1      31.007  27.350  22.757  1.00  0.00     0.174 C 
BRANCH  19  20
ATOM     20  C   UNL A   1      29.788  28.209  22.643  1.00  0.00     0.082 A 
ATOM     21  C   UNL A   1      28.134  30.886  21.133  1.00  0.00     0.173 C 
ATOM     22  N   UNL A   1      28.524  29.757  21.940  1.00  0.00    -0.275 N 
ATOM     23  C   UNL A   1      27.733  29.028  22.777  1.00  0.00     0.108 A 
ATOM     24  N   UNL A   1      29.788  29.309  21.872  1.00  0.00    -0.176 NA
ATOM     25  C   UNL A   1      28.524  28.007  23.249  1.00  0.00     0.047 A 
ENDBRANCH  19  20
ENDBRANCH  16  19
ENDBRANCH   9  15
ENDBRANCH   5   8
ENDBRANCH   3   4
ENDBRANCH   2   3
ENDBRANCH   1   2
BRANCH   1  26
ATOM     26  C   UNL A   1      31.910  30.804  26.361  1.00  0.00     0.002 C 
BRANCH  26  27
ATOM     27  C   UNL A   1      31.647  32.246  26.793  1.00  0.00     0.021 C 
BRANCH  27  28
ATOM     28  C   UNL A   1      32.786  32.914  27.556  1.00  0.00     0.116 C 
BRANCH  28  29
ATOM     29  N   UNL A   1      32.519  34.311  27.849  1.00  0.00    -0.352 N 
ATOM     30  C   UNL A   1      33.084  35.115  28.810  1.00  0.00     0.251 C 
ATOM     31  H   UNL A   1      31.840  34.742  27.282  1.00  0.00     0.163 HD
ATOM     32  O   UNL A   1      32.627  36.231  29.024  1.00  0.00    -0.269 OA
BRANCH  30  33
ATOM     33  C   UNL A   1      34.229  34.611  29.604  1.00  0.00     0.039 A 
ATOM     34  C   UNL A   1      33.983  34.050  30.858  1.00  0.00     0.014 A 
ATOM     35  C   UNL A   1      35.533  34.680  29.105  1.00  0.00     0.014 A 
ATOM     36  C   UNL A   1      35.041  33.503  31.587  1.00  0.00     0.010 A 
ATOM     37  C   UNL A   1      36.572  34.065  29.799  1.00  0.00     0.010 A 
ATOM     38  C   UNL A   1      36.339  33.473  31.048  1.00  0.00    -0.014 A 
BRANCH  38  39
ATOM     39  C   UNL A   1      37.462  32.833  31.782  1.00  0.00     0.031 A 
ATOM     40  C   UNL A   1      38.144  31.619  31.206  1.00  0.00     0.074 A 
ATOM     41  C   UNL A   1      37.839  33.316  32.983  1.00  0.00     0.049 A 
ATOM     42  N   UNL A   1      39.091  30.881  31.725  1.00  0.00    -0.248 NA
ATOM     43  C   UNL A   1      37.688  31.164  29.882  1.00  0.00     0.031 C 
ATOM     44  C   UNL A   1      37.234  34.466  33.662  1.00  0.00     0.029 A 
ATOM     45  N   UNL A   1      38.817  32.900  33.851  1.00  0.00    -0.354 N 
ATOM     46  C   UNL A   1      39.347  29.882  30.792  1.00  0.00     0.074 A 
ATOM     47  C   UNL A   1      38.409  30.066  29.708  1.00  0.00     0.031 C 
ATOM     48  C   UNL A   1      37.871  34.677  34.825  1.00  0.00     0.029 A 
ATOM     49  C   UNL A   1      38.898  33.657  34.999  1.00  0.00     0.049 A 
ATOM     50  H   UNL A   1      39.408  32.133  33.670  1.00  0.00     0.167 HD
ATOM     51  C   UNL A   1      40.301  28.921  30.820  1.00  0.00     0.037 A 
ATOM     52  C   UNL A   1      39.702  33.532  36.074  1.00  0.00     0.037 A 
ATOM     53  C   UNL A   1      41.242  28.750  31.896  1.00  0.00     0.049 A 
ATOM     54  C   UNL A   1      40.719  32.419  36.100  1.00  0.00     0.074 A 
ATOM     55  C   UNL A   1      42.255  27.813  32.011  1.00  0.00     0.029 A 
ATOM     56  N   UNL A   1      41.292  29.535  33.039  1.00  0.00    -0.354 N 
ATOM     57  N   UNL A   1      40.973  31.509  35.188  1.00  0.00    -0.248 NA
ATOM     58  C   UNL A   1      41.564  32.319  37.299  1.00  0.00     0.031 C 
ATOM     59  C   UNL A   1      42.891  28.007  33.242  1.00  0.00     0.029 A 
ATOM     60  C   UNL A   1      42.310  29.097  33.868  1.00  0.00     0.049 A 
ATOM     61  H   UNL A   1      40.692  30.292  33.230  1.00  0.00     0.167 HD
ATOM     62  C   UNL A   1      42.032  30.758  35.687  1.00  0.00     0.074 A 
ATOM     63  C   UNL A   1      42.379  31.326  36.973  1.00  0.00     0.031 C 
ATOM     64  C   UNL A   1      42.661  29.692  35.133  1.00  0.00     0.037 A 
BRANCH  51  65
ATOM     65  C   UNL A   1      40.396  27.994  29.640  1.00  0.00     0.058 A 
ATOM     66  C   UNL A   1      41.364  28.183  28.639  1.00  0.00     0.135 A 
ATOM     67  C   UNL A   1      39.561  26.869  29.535  1.00  0.00     0.135 A 
ATOM     68  F   UNL A   1      42.177  29.251  28.679  1.00  0.00    -0.206 F 
ATOM     69  C   UNL A   1      41.491  27.301  27.571  1.00  0.00     0.059 A 
ATOM     70  C   UNL A   1      39.689  25.958  28.490  1.00  0.00     0.059 A 
ATOM     71  F   UNL A   1      38.615  26.641  30.461  1.00  0.00    -0.206 F 
ATOM     72  C   UNL A   1      40.652  26.188  27.509  1.00  0.00     0.060 A 
BRANCH  72  73
ATOM     73  S   UNL A   1      40.856  25.037  26.132  1.00  0.00     0.124 S 
ATOM     74  O   UNL A   1      39.490  24.554  25.952  1.00  0.00    -0.237 OA
ATOM     75  O   UNL A   1      41.366  25.906  25.075  1.00  0.00    -0.237 OA
ATOM     76  O   UNL A   1      41.805  24.055  26.646  1.00  0.00    -0.744 OA
ENDBRANCH  72  73
ENDBRANCH  51  65
BRANCH  52  77
ATOM     77  C   UNL A   1      39.593  34.478  37.218  1.00  0.00     0.058 A 
ATOM     78  C   UNL A   1      40.233  35.728  37.186  1.00  0.00     0.135 A 
ATOM     79  C   UNL A   1      38.892  34.136  38.385  1.00  0.00     0.135 A 
ATOM     80  F   UNL A   1      40.919  36.101  36.095  1.00  0.00    -0.206 F 
ATOM     81  C   UNL A   1      40.222  36.582  38.284  1.00  0.00     0.059 A 
ATOM     82  C   UNL A   1      38.838  34.989  39.484  1.00  0.00     0.059 A 
ATOM     83  F   UNL A   1      38.244  32.963  38.463  1.00  0.00    -0.206 F 
ATOM     84  C   UNL A   1      39.527  36.199  39.432  1.00  0.00     0.060 A 
BRANCH  84  85
ATOM     85  S   UNL A   1      39.531  37.308  40.857  1.00  0.00     0.124 S 
ATOM     86  O   UNL A   1      38.837  36.504  41.855  1.00  0.00    -0.237 OA
ATOM     87  O   UNL A   1      40.959  37.514  41.082  1.00  0.00    -0.237 OA
ATOM     88  O   UNL A   1      38.805  38.479  40.372  1.00  0.00    -0.744 OA
ENDBRANCH  84  85
ENDBRANCH  52  77
BRANCH  64  89
ATOM     89  C   UNL A   1      43.826  29.105  35.883  1.00  0.00     0.058 A 
ATOM     90  C   UNL A   1      45.119  29.645  35.786  1.00  0.00     0.135 A 
ATOM     91  C   UNL A   1      43.635  28.017  36.750  1.00  0.00     0.135 A 
ATOM     92  F   UNL A   1      45.358  30.682  34.967  1.00  0.00    -0.206 F 
ATOM     93  C   UNL A   1      46.185  29.110  36.502  1.00  0.00     0.059 A 
ATOM     94  C   UNL A   1      44.679  27.487  37.500  1.00  0.00     0.059 A 
ATOM     95  F   UNL A   1      42.417  27.469  36.889  1.00  0.00    -0.206 F 
ATOM     96  C   UNL A   1      45.953  28.032  37.359  1.00  0.00     0.060 A 
BRANCH  96  97
ATOM     97  S   UNL A   1      47.339  27.373  38.310  1.00  0.00     0.124 S 
ATOM     98  O   UNL A   1      47.794  26.285  37.452  1.00  0.00    -0.237 OA
ATOM     99  O   UNL A   1      48.232  28.525  38.400  1.00  0.00    -0.237 OA
ATOM    100  O   UNL A   1      46.725  26.964  39.570  1.00  0.00    -0.744 OA
ENDBRANCH  96  97
ENDBRANCH  64  89
ENDBRANCH  38  39
ENDBRANCH  30  33
ENDBRANCH  28  29
ENDBRANCH  27  28
ENDBRANCH  26  27
ENDBRANCH   1  26
TORSDOF 19
ENDMDL
MODEL 2
REMARK VINA RESULT:     -11.6      2.567      8.629
REMARK SMILES Cn1ccc(CNC(=O)[C@@H]2[C@@H]3CC[C@@H](C3)[C@@H]2C(=O)NCCCCCCNC(=O)c2ccc(-c3c4nc(c(-c5c(F)cc(S(=O)(=O)[O-])cc5F)c5ccc([nH]5)c(-c5c(F)cc(S(=O)(=O)[O-])cc5F)c5nc(c(-c6c(F)cc(S(=O)(=O)[O-])cc6F)c6ccc3[nH]6)C=C5)C=C4)cc2)n1
REMARK SMILES IDX 22 1 21 2 20 3 19 4 17 5 18 6 16 8 10 9 11 10 12 11 15 12
REMARK SMILES IDX 14 13 13 14 8 15 7 16 9 18 6 19 5 20 1 21 2 22 3 23 95 24
REMARK SMILES IDX 4 25 23 26 24 27 25 28 26 29 27 30 28 32 29 33 30 34 94 35
REMARK SMILES IDX 31 36 93 37 32 38 33 39 34 40 87 41 35 42 92 43 86 44 88 45
REMARK SMILES IDX 36 46 91 47 85 48 84 49 37 51 71 52 50 53 70 54 51 55 54 56
REMARK SMILES IDX 69 57 89 58 52 59 53 60 68 62 90 63 55 64 38 65 39 66 48 67
REMARK SMILES IDX 40 68 41 69 47 70 49 71 42 72 43 73 44 74 45 75 46 76 72 77
REMARK SMILES IDX 73 78 82 79 74 80 75 81 81 82 83 83 76 84 77 85 78 86 79 87
REMARK SMILES IDX 80 88 56 89 57 90 66 91 58 92 59 93 65 94 67 95 60 96 61 97
REMARK SMILES IDX 62 98 63 99 64 100
REMARK H PARENT 19 7 7 17 26 31 88 50 54 61
REMARK Flexibility Score: inf
ROOT
ATOM      1  C   UNL A   1      37.182  23.234  24.764  1.00  0.00     0.002 C 
ENDROOT
BRANCH   1   2
ATOM      2  C   UNL A   1      35.662  23.049  24.805  1.00  0.00     0.021 C 
BRANCH   2   3
ATOM      3  C   UNL A   1      34.865  24.192  25.427  1.00  0.00     0.116 C 
BRANCH   3   4
ATOM      4  N   UNL A   1      34.284  25.066  24.433  1.00  0.00    -0.356 N 
ATOM      5  C   UNL A   1      33.593  26.228  24.560  1.00  0.00     0.224 C 
ATOM      6  O   UNL A   1      33.173  26.705  23.507  1.00  0.00    -0.275 OA
ATOM      7  H   UNL A   1      34.412  24.768  23.504  1.00  0.00     0.163 HD
BRANCH   5   8
ATOM      8  C   UNL A   1      33.254  26.795  25.938  1.00  0.00     0.094 C 
ATOM      9  C   UNL A   1      31.745  26.914  26.331  1.00  0.00     0.094 C 
ATOM     10  C   UNL A   1      31.624  28.394  26.807  1.00  0.00     0.002 C 
ATOM     11  C   UNL A   1      31.772  29.421  25.669  1.00  0.00     0.005 C 
ATOM     12  C   UNL A   1      32.972  28.585  27.499  1.00  0.00     0.009 C 
ATOM     13  C   UNL A   1      33.766  28.230  26.240  1.00  0.00     0.002 C 
ATOM     14  C   UNL A   1      33.215  29.223  25.206  1.00  0.00     0.005 C 
BRANCH   9  15
ATOM     15  C   UNL A   1      30.659  26.497  25.339  1.00  0.00     0.224 C 
ATOM     16  N   UNL A   1      30.156  25.236  25.381  1.00  0.00    -0.350 N 
ATOM     17  H   UNL A   1      29.446  25.049  24.724  1.00  0.00     0.163 HD
ATOM     18  O   UNL A   1      30.169  27.270  24.516  1.00  0.00    -0.275 OA
BRANCH  16  19
ATOM     19  C   UNL A   1      30.503  24.124  26.240  1.00  0.00     0.174 C 
BRANCH  19  20
ATOM     20  C   UNL A   1      31.272  23.126  25.435  1.00  0.00     0.082 A 
ATOM     21  C   UNL A   1      33.078  20.143  25.284  1.00  0.00     0.173 C 
ATOM     22  N   UNL A   1      32.402  21.386  25.008  1.00  0.00    -0.275 N 
ATOM     23  C   UNL A   1      32.147  21.932  23.786  1.00  0.00     0.108 A 
ATOM     24  N   UNL A   1      31.921  22.112  26.029  1.00  0.00    -0.176 NA
ATOM     25  C   UNL A   1      31.406  23.066  24.026  1.00  0.00     0.047 A 
ENDBRANCH  19  20
ENDBRANCH  16  19
ENDBRANCH   9  15
ENDBRANCH   5   8
ENDBRANCH   3   4
ENDBRANCH   2   3
ENDBRANCH   1   2
BRANCH   1  26
ATOM     26  C   UNL A   1      37.852  23.557  26.100  1.00  0.00     0.002 C 
BRANCH  26  27
ATOM     27  C   UNL A   1      39.001  22.632  26.503  1.00  0.00     0.021 C 
BRANCH  27  28
ATOM     28  C   UNL A   1      40.236  23.333  27.057  1.00  0.00     0.116 C 
BRANCH  28  29
ATOM     29  N   UNL A   1      41.015  23.993  26.024  1.00  0.00    -0.352 N 
ATOM     30  C   UNL A   1      41.501  25.279  25.996  1.00  0.00     0.251 C 
ATOM     31  H   UNL A   1      41.225  23.444  25.235  1.00  0.00     0.163 HD
ATOM     32  O   UNL A   1      42.007  25.723  24.973  1.00  0.00    -0.269 OA
BRANCH  30  33
ATOM     33  C   UNL A   1      41.382  26.130  27.202  1.00  0.00     0.039 A 
ATOM     34  C   UNL A   1      42.366  27.089  27.449  1.00  0.00     0.014 A 
ATOM     35  C   UNL A   1      40.298  25.993  28.074  1.00  0.00     0.014 A 
ATOM     36  C   UNL A   1      42.232  27.950  28.540  1.00  0.00     0.010 A 
ATOM     37  C   UNL A   1      40.127  26.902  29.114  1.00  0.00     0.010 A 
ATOM     38  C   UNL A   1      41.093  27.889  29.360  1.00  0.00    -0.014 A 
BRANCH  38  39
ATOM     39  C   UNL A   1      40.902  28.843  30.484  1.00  0.00     0.031 A 
ATOM     40  C   UNL A   1      41.772  28.747  31.710  1.00  0.00     0.074 A 
ATOM     41  C   UNL A   1      39.920  29.766  30.420  1.00  0.00     0.049 A 
ATOM     42  N   UNL A   1      41.715  29.439  32.819  1.00  0.00    -0.248 NA
ATOM     43  C   UNL A   1      42.833  27.727  31.696  1.00  0.00     0.031 C 
ATOM     44  C   UNL A   1      38.991  29.938  29.300  1.00  0.00     0.029 A 
ATOM     45  N   UNL A   1      39.536  30.732  31.317  1.00  0.00    -0.354 N 
ATOM     46  C   UNL A   1      42.731  28.944  33.627  1.00  0.00     0.074 A 
ATOM     47  C   UNL A   1      43.344  27.846  32.913  1.00  0.00     0.031 C 
ATOM     48  C   UNL A   1      38.163  30.961  29.566  1.00  0.00     0.029 A 
ATOM     49  C   UNL A   1      38.471  31.492  30.890  1.00  0.00     0.049 A 
ATOM     50  H   UNL A   1      39.982  30.869  32.184  1.00  0.00     0.167 HD
ATOM     51  C   UNL A   1      43.141  29.385  34.841  1.00  0.00     0.037 A 
ATOM     52  C   UNL A   1      37.811  32.495  31.503  1.00  0.00     0.037 A 
ATOM     53  C   UNL A   1      42.536  30.487  35.543  1.00  0.00     0.049 A 
ATOM     54  C   UNL A   1      38.255  32.930  32.876  1.00  0.00     0.074 A 
ATOM     55  C   UNL A   1      42.887  31.018  36.773  1.00  0.00     0.029 A 
ATOM     56  N   UNL A   1      41.462  31.231  35.079  1.00  0.00    -0.354 N 
ATOM     57  N   UNL A   1      39.246  32.475  33.607  1.00  0.00    -0.248 NA
ATOM     58  C   UNL A   1      37.496  34.019  33.506  1.00  0.00     0.031 C 
ATOM     59  C   UNL A   1      41.999  32.057  37.069  1.00  0.00     0.029 A 
ATOM     60  C   UNL A   1      41.129  32.208  36.001  1.00  0.00     0.049 A 
ATOM     61  H   UNL A   1      41.003  31.085  34.220  1.00  0.00     0.167 HD
ATOM     62  C   UNL A   1      39.252  33.250  34.762  1.00  0.00     0.074 A 
ATOM     63  C   UNL A   1      38.176  34.210  34.628  1.00  0.00     0.031 C 
ATOM     64  C   UNL A   1      40.073  33.175  35.840  1.00  0.00     0.037 A 
BRANCH  51  65
ATOM     65  C   UNL A   1      44.316  28.696  35.478  1.00  0.00     0.058 A 
ATOM     66  C   UNL A   1      45.632  29.128  35.239  1.00  0.00     0.135 A 
ATOM     67  C   UNL A   1      44.130  27.640  36.384  1.00  0.00     0.135 A 
ATOM     68  F   UNL A   1      45.870  30.122  34.369  1.00  0.00    -0.206 F 
ATOM     69  C   UNL A   1      46.720  28.528  35.864  1.00  0.00     0.059 A 
ATOM     70  C   UNL A   1      45.202  27.043  37.042  1.00  0.00     0.059 A 
ATOM     71  F   UNL A   1      42.895  27.183  36.646  1.00  0.00    -0.206 F 
ATOM     72  C   UNL A   1      46.495  27.490  36.769  1.00  0.00     0.060 A 
BRANCH  72  73
ATOM     73  S   UNL A   1      47.918  26.747  37.594  1.00  0.00     0.124 S 
ATOM     74  O   UNL A   1      47.800  27.305  38.938  1.00  0.00    -0.237 OA
ATOM     75  O   UNL A   1      47.638  25.320  37.472  1.00  0.00    -0.237 OA
ATOM     76  O   UNL A   1      49.054  27.229  36.814  1.00  0.00    -0.744 OA
ENDBRANCH  72  73
ENDBRANCH  51  65
BRANCH  52  77
ATOM     77  C   UNL A   1      36.662  33.167  30.836  1.00  0.00     0.058 A 
ATOM     78  C   UNL A   1      36.867  34.085  29.794  1.00  0.00     0.135 A 
ATOM     79  C   UNL A   1      35.341  32.946  31.257  1.00  0.00     0.135 A 
ATOM     80  F   UNL A   1      38.110  34.335  29.357  1.00  0.00    -0.206 F 
ATOM     81  C   UNL A   1      35.813  34.795  29.227  1.00  0.00     0.059 A 
ATOM     82  C   UNL A   1      34.266  33.618  30.682  1.00  0.00     0.059 A 
ATOM     83  F   UNL A   1      35.083  32.063  32.236  1.00  0.00    -0.206 F 
ATOM     84  C   UNL A   1      34.516  34.558  29.684  1.00  0.00     0.060 A 
BRANCH  84  85
ATOM     85  S   UNL A   1      33.156  35.494  28.952  1.00  0.00     0.124 S 
ATOM     86  O   UNL A   1      33.875  36.509  28.193  1.00  0.00    -0.237 OA
ATOM     87  O   UNL A   1      32.469  34.474  28.166  1.00  0.00    -0.237 OA
ATOM     88  O   UNL A   1      32.419  35.979  30.116  1.00  0.00    -0.744 OA
ENDBRANCH  84  85
ENDBRANCH  52  77
BRANCH  64  89
ATOM     89  C   UNL A   1      39.881  34.191  36.931  1.00  0.00     0.058 A 
ATOM     90  C   UNL A   1      40.549  35.426  36.922  1.00  0.00     0.135 A 
ATOM     91  C   UNL A   1      38.976  33.945  37.977  1.00  0.00     0.135 A 
ATOM     92  F   UNL A   1      41.430  35.710  35.949  1.00  0.00    -0.206 F 
ATOM     93  C   UNL A   1      40.347  36.369  37.924  1.00  0.00     0.059 A 
ATOM     94  C   UNL A   1      38.734  34.887  38.972  1.00  0.00     0.059 A 
ATOM     95  F   UNL A   1      38.302  32.785  38.029  1.00  0.00    -0.206 F 
ATOM     96  C   UNL A   1      39.434  36.091  38.944  1.00  0.00     0.060 A 
BRANCH  96  97
ATOM     97  S   UNL A   1      39.154  37.340  40.217  1.00  0.00     0.124 S 
ATOM     98  O   UNL A   1      38.222  38.240  39.547  1.00  0.00    -0.237 OA
ATOM     99  O   UNL A   1      38.596  36.549  41.311  1.00  0.00    -0.237 OA
ATOM    100  O   UNL A   1      40.487  37.883  40.461  1.00  0.00    -0.744 OA
ENDBRANCH  96  97
ENDBRANCH  64  89
ENDBRANCH  38  39
ENDBRANCH  30  33
ENDBRANCH  28  29
ENDBRANCH  27  28
ENDBRANCH  26  27
ENDBRANCH   1  26
TORSDOF 19
ENDMDL
MODEL 3
REMARK VINA RESULT:     -11.6      0.526      8.152
REMARK SMILES Cn1ccc(CNC(=O)[C@@H]2[C@@H]3CC[C@@H](C3)[C@@H]2C(=O)NCCCCCCNC(=O)c2ccc(-c3c4nc(c(-c5c(F)cc(S(=O)(=O)[O-])cc5F)c5ccc([nH]5)c(-c5c(F)cc(S(=O)(=O)[O-])cc5F)c5nc(c(-c6c(F)cc(S(=O)(=O)[O-])cc6F)c6ccc3[nH]6)C=C5)C=C4)cc2)n1
REMARK SMILES IDX 22 1 21 2 20 3 19 4 17 5 18 6 16 8 10 9 11 10 12 11 15 12
REMARK SMILES IDX 14 13 13 14 8 15 7 16 9 18 6 19 5 20 1 21 2 22 3 23 95 24
REMARK SMILES IDX 4 25 23 26 24 27 25 28 26 29 27 30 28 32 29 33 30 34 94 35
REMARK SMILES IDX 31 36 93 37 32 38 33 39 34 40 87 41 35 42 92 43 86 44 88 45
REMARK SMILES IDX 36 46 91 47 85 48 84 49 37 51 71 52 50 53 70 54 51 55 54 56
REMARK SMILES IDX 69 57 89 58 52 59 53 60 68 62 90 63 55 64 38 65 39 66 48 67
REMARK SMILES IDX 40 68 41 69 47 70 49 71 42 72 43 73 44 74 45 75 46 76 72 77
REMARK SMILES IDX 73 78 82 79 74 80 75 81 81 82 83 83 76 84 77 85 78 86 79 87
REMARK SMILES IDX 80 88 56 89 57 90 66 91 58 92 59 93 65 94 67 95 60 96 61 97
REMARK SMILES IDX 62 98 63 99 64 100
REMARK H PARENT 19 7 7 17 26 31 88 50 54 61
REMARK Flexibility Score: inf
ROOT
ATOM      1  C   UNL A   1      32.867  30.131  27.245  1.00  0.00     0.002 C 
ENDROOT
BRANCH   1   2
ATOM      2  C   UNL A   1      32.739  28.605  27.245  1.00  0.00     0.021 C 
BRANCH   2   3
ATOM      3  C   UNL A   1      31.540  28.032  26.496  1.00  0.00     0.116 C 
BRANCH   3   4
ATOM      4  N   UNL A   1      31.269  26.658  26.853  1.00  0.00    -0.356 N 
ATOM      5  C   UNL A   1      31.884  25.503  26.491  1.00  0.00     0.224 C 
ATOM      6  O   UNL A   1      31.365  24.476  26.924  1.00  0.00    -0.275 OA
ATOM      7  H   UNL A   1      30.507  26.540  27.464  1.00  0.00     0.163 HD
BRANCH   5   8
ATOM      8  C   UNL A   1      33.044  25.508  25.496  1.00  0.00     0.094 C 
ATOM      9  C   UNL A   1      32.708  25.351  23.976  1.00  0.00     0.094 C 
ATOM     10  C   UNL A   1      33.653  24.193  23.529  1.00  0.00     0.002 C 
ATOM     11  C   UNL A   1      33.269  22.823  24.116  1.00  0.00     0.005 C 
ATOM     12  C   UNL A   1      34.893  24.493  24.368  1.00  0.00     0.009 C 
ATOM     13  C   UNL A   1      34.125  24.409  25.689  1.00  0.00     0.002 C 
ATOM     14  C   UNL A   1      33.487  23.013  25.617  1.00  0.00     0.005 C 
BRANCH   9  15
ATOM     15  C   UNL A   1      31.258  25.169  23.526  1.00  0.00     0.224 C 
ATOM     16  N   UNL A   1      30.586  26.215  22.983  1.00  0.00    -0.350 N 
ATOM     17  H   UNL A   1      29.664  26.016  22.698  1.00  0.00     0.163 HD
ATOM     18  O   UNL A   1      30.667  24.091  23.587  1.00  0.00    -0.275 OA
BRANCH  16  19
ATOM     19  C   UNL A   1      31.013  27.580  22.756  1.00  0.00     0.174 C 
BRANCH  19  20
ATOM     20  C   UNL A   1      29.797  28.435  22.593  1.00  0.00     0.082 A 
ATOM     21  C   UNL A   1      28.162  31.048  20.955  1.00  0.00     0.173 C 
ATOM     22  N   UNL A   1      28.542  29.953  21.813  1.00  0.00    -0.275 N 
ATOM     23  C   UNL A   1      27.742  29.262  22.672  1.00  0.00     0.108 A 
ATOM     24  N   UNL A   1      29.806  29.501  21.777  1.00  0.00    -0.176 NA
ATOM     25  C   UNL A   1      28.526  28.260  23.195  1.00  0.00     0.047 A 
ENDBRANCH  19  20
ENDBRANCH  16  19
ENDBRANCH   9  15
ENDBRANCH   5   8
ENDBRANCH   3   4
ENDBRANCH   2   3
ENDBRANCH   1   2
BRANCH   1  26
ATOM     26  C   UNL A   1      31.767  30.893  26.503  1.00  0.00     0.002 C 
BRANCH  26  27
ATOM     27  C   UNL A   1      31.638  32.375  26.857  1.00  0.00     0.021 C 
BRANCH  27  28
ATOM     28  C   UNL A   1      32.823  32.968  27.611  1.00  0.00     0.116 C 
BRANCH  28  29
ATOM     29  N   UNL A   1      32.641  34.375  27.923  1.00  0.00    -0.352 N 
ATOM     30  C   UNL A   1      33.286  35.142  28.863  1.00  0.00     0.251 C 
ATOM     31  H   UNL A   1      31.961  34.843  27.387  1.00  0.00     0.163 HD
ATOM     32  O   UNL A   1      32.897  36.279  29.101  1.00  0.00    -0.269 OA
BRANCH  30  33
ATOM     33  C   UNL A   1      34.436  34.575  29.604  1.00  0.00     0.039 A 
ATOM     34  C   UNL A   1      34.211  33.990  30.851  1.00  0.00     0.014 A 
ATOM     35  C   UNL A   1      35.726  34.609  29.063  1.00  0.00     0.014 A 
ATOM     36  C   UNL A   1      35.270  33.385  31.530  1.00  0.00     0.010 A 
ATOM     37  C   UNL A   1      36.762  33.938  29.706  1.00  0.00     0.010 A 
ATOM     38  C   UNL A   1      36.548  33.321  30.947  1.00  0.00    -0.014 A 
BRANCH  38  39
ATOM     39  C   UNL A   1      37.669  32.620  31.626  1.00  0.00     0.031 A 
ATOM     40  C   UNL A   1      38.188  33.132  32.945  1.00  0.00     0.074 A 
ATOM     41  C   UNL A   1      38.247  31.554  31.037  1.00  0.00     0.049 A 
ATOM     42  N   UNL A   1      39.199  32.702  33.657  1.00  0.00    -0.248 NA
ATOM     43  C   UNL A   1      37.492  34.288  33.532  1.00  0.00     0.031 C 
ATOM     44  C   UNL A   1      37.857  30.983  29.746  1.00  0.00     0.029 A 
ATOM     45  N   UNL A   1      39.290  30.760  31.445  1.00  0.00    -0.354 N 
ATOM     46  C   UNL A   1      39.255  33.529  34.772  1.00  0.00     0.074 A 
ATOM     47  C   UNL A   1      38.223  34.529  34.610  1.00  0.00     0.031 C 
ATOM     48  C   UNL A   1      38.631  29.919  29.480  1.00  0.00     0.029 A 
ATOM     49  C   UNL A   1      39.601  29.754  30.557  1.00  0.00     0.049 A 
ATOM     50  H   UNL A   1      39.771  30.895  32.293  1.00  0.00     0.167 HD
ATOM     51  C   UNL A   1      40.069  33.443  35.851  1.00  0.00     0.037 A 
ATOM     52  C   UNL A   1      40.567  28.815  30.602  1.00  0.00     0.037 A 
ATOM     53  C   UNL A   1      41.087  32.438  36.014  1.00  0.00     0.049 A 
ATOM     54  C   UNL A   1      41.493  28.776  31.791  1.00  0.00     0.074 A 
ATOM     55  C   UNL A   1      41.956  32.259  37.078  1.00  0.00     0.029 A 
ATOM     56  N   UNL A   1      41.370  31.439  35.095  1.00  0.00    -0.354 N 
ATOM     57  N   UNL A   1      41.503  29.543  32.857  1.00  0.00    -0.248 NA
ATOM     58  C   UNL A   1      42.536  27.741  31.787  1.00  0.00     0.031 C 
ATOM     59  C   UNL A   1      42.790  31.176  36.782  1.00  0.00     0.029 A 
ATOM     60  C   UNL A   1      42.406  30.648  35.561  1.00  0.00     0.049 A 
ATOM     61  H   UNL A   1      40.902  31.311  34.238  1.00  0.00     0.167 HD
ATOM     62  C   UNL A   1      42.525  29.055  33.665  1.00  0.00     0.074 A 
ATOM     63  C   UNL A   1      43.101  27.921  32.973  1.00  0.00     0.031 C 
ATOM     64  C   UNL A   1      42.950  29.505  34.872  1.00  0.00     0.037 A 
BRANCH  51  65
ATOM     65  C   UNL A   1      39.877  34.445  36.957  1.00  0.00     0.058 A 
ATOM     66  C   UNL A   1      40.459  35.722  36.893  1.00  0.00     0.135 A 
ATOM     67  C   UNL A   1      39.055  34.156  38.058  1.00  0.00     0.135 A 
ATOM     68  F   UNL A   1      41.269  36.045  35.871  1.00  0.00    -0.206 F 
ATOM     69  C   UNL A   1      40.246  36.671  37.887  1.00  0.00     0.059 A 
ATOM     70  C   UNL A   1      38.805  35.100  39.051  1.00  0.00     0.059 A 
ATOM     71  F   UNL A   1      38.477  32.950  38.173  1.00  0.00    -0.206 F 
ATOM     72  C   UNL A   1      39.412  36.353  38.959  1.00  0.00     0.060 A 
BRANCH  72  73
ATOM     73  S   UNL A   1      39.121  37.611  40.221  1.00  0.00     0.124 S 
ATOM     74  O   UNL A   1      40.464  38.152  40.409  1.00  0.00    -0.237 OA
ATOM     75  O   UNL A   1      38.166  38.497  39.562  1.00  0.00    -0.237 OA
ATOM     76  O   UNL A   1      38.591  36.848  41.347  1.00  0.00    -0.744 OA
ENDBRANCH  72  73
ENDBRANCH  51  65
BRANCH  52  77
ATOM     77  C   UNL A   1      40.718  27.827  29.499  1.00  0.00     0.058 A 
ATOM     78  C   UNL A   1      39.866  26.715  29.403  1.00  0.00     0.135 A 
ATOM     79  C   UNL A   1      41.744  27.944  28.548  1.00  0.00     0.135 A 
ATOM     80  F   UNL A   1      38.872  26.554  30.289  1.00  0.00    -0.206 F 
ATOM     81  C   UNL A   1      40.055  25.731  28.437  1.00  0.00     0.059 A 
ATOM     82  C   UNL A   1      41.931  26.991  27.551  1.00  0.00     0.059 A 
ATOM     83  F   UNL A   1      42.575  28.999  28.579  1.00  0.00    -0.206 F 
ATOM     84  C   UNL A   1      41.096  25.876  27.519  1.00  0.00     0.060 A 
BRANCH  84  85
ATOM     85  S   UNL A   1      41.342  24.588  26.278  1.00  0.00     0.124 S 
ATOM     86  O   UNL A   1      42.524  23.908  26.793  1.00  0.00    -0.237 OA
ATOM     87  O   UNL A   1      40.090  23.842  26.357  1.00  0.00    -0.237 OA
ATOM     88  O   UNL A   1      41.535  25.345  25.044  1.00  0.00    -0.744 OA
ENDBRANCH  84  85
ENDBRANCH  52  77
BRANCH  64  89
ATOM     89  C   UNL A   1      44.051  28.738  35.550  1.00  0.00     0.058 A 
ATOM     90  C   UNL A   1      43.784  27.675  36.429  1.00  0.00     0.135 A 
ATOM     91  C   UNL A   1      45.396  29.039  35.278  1.00  0.00     0.135 A 
ATOM     92  F   UNL A   1      42.517  27.349  36.729  1.00  0.00    -0.206 F 
ATOM     93  C   UNL A   1      44.811  26.956  37.033  1.00  0.00     0.059 A 
ATOM     94  C   UNL A   1      46.438  28.313  35.845  1.00  0.00     0.059 A 
ATOM     95  F   UNL A   1      45.708  30.038  34.437  1.00  0.00    -0.206 F 
ATOM     96  C   UNL A   1      46.135  27.281  36.731  1.00  0.00     0.060 A 
BRANCH  96  97
ATOM     97  S   UNL A   1      47.456  26.315  37.494  1.00  0.00     0.124 S 
ATOM     98  O   UNL A   1      47.778  27.126  38.663  1.00  0.00    -0.237 OA
ATOM     99  O   UNL A   1      46.793  25.043  37.768  1.00  0.00    -0.237 OA
ATOM    100  O   UNL A   1      48.485  26.268  36.460  1.00  0.00    -0.744 OA
ENDBRANCH  96  97
ENDBRANCH  64  89
ENDBRANCH  38  39
ENDBRANCH  30  33
ENDBRANCH  28  29
ENDBRANCH  27  28
ENDBRANCH  26  27
ENDBRANCH   1  26
TORSDOF 19
ENDMDL
