MODEL 1
REMARK VINA RESULT:     -12.0      0.000      0.000
REMARK SMILES O=C(NCCCCCCNC(=O)c1cc(N2CCN(c3ccc(F)cc3)CC2)ccc1NC(=O)C1CCCC1)c1ccc(-c2c3nc(c(-c4c(F)cc(S(=O)(=O)[O-])cc4F)c4ccc([nH]4)c(-c4c(F)cc(S(=O)(=O)[O-])cc4F)c4nc(c(-c5c(F)cc(S(=O)(=O)[O-])cc5F)c5ccc2[nH]5)C=C4)C=C3)cc1
REMARK SMILES IDX 6 1 5 2 4 3 3 4 1 5 2 6 40 8 41 9 105 10 42 11 104 12 43 13
REMARK SMILES IDX 44 14 45 15 98 16 46 17 103 18 97 19 99 20 47 21 102 22
REMARK SMILES IDX 96 23 95 24 48 26 82 27 61 28 81 29 62 30 65 31 80 32 100 33
REMARK SMILES IDX 63 34 64 35 79 37 101 38 66 39 49 40 50 41 59 42 51 43 52 44
REMARK SMILES IDX 58 45 60 46 53 47 54 48 55 49 56 50 57 51 83 52 84 53 93 54
REMARK SMILES IDX 85 55 86 56 92 57 94 58 87 59 88 60 89 61 90 62 91 63 67 64
REMARK SMILES IDX 68 65 77 66 69 67 70 68 76 69 78 70 71 71 72 72 73 73 74 74
REMARK SMILES IDX 75 75 7 76 8 77 9 78 10 79 11 80 12 82 13 83 14 84 31 85
REMARK SMILES IDX 15 86 30 87 29 88 32 89 33 90 34 92 35 93 36 94 39 95 37 96
REMARK SMILES IDX 38 97 16 98 17 99 28 100 18 101 27 102 19 103 20 104 21 105
REMARK SMILES IDX 26 106 22 107 25 108 23 109 24 110
REMARK H PARENT 3 7 99 25 65 36 10 81 32 91
REMARK Flexibility Score: inf
ROOT
ATOM      1  C   UNL A   1      37.142  21.993  24.309  1.00  0.00     0.002 C 
ENDROOT
BRANCH   1   2
ATOM      2  C   UNL A   1      37.712  20.860  25.162  1.00  0.00     0.021 C 
BRANCH   2   3
ATOM      3  C   UNL A   1      39.036  21.155  25.855  1.00  0.00     0.116 C 
BRANCH   3   4
ATOM      4  N   UNL A   1      39.933  20.011  25.902  1.00  0.00    -0.352 N 
ATOM      5  O   UNL A   1      41.908  18.926  26.022  1.00  0.00    -0.269 OA
ATOM      6  C   UNL A   1      41.292  19.984  26.117  1.00  0.00     0.251 C 
ATOM      7  H   UNL A   1      39.508  19.134  25.762  1.00  0.00     0.163 HD
BRANCH   6   8
ATOM      8  C   UNL A   1      42.014  21.239  26.426  1.00  0.00     0.039 A 
ATOM      9  C   UNL A   1      42.355  21.562  27.741  1.00  0.00     0.014 A 
ATOM     10  C   UNL A   1      42.334  22.117  25.387  1.00  0.00     0.014 A 
ATOM     11  C   UNL A   1      42.859  22.825  28.033  1.00  0.00     0.010 A 
ATOM     12  C   UNL A   1      42.926  23.351  25.675  1.00  0.00     0.010 A 
ATOM     13  C   UNL A   1      43.155  23.735  27.004  1.00  0.00    -0.014 A 
BRANCH  13  14
ATOM     14  C   UNL A   1      43.732  25.061  27.352  1.00  0.00     0.031 A 
ATOM     15  C   UNL A   1      45.181  25.377  27.088  1.00  0.00     0.074 A 
ATOM     16  C   UNL A   1      42.919  26.004  27.871  1.00  0.00     0.049 A 
ATOM     17  N   UNL A   1      45.826  26.501  27.282  1.00  0.00    -0.248 NA
ATOM     18  C   UNL A   1      46.018  24.294  26.549  1.00  0.00     0.031 C 
ATOM     19  C   UNL A   1      41.501  25.810  28.185  1.00  0.00     0.029 A 
ATOM     20  N   UNL A   1      43.155  27.314  28.201  1.00  0.00    -0.354 N 
ATOM     21  C   UNL A   1      47.144  26.256  26.915  1.00  0.00     0.074 A 
ATOM     22  C   UNL A   1      47.213  24.868  26.506  1.00  0.00     0.031 C 
ATOM     23  C   UNL A   1      40.980  26.973  28.604  1.00  0.00     0.029 A 
ATOM     24  C   UNL A   1      42.037  27.978  28.645  1.00  0.00     0.049 A 
ATOM     25  H   UNL A   1      44.040  27.737  28.127  1.00  0.00     0.167 HD
ATOM     26  C   UNL A   1      48.198  27.110  26.914  1.00  0.00     0.037 A 
ATOM     27  C   UNL A   1      41.875  29.252  29.046  1.00  0.00     0.037 A 
ATOM     28  C   UNL A   1      48.115  28.497  27.298  1.00  0.00     0.049 A 
ATOM     29  C   UNL A   1      43.057  30.178  29.032  1.00  0.00     0.074 A 
ATOM     30  C   UNL A   1      49.115  29.456  27.282  1.00  0.00     0.029 A 
ATOM     31  N   UNL A   1      46.971  29.125  27.768  1.00  0.00    -0.354 N 
ATOM     32  N   UNL A   1      44.286  29.936  28.645  1.00  0.00    -0.248 NA
ATOM     33  C   UNL A   1      42.831  31.546  29.511  1.00  0.00     0.031 C 
ATOM     34  C   UNL A   1      48.585  30.651  27.783  1.00  0.00     0.029 A 
ATOM     35  C   UNL A   1      47.244  30.451  28.067  1.00  0.00     0.049 A 
ATOM     36  H   UNL A   1      46.093  28.692  27.875  1.00  0.00     0.167 HD
ATOM     37  C   UNL A   1      44.978  31.129  28.816  1.00  0.00     0.074 A 
ATOM     38  C   UNL A   1      44.024  32.095  29.326  1.00  0.00     0.031 C 
ATOM     39  C   UNL A   1      46.284  31.401  28.573  1.00  0.00     0.037 A 
BRANCH  26  40
ATOM     40  C   UNL A   1      49.541  26.566  26.507  1.00  0.00     0.058 A 
ATOM     41  C   UNL A   1      50.398  25.936  27.425  1.00  0.00     0.135 A 
ATOM     42  C   UNL A   1      49.961  26.640  25.168  1.00  0.00     0.135 A 
ATOM     43  F   UNL A   1      50.053  25.846  28.720  1.00  0.00    -0.206 F 
ATOM     44  C   UNL A   1      51.634  25.427  27.036  1.00  0.00     0.059 A 
ATOM     45  C   UNL A   1      51.182  26.115  24.752  1.00  0.00     0.059 A 
ATOM     46  F   UNL A   1      49.180  27.227  24.247  1.00  0.00    -0.206 F 
ATOM     47  C   UNL A   1      52.019  25.525  25.697  1.00  0.00     0.060 A 
BRANCH  47  48
ATOM     48  S   UNL A   1      53.626  24.863  25.207  1.00  0.00     0.124 S 
ATOM     49  O   UNL A   1      53.319  23.445  25.049  1.00  0.00    -0.237 OA
ATOM     50  O   UNL A   1      53.902  25.592  23.972  1.00  0.00    -0.237 OA
ATOM     51  O   UNL A   1      54.490  25.196  26.334  1.00  0.00    -0.744 OA
ENDBRANCH  47  48
ENDBRANCH  26  40
BRANCH  27  52
ATOM     52  C   UNL A   1      40.534  29.724  29.478  1.00  0.00     0.058 A 
ATOM     53  C   UNL A   1      39.499  29.903  28.550  1.00  0.00     0.135 A 
ATOM     54  C   UNL A   1      40.252  29.975  30.830  1.00  0.00     0.135 A 
ATOM     55  F   UNL A   1      39.722  29.678  27.246  1.00  0.00    -0.206 F 
ATOM     56  C   UNL A   1      38.233  30.323  28.943  1.00  0.00     0.059 A 
ATOM     57  C   UNL A   1      38.987  30.369  31.252  1.00  0.00     0.059 A 
ATOM     58  F   UNL A   1      41.205  29.800  31.759  1.00  0.00    -0.206 F 
ATOM     59  C   UNL A   1      37.986  30.550  30.299  1.00  0.00     0.060 A 
BRANCH  59  60
ATOM     60  S   UNL A   1      36.324  31.037  30.807  1.00  0.00     0.124 S 
ATOM     61  O   UNL A   1      35.621  31.059  29.530  1.00  0.00    -0.237 OA
ATOM     62  O   UNL A   1      35.954  29.962  31.722  1.00  0.00    -0.237 OA
ATOM     63  O   UNL A   1      36.535  32.338  31.436  1.00  0.00    -0.744 OA
ENDBRANCH  59  60
ENDBRANCH  27  52
BRANCH  39  64
ATOM     64  C   UNL A   1      46.747  32.808  28.823  1.00  0.00     0.058 A 
ATOM     65  C   UNL A   1      46.714  33.787  27.818  1.00  0.00     0.135 A 
ATOM     66  C   UNL A   1      47.212  33.186  30.093  1.00  0.00     0.135 A 
ATOM     67  F   UNL A   1      46.286  33.474  26.584  1.00  0.00    -0.206 F 
ATOM     68  C   UNL A   1      47.156  35.084  28.053  1.00  0.00     0.059 A 
ATOM     69  C   UNL A   1      47.635  34.485  30.358  1.00  0.00     0.059 A 
ATOM     70  F   UNL A   1      47.255  32.291  31.093  1.00  0.00    -0.206 F 
ATOM     71  C   UNL A   1      47.619  35.423  29.326  1.00  0.00     0.060 A 
BRANCH  71  72
ATOM     72  S   UNL A   1      48.180  37.113  29.626  1.00  0.00     0.124 S 
ATOM     73  O   UNL A   1      46.951  37.870  29.415  1.00  0.00    -0.237 OA
ATOM     74  O   UNL A   1      48.656  37.047  31.003  1.00  0.00    -0.237 OA
ATOM     75  O   UNL A   1      49.219  37.308  28.618  1.00  0.00    -0.744 OA
ENDBRANCH  71  72
ENDBRANCH  39  64
ENDBRANCH  13  14
ENDBRANCH   6   8
ENDBRANCH   3   4
ENDBRANCH   2   3
ENDBRANCH   1   2
BRANCH   1  76
ATOM     76  C   UNL A   1      37.360  23.412  24.841  1.00  0.00     0.002 C 
BRANCH  76  77
ATOM     77  C   UNL A   1      36.245  23.994  25.720  1.00  0.00     0.021 C 
BRANCH  77  78
ATOM     78  C   UNL A   1      35.189  24.825  24.996  1.00  0.00     0.116 C 
BRANCH  78  79
ATOM     79  N   UNL A   1      34.973  26.120  25.621  1.00  0.00    -0.352 N 
ATOM     80  C   UNL A   1      33.822  26.715  26.069  1.00  0.00     0.253 C 
ATOM     81  H   UNL A   1      35.788  26.657  25.743  1.00  0.00     0.163 HD
ATOM     82  O   UNL A   1      33.857  27.892  26.419  1.00  0.00    -0.269 OA
BRANCH  80  83
ATOM     83  C   UNL A   1      32.538  25.974  26.151  1.00  0.00     0.065 A 
ATOM     84  C   UNL A   1      32.651  24.584  26.396  1.00  0.00     0.042 A 
ATOM     85  C   UNL A   1      31.284  26.555  25.864  1.00  0.00     0.054 A 
ATOM     86  C   UNL A   1      31.534  23.748  26.368  1.00  0.00     0.038 A 
ATOM     87  C   UNL A   1      30.185  25.715  25.906  1.00  0.00     0.029 A 
ATOM     88  C   UNL A   1      30.298  24.349  26.166  1.00  0.00     0.028 A 
BRANCH  85  89
ATOM     89  N   UNL A   1      31.194  27.912  25.491  1.00  0.00    -0.325 N 
ATOM     90  C   UNL A   1      31.345  28.663  24.370  1.00  0.00     0.227 C 
ATOM     91  H   UNL A   1      30.952  28.475  26.263  1.00  0.00     0.169 HD
ATOM     92  O   UNL A   1      31.155  29.878  24.537  1.00  0.00    -0.274 OA
BRANCH  90  93
ATOM     93  C   UNL A   1      31.707  28.184  22.967  1.00  0.00     0.079 C 
ATOM     94  C   UNL A   1      33.176  27.816  22.799  1.00  0.00     0.013 C 
ATOM     95  C   UNL A   1      30.861  27.057  22.384  1.00  0.00     0.013 C 
ATOM     96  C   UNL A   1      33.223  26.696  21.768  1.00  0.00     0.001 C 
ATOM     97  C   UNL A   1      31.811  26.138  21.620  1.00  0.00     0.001 C 
ENDBRANCH  90  93
ENDBRANCH  85  89
BRANCH  86  98
ATOM     98  N   UNL A   1      31.670  22.375  26.425  1.00  0.00    -0.368 N 
ATOM     99  C   UNL A   1      31.080  21.532  25.366  1.00  0.00     0.138 C 
ATOM    100  C   UNL A   1      32.870  21.816  27.081  1.00  0.00     0.138 C 
ATOM    101  C   UNL A   1      32.151  21.053  24.345  1.00  0.00     0.138 C 
ATOM    102  C   UNL A   1      33.928  21.355  26.057  1.00  0.00     0.138 C 
ATOM    103  N   UNL A   1      33.331  20.483  25.035  1.00  0.00    -0.368 N 
BRANCH 103 104
ATOM    104  C   UNL A   1      33.545  19.119  25.055  1.00  0.00     0.037 A 
ATOM    105  C   UNL A   1      34.712  18.576  24.494  1.00  0.00     0.029 A 
ATOM    106  C   UNL A   1      32.648  18.231  25.671  1.00  0.00     0.029 A 
ATOM    107  C   UNL A   1      34.983  17.206  24.565  1.00  0.00     0.041 A 
ATOM    108  C   UNL A   1      32.903  16.859  25.732  1.00  0.00     0.041 A 
ATOM    109  C   UNL A   1      34.074  16.361  25.183  1.00  0.00     0.123 A 
ATOM    110  F   UNL A   1      34.331  15.049  25.258  1.00  0.00    -0.207 F 
ENDBRANCH 103 104
ENDBRANCH  86  98
ENDBRANCH  80  83
ENDBRANCH  78  79
ENDBRANCH  77  78
ENDBRANCH  76  77
ENDBRANCH   1  76
TORSDOF 20
ENDMDL
MODEL 2
REMARK VINA RESULT:     -11.9      5.926     14.885
REMARK SMILES O=C(NCCCCCCNC(=O)c1cc(N2CCN(c3ccc(F)cc3)CC2)ccc1NC(=O)C1CCCC1)c1ccc(-c2c3nc(c(-c4c(F)cc(S(=O)(=O)[O-])cc4F)c4ccc([nH]4)c(-c4c(F)cc(S(=O)(=O)[O-])cc4F)c4nc(c(-c5c(F)cc(S(=O)(=O)[O-])cc5F)c5ccc2[nH]5)C=C4)C=C3)cc1
REMARK SMILES IDX 6 1 5 2 4 3 3 4 1 5 2 6 40 8 41 9 105 10 42 11 104 12 43 13
REMARK SMILES IDX 44 14 45 15 98 16 46 17 103 18 97 19 99 20 47 21 102 22
REMARK SMILES IDX 96 23 95 24 48 26 82 27 61 28 81 29 62 30 65 31 80 32 100 33
REMARK SMILES IDX 63 34 64 35 79 37 101 38 66 39 49 40 50 41 59 42 51 43 52 44
REMARK SMILES IDX 58 45 60 46 53 47 54 48 55 49 56 50 57 51 83 52 84 53 93 54
REMARK SMILES IDX 85 55 86 56 92 57 94 58 87 59 88 60 89 61 90 62 91 63 67 64
REMARK SMILES IDX 68 65 77 66 69 67 70 68 76 69 78 70 71 71 72 72 73 73 74 74
REMARK SMILES IDX 75 75 7 76 8 77 9 78 10 79 11 80 12 82 13 83 14 84 31 85
REMARK SMILES IDX 15 86 30 87 29 88 32 89 33 90 34 92 35 93 36 94 39 95 37 96
REMARK SMILES IDX 38 97 16 98 17 99 28 100 18 101 27 102 19 103 20 104 21 105
REMARK SMILES IDX 26 106 22 107 25 108 23 109 24 110
REMARK H PARENT 3 7 99 25 65 36 10 81 32 91
REMARK Flexibility Score: inf
ROOT
ATOM      1  C   UNL A   1      49.698  38.007  26.474  1.00  0.00     0.002 C 
ENDROOT
BRANCH   1   2
ATOM      2  C   UNL A   1      50.271  36.737  27.100  1.00  0.00     0.021 C 
BRANCH   2   3
ATOM      3  C   UNL A   1      50.251  36.682  28.622  1.00  0.00     0.116 C 
BRANCH   3   4
ATOM      4  N   UNL A   1      49.108  37.361  29.211  1.00  0.00    -0.352 N 
ATOM      5  O   UNL A   1      46.955  37.649  29.827  1.00  0.00    -0.269 OA
ATOM      6  C   UNL A   1      47.827  36.895  29.402  1.00  0.00     0.251 C 
ATOM      7  H   UNL A   1      49.274  38.282  29.518  1.00  0.00     0.163 HD
BRANCH   6   8
ATOM      8  C   UNL A   1      47.494  35.494  29.058  1.00  0.00     0.039 A 
ATOM      9  C   UNL A   1      47.043  35.160  27.780  1.00  0.00     0.014 A 
ATOM     10  C   UNL A   1      47.614  34.503  30.037  1.00  0.00     0.014 A 
ATOM     11  C   UNL A   1      46.556  33.880  27.532  1.00  0.00     0.010 A 
ATOM     12  C   UNL A   1      47.209  33.194  29.756  1.00  0.00     0.010 A 
ATOM     13  C   UNL A   1      46.636  32.879  28.515  1.00  0.00    -0.014 A 
BRANCH  13  14
ATOM     14  C   UNL A   1      46.144  31.512  28.199  1.00  0.00     0.031 A 
ATOM     15  C   UNL A   1      47.062  30.462  27.630  1.00  0.00     0.074 A 
ATOM     16  C   UNL A   1      44.860  31.207  28.476  1.00  0.00     0.049 A 
ATOM     17  N   UNL A   1      46.804  29.209  27.351  1.00  0.00    -0.248 NA
ATOM     18  C   UNL A   1      48.442  30.870  27.324  1.00  0.00     0.031 C 
ATOM     19  C   UNL A   1      43.871  32.145  29.015  1.00  0.00     0.029 A 
ATOM     20  N   UNL A   1      44.172  30.026  28.370  1.00  0.00    -0.354 N 
ATOM     21  C   UNL A   1      47.975  28.686  26.814  1.00  0.00     0.074 A 
ATOM     22  C   UNL A   1      48.941  29.764  26.787  1.00  0.00     0.031 C 
ATOM     23  C   UNL A   1      42.725  31.490  29.249  1.00  0.00     0.029 A 
ATOM     24  C   UNL A   1      42.876  30.103  28.823  1.00  0.00     0.049 A 
ATOM     25  H   UNL A   1      44.568  29.202  28.005  1.00  0.00     0.167 HD
ATOM     26  C   UNL A   1      48.223  27.422  26.389  1.00  0.00     0.037 A 
ATOM     27  C   UNL A   1      41.912  29.167  28.885  1.00  0.00     0.037 A 
ATOM     28  C   UNL A   1      47.265  26.346  26.444  1.00  0.00     0.049 A 
ATOM     29  C   UNL A   1      42.214  27.774  28.410  1.00  0.00     0.074 A 
ATOM     30  C   UNL A   1      47.437  25.020  26.085  1.00  0.00     0.029 A 
ATOM     31  N   UNL A   1      45.955  26.471  26.883  1.00  0.00    -0.354 N 
ATOM     32  N   UNL A   1      43.340  27.292  27.942  1.00  0.00    -0.248 NA
ATOM     33  C   UNL A   1      41.116  26.802  28.471  1.00  0.00     0.031 C 
ATOM     34  C   UNL A   1      46.220  24.354  26.267  1.00  0.00     0.029 A 
ATOM     35  C   UNL A   1      45.301  25.252  26.783  1.00  0.00     0.049 A 
ATOM     36  H   UNL A   1      45.548  27.304  27.216  1.00  0.00     0.167 HD
ATOM     37  C   UNL A   1      43.091  25.952  27.669  1.00  0.00     0.074 A 
ATOM     38  C   UNL A   1      41.713  25.699  28.041  1.00  0.00     0.031 C 
ATOM     39  C   UNL A   1      43.928  25.015  27.158  1.00  0.00     0.037 A 
BRANCH  26  40
ATOM     40  C   UNL A   1      49.580  27.133  25.803  1.00  0.00     0.058 A 
ATOM     41  C   UNL A   1      50.636  26.636  26.583  1.00  0.00     0.135 A 
ATOM     42  C   UNL A   1      49.814  27.319  24.430  1.00  0.00     0.135 A 
ATOM     43  F   UNL A   1      50.473  26.449  27.903  1.00  0.00    -0.206 F 
ATOM     44  C   UNL A   1      51.884  26.363  26.029  1.00  0.00     0.059 A 
ATOM     45  C   UNL A   1      51.046  27.028  23.850  1.00  0.00     0.059 A 
ATOM     46  F   UNL A   1      48.838  27.787  23.636  1.00  0.00    -0.206 F 
ATOM     47  C   UNL A   1      52.080  26.566  24.662  1.00  0.00     0.060 A 
BRANCH  47  48
ATOM     48  S   UNL A   1      53.704  26.210  23.957  1.00  0.00     0.124 S 
ATOM     49  O   UNL A   1      54.074  24.997  24.680  1.00  0.00    -0.237 OA
ATOM     50  O   UNL A   1      53.401  26.035  22.540  1.00  0.00    -0.237 OA
ATOM     51  O   UNL A   1      54.486  27.398  24.284  1.00  0.00    -0.744 OA
ENDBRANCH  47  48
ENDBRANCH  26  40
BRANCH  27  52
ATOM     52  C   UNL A   1      40.577  29.518  29.434  1.00  0.00     0.058 A 
ATOM     53  C   UNL A   1      40.378  29.657  30.814  1.00  0.00     0.135 A 
ATOM     54  C   UNL A   1      39.482  29.755  28.588  1.00  0.00     0.135 A 
ATOM     55  F   UNL A   1      41.395  29.438  31.663  1.00  0.00    -0.206 F 
ATOM     56  C   UNL A   1      39.140  30.008  31.340  1.00  0.00     0.059 A 
ATOM     57  C   UNL A   1      38.241  30.134  29.088  1.00  0.00     0.059 A 
ATOM     58  F   UNL A   1      39.626  29.653  27.257  1.00  0.00    -0.206 F 
ATOM     59  C   UNL A   1      38.077  30.248  30.467  1.00  0.00     0.060 A 
BRANCH  59  60
ATOM     60  S   UNL A   1      36.489  30.761  31.155  1.00  0.00     0.124 S 
ATOM     61  O   UNL A   1      36.206  29.671  32.082  1.00  0.00    -0.237 OA
ATOM     62  O   UNL A   1      36.816  32.047  31.762  1.00  0.00    -0.237 OA
ATOM     63  O   UNL A   1      35.624  30.834  29.980  1.00  0.00    -0.744 OA
ENDBRANCH  59  60
ENDBRANCH  27  52
BRANCH  39  64
ATOM     64  C   UNL A   1      43.384  23.624  27.002  1.00  0.00     0.058 A 
ATOM     65  C   UNL A   1      43.288  22.742  28.091  1.00  0.00     0.135 A 
ATOM     66  C   UNL A   1      42.934  23.174  25.751  1.00  0.00     0.135 A 
ATOM     67  F   UNL A   1      43.713  23.122  29.307  1.00  0.00    -0.206 F 
ATOM     68  C   UNL A   1      42.795  21.451  27.938  1.00  0.00     0.059 A 
ATOM     69  C   UNL A   1      42.413  21.895  25.580  1.00  0.00     0.059 A 
ATOM     70  F   UNL A   1      42.995  23.980  24.679  1.00  0.00    -0.206 F 
ATOM     71  C   UNL A   1      42.363  21.035  26.677  1.00  0.00     0.060 A 
BRANCH  71  72
ATOM     72  S   UNL A   1      41.714  19.361  26.490  1.00  0.00     0.124 S 
ATOM     73  O   UNL A   1      41.920  18.816  27.827  1.00  0.00    -0.237 OA
ATOM     74  O   UNL A   1      40.325  19.602  26.111  1.00  0.00    -0.237 OA
ATOM     75  O   UNL A   1      42.552  18.788  25.441  1.00  0.00    -0.744 OA
ENDBRANCH  71  72
ENDBRANCH  39  64
ENDBRANCH  13  14
ENDBRANCH   6   8
ENDBRANCH   3   4
ENDBRANCH   2   3
ENDBRANCH   1   2
BRANCH   1  76
ATOM     76  C   UNL A   1      48.459  37.825  25.593  1.00  0.00     0.002 C 
BRANCH  76  77
ATOM     77  C   UNL A   1      47.144  38.405  26.128  1.00  0.00     0.021 C 
BRANCH  77  78
ATOM     78  C   UNL A   1      46.731  39.759  25.557  1.00  0.00     0.116 C 
BRANCH  78  79
ATOM     79  N   UNL A   1      46.611  40.784  26.582  1.00  0.00    -0.352 N 
ATOM     80  C   UNL A   1      45.557  41.594  26.917  1.00  0.00     0.253 C 
ATOM     81  H   UNL A   1      47.422  40.917  27.125  1.00  0.00     0.163 HD
ATOM     82  O   UNL A   1      45.739  42.507  27.720  1.00  0.00    -0.269 OA
BRANCH  80  83
ATOM     83  C   UNL A   1      44.202  41.392  26.346  1.00  0.00     0.065 A 
ATOM     84  C   UNL A   1      43.952  42.054  25.119  1.00  0.00     0.042 A 
ATOM     85  C   UNL A   1      43.165  40.714  27.022  1.00  0.00     0.054 A 
ATOM     86  C   UNL A   1      42.683  42.056  24.540  1.00  0.00     0.038 A 
ATOM     87  C   UNL A   1      41.932  40.677  26.393  1.00  0.00     0.029 A 
ATOM     88  C   UNL A   1      41.695  41.316  25.176  1.00  0.00     0.028 A 
BRANCH  85  89
ATOM     89  N   UNL A   1      43.385  40.169  28.304  1.00  0.00    -0.325 N 
ATOM     90  C   UNL A   1      43.684  38.963  28.850  1.00  0.00     0.227 C 
ATOM     91  H   UNL A   1      43.295  40.859  29.000  1.00  0.00     0.169 HD
ATOM     92  O   UNL A   1      43.782  38.970  30.087  1.00  0.00    -0.274 OA
BRANCH  90  93
ATOM     93  C   UNL A   1      43.913  37.639  28.125  1.00  0.00     0.079 C 
ATOM     94  C   UNL A   1      43.578  36.410  28.961  1.00  0.00     0.013 C 
ATOM     95  C   UNL A   1      43.257  37.480  26.758  1.00  0.00     0.013 C 
ATOM     96  C   UNL A   1      43.085  35.348  27.987  1.00  0.00     0.001 C 
ATOM     97  C   UNL A   1      42.756  36.041  26.668  1.00  0.00     0.001 C 
ENDBRANCH  90  93
ENDBRANCH  85  89
BRANCH  86  98
ATOM     98  N   UNL A   1      42.401  42.852  23.447  1.00  0.00    -0.368 N 
ATOM     99  C   UNL A   1      43.226  44.044  23.171  1.00  0.00     0.138 C 
ATOM    100  C   UNL A   1      41.787  42.221  22.261  1.00  0.00     0.138 C 
ATOM    101  C   UNL A   1      44.255  43.784  22.033  1.00  0.00     0.138 C 
ATOM    102  C   UNL A   1      42.821  41.959  21.145  1.00  0.00     0.138 C 
ATOM    103  N   UNL A   1      43.604  43.168  20.854  1.00  0.00    -0.368 N 
BRANCH 103 104
ATOM    104  C   UNL A   1      43.367  43.908  19.713  1.00  0.00     0.037 A 
ATOM    105  C   UNL A   1      42.374  43.511  18.804  1.00  0.00     0.029 A 
ATOM    106  C   UNL A   1      44.060  45.099  19.436  1.00  0.00     0.029 A 
ATOM    107  C   UNL A   1      42.069  44.282  17.677  1.00  0.00     0.041 A 
ATOM    108  C   UNL A   1      43.772  45.866  18.306  1.00  0.00     0.041 A 
ATOM    109  C   UNL A   1      42.773  45.452  17.440  1.00  0.00     0.123 A 
ATOM    110  F   UNL A   1      42.482  46.197  16.365  1.00  0.00    -0.207 F 
ENDBRANCH 103 104
ENDBRANCH  86  98
ENDBRANCH  80  83
ENDBRANCH  78  79
ENDBRANCH  77  78
ENDBRANCH  76  77
ENDBRANCH   1  76
TORSDOF 20
ENDMDL
MODEL 3
REMARK VINA RESULT:     -11.9      6.004     16.716
REMARK SMILES O=C(NCCCCCCNC(=O)c1cc(N2CCN(c3ccc(F)cc3)CC2)ccc1NC(=O)C1CCCC1)c1ccc(-c2c3nc(c(-c4c(F)cc(S(=O)(=O)[O-])cc4F)c4ccc([nH]4)c(-c4c(F)cc(S(=O)(=O)[O-])cc4F)c4nc(c(-c5c(F)cc(S(=O)(=O)[O-])cc5F)c5ccc2[nH]5)C=C4)C=C3)cc1
REMARK SMILES IDX 6 1 5 2 4 3 3 4 1 5 2 6 40 8 41 9 105 10 42 11 104 12 43 13
REMARK SMILES IDX 44 14 45 15 98 16 46 17 103 18 97 19 99 20 47 21 102 22
REMARK SMILES IDX 96 23 95 24 48 26 82 27 61 28 81 29 62 30 65 31 80 32 100 33
REMARK SMILES IDX 63 34 64 35 79 37 101 38 66 39 49 40 50 41 59 42 51 43 52 44
REMARK SMILES IDX 58 45 60 46 53 47 54 48 55 49 56 50 57 51 83 52 84 53 93 54
REMARK SMILES IDX 85 55 86 56 92 57 94 58 87 59 88 60 89 61 90 62 91 63 67 64
REMARK SMILES IDX 68 65 77 66 69 67 70 68 76 69 78 70 71 71 72 72 73 73 74 74
REMARK SMILES IDX 75 75 7 76 8 77 9 78 10 79 11 80 12 82 13 83 14 84 31 85
REMARK SMILES IDX 15 86 30 87 29 88 32 89 33 90 34 92 35 93 36 94 39 95 37 96
REMARK SMILES IDX 38 97 16 98 17 99 28 100 18 101 27 102 19 103 20 104 21 105
REMARK SMILES IDX 26 106 22 107 25 108 23 109 24 110
REMARK H PARENT 3 7 99 25 65 36 10 81 32 91
REMARK Flexibility Score: inf
ROOT
ATOM      1  C   UNL A   1      49.656  37.574  25.838  1.00  0.00     0.002 C 
ENDROOT
BRANCH   1   2
ATOM      2  C   UNL A   1      50.256  36.241  26.280  1.00  0.00     0.021 C 
BRANCH   2   3
ATOM      3  C   UNL A   1      50.328  36.015  27.785  1.00  0.00     0.116 C 
BRANCH   3   4
ATOM      4  N   UNL A   1      49.496  36.931  28.549  1.00  0.00    -0.352 N 
ATOM      5  O   UNL A   1      47.641  37.656  29.611  1.00  0.00    -0.269 OA
ATOM      6  C   UNL A   1      48.241  36.728  29.076  1.00  0.00     0.251 C 
ATOM      7  H   UNL A   1      49.885  37.820  28.714  1.00  0.00     0.163 HD
BRANCH   6   8
ATOM      8  C   UNL A   1      47.602  35.397  28.963  1.00  0.00     0.039 A 
ATOM      9  C   UNL A   1      47.511  34.551  30.070  1.00  0.00     0.014 A 
ATOM     10  C   UNL A   1      47.106  34.980  27.724  1.00  0.00     0.014 A 
ATOM     11  C   UNL A   1      47.083  33.238  29.903  1.00  0.00     0.010 A 
ATOM     12  C   UNL A   1      46.591  33.688  27.579  1.00  0.00     0.010 A 
ATOM     13  C   UNL A   1      46.614  32.790  28.657  1.00  0.00    -0.014 A 
BRANCH  13  14
ATOM     14  C   UNL A   1      46.125  31.391  28.526  1.00  0.00     0.031 A 
ATOM     15  C   UNL A   1      44.673  31.048  28.732  1.00  0.00     0.074 A 
ATOM     16  C   UNL A   1      47.002  30.430  28.172  1.00  0.00     0.049 A 
ATOM     17  N   UNL A   1      44.076  29.889  28.602  1.00  0.00    -0.248 NA
ATOM     18  C   UNL A   1      43.776  32.138  29.147  1.00  0.00     0.031 C 
ATOM     19  C   UNL A   1      48.437  30.639  27.959  1.00  0.00     0.029 A 
ATOM     20  N   UNL A   1      46.818  29.099  27.901  1.00  0.00    -0.354 N 
ATOM     21  C   UNL A   1      42.745  30.102  28.943  1.00  0.00     0.074 A 
ATOM     22  C   UNL A   1      42.625  31.498  29.306  1.00  0.00     0.031 C 
ATOM     23  C   UNL A   1      48.990  29.494  27.534  1.00  0.00     0.029 A 
ATOM     24  C   UNL A   1      47.966  28.457  27.500  1.00  0.00     0.049 A 
ATOM     25  H   UNL A   1      45.948  28.646  27.986  1.00  0.00     0.167 HD
ATOM     26  C   UNL A   1      41.718  29.216  28.947  1.00  0.00     0.037 A 
ATOM     27  C   UNL A   1      48.176  27.175  27.148  1.00  0.00     0.037 A 
ATOM     28  C   UNL A   1      41.840  27.833  28.558  1.00  0.00     0.049 A 
ATOM     29  C   UNL A   1      47.020  26.216  27.158  1.00  0.00     0.074 A 
ATOM     30  C   UNL A   1      40.848  26.870  28.480  1.00  0.00     0.029 A 
ATOM     31  N   UNL A   1      43.024  27.214  28.185  1.00  0.00    -0.354 N 
ATOM     32  N   UNL A   1      45.763  26.447  27.447  1.00  0.00    -0.248 NA
ATOM     33  C   UNL A   1      47.314  24.824  26.798  1.00  0.00     0.031 C 
ATOM     34  C   UNL A   1      41.440  25.660  28.100  1.00  0.00     0.029 A 
ATOM     35  C   UNL A   1      42.792  25.878  27.897  1.00  0.00     0.049 A 
ATOM     36  H   UNL A   1      43.901  27.659  28.133  1.00  0.00     0.167 HD
ATOM     37  C   UNL A   1      45.108  25.232  27.284  1.00  0.00     0.074 A 
ATOM     38  C   UNL A   1      46.108  24.273  26.856  1.00  0.00     0.031 C 
ATOM     39  C   UNL A   1      43.798  24.936  27.471  1.00  0.00     0.037 A 
BRANCH  26  40
ATOM     40  C   UNL A   1      40.371  29.707  29.407  1.00  0.00     0.058 A 
ATOM     41  C   UNL A   1      40.094  29.958  30.760  1.00  0.00     0.135 A 
ATOM     42  C   UNL A   1      39.353  29.968  28.473  1.00  0.00     0.135 A 
ATOM     43  F   UNL A   1      41.025  29.717  31.698  1.00  0.00    -0.206 F 
ATOM     44  C   UNL A   1      38.848  30.421  31.175  1.00  0.00     0.059 A 
ATOM     45  C   UNL A   1      38.108  30.455  28.862  1.00  0.00     0.059 A 
ATOM     46  F   UNL A   1      39.565  29.750  27.166  1.00  0.00    -0.206 F 
ATOM     47  C   UNL A   1      37.860  30.663  30.218  1.00  0.00     0.060 A 
BRANCH  47  48
ATOM     48  S   UNL A   1      36.248  31.262  30.769  1.00  0.00     0.124 S 
ATOM     49  O   UNL A   1      35.436  31.051  29.574  1.00  0.00    -0.237 OA
ATOM     50  O   UNL A   1      35.954  30.382  31.896  1.00  0.00    -0.237 OA
ATOM     51  O   UNL A   1      36.502  32.655  31.117  1.00  0.00    -0.744 OA
ENDBRANCH  47  48
ENDBRANCH  26  40
BRANCH  27  52
ATOM     52  C   UNL A   1      49.536  26.735  26.743  1.00  0.00     0.058 A 
ATOM     53  C   UNL A   1      49.944  26.797  25.403  1.00  0.00     0.135 A 
ATOM     54  C   UNL A   1      50.464  26.276  27.690  1.00  0.00     0.135 A 
ATOM     55  F   UNL A   1      49.090  27.226  24.462  1.00  0.00    -0.206 F 
ATOM     56  C   UNL A   1      51.221  26.410  25.013  1.00  0.00     0.059 A 
ATOM     57  C   UNL A   1      51.756  25.910  27.329  1.00  0.00     0.059 A 
ATOM     58  F   UNL A   1      50.128  26.217  28.988  1.00  0.00    -0.206 F 
ATOM     59  C   UNL A   1      52.123  25.971  25.985  1.00  0.00     0.060 A 
BRANCH  59  60
ATOM     60  S   UNL A   1      53.797  25.527  25.478  1.00  0.00     0.124 S 
ATOM     61  O   UNL A   1      54.354  25.013  26.724  1.00  0.00    -0.237 OA
ATOM     62  O   UNL A   1      53.551  24.540  24.432  1.00  0.00    -0.237 OA
ATOM     63  O   UNL A   1      54.352  26.795  25.012  1.00  0.00    -0.744 OA
ENDBRANCH  59  60
ENDBRANCH  27  52
BRANCH  39  64
ATOM     64  C   UNL A   1      43.368  23.526  27.181  1.00  0.00     0.058 A 
ATOM     65  C   UNL A   1      43.297  22.553  28.191  1.00  0.00     0.135 A 
ATOM     66  C   UNL A   1      43.003  23.149  25.879  1.00  0.00     0.135 A 
ATOM     67  F   UNL A   1      43.643  22.861  29.451  1.00  0.00    -0.206 F 
ATOM     68  C   UNL A   1      42.910  21.246  27.913  1.00  0.00     0.059 A 
ATOM     69  C   UNL A   1      42.589  21.854  25.583  1.00  0.00     0.059 A 
ATOM     70  F   UNL A   1      43.044  24.044  24.879  1.00  0.00    -0.206 F 
ATOM     71  C   UNL A   1      42.562  20.905  26.604  1.00  0.00     0.060 A 
BRANCH  71  72
ATOM     72  S   UNL A   1      42.050  19.210  26.256  1.00  0.00     0.124 S 
ATOM     73  O   UNL A   1      42.186  18.587  27.568  1.00  0.00    -0.237 OA
ATOM     74  O   UNL A   1      40.683  19.385  25.776  1.00  0.00    -0.237 OA
ATOM     75  O   UNL A   1      43.009  18.767  25.248  1.00  0.00    -0.744 OA
ENDBRANCH  71  72
ENDBRANCH  39  64
ENDBRANCH  13  14
ENDBRANCH   6   8
ENDBRANCH   3   4
ENDBRANCH   2   3
ENDBRANCH   1   2
BRANCH   1  76
ATOM     76  C   UNL A   1      48.296  37.503  25.139  1.00  0.00     0.002 C 
BRANCH  76  77
ATOM     77  C   UNL A   1      47.148  38.284  25.790  1.00  0.00     0.021 C 
BRANCH  77  78
ATOM     78  C   UNL A   1      46.823  39.639  25.165  1.00  0.00     0.116 C 
BRANCH  78  79
ATOM     79  N   UNL A   1      46.829  40.718  26.140  1.00  0.00    -0.352 N 
ATOM     80  C   UNL A   1      45.846  41.604  26.497  1.00  0.00     0.253 C 
ATOM     81  H   UNL A   1      47.680  40.830  26.622  1.00  0.00     0.163 HD
ATOM     82  O   UNL A   1      46.131  42.544  27.236  1.00  0.00    -0.269 OA
BRANCH  80  83
ATOM     83  C   UNL A   1      44.447  41.455  26.024  1.00  0.00     0.065 A 
ATOM     84  C   UNL A   1      44.124  42.163  24.840  1.00  0.00     0.042 A 
ATOM     85  C   UNL A   1      43.445  40.781  26.756  1.00  0.00     0.054 A 
ATOM     86  C   UNL A   1      42.816  42.215  24.359  1.00  0.00     0.038 A 
ATOM     87  C   UNL A   1      42.169  40.796  26.221  1.00  0.00     0.029 A 
ATOM     88  C   UNL A   1      41.859  41.480  25.045  1.00  0.00     0.028 A 
BRANCH  85  89
ATOM     89  N   UNL A   1      43.746  40.190  28.000  1.00  0.00    -0.325 N 
ATOM     90  C   UNL A   1      43.916  38.943  28.510  1.00  0.00     0.227 C 
ATOM     91  H   UNL A   1      43.866  40.876  28.696  1.00  0.00     0.169 HD
ATOM     92  O   UNL A   1      44.182  38.917  29.722  1.00  0.00    -0.274 OA
BRANCH  90  93
ATOM     93  C   UNL A   1      43.824  37.611  27.772  1.00  0.00     0.079 C 
ATOM     94  C   UNL A   1      43.949  36.393  28.678  1.00  0.00     0.013 C 
ATOM     95  C   UNL A   1      42.618  37.409  26.861  1.00  0.00     0.013 C 
ATOM     96  C   UNL A   1      43.095  35.300  28.049  1.00  0.00     0.001 C 
ATOM     97  C   UNL A   1      42.176  35.958  27.024  1.00  0.00     0.001 C 
ENDBRANCH  90  93
ENDBRANCH  85  89
BRANCH  86  98
ATOM     98  N   UNL A   1      42.474  43.053  23.315  1.00  0.00    -0.368 N 
ATOM     99  C   UNL A   1      43.374  44.158  22.933  1.00  0.00     0.138 C 
ATOM    100  C   UNL A   1      41.646  42.506  22.221  1.00  0.00     0.138 C 
ATOM    101  C   UNL A   1      44.210  43.812  21.668  1.00  0.00     0.138 C 
ATOM    102  C   UNL A   1      42.489  42.157  20.976  1.00  0.00     0.138 C 
ATOM    103  N   UNL A   1      43.347  43.284  20.585  1.00  0.00    -0.368 N 
BRANCH 103 104
ATOM    104  C   UNL A   1      43.038  44.062  19.487  1.00  0.00     0.037 A 
ATOM    105  C   UNL A   1      41.796  43.925  18.848  1.00  0.00     0.029 A 
ATOM    106  C   UNL A   1      43.914  45.045  18.997  1.00  0.00     0.029 A 
ATOM    107  C   UNL A   1      41.434  44.750  17.778  1.00  0.00     0.041 A 
ATOM    108  C   UNL A   1      43.566  45.863  17.919  1.00  0.00     0.041 A 
ATOM    109  C   UNL A   1      42.324  45.711  17.324  1.00  0.00     0.123 A 
ATOM    110  F   UNL A   1      41.980  46.506  16.303  1.00  0.00    -0.207 F 
ENDBRANCH 103 104
ENDBRANCH  86  98
ENDBRANCH  80  83
ENDBRANCH  78  79
ENDBRANCH  77  78
ENDBRANCH  76  77
ENDBRANCH   1  76
TORSDOF 20
ENDMDL
