MODEL 1
REMARK VINA RESULT:     -11.0      0.000      0.000
REMARK SMILES COc1ccc(CC(=O)NCCCCCCNC(=O)c2ccc(-c3c4nc(c(-c5c(F)cc(S(=O)(=O)[O-])cc5F)c5ccc([nH]5)c(-c5c(F)cc(S(=O)(=O)[O-])cc5F)c5nc(c(-c6c(F)cc(S(=O)(=O)[O-])cc6F)c6ccc3[nH]6)C=C5)C=C4)cc2)cc1S(=O)(=O)Nc1ccccc1Br
REMARK SMILES IDX 13 1 12 2 11 3 10 4 8 5 9 6 7 8 6 9 3 10 4 11 87 12 5 13
REMARK SMILES IDX 86 14 2 15 1 16 88 17 89 18 90 19 91 20 92 22 93 23 97 24
REMARK SMILES IDX 94 25 96 26 98 27 95 28 14 29 15 30 16 31 17 32 18 33 19 35
REMARK SMILES IDX 20 36 21 37 85 38 22 39 84 40 23 41 24 42 25 43 78 44 26 45
REMARK SMILES IDX 83 46 77 47 79 48 27 49 82 50 76 51 75 52 28 54 62 55 41 56
REMARK SMILES IDX 61 57 42 58 45 59 60 60 80 61 43 62 44 63 59 65 81 66 46 67
REMARK SMILES IDX 29 68 30 69 39 70 31 71 32 72 38 73 40 74 33 75 34 76 35 77
REMARK SMILES IDX 36 78 37 79 63 80 64 81 73 82 65 83 66 84 72 85 74 86 67 87
REMARK SMILES IDX 68 88 69 89 70 90 71 91 47 92 48 93 57 94 49 95 50 96 56 97
REMARK SMILES IDX 58 98 51 99 52 100 53 101 54 102 55 103
REMARK H PARENT 10 7 91 21 17 34 79 53 45 64
REMARK Flexibility Score: inf
ROOT
ATOM      1  C   UNL A   1      31.417  29.681  24.838  1.00  0.00     0.002 C 
ENDROOT
BRANCH   1   2
ATOM      2  C   UNL A   1      30.261  29.455  23.856  1.00  0.00     0.021 C 
BRANCH   2   3
ATOM      3  C   UNL A   1      30.718  29.210  22.421  1.00  0.00     0.116 C 
BRANCH   3   4
ATOM      4  N   UNL A   1      32.062  28.665  22.404  1.00  0.00    -0.356 N 
ATOM      5  C   UNL A   1      32.440  27.356  22.436  1.00  0.00     0.224 C 
ATOM      6  O   UNL A   1      33.629  27.081  22.611  1.00  0.00    -0.275 OA
ATOM      7  H   UNL A   1      32.792  29.323  22.364  1.00  0.00     0.163 HD
BRANCH   5   8
ATOM      8  C   UNL A   1      31.407  26.277  22.192  1.00  0.00     0.135 C 
BRANCH   8   9
ATOM      9  C   UNL A   1      31.086  25.395  23.375  1.00  0.00    -0.037 A 
ATOM     10  C   UNL A   1      30.878  23.995  25.798  1.00  0.00     0.139 A 
ATOM     11  C   UNL A   1      30.068  25.111  25.547  1.00  0.00     0.048 A 
ATOM     12  C   UNL A   1      31.633  23.450  24.771  1.00  0.00     0.129 A 
ATOM     13  C   UNL A   1      30.161  25.803  24.338  1.00  0.00     0.008 A 
ATOM     14  C   UNL A   1      31.778  24.192  23.582  1.00  0.00     0.030 A 
BRANCH  10  15
ATOM     15  O   UNL A   1      30.872  23.552  27.087  1.00  0.00    -0.495 OA
ATOM     16  C   UNL A   1      29.691  22.801  27.386  1.00  0.00     0.278 C 
ENDBRANCH  10  15
BRANCH  12  17
ATOM     17  S   UNL A   1      32.513  21.911  24.839  1.00  0.00     0.265 S 
ATOM     18  O   UNL A   1      31.535  20.893  25.183  1.00  0.00    -0.201 OA
ATOM     19  O   UNL A   1      33.228  21.805  23.584  1.00  0.00    -0.201 OA
BRANCH  17  20
ATOM     20  N   UNL A   1      33.698  21.818  26.041  1.00  0.00    -0.278 N 
ATOM     21  H   UNL A   1      33.432  21.505  26.936  1.00  0.00     0.180 HD
BRANCH  20  22
ATOM     22  C   UNL A   1      35.068  22.172  25.826  1.00  0.00     0.063 A 
ATOM     23  C   UNL A   1      35.418  23.517  26.027  1.00  0.00     0.028 A 
ATOM     24  C   UNL A   1      36.057  21.266  25.422  1.00  0.00     0.042 A 
ATOM     25  C   UNL A   1      36.747  23.934  25.915  1.00  0.00     0.002 A 
ATOM     26  C   UNL A   1      37.388  21.687  25.313  1.00  0.00     0.018 A 
ATOM     27  Br  UNL A   1      35.662  19.480  24.929  1.00  0.00    -0.049 Br
ATOM     28  C   UNL A   1      37.733  23.014  25.575  1.00  0.00     0.001 A 
ENDBRANCH  20  22
ENDBRANCH  17  20
ENDBRANCH  12  17
ENDBRANCH   8   9
ENDBRANCH   5   8
ENDBRANCH   3   4
ENDBRANCH   2   3
ENDBRANCH   1   2
BRANCH   1  29
ATOM     29  C   UNL A   1      31.466  28.693  26.008  1.00  0.00     0.002 C 
BRANCH  29  30
ATOM     30  C   UNL A   1      32.727  27.826  26.072  1.00  0.00     0.021 C 
BRANCH  30  31
ATOM     31  C   UNL A   1      33.752  28.264  27.115  1.00  0.00     0.116 C 
BRANCH  31  32
ATOM     32  N   UNL A   1      33.614  29.673  27.446  1.00  0.00    -0.352 N 
ATOM     33  C   UNL A   1      34.481  30.514  28.095  1.00  0.00     0.251 C 
ATOM     34  H   UNL A   1      32.767  30.088  27.161  1.00  0.00     0.163 HD
ATOM     35  O   UNL A   1      34.088  31.617  28.468  1.00  0.00    -0.269 OA
BRANCH  33  36
ATOM     36  C   UNL A   1      35.876  30.097  28.361  1.00  0.00     0.039 A 
ATOM     37  C   UNL A   1      36.797  30.134  27.310  1.00  0.00     0.014 A 
ATOM     38  C   UNL A   1      36.271  29.633  29.620  1.00  0.00     0.014 A 
ATOM     39  C   UNL A   1      38.121  29.754  27.534  1.00  0.00     0.010 A 
ATOM     40  C   UNL A   1      37.607  29.314  29.859  1.00  0.00     0.010 A 
ATOM     41  C   UNL A   1      38.545  29.367  28.817  1.00  0.00    -0.014 A 
BRANCH  41  42
ATOM     42  C   UNL A   1      39.971  29.037  29.073  1.00  0.00     0.031 A 
ATOM     43  C   UNL A   1      40.897  30.051  29.686  1.00  0.00     0.074 A 
ATOM     44  C   UNL A   1      40.438  27.824  28.717  1.00  0.00     0.049 A 
ATOM     45  N   UNL A   1      42.163  29.932  29.992  1.00  0.00    -0.248 NA
ATOM     46  C   UNL A   1      40.333  31.380  29.975  1.00  0.00     0.031 C 
ATOM     47  C   UNL A   1      39.653  26.778  28.057  1.00  0.00     0.029 A 
ATOM     48  N   UNL A   1      41.683  27.265  28.857  1.00  0.00    -0.354 N 
ATOM     49  C   UNL A   1      42.550  31.165  30.504  1.00  0.00     0.074 A 
ATOM     50  C   UNL A   1      41.397  32.036  30.419  1.00  0.00     0.031 C 
ATOM     51  C   UNL A   1      40.426  25.695  27.879  1.00  0.00     0.029 A 
ATOM     52  C   UNL A   1      41.765  25.977  28.384  1.00  0.00     0.049 A 
ATOM     53  H   UNL A   1      42.445  27.741  29.259  1.00  0.00     0.167 HD
ATOM     54  C   UNL A   1      43.750  31.532  31.017  1.00  0.00     0.037 A 
ATOM     55  C   UNL A   1      42.801  25.118  28.363  1.00  0.00     0.037 A 
ATOM     56  C   UNL A   1      44.889  30.656  31.113  1.00  0.00     0.049 A 
ATOM     57  C   UNL A   1      44.117  25.542  28.954  1.00  0.00     0.074 A 
ATOM     58  C   UNL A   1      46.129  30.913  31.675  1.00  0.00     0.029 A 
ATOM     59  N   UNL A   1      44.932  29.354  30.636  1.00  0.00    -0.354 N 
ATOM     60  N   UNL A   1      44.444  26.689  29.502  1.00  0.00    -0.248 NA
ATOM     61  C   UNL A   1      45.204  24.553  28.932  1.00  0.00     0.031 C 
ATOM     62  C   UNL A   1      46.933  29.779  31.501  1.00  0.00     0.029 A 
ATOM     63  C   UNL A   1      46.181  28.802  30.870  1.00  0.00     0.049 A 
ATOM     64  H   UNL A   1      44.184  28.890  30.195  1.00  0.00     0.167 HD
ATOM     65  C   UNL A   1      45.767  26.553  29.906  1.00  0.00     0.074 A 
ATOM     66  C   UNL A   1      46.173  25.207  29.556  1.00  0.00     0.031 C 
ATOM     67  C   UNL A   1      46.573  27.462  30.508  1.00  0.00     0.037 A 
BRANCH  54  68
ATOM     68  C   UNL A   1      43.890  32.943  31.520  1.00  0.00     0.058 A 
ATOM     69  C   UNL A   1      44.302  33.987  30.676  1.00  0.00     0.135 A 
ATOM     70  C   UNL A   1      43.573  33.264  32.850  1.00  0.00     0.135 A 
ATOM     71  F   UNL A   1      44.629  33.735  29.399  1.00  0.00    -0.206 F 
ATOM     72  C   UNL A   1      44.424  35.293  31.140  1.00  0.00     0.059 A 
ATOM     73  C   UNL A   1      43.663  34.569  33.328  1.00  0.00     0.059 A 
ATOM     74  F   UNL A   1      43.173  32.306  33.700  1.00  0.00    -0.206 F 
ATOM     75  C   UNL A   1      44.104  35.575  32.470  1.00  0.00     0.060 A 
BRANCH  75  76
ATOM     76  S   UNL A   1      44.264  37.274  33.055  1.00  0.00     0.124 S 
ATOM     77  O   UNL A   1      44.324  38.012  31.797  1.00  0.00    -0.237 OA
ATOM     78  O   UNL A   1      43.045  37.454  33.837  1.00  0.00    -0.237 OA
ATOM     79  O   UNL A   1      45.502  37.252  33.829  1.00  0.00    -0.744 OA
ENDBRANCH  75  76
ENDBRANCH  54  68
BRANCH  55  80
ATOM     80  C   UNL A   1      42.624  23.757  27.791  1.00  0.00     0.058 A 
ATOM     81  C   UNL A   1      42.491  22.637  28.624  1.00  0.00     0.135 A 
ATOM     82  C   UNL A   1      42.561  23.553  26.405  1.00  0.00     0.135 A 
ATOM     83  F   UNL A   1      42.550  22.782  29.957  1.00  0.00    -0.206 F 
ATOM     84  C   UNL A   1      42.317  21.359  28.104  1.00  0.00     0.059 A 
ATOM     85  C   UNL A   1      42.364  22.288  25.860  1.00  0.00     0.059 A 
ATOM     86  F   UNL A   1      42.665  24.596  25.565  1.00  0.00    -0.206 F 
ATOM     87  C   UNL A   1      42.252  21.195  26.719  1.00  0.00     0.060 A 
BRANCH  87  88
ATOM     88  S   UNL A   1      41.971  19.539  26.054  1.00  0.00     0.124 S 
ATOM     89  O   UNL A   1      42.876  19.526  24.910  1.00  0.00    -0.237 OA
ATOM     90  O   UNL A   1      42.349  18.688  27.177  1.00  0.00    -0.237 OA
ATOM     91  O   UNL A   1      40.547  19.546  25.734  1.00  0.00    -0.744 OA
ENDBRANCH  87  88
ENDBRANCH  55  80
BRANCH  67  92
ATOM     92  C   UNL A   1      47.973  27.022  30.837  1.00  0.00     0.058 A 
ATOM     93  C   UNL A   1      48.298  26.492  32.095  1.00  0.00     0.135 A 
ATOM     94  C   UNL A   1      48.994  27.110  29.878  1.00  0.00     0.135 A 
ATOM     95  F   UNL A   1      47.359  26.391  33.050  1.00  0.00    -0.206 F 
ATOM     96  C   UNL A   1      49.596  26.096  32.404  1.00  0.00     0.059 A 
ATOM     97  C   UNL A   1      50.292  26.696  30.156  1.00  0.00     0.059 A 
ATOM     98  F   UNL A   1      48.734  27.599  28.655  1.00  0.00    -0.206 F 
ATOM     99  C   UNL A   1      50.588  26.206  31.427  1.00  0.00     0.060 A 
BRANCH  99 100
ATOM    100  S   UNL A   1      52.266  25.680  31.833  1.00  0.00     0.124 S 
ATOM    101  O   UNL A   1      52.076  24.255  32.079  1.00  0.00    -0.237 OA
ATOM    102  O   UNL A   1      53.006  26.021  30.622  1.00  0.00    -0.237 OA
ATOM    103  O   UNL A   1      52.597  26.482  33.008  1.00  0.00    -0.744 OA
ENDBRANCH  99 100
ENDBRANCH  67  92
ENDBRANCH  41  42
ENDBRANCH  33  36
ENDBRANCH  31  32
ENDBRANCH  30  31
ENDBRANCH  29  30
ENDBRANCH   1  29
TORSDOF 21
ENDMDL
MODEL 2
REMARK VINA RESULT:     -10.8      4.633     10.316
REMARK SMILES COc1ccc(CC(=O)NCCCCCCNC(=O)c2ccc(-c3c4nc(c(-c5c(F)cc(S(=O)(=O)[O-])cc5F)c5ccc([nH]5)c(-c5c(F)cc(S(=O)(=O)[O-])cc5F)c5nc(c(-c6c(F)cc(S(=O)(=O)[O-])cc6F)c6ccc3[nH]6)C=C5)C=C4)cc2)cc1S(=O)(=O)Nc1ccccc1Br
REMARK SMILES IDX 13 1 12 2 11 3 10 4 8 5 9 6 7 8 6 9 3 10 4 11 87 12 5 13
REMARK SMILES IDX 86 14 2 15 1 16 88 17 89 18 90 19 91 20 92 22 93 23 97 24
REMARK SMILES IDX 94 25 96 26 98 27 95 28 14 29 15 30 16 31 17 32 18 33 19 35
REMARK SMILES IDX 20 36 21 37 85 38 22 39 84 40 23 41 24 42 25 43 78 44 26 45
REMARK SMILES IDX 83 46 77 47 79 48 27 49 82 50 76 51 75 52 28 54 62 55 41 56
REMARK SMILES IDX 61 57 42 58 45 59 60 60 80 61 43 62 44 63 59 65 81 66 46 67
REMARK SMILES IDX 29 68 30 69 39 70 31 71 32 72 38 73 40 74 33 75 34 76 35 77
REMARK SMILES IDX 36 78 37 79 63 80 64 81 73 82 65 83 66 84 72 85 74 86 67 87
REMARK SMILES IDX 68 88 69 89 70 90 71 91 47 92 48 93 57 94 49 95 50 96 56 97
REMARK SMILES IDX 58 98 51 99 52 100 53 101 54 102 55 103
REMARK H PARENT 10 7 91 21 17 34 79 53 45 64
REMARK Flexibility Score: inf
ROOT
ATOM      1  C   UNL A   1      36.315  23.459  26.084  1.00  0.00     0.002 C 
ENDROOT
BRANCH   1   2
ATOM      2  C   UNL A   1      35.903  22.041  25.673  1.00  0.00     0.021 C 
BRANCH   2   3
ATOM      3  C   UNL A   1      34.806  21.445  26.551  1.00  0.00     0.116 C 
BRANCH   3   4
ATOM      4  N   UNL A   1      33.872  20.681  25.746  1.00  0.00    -0.356 N 
ATOM      5  C   UNL A   1      32.531  20.878  25.598  1.00  0.00     0.224 C 
ATOM      6  O   UNL A   1      31.860  20.014  25.028  1.00  0.00    -0.275 OA
ATOM      7  H   UNL A   1      34.255  19.927  25.244  1.00  0.00     0.163 HD
BRANCH   5   8
ATOM      8  C   UNL A   1      31.911  22.173  26.077  1.00  0.00     0.135 C 
BRANCH   8   9
ATOM      9  C   UNL A   1      31.886  23.300  25.073  1.00  0.00    -0.037 A 
ATOM     10  C   UNL A   1      32.329  25.448  23.322  1.00  0.00     0.139 A 
ATOM     11  C   UNL A   1      32.367  24.127  22.855  1.00  0.00     0.048 A 
ATOM     12  C   UNL A   1      31.865  25.710  24.602  1.00  0.00     0.129 A 
ATOM     13  C   UNL A   1      32.135  23.057  23.721  1.00  0.00     0.008 A 
ATOM     14  C   UNL A   1      31.704  24.628  25.489  1.00  0.00     0.030 A 
BRANCH  10  15
ATOM     15  O   UNL A   1      32.801  26.384  22.452  1.00  0.00    -0.495 OA
ATOM     16  C   UNL A   1      32.797  25.908  21.103  1.00  0.00     0.278 C 
ENDBRANCH  10  15
BRANCH  12  17
ATOM     17  S   UNL A   1      31.518  27.318  25.267  1.00  0.00     0.265 S 
ATOM     18  O   UNL A   1      30.337  27.804  24.573  1.00  0.00    -0.201 OA
ATOM     19  O   UNL A   1      31.473  27.154  26.705  1.00  0.00    -0.201 OA
BRANCH  17  20
ATOM     20  N   UNL A   1      32.713  28.481  24.984  1.00  0.00    -0.278 N 
ATOM     21  H   UNL A   1      32.973  28.666  24.053  1.00  0.00     0.180 HD
BRANCH  20  22
ATOM     22  C   UNL A   1      33.366  29.209  26.029  1.00  0.00     0.063 A 
ATOM     23  C   UNL A   1      34.541  28.649  26.558  1.00  0.00     0.028 A 
ATOM     24  C   UNL A   1      32.898  30.422  26.549  1.00  0.00     0.042 A 
ATOM     25  C   UNL A   1      35.283  29.330  27.525  1.00  0.00     0.002 A 
ATOM     26  C   UNL A   1      33.646  31.103  27.517  1.00  0.00     0.018 A 
ATOM     27  Br  UNL A   1      31.226  31.165  26.056  1.00  0.00    -0.049 Br
ATOM     28  C   UNL A   1      34.844  30.565  27.991  1.00  0.00     0.001 A 
ENDBRANCH  20  22
ENDBRANCH  17  20
ENDBRANCH  12  17
ENDBRANCH   8   9
ENDBRANCH   5   8
ENDBRANCH   3   4
ENDBRANCH   2   3
ENDBRANCH   1   2
BRANCH   1  29
ATOM     29  C   UNL A   1      37.780  23.808  25.802  1.00  0.00     0.002 C 
BRANCH  29  30
ATOM     30  C   UNL A   1      38.797  22.757  26.257  1.00  0.00     0.021 C 
BRANCH  30  31
ATOM     31  C   UNL A   1      40.001  23.317  27.010  1.00  0.00     0.116 C 
BRANCH  31  32
ATOM     32  N   UNL A   1      41.000  23.859  26.102  1.00  0.00    -0.352 N 
ATOM     33  C   UNL A   1      41.553  25.112  26.050  1.00  0.00     0.251 C 
ATOM     34  H   UNL A   1      41.330  23.228  25.421  1.00  0.00     0.163 HD
ATOM     35  O   UNL A   1      42.223  25.435  25.071  1.00  0.00    -0.269 OA
BRANCH  33  36
ATOM     36  C   UNL A   1      41.336  26.078  27.150  1.00  0.00     0.039 A 
ATOM     37  C   UNL A   1      40.284  25.849  28.042  1.00  0.00     0.014 A 
ATOM     38  C   UNL A   1      42.127  27.223  27.281  1.00  0.00     0.014 A 
ATOM     39  C   UNL A   1      40.061  26.740  29.093  1.00  0.00     0.010 A 
ATOM     40  C   UNL A   1      41.943  28.077  28.368  1.00  0.00     0.010 A 
ATOM     41  C   UNL A   1      40.905  27.847  29.282  1.00  0.00    -0.014 A 
BRANCH  41  42
ATOM     42  C   UNL A   1      40.715  28.751  30.446  1.00  0.00     0.031 A 
ATOM     43  C   UNL A   1      41.568  28.611  31.676  1.00  0.00     0.074 A 
ATOM     44  C   UNL A   1      39.741  29.682  30.401  1.00  0.00     0.049 A 
ATOM     45  N   UNL A   1      41.551  29.320  32.776  1.00  0.00    -0.248 NA
ATOM     46  C   UNL A   1      42.557  27.521  31.682  1.00  0.00     0.031 C 
ATOM     47  C   UNL A   1      38.807  29.873  29.289  1.00  0.00     0.029 A 
ATOM     48  N   UNL A   1      39.372  30.640  31.311  1.00  0.00    -0.354 N 
ATOM     49  C   UNL A   1      42.518  28.762  33.605  1.00  0.00     0.074 A 
ATOM     50  C   UNL A   1      43.068  27.624  32.901  1.00  0.00     0.031 C 
ATOM     51  C   UNL A   1      37.995  30.905  29.569  1.00  0.00     0.029 A 
ATOM     52  C   UNL A   1      38.330  31.429  30.889  1.00  0.00     0.049 A 
ATOM     53  H   UNL A   1      39.814  30.751  32.184  1.00  0.00     0.167 HD
ATOM     54  C   UNL A   1      42.924  29.174  34.831  1.00  0.00     0.037 A 
ATOM     55  C   UNL A   1      37.715  32.463  31.494  1.00  0.00     0.037 A 
ATOM     56  C   UNL A   1      42.383  30.319  35.519  1.00  0.00     0.049 A 
ATOM     57  C   UNL A   1      38.195  32.912  32.846  1.00  0.00     0.074 A 
ATOM     58  C   UNL A   1      42.772  30.855  36.735  1.00  0.00     0.029 A 
ATOM     59  N   UNL A   1      41.337  31.102  35.054  1.00  0.00    -0.354 N 
ATOM     60  N   UNL A   1      39.162  32.419  33.583  1.00  0.00    -0.248 NA
ATOM     61  C   UNL A   1      37.508  34.064  33.446  1.00  0.00     0.031 C 
ATOM     62  C   UNL A   1      41.933  31.939  37.024  1.00  0.00     0.029 A 
ATOM     63  C   UNL A   1      41.052  32.104  35.968  1.00  0.00     0.049 A 
ATOM     64  H   UNL A   1      40.866  30.966  34.201  1.00  0.00     0.167 HD
ATOM     65  C   UNL A   1      39.211  33.210  34.725  1.00  0.00     0.074 A 
ATOM     66  C   UNL A   1      38.189  34.226  34.571  1.00  0.00     0.031 C 
ATOM     67  C   UNL A   1      40.024  33.103  35.804  1.00  0.00     0.037 A 
BRANCH  54  68
ATOM     68  C   UNL A   1      44.013  28.385  35.504  1.00  0.00     0.058 A 
ATOM     69  C   UNL A   1      45.371  28.662  35.275  1.00  0.00     0.135 A 
ATOM     70  C   UNL A   1      43.700  27.365  36.417  1.00  0.00     0.135 A 
ATOM     71  F   UNL A   1      45.728  29.617  34.402  1.00  0.00    -0.206 F 
ATOM     72  C   UNL A   1      46.379  27.937  35.903  1.00  0.00     0.059 A 
ATOM     73  C   UNL A   1      44.693  26.644  37.077  1.00  0.00     0.059 A 
ATOM     74  F   UNL A   1      42.419  27.059  36.676  1.00  0.00    -0.206 F 
ATOM     75  C   UNL A   1      46.029  26.927  36.802  1.00  0.00     0.060 A 
BRANCH  75  76
ATOM     76  S   UNL A   1      47.348  25.998  37.611  1.00  0.00     0.124 S 
ATOM     77  O   UNL A   1      47.062  26.251  39.020  1.00  0.00    -0.237 OA
ATOM     78  O   UNL A   1      47.099  24.635  37.151  1.00  0.00    -0.237 OA
ATOM     79  O   UNL A   1      48.566  26.617  37.097  1.00  0.00    -0.744 OA
ENDBRANCH  75  76
ENDBRANCH  54  68
BRANCH  55  80
ATOM     80  C   UNL A   1      36.598  33.164  30.808  1.00  0.00     0.058 A 
ATOM     81  C   UNL A   1      35.263  32.868  31.117  1.00  0.00     0.135 A 
ATOM     82  C   UNL A   1      36.843  34.158  29.849  1.00  0.00     0.135 A 
ATOM     83  F   UNL A   1      34.979  31.921  32.025  1.00  0.00    -0.206 F 
ATOM     84  C   UNL A   1      34.207  33.521  30.490  1.00  0.00     0.059 A 
ATOM     85  C   UNL A   1      35.805  34.842  29.223  1.00  0.00     0.059 A 
ATOM     86  F   UNL A   1      38.104  34.491  29.531  1.00  0.00    -0.206 F 
ATOM     87  C   UNL A   1      34.489  34.510  29.545  1.00  0.00     0.060 A 
BRANCH  87  88
ATOM     88  S   UNL A   1      33.113  35.390  28.774  1.00  0.00     0.124 S 
ATOM     89  O   UNL A   1      32.489  34.330  27.992  1.00  0.00    -0.237 OA
ATOM     90  O   UNL A   1      32.360  35.859  29.932  1.00  0.00    -0.237 OA
ATOM     91  O   UNL A   1      33.778  36.437  28.003  1.00  0.00    -0.744 OA
ENDBRANCH  87  88
ENDBRANCH  55  80
BRANCH  67  92
ATOM     92  C   UNL A   1      39.848  34.122  36.896  1.00  0.00     0.058 A 
ATOM     93  C   UNL A   1      40.464  35.381  36.831  1.00  0.00     0.135 A 
ATOM     94  C   UNL A   1      39.038  33.844  38.009  1.00  0.00     0.135 A 
ATOM     95  F   UNL A   1      41.254  35.695  35.792  1.00  0.00    -0.206 F 
ATOM     96  C   UNL A   1      40.311  36.319  37.848  1.00  0.00     0.059 A 
ATOM     97  C   UNL A   1      38.849  34.776  39.024  1.00  0.00     0.059 A 
ATOM     98  F   UNL A   1      38.417  32.659  38.114  1.00  0.00    -0.206 F 
ATOM     99  C   UNL A   1      39.503  36.004  38.943  1.00  0.00     0.060 A 
BRANCH  99 100
ATOM    100  S   UNL A   1      39.303  37.231  40.252  1.00  0.00     0.124 S 
ATOM    101  O   UNL A   1      38.553  36.476  41.250  1.00  0.00    -0.237 OA
ATOM    102  O   UNL A   1      40.684  37.547  40.604  1.00  0.00    -0.237 OA
ATOM    103  O   UNL A   1      38.568  38.309  39.597  1.00  0.00    -0.744 OA
ENDBRANCH  99 100
ENDBRANCH  67  92
ENDBRANCH  41  42
ENDBRANCH  33  36
ENDBRANCH  31  32
ENDBRANCH  30  31
ENDBRANCH  29  30
ENDBRANCH   1  29
TORSDOF 21
ENDMDL
MODEL 3
REMARK VINA RESULT:     -10.6      0.671      7.982
REMARK SMILES COc1ccc(CC(=O)NCCCCCCNC(=O)c2ccc(-c3c4nc(c(-c5c(F)cc(S(=O)(=O)[O-])cc5F)c5ccc([nH]5)c(-c5c(F)cc(S(=O)(=O)[O-])cc5F)c5nc(c(-c6c(F)cc(S(=O)(=O)[O-])cc6F)c6ccc3[nH]6)C=C5)C=C4)cc2)cc1S(=O)(=O)Nc1ccccc1Br
REMARK SMILES IDX 13 1 12 2 11 3 10 4 8 5 9 6 7 8 6 9 3 10 4 11 87 12 5 13
REMARK SMILES IDX 86 14 2 15 1 16 88 17 89 18 90 19 91 20 92 22 93 23 97 24
REMARK SMILES IDX 94 25 96 26 98 27 95 28 14 29 15 30 16 31 17 32 18 33 19 35
REMARK SMILES IDX 20 36 21 37 85 38 22 39 84 40 23 41 24 42 25 43 78 44 26 45
REMARK SMILES IDX 83 46 77 47 79 48 27 49 82 50 76 51 75 52 28 54 62 55 41 56
REMARK SMILES IDX 61 57 42 58 45 59 60 60 80 61 43 62 44 63 59 65 81 66 46 67
REMARK SMILES IDX 29 68 30 69 39 70 31 71 32 72 38 73 40 74 33 75 34 76 35 77
REMARK SMILES IDX 36 78 37 79 63 80 64 81 73 82 65 83 66 84 72 85 74 86 67 87
REMARK SMILES IDX 68 88 69 89 70 90 71 91 47 92 48 93 57 94 49 95 50 96 56 97
REMARK SMILES IDX 58 98 51 99 52 100 53 101 54 102 55 103
REMARK H PARENT 10 7 91 21 17 34 79 53 45 64
REMARK Flexibility Score: inf
ROOT
ATOM      1  C   UNL A   1      31.988  29.068  24.603  1.00  0.00     0.002 C 
ENDROOT
BRANCH   1   2
ATOM      2  C   UNL A   1      30.799  29.238  23.651  1.00  0.00     0.021 C 
BRANCH   2   3
ATOM      3  C   UNL A   1      30.893  28.375  22.396  1.00  0.00     0.116 C 
BRANCH   3   4
ATOM      4  N   UNL A   1      32.266  27.965  22.166  1.00  0.00    -0.356 N 
ATOM      5  C   UNL A   1      32.754  26.699  22.027  1.00  0.00     0.224 C 
ATOM      6  O   UNL A   1      33.975  26.526  22.032  1.00  0.00    -0.275 OA
ATOM      7  H   UNL A   1      32.927  28.690  22.103  1.00  0.00     0.163 HD
BRANCH   5   8
ATOM      8  C   UNL A   1      31.793  25.551  21.806  1.00  0.00     0.135 C 
BRANCH   8   9
ATOM      9  C   UNL A   1      31.436  24.747  23.033  1.00  0.00    -0.037 A 
ATOM     10  C   UNL A   1      31.159  23.500  25.532  1.00  0.00     0.139 A 
ATOM     11  C   UNL A   1      30.369  24.608  25.195  1.00  0.00     0.048 A 
ATOM     12  C   UNL A   1      31.930  22.885  24.556  1.00  0.00     0.129 A 
ATOM     13  C   UNL A   1      30.496  25.223  23.949  1.00  0.00     0.008 A 
ATOM     14  C   UNL A   1      32.109  23.551  23.328  1.00  0.00     0.030 A 
BRANCH  10  15
ATOM     15  O   UNL A   1      31.120  23.137  26.844  1.00  0.00    -0.495 OA
ATOM     16  C   UNL A   1      29.789  22.836  27.274  1.00  0.00     0.278 C 
ENDBRANCH  10  15
BRANCH  12  17
ATOM     17  S   UNL A   1      32.789  21.344  24.737  1.00  0.00     0.265 S 
ATOM     18  O   UNL A   1      31.804  20.374  25.184  1.00  0.00    -0.201 OA
ATOM     19  O   UNL A   1      33.478  21.122  23.483  1.00  0.00    -0.201 OA
BRANCH  17  20
ATOM     20  N   UNL A   1      33.996  21.334  25.921  1.00  0.00    -0.278 N 
ATOM     21  H   UNL A   1      33.831  20.832  26.752  1.00  0.00     0.180 HD
BRANCH  20  22
ATOM     22  C   UNL A   1      35.246  22.018  25.779  1.00  0.00     0.063 A 
ATOM     23  C   UNL A   1      35.248  23.400  26.032  1.00  0.00     0.028 A 
ATOM     24  C   UNL A   1      36.440  21.395  25.396  1.00  0.00     0.042 A 
ATOM     25  C   UNL A   1      36.437  24.130  25.993  1.00  0.00     0.002 A 
ATOM     26  C   UNL A   1      37.631  22.131  25.360  1.00  0.00     0.018 A 
ATOM     27  Br  UNL A   1      36.513  19.587  24.837  1.00  0.00    -0.049 Br
ATOM     28  C   UNL A   1      37.631  23.491  25.674  1.00  0.00     0.001 A 
ENDBRANCH  20  22
ENDBRANCH  17  20
ENDBRANCH  12  17
ENDBRANCH   8   9
ENDBRANCH   5   8
ENDBRANCH   3   4
ENDBRANCH   2   3
ENDBRANCH   1   2
BRANCH   1  29
ATOM     29  C   UNL A   1      31.656  28.362  25.922  1.00  0.00     0.002 C 
BRANCH  29  30
ATOM     30  C   UNL A   1      32.747  27.423  26.448  1.00  0.00     0.021 C 
BRANCH  30  31
ATOM     31  C   UNL A   1      34.056  28.113  26.824  1.00  0.00     0.116 C 
BRANCH  31  32
ATOM     32  N   UNL A   1      33.834  29.472  27.292  1.00  0.00    -0.352 N 
ATOM     33  C   UNL A   1      34.639  30.286  28.046  1.00  0.00     0.251 C 
ATOM     34  H   UNL A   1      32.972  29.869  27.026  1.00  0.00     0.163 HD
ATOM     35  O   UNL A   1      34.178  31.323  28.517  1.00  0.00    -0.269 OA
BRANCH  33  36
ATOM     36  C   UNL A   1      36.049  29.917  28.308  1.00  0.00     0.039 A 
ATOM     37  C   UNL A   1      36.981  30.069  27.278  1.00  0.00     0.014 A 
ATOM     38  C   UNL A   1      36.447  29.387  29.539  1.00  0.00     0.014 A 
ATOM     39  C   UNL A   1      38.319  29.736  27.499  1.00  0.00     0.010 A 
ATOM     40  C   UNL A   1      37.794  29.115  29.778  1.00  0.00     0.010 A 
ATOM     41  C   UNL A   1      38.742  29.283  28.759  1.00  0.00    -0.014 A 
BRANCH  41  42
ATOM     42  C   UNL A   1      40.179  29.003  29.017  1.00  0.00     0.031 A 
ATOM     43  C   UNL A   1      40.778  27.669  28.668  1.00  0.00     0.074 A 
ATOM     44  C   UNL A   1      40.937  29.952  29.601  1.00  0.00     0.049 A 
ATOM     45  N   UNL A   1      42.012  27.257  28.809  1.00  0.00    -0.248 NA
ATOM     46  C   UNL A   1      39.869  26.656  28.105  1.00  0.00     0.031 C 
ATOM     47  C   UNL A   1      40.455  31.263  30.043  1.00  0.00     0.029 A 
ATOM     48  N   UNL A   1      42.270  29.962  29.925  1.00  0.00    -0.354 N 
ATOM     49  C   UNL A   1      42.029  25.941  28.360  1.00  0.00     0.074 A 
ATOM     50  C   UNL A   1      40.670  25.606  27.989  1.00  0.00     0.031 C 
ATOM     51  C   UNL A   1      41.484  31.960  30.551  1.00  0.00     0.029 A 
ATOM     52  C   UNL A   1      42.689  31.140  30.498  1.00  0.00     0.049 A 
ATOM     53  H   UNL A   1      42.870  29.199  29.762  1.00  0.00     0.167 HD
ATOM     54  C   UNL A   1      43.083  25.097  28.246  1.00  0.00     0.037 A 
ATOM     55  C   UNL A   1      43.907  31.518  30.928  1.00  0.00     0.037 A 
ATOM     56  C   UNL A   1      44.436  25.443  28.601  1.00  0.00     0.049 A 
ATOM     57  C   UNL A   1      45.065  30.570  30.775  1.00  0.00     0.074 A 
ATOM     58  C   UNL A   1      45.584  24.681  28.464  1.00  0.00     0.029 A 
ATOM     59  N   UNL A   1      44.825  26.649  29.166  1.00  0.00    -0.354 N 
ATOM     60  N   UNL A   1      45.077  29.356  30.278  1.00  0.00    -0.248 NA
ATOM     61  C   UNL A   1      46.378  31.047  31.233  1.00  0.00     0.031 C 
ATOM     62  C   UNL A   1      46.661  25.412  28.982  1.00  0.00     0.029 A 
ATOM     63  C   UNL A   1      46.190  26.645  29.403  1.00  0.00     0.049 A 
ATOM     64  H   UNL A   1      44.219  27.398  29.369  1.00  0.00     0.167 HD
ATOM     65  C   UNL A   1      46.398  28.930  30.348  1.00  0.00     0.074 A 
ATOM     66  C   UNL A   1      47.159  30.024  30.916  1.00  0.00     0.031 C 
ATOM     67  C   UNL A   1      46.932  27.740  29.978  1.00  0.00     0.037 A 
BRANCH  54  68
ATOM     68  C   UNL A   1      42.816  23.718  27.709  1.00  0.00     0.058 A 
ATOM     69  C   UNL A   1      42.549  22.636  28.563  1.00  0.00     0.135 A 
ATOM     70  C   UNL A   1      42.790  23.481  26.325  1.00  0.00     0.135 A 
ATOM     71  F   UNL A   1      42.574  22.803  29.895  1.00  0.00    -0.206 F 
ATOM     72  C   UNL A   1      42.294  21.361  28.066  1.00  0.00     0.059 A 
ATOM     73  C   UNL A   1      42.512  22.218  25.805  1.00  0.00     0.059 A 
ATOM     74  F   UNL A   1      43.037  24.479  25.463  1.00  0.00    -0.206 F 
ATOM     75  C   UNL A   1      42.280  21.162  26.684  1.00  0.00     0.060 A 
BRANCH  75  76
ATOM     76  S   UNL A   1      41.946  19.503  26.054  1.00  0.00     0.124 S 
ATOM     77  O   UNL A   1      40.511  19.575  25.793  1.00  0.00    -0.237 OA
ATOM     78  O   UNL A   1      42.801  19.437  24.874  1.00  0.00    -0.237 OA
ATOM     79  O   UNL A   1      42.340  18.635  27.159  1.00  0.00    -0.744 OA
ENDBRANCH  75  76
ENDBRANCH  54  68
BRANCH  55  80
ATOM     80  C   UNL A   1      44.099  32.870  31.513  1.00  0.00     0.058 A 
ATOM     81  C   UNL A   1      43.974  33.083  32.893  1.00  0.00     0.135 A 
ATOM     82  C   UNL A   1      44.433  33.970  30.708  1.00  0.00     0.135 A 
ATOM     83  F   UNL A   1      43.650  32.063  33.702  1.00  0.00    -0.206 F 
ATOM     84  C   UNL A   1      44.157  34.342  33.456  1.00  0.00     0.059 A 
ATOM     85  C   UNL A   1      44.645  35.234  31.250  1.00  0.00     0.059 A 
ATOM     86  F   UNL A   1      44.583  33.815  29.383  1.00  0.00    -0.206 F 
ATOM     87  C   UNL A   1      44.496  35.412  32.625  1.00  0.00     0.060 A 
BRANCH  87  88
ATOM     88  S   UNL A   1      44.786  37.031  33.372  1.00  0.00     0.124 S 
ATOM     89  O   UNL A   1      45.386  36.662  34.648  1.00  0.00    -0.237 OA
ATOM     90  O   UNL A   1      45.678  37.661  32.404  1.00  0.00    -0.237 OA
ATOM     91  O   UNL A   1      43.447  37.608  33.445  1.00  0.00    -0.744 OA
ENDBRANCH  87  88
ENDBRANCH  55  80
BRANCH  67  92
ATOM     92  C   UNL A   1      48.414  27.568  30.167  1.00  0.00     0.058 A 
ATOM     93  C   UNL A   1      48.947  27.054  31.359  1.00  0.00     0.135 A 
ATOM     94  C   UNL A   1      49.309  27.900  29.136  1.00  0.00     0.135 A 
ATOM     95  F   UNL A   1      48.135  26.726  32.377  1.00  0.00    -0.206 F 
ATOM     96  C   UNL A   1      50.319  26.907  31.538  1.00  0.00     0.059 A 
ATOM     97  C   UNL A   1      50.682  27.736  29.284  1.00  0.00     0.059 A 
ATOM     98  F   UNL A   1      48.850  28.384  27.972  1.00  0.00    -0.206 F 
ATOM     99  C   UNL A   1      51.180  27.255  30.494  1.00  0.00     0.060 A 
BRANCH  99 100
ATOM    100  S   UNL A   1      52.957  27.051  30.731  1.00  0.00     0.124 S 
ATOM    101  O   UNL A   1      53.032  25.682  31.230  1.00  0.00    -0.237 OA
ATOM    102  O   UNL A   1      53.482  27.264  29.386  1.00  0.00    -0.237 OA
ATOM    103  O   UNL A   1      53.291  28.091  31.700  1.00  0.00    -0.744 OA
ENDBRANCH  99 100
ENDBRANCH  67  92
ENDBRANCH  41  42
ENDBRANCH  33  36
ENDBRANCH  31  32
ENDBRANCH  30  31
ENDBRANCH  29  30
ENDBRANCH   1  29
TORSDOF 21
ENDMDL
