MODEL 1
REMARK VINA RESULT:     -11.5      0.000      0.000
REMARK SMILES O=C(CC[NH+]1CCN(C(=O)c2n[nH]c3ccccc23)CC1)NCCCCCCNC(=O)c1ccc(-c2c3nc(c(-c4c(F)cc(S(=O)(=O)[O-])cc4F)c4ccc([nH]4)c(-c4c(F)cc(S(=O)(=O)[O-])cc4F)c4nc(c(-c5c(F)cc(S(=O)(=O)[O-])cc5F)c5ccc2[nH]5)C=C4)C=C3)cc1
REMARK SMILES IDX 25 1 24 2 23 3 22 4 1 5 2 6 3 8 4 9 5 10 6 11 21 12 7 14
REMARK SMILES IDX 20 15 8 16 9 17 10 18 11 19 12 20 19 21 13 22 14 23 18 24
REMARK SMILES IDX 15 26 17 27 16 28 26 29 27 30 28 31 29 32 30 33 31 35 32 36
REMARK SMILES IDX 33 37 97 38 34 39 96 40 35 41 36 42 37 43 90 44 38 45 95 46
REMARK SMILES IDX 89 47 91 48 39 49 94 50 88 51 87 52 40 54 74 55 53 56 73 57
REMARK SMILES IDX 54 58 57 59 72 60 92 61 55 62 56 63 71 65 93 66 58 67 41 68
REMARK SMILES IDX 42 69 51 70 43 71 44 72 50 73 52 74 45 75 46 76 47 77 48 78
REMARK SMILES IDX 49 79 75 80 76 81 85 82 77 83 78 84 84 85 86 86 79 87 80 88
REMARK SMILES IDX 81 89 82 90 83 91 59 92 60 93 69 94 61 95 62 96 68 97 70 98
REMARK SMILES IDX 63 99 64 100 65 101 66 102 67 103
REMARK H PARENT 22 7 5 13 13 25 29 34 91 53 57 64
REMARK Flexibility Score: inf
ROOT
ATOM      1  C   UNL A   1      36.114  22.284  25.627  1.00  0.00     0.002 C 
ENDROOT
BRANCH   1   2
ATOM      2  C   UNL A   1      34.692  22.680  26.049  1.00  0.00     0.021 C 
BRANCH   2   3
ATOM      3  C   UNL A   1      33.615  22.509  24.973  1.00  0.00     0.116 C 
BRANCH   3   4
ATOM      4  N   UNL A   1      33.357  23.747  24.263  1.00  0.00    -0.356 N 
ATOM      5  O   UNL A   1      34.599  23.302  22.382  1.00  0.00    -0.275 OA
ATOM      6  C   UNL A   1      33.869  24.049  23.026  1.00  0.00     0.225 C 
ATOM      7  H   UNL A   1      32.777  24.415  24.696  1.00  0.00     0.163 HD
BRANCH   6   8
ATOM      8  C   UNL A   1      33.514  25.440  22.537  1.00  0.00     0.161 C 
BRANCH   8   9
ATOM      9  C   UNL A   1      32.072  25.542  22.016  1.00  0.00     0.272 C 
BRANCH   9  10
ATOM     10  N   UNL A   1      31.088  26.408  22.679  1.00  0.00    -0.332 N 
ATOM     11  C   UNL A   1      30.385  25.823  23.830  1.00  0.00     0.284 C 
ATOM     12  C   UNL A   1      31.392  27.820  22.897  1.00  0.00     0.284 C 
ATOM     13  H   UNL A   1      30.437  26.441  21.895  1.00  0.00     0.348 HD
ATOM     14  C   UNL A   1      31.001  26.126  25.208  1.00  0.00     0.181 C 
ATOM     15  C   UNL A   1      32.144  28.096  24.207  1.00  0.00     0.181 C 
ATOM     16  N   UNL A   1      31.462  27.509  25.366  1.00  0.00    -0.326 N 
ATOM     17  C   UNL A   1      31.486  28.051  26.662  1.00  0.00     0.275 C 
ATOM     18  O   UNL A   1      31.017  27.447  27.625  1.00  0.00    -0.267 OA
BRANCH  17  19
ATOM     19  C   UNL A   1      32.121  29.364  26.831  1.00  0.00     0.157 A 
ATOM     20  N   UNL A   1      31.403  30.503  26.806  1.00  0.00    -0.169 NA
ATOM     21  C   UNL A   1      33.496  29.623  27.097  1.00  0.00     0.033 A 
ATOM     22  N   UNL A   1      32.316  31.466  27.012  1.00  0.00    -0.277 N 
ATOM     23  C   UNL A   1      33.578  30.999  27.263  1.00  0.00     0.066 A 
ATOM     24  C   UNL A   1      34.655  28.841  27.261  1.00  0.00     0.013 A 
ATOM     25  H   UNL A   1      32.097  32.426  26.982  1.00  0.00     0.190 HD
ATOM     26  C   UNL A   1      34.764  31.653  27.612  1.00  0.00     0.028 A 
ATOM     27  C   UNL A   1      35.849  29.471  27.626  1.00  0.00     0.001 A 
ATOM     28  C   UNL A   1      35.897  30.855  27.804  1.00  0.00     0.002 A 
ENDBRANCH  17  19
ENDBRANCH   9  10
ENDBRANCH   8   9
ENDBRANCH   6   8
ENDBRANCH   3   4
ENDBRANCH   2   3
ENDBRANCH   1   2
BRANCH   1  29
ATOM     29  C   UNL A   1      37.117  23.435  25.530  1.00  0.00     0.002 C 
BRANCH  29  30
ATOM     30  C   UNL A   1      38.395  23.257  26.337  1.00  0.00     0.021 C 
BRANCH  30  31
ATOM     31  C   UNL A   1      39.141  24.549  26.649  1.00  0.00     0.116 C 
BRANCH  31  32
ATOM     32  N   UNL A   1      40.245  24.842  25.743  1.00  0.00    -0.352 N 
ATOM     33  C   UNL A   1      41.294  25.719  25.928  1.00  0.00     0.251 C 
ATOM     34  H   UNL A   1      40.240  24.352  24.889  1.00  0.00     0.163 HD
ATOM     35  O   UNL A   1      42.126  25.911  25.051  1.00  0.00    -0.269 OA
BRANCH  33  36
ATOM     36  C   UNL A   1      41.378  26.472  27.200  1.00  0.00     0.039 A 
ATOM     37  C   UNL A   1      42.154  27.632  27.249  1.00  0.00     0.014 A 
ATOM     38  C   UNL A   1      40.622  26.081  28.308  1.00  0.00     0.014 A 
ATOM     39  C   UNL A   1      42.087  28.457  28.375  1.00  0.00     0.010 A 
ATOM     40  C   UNL A   1      40.490  26.947  29.389  1.00  0.00     0.010 A 
ATOM     41  C   UNL A   1      41.209  28.151  29.428  1.00  0.00    -0.014 A 
BRANCH  41  42
ATOM     42  C   UNL A   1      41.007  29.081  30.571  1.00  0.00     0.031 A 
ATOM     43  C   UNL A   1      41.839  28.934  31.815  1.00  0.00     0.074 A 
ATOM     44  C   UNL A   1      40.015  29.995  30.526  1.00  0.00     0.049 A 
ATOM     45  N   UNL A   1      41.728  29.551  32.963  1.00  0.00    -0.248 NA
ATOM     46  C   UNL A   1      42.919  27.933  31.777  1.00  0.00     0.031 C 
ATOM     47  C   UNL A   1      39.094  30.198  29.404  1.00  0.00     0.029 A 
ATOM     48  N   UNL A   1      39.605  30.916  31.458  1.00  0.00    -0.354 N 
ATOM     49  C   UNL A   1      42.700  28.997  33.787  1.00  0.00     0.074 A 
ATOM     50  C   UNL A   1      43.361  27.961  33.026  1.00  0.00     0.031 C 
ATOM     51  C   UNL A   1      38.243  31.193  29.705  1.00  0.00     0.029 A 
ATOM     52  C   UNL A   1      38.531  31.675  31.051  1.00  0.00     0.049 A 
ATOM     53  H   UNL A   1      40.037  31.024  32.336  1.00  0.00     0.167 HD
ATOM     54  C   UNL A   1      43.029  29.339  35.056  1.00  0.00     0.037 A 
ATOM     55  C   UNL A   1      37.851  32.646  31.694  1.00  0.00     0.037 A 
ATOM     56  C   UNL A   1      42.406  30.404  35.794  1.00  0.00     0.049 A 
ATOM     57  C   UNL A   1      38.268  33.037  33.085  1.00  0.00     0.074 A 
ATOM     58  C   UNL A   1      42.707  30.862  37.065  1.00  0.00     0.029 A 
ATOM     59  N   UNL A   1      41.366  31.190  35.322  1.00  0.00    -0.354 N 
ATOM     60  N   UNL A   1      39.218  32.529  33.833  1.00  0.00    -0.248 NA
ATOM     61  C   UNL A   1      37.524  34.134  33.720  1.00  0.00     0.031 C 
ATOM     62  C   UNL A   1      41.836  31.913  37.370  1.00  0.00     0.029 A 
ATOM     63  C   UNL A   1      41.014  32.130  36.275  1.00  0.00     0.049 A 
ATOM     64  H   UNL A   1      40.940  31.093  34.440  1.00  0.00     0.167 HD
ATOM     65  C   UNL A   1      39.204  33.262  35.015  1.00  0.00     0.074 A 
ATOM     66  C   UNL A   1      38.158  34.254  34.879  1.00  0.00     0.031 C 
ATOM     67  C   UNL A   1      39.983  33.123  36.114  1.00  0.00     0.037 A 
BRANCH  54  68
ATOM     68  C   UNL A   1      44.136  28.566  35.717  1.00  0.00     0.058 A 
ATOM     69  C   UNL A   1      43.868  27.431  36.497  1.00  0.00     0.135 A 
ATOM     70  C   UNL A   1      45.477  28.940  35.540  1.00  0.00     0.135 A 
ATOM     71  F   UNL A   1      42.601  27.042  36.712  1.00  0.00    -0.206 F 
ATOM     72  C   UNL A   1      44.889  26.705  37.099  1.00  0.00     0.059 A 
ATOM     73  C   UNL A   1      46.518  28.213  36.113  1.00  0.00     0.059 A 
ATOM     74  F   UNL A   1      45.788  30.018  34.804  1.00  0.00    -0.206 F 
ATOM     75  C   UNL A   1      46.212  27.105  36.902  1.00  0.00     0.060 A 
BRANCH  75  76
ATOM     76  S   UNL A   1      47.528  26.145  37.679  1.00  0.00     0.124 S 
ATOM     77  O   UNL A   1      48.596  27.137  37.769  1.00  0.00    -0.237 OA
ATOM     78  O   UNL A   1      46.923  25.748  38.946  1.00  0.00    -0.237 OA
ATOM     79  O   UNL A   1      47.760  25.059  36.732  1.00  0.00    -0.744 OA
ENDBRANCH  75  76
ENDBRANCH  54  68
BRANCH  55  80
ATOM     80  C   UNL A   1      36.717  33.336  31.024  1.00  0.00     0.058 A 
ATOM     81  C   UNL A   1      35.393  33.089  31.416  1.00  0.00     0.135 A 
ATOM     82  C   UNL A   1      36.930  34.240  29.973  1.00  0.00     0.135 A 
ATOM     83  F   UNL A   1      35.139  32.226  32.412  1.00  0.00    -0.206 F 
ATOM     84  C   UNL A   1      34.317  33.691  30.773  1.00  0.00     0.059 A 
ATOM     85  C   UNL A   1      35.871  34.873  29.329  1.00  0.00     0.059 A 
ATOM     86  F   UNL A   1      38.179  34.524  29.573  1.00  0.00    -0.206 F 
ATOM     87  C   UNL A   1      34.567  34.580  29.725  1.00  0.00     0.060 A 
BRANCH  87  88
ATOM     88  S   UNL A   1      33.167  35.379  28.909  1.00  0.00     0.124 S 
ATOM     89  O   UNL A   1      33.843  36.340  28.046  1.00  0.00    -0.237 OA
ATOM     90  O   UNL A   1      32.521  34.258  28.233  1.00  0.00    -0.237 OA
ATOM     91  O   UNL A   1      32.413  35.947  30.023  1.00  0.00    -0.744 OA
ENDBRANCH  87  88
ENDBRANCH  55  80
BRANCH  67  92
ATOM     92  C   UNL A   1      39.765  34.091  37.241  1.00  0.00     0.058 A 
ATOM     93  C   UNL A   1      38.888  33.802  38.297  1.00  0.00     0.135 A 
ATOM     94  C   UNL A   1      40.486  35.294  37.293  1.00  0.00     0.135 A 
ATOM     95  F   UNL A   1      38.172  32.666  38.289  1.00  0.00    -0.206 F 
ATOM     96  C   UNL A   1      38.718  34.683  39.359  1.00  0.00     0.059 A 
ATOM     97  C   UNL A   1      40.347  36.180  38.357  1.00  0.00     0.059 A 
ATOM     98  F   UNL A   1      41.345  35.610  36.312  1.00  0.00    -0.206 F 
ATOM     99  C   UNL A   1      39.453  35.870  39.381  1.00  0.00     0.060 A 
BRANCH  99 100
ATOM    100  S   UNL A   1      39.256  36.988  40.784  1.00  0.00     0.124 S 
ATOM    101  O   UNL A   1      38.617  36.119  41.765  1.00  0.00    -0.237 OA
ATOM    102  O   UNL A   1      40.633  37.373  41.077  1.00  0.00    -0.237 OA
ATOM    103  O   UNL A   1      38.416  38.057  40.249  1.00  0.00    -0.744 OA
ENDBRANCH  99 100
ENDBRANCH  67  92
ENDBRANCH  41  42
ENDBRANCH  33  36
ENDBRANCH  31  32
ENDBRANCH  30  31
ENDBRANCH  29  30
ENDBRANCH   1  29
TORSDOF 19
ENDMDL
MODEL 2
REMARK VINA RESULT:     -11.3      4.802      6.096
REMARK SMILES O=C(CC[NH+]1CCN(C(=O)c2n[nH]c3ccccc23)CC1)NCCCCCCNC(=O)c1ccc(-c2c3nc(c(-c4c(F)cc(S(=O)(=O)[O-])cc4F)c4ccc([nH]4)c(-c4c(F)cc(S(=O)(=O)[O-])cc4F)c4nc(c(-c5c(F)cc(S(=O)(=O)[O-])cc5F)c5ccc2[nH]5)C=C4)C=C3)cc1
REMARK SMILES IDX 25 1 24 2 23 3 22 4 1 5 2 6 3 8 4 9 5 10 6 11 21 12 7 14
REMARK SMILES IDX 20 15 8 16 9 17 10 18 11 19 12 20 19 21 13 22 14 23 18 24
REMARK SMILES IDX 15 26 17 27 16 28 26 29 27 30 28 31 29 32 30 33 31 35 32 36
REMARK SMILES IDX 33 37 97 38 34 39 96 40 35 41 36 42 37 43 90 44 38 45 95 46
REMARK SMILES IDX 89 47 91 48 39 49 94 50 88 51 87 52 40 54 74 55 53 56 73 57
REMARK SMILES IDX 54 58 57 59 72 60 92 61 55 62 56 63 71 65 93 66 58 67 41 68
REMARK SMILES IDX 42 69 51 70 43 71 44 72 50 73 52 74 45 75 46 76 47 77 48 78
REMARK SMILES IDX 49 79 75 80 76 81 85 82 77 83 78 84 84 85 86 86 79 87 80 88
REMARK SMILES IDX 81 89 82 90 83 91 59 92 60 93 69 94 61 95 62 96 68 97 70 98
REMARK SMILES IDX 63 99 64 100 65 101 66 102 67 103
REMARK H PARENT 22 7 5 13 13 25 29 34 91 53 57 64
REMARK Flexibility Score: inf
ROOT
ATOM      1  C   UNL A   1      34.949  21.134  24.472  1.00  0.00     0.002 C 
ENDROOT
BRANCH   1   2
ATOM      2  C   UNL A   1      33.695  21.808  25.047  1.00  0.00     0.021 C 
BRANCH   2   3
ATOM      3  C   UNL A   1      32.615  22.172  24.023  1.00  0.00     0.116 C 
BRANCH   3   4
ATOM      4  N   UNL A   1      32.650  23.579  23.673  1.00  0.00    -0.356 N 
ATOM      5  O   UNL A   1      33.701  23.377  21.641  1.00  0.00    -0.275 OA
ATOM      6  C   UNL A   1      33.191  24.073  22.513  1.00  0.00     0.225 C 
ATOM      7  H   UNL A   1      32.261  24.221  24.310  1.00  0.00     0.163 HD
BRANCH   6   8
ATOM      8  C   UNL A   1      33.175  25.587  22.425  1.00  0.00     0.161 C 
BRANCH   8   9
ATOM      9  C   UNL A   1      31.890  26.136  21.784  1.00  0.00     0.272 C 
BRANCH   9  10
ATOM     10  N   UNL A   1      30.948  26.953  22.560  1.00  0.00    -0.332 N 
ATOM     11  C   UNL A   1      30.306  26.288  23.703  1.00  0.00     0.284 C 
ATOM     12  C   UNL A   1      31.269  28.345  22.860  1.00  0.00     0.284 C 
ATOM     13  H   UNL A   1      30.255  27.042  21.817  1.00  0.00     0.348 HD
ATOM     14  C   UNL A   1      30.999  26.492  25.063  1.00  0.00     0.181 C 
ATOM     15  C   UNL A   1      32.093  28.528  24.143  1.00  0.00     0.181 C 
ATOM     16  N   UNL A   1      31.473  27.860  25.293  1.00  0.00    -0.326 N 
ATOM     17  C   UNL A   1      31.571  28.309  26.621  1.00  0.00     0.275 C 
ATOM     18  O   UNL A   1      31.152  27.637  27.563  1.00  0.00    -0.267 OA
BRANCH  17  19
ATOM     19  C   UNL A   1      32.219  29.606  26.848  1.00  0.00     0.157 A 
ATOM     20  N   UNL A   1      31.513  30.753  26.871  1.00  0.00    -0.169 NA
ATOM     21  C   UNL A   1      33.597  29.838  27.126  1.00  0.00     0.033 A 
ATOM     22  N   UNL A   1      32.437  31.696  27.120  1.00  0.00    -0.277 N 
ATOM     23  C   UNL A   1      33.693  31.205  27.352  1.00  0.00     0.066 A 
ATOM     24  C   UNL A   1      34.747  29.037  27.258  1.00  0.00     0.013 A 
ATOM     25  H   UNL A   1      32.228  32.659  27.132  1.00  0.00     0.190 HD
ATOM     26  C   UNL A   1      34.885  31.830  27.731  1.00  0.00     0.028 A 
ATOM     27  C   UNL A   1      35.947  29.639  27.651  1.00  0.00     0.001 A 
ATOM     28  C   UNL A   1      36.009  31.012  27.889  1.00  0.00     0.002 A 
ENDBRANCH  17  19
ENDBRANCH   9  10
ENDBRANCH   8   9
ENDBRANCH   6   8
ENDBRANCH   3   4
ENDBRANCH   2   3
ENDBRANCH   1   2
BRANCH   1  29
ATOM     29  C   UNL A   1      36.048  22.085  23.997  1.00  0.00     0.002 C 
BRANCH  29  30
ATOM     30  C   UNL A   1      36.159  23.393  24.770  1.00  0.00     0.021 C 
BRANCH  30  31
ATOM     31  C   UNL A   1      36.855  23.282  26.121  1.00  0.00     0.116 C 
BRANCH  31  32
ATOM     32  N   UNL A   1      38.006  22.387  26.134  1.00  0.00    -0.352 N 
ATOM     33  C   UNL A   1      39.312  22.679  26.470  1.00  0.00     0.251 C 
ATOM     34  H   UNL A   1      37.828  21.457  25.869  1.00  0.00     0.163 HD
ATOM     35  O   UNL A   1      40.196  21.838  26.379  1.00  0.00    -0.269 OA
BRANCH  33  36
ATOM     36  C   UNL A   1      39.647  24.055  26.901  1.00  0.00     0.039 A 
ATOM     37  C   UNL A   1      39.673  24.349  28.266  1.00  0.00     0.014 A 
ATOM     38  C   UNL A   1      40.018  25.022  25.964  1.00  0.00     0.014 A 
ATOM     39  C   UNL A   1      40.176  25.580  28.696  1.00  0.00     0.010 A 
ATOM     40  C   UNL A   1      40.598  26.210  26.397  1.00  0.00     0.010 A 
ATOM     41  C   UNL A   1      40.697  26.496  27.767  1.00  0.00    -0.014 A 
BRANCH  41  42
ATOM     42  C   UNL A   1      41.370  27.749  28.201  1.00  0.00     0.031 A 
ATOM     43  C   UNL A   1      42.865  27.876  28.090  1.00  0.00     0.074 A 
ATOM     44  C   UNL A   1      40.651  28.734  28.779  1.00  0.00     0.049 A 
ATOM     45  N   UNL A   1      43.651  28.824  28.533  1.00  0.00    -0.248 NA
ATOM     46  C   UNL A   1      43.577  26.772  27.424  1.00  0.00     0.031 C 
ATOM     47  C   UNL A   1      39.202  28.710  29.005  1.00  0.00     0.029 A 
ATOM     48  N   UNL A   1      41.043  29.943  29.297  1.00  0.00    -0.354 N 
ATOM     49  C   UNL A   1      44.944  28.419  28.225  1.00  0.00     0.074 A 
ATOM     50  C   UNL A   1      44.844  27.118  27.600  1.00  0.00     0.031 C 
ATOM     51  C   UNL A   1      38.828  29.857  29.595  1.00  0.00     0.029 A 
ATOM     52  C   UNL A   1      40.009  30.683  29.823  1.00  0.00     0.049 A 
ATOM     53  H   UNL A   1      41.978  30.254  29.293  1.00  0.00     0.167 HD
ATOM     54  C   UNL A   1      46.108  29.083  28.420  1.00  0.00     0.037 A 
ATOM     55  C   UNL A   1      40.013  31.887  30.428  1.00  0.00     0.037 A 
ATOM     56  C   UNL A   1      46.203  30.398  28.995  1.00  0.00     0.049 A 
ATOM     57  C   UNL A   1      41.315  32.623  30.592  1.00  0.00     0.074 A 
ATOM     58  C   UNL A   1      47.331  31.176  29.184  1.00  0.00     0.029 A 
ATOM     59  N   UNL A   1      45.125  31.138  29.456  1.00  0.00    -0.354 N 
ATOM     60  N   UNL A   1      42.523  32.242  30.255  1.00  0.00    -0.248 NA
ATOM     61  C   UNL A   1      41.255  33.954  31.213  1.00  0.00     0.031 C 
ATOM     62  C   UNL A   1      46.939  32.380  29.778  1.00  0.00     0.029 A 
ATOM     63  C   UNL A   1      45.561  32.363  29.929  1.00  0.00     0.049 A 
ATOM     64  H   UNL A   1      44.188  30.837  29.449  1.00  0.00     0.167 HD
ATOM     65  C   UNL A   1      43.364  33.295  30.599  1.00  0.00     0.074 A 
ATOM     66  C   UNL A   1      42.524  34.333  31.161  1.00  0.00     0.031 C 
ATOM     67  C   UNL A   1      44.708  33.392  30.466  1.00  0.00     0.037 A 
BRANCH  54  68
ATOM     68  C   UNL A   1      47.375  28.403  27.984  1.00  0.00     0.058 A 
ATOM     69  C   UNL A   1      48.142  27.643  28.880  1.00  0.00     0.135 A 
ATOM     70  C   UNL A   1      47.808  28.481  26.650  1.00  0.00     0.135 A 
ATOM     71  F   UNL A   1      47.781  27.553  30.170  1.00  0.00    -0.206 F 
ATOM     72  C   UNL A   1      49.308  27.002  28.477  1.00  0.00     0.059 A 
ATOM     73  C   UNL A   1      48.959  27.827  26.219  1.00  0.00     0.059 A 
ATOM     74  F   UNL A   1      47.112  29.196  25.753  1.00  0.00    -0.206 F 
ATOM     75  C   UNL A   1      49.710  27.101  27.143  1.00  0.00     0.060 A 
BRANCH  75  76
ATOM     76  S   UNL A   1      51.217  26.252  26.632  1.00  0.00     0.124 S 
ATOM     77  O   UNL A   1      52.216  26.899  27.477  1.00  0.00    -0.237 OA
ATOM     78  O   UNL A   1      50.920  24.860  26.954  1.00  0.00    -0.237 OA
ATOM     79  O   UNL A   1      51.311  26.555  25.207  1.00  0.00    -0.744 OA
ENDBRANCH  75  76
ENDBRANCH  54  68
BRANCH  55  80
ATOM     80  C   UNL A   1      38.740  32.490  30.907  1.00  0.00     0.058 A 
ATOM     81  C   UNL A   1      38.293  32.276  32.220  1.00  0.00     0.135 A 
ATOM     82  C   UNL A   1      37.940  33.275  30.064  1.00  0.00     0.135 A 
ATOM     83  F   UNL A   1      39.021  31.526  33.061  1.00  0.00    -0.206 F 
ATOM     84  C   UNL A   1      37.085  32.794  32.672  1.00  0.00     0.059 A 
ATOM     85  C   UNL A   1      36.739  33.824  30.500  1.00  0.00     0.059 A 
ATOM     86  F   UNL A   1      38.334  33.524  28.805  1.00  0.00    -0.206 F 
ATOM     87  C   UNL A   1      36.311  33.565  31.802  1.00  0.00     0.060 A 
BRANCH  87  88
ATOM     88  S   UNL A   1      34.754  34.257  32.402  1.00  0.00     0.124 S 
ATOM     89  O   UNL A   1      33.891  34.087  31.239  1.00  0.00    -0.237 OA
ATOM     90  O   UNL A   1      34.456  33.403  33.548  1.00  0.00    -0.237 OA
ATOM     91  O   UNL A   1      35.108  35.634  32.732  1.00  0.00    -0.744 OA
ENDBRANCH  87  88
ENDBRANCH  55  80
BRANCH  67  92
ATOM     92  C   UNL A   1      45.353  34.678  30.896  1.00  0.00     0.058 A 
ATOM     93  C   UNL A   1      45.850  34.851  32.196  1.00  0.00     0.135 A 
ATOM     94  C   UNL A   1      45.526  35.726  29.979  1.00  0.00     0.135 A 
ATOM     95  F   UNL A   1      45.703  33.880  33.111  1.00  0.00    -0.206 F 
ATOM     96  C   UNL A   1      46.481  36.030  32.579  1.00  0.00     0.059 A 
ATOM     97  C   UNL A   1      46.174  36.905  30.334  1.00  0.00     0.059 A 
ATOM     98  F   UNL A   1      45.077  35.605  28.720  1.00  0.00    -0.206 F 
ATOM     99  C   UNL A   1      46.640  37.052  31.640  1.00  0.00     0.060 A 
BRANCH  99 100
ATOM    100  S   UNL A   1      47.497  38.561  32.135  1.00  0.00     0.124 S 
ATOM    101  O   UNL A   1      48.832  38.330  31.595  1.00  0.00    -0.237 OA
ATOM    102  O   UNL A   1      46.715  39.600  31.473  1.00  0.00    -0.237 OA
ATOM    103  O   UNL A   1      47.397  38.544  33.592  1.00  0.00    -0.744 OA
ENDBRANCH  99 100
ENDBRANCH  67  92
ENDBRANCH  41  42
ENDBRANCH  33  36
ENDBRANCH  31  32
ENDBRANCH  30  31
ENDBRANCH  29  30
ENDBRANCH   1  29
TORSDOF 19
ENDMDL
MODEL 3
REMARK VINA RESULT:     -11.1      6.491      8.999
REMARK SMILES O=C(CC[NH+]1CCN(C(=O)c2n[nH]c3ccccc23)CC1)NCCCCCCNC(=O)c1ccc(-c2c3nc(c(-c4c(F)cc(S(=O)(=O)[O-])cc4F)c4ccc([nH]4)c(-c4c(F)cc(S(=O)(=O)[O-])cc4F)c4nc(c(-c5c(F)cc(S(=O)(=O)[O-])cc5F)c5ccc2[nH]5)C=C4)C=C3)cc1
REMARK SMILES IDX 25 1 24 2 23 3 22 4 1 5 2 6 3 8 4 9 5 10 6 11 21 12 7 14
REMARK SMILES IDX 20 15 8 16 9 17 10 18 11 19 12 20 19 21 13 22 14 23 18 24
REMARK SMILES IDX 15 26 17 27 16 28 26 29 27 30 28 31 29 32 30 33 31 35 32 36
REMARK SMILES IDX 33 37 97 38 34 39 96 40 35 41 36 42 37 43 90 44 38 45 95 46
REMARK SMILES IDX 89 47 91 48 39 49 94 50 88 51 87 52 40 54 74 55 53 56 73 57
REMARK SMILES IDX 54 58 57 59 72 60 92 61 55 62 56 63 71 65 93 66 58 67 41 68
REMARK SMILES IDX 42 69 51 70 43 71 44 72 50 73 52 74 45 75 46 76 47 77 48 78
REMARK SMILES IDX 49 79 75 80 76 81 85 82 77 83 78 84 84 85 86 86 79 87 80 88
REMARK SMILES IDX 81 89 82 90 83 91 59 92 60 93 69 94 61 95 62 96 68 97 70 98
REMARK SMILES IDX 63 99 64 100 65 101 66 102 67 103
REMARK H PARENT 22 7 5 13 13 25 29 34 91 53 57 64
REMARK Flexibility Score: inf
ROOT
ATOM      1  C   UNL A   1      40.547  22.948  26.920  1.00  0.00     0.002 C 
ENDROOT
BRANCH   1   2
ATOM      2  C   UNL A   1      39.349  23.812  27.337  1.00  0.00     0.021 C 
BRANCH   2   3
ATOM      3  C   UNL A   1      38.316  24.079  26.237  1.00  0.00     0.116 C 
BRANCH   3   4
ATOM      4  N   UNL A   1      37.115  23.288  26.417  1.00  0.00    -0.356 N 
ATOM      5  O   UNL A   1      36.948  22.470  24.276  1.00  0.00    -0.275 OA
ATOM      6  C   UNL A   1      36.522  22.547  25.424  1.00  0.00     0.225 C 
ATOM      7  H   UNL A   1      36.695  23.282  27.307  1.00  0.00     0.163 HD
BRANCH   6   8
ATOM      8  C   UNL A   1      35.230  21.875  25.848  1.00  0.00     0.161 C 
BRANCH   8   9
ATOM      9  C   UNL A   1      34.569  21.078  24.711  1.00  0.00     0.272 C 
BRANCH   9  10
ATOM     10  N   UNL A   1      33.182  21.345  24.308  1.00  0.00    -0.332 N 
ATOM     11  C   UNL A   1      32.153  21.086  25.325  1.00  0.00     0.284 C 
ATOM     12  C   UNL A   1      32.870  22.535  23.521  1.00  0.00     0.284 C 
ATOM     13  H   UNL A   1      33.133  20.602  23.612  1.00  0.00     0.348 HD
ATOM     14  C   UNL A   1      31.731  22.303  26.169  1.00  0.00     0.181 C 
ATOM     15  C   UNL A   1      32.599  23.786  24.370  1.00  0.00     0.181 C 
ATOM     16  N   UNL A   1      31.582  23.541  25.399  1.00  0.00    -0.326 N 
ATOM     17  C   UNL A   1      30.688  24.512  25.880  1.00  0.00     0.275 C 
ATOM     18  O   UNL A   1      29.951  24.294  26.840  1.00  0.00    -0.267 OA
BRANCH  17  19
ATOM     19  C   UNL A   1      30.685  25.817  25.207  1.00  0.00     0.157 A 
ATOM     20  N   UNL A   1      29.919  26.051  24.125  1.00  0.00    -0.169 NA
ATOM     21  C   UNL A   1      31.393  26.988  25.604  1.00  0.00     0.033 A 
ATOM     22  N   UNL A   1      30.171  27.335  23.819  1.00  0.00    -0.277 N 
ATOM     23  C   UNL A   1      30.993  27.972  24.709  1.00  0.00     0.066 A 
ATOM     24  C   UNL A   1      32.282  27.324  26.644  1.00  0.00     0.013 A 
ATOM     25  H   UNL A   1      29.799  27.778  23.023  1.00  0.00     0.190 HD
ATOM     26  C   UNL A   1      31.415  29.302  24.805  1.00  0.00     0.028 A 
ATOM     27  C   UNL A   1      32.704  28.651  26.767  1.00  0.00     0.001 A 
ATOM     28  C   UNL A   1      32.271  29.623  25.864  1.00  0.00     0.002 A 
ENDBRANCH  17  19
ENDBRANCH   9  10
ENDBRANCH   8   9
ENDBRANCH   6   8
ENDBRANCH   3   4
ENDBRANCH   2   3
ENDBRANCH   1   2
BRANCH   1  29
ATOM     29  C   UNL A   1      41.142  22.070  28.022  1.00  0.00     0.002 C 
BRANCH  29  30
ATOM     30  C   UNL A   1      41.462  20.638  27.614  1.00  0.00     0.021 C 
BRANCH  30  31
ATOM     31  C   UNL A   1      41.310  20.346  26.126  1.00  0.00     0.116 C 
BRANCH  31  32
ATOM     32  N   UNL A   1      42.276  19.390  25.598  1.00  0.00    -0.352 N 
ATOM     33  C   UNL A   1      43.583  19.615  25.218  1.00  0.00     0.251 C 
ATOM     34  H   UNL A   1      41.953  18.465  25.499  1.00  0.00     0.163 HD
ATOM     35  O   UNL A   1      44.267  18.724  24.732  1.00  0.00    -0.269 OA
BRANCH  33  36
ATOM     36  C   UNL A   1      44.142  20.979  25.362  1.00  0.00     0.039 A 
ATOM     37  C   UNL A   1      43.852  21.934  24.386  1.00  0.00     0.014 A 
ATOM     38  C   UNL A   1      44.874  21.329  26.498  1.00  0.00     0.014 A 
ATOM     39  C   UNL A   1      44.204  23.269  24.605  1.00  0.00     0.010 A 
ATOM     40  C   UNL A   1      45.146  22.669  26.753  1.00  0.00     0.010 A 
ATOM     41  C   UNL A   1      44.801  23.656  25.816  1.00  0.00    -0.014 A 
BRANCH  41  42
ATOM     42  C   UNL A   1      45.056  25.085  26.139  1.00  0.00     0.031 A 
ATOM     43  C   UNL A   1      46.442  25.652  25.994  1.00  0.00     0.074 A 
ATOM     44  C   UNL A   1      44.065  25.846  26.650  1.00  0.00     0.049 A 
ATOM     45  N   UNL A   1      46.896  26.827  26.348  1.00  0.00    -0.248 NA
ATOM     46  C   UNL A   1      47.462  24.769  25.404  1.00  0.00     0.031 C 
ATOM     47  C   UNL A   1      42.692  25.398  26.901  1.00  0.00     0.029 A 
ATOM     48  N   UNL A   1      44.065  27.154  27.065  1.00  0.00    -0.354 N 
ATOM     49  C   UNL A   1      48.253  26.813  26.051  1.00  0.00     0.074 A 
ATOM     50  C   UNL A   1      48.561  25.499  25.532  1.00  0.00     0.031 C 
ATOM     51  C   UNL A   1      41.980  26.420  27.406  1.00  0.00     0.029 A 
ATOM     52  C   UNL A   1      42.850  27.582  27.549  1.00  0.00     0.049 A 
ATOM     53  H   UNL A   1      44.860  27.734  27.022  1.00  0.00     0.167 HD
ATOM     54  C   UNL A   1      49.157  27.814  26.175  1.00  0.00     0.037 A 
ATOM     55  C   UNL A   1      42.481  28.774  28.059  1.00  0.00     0.037 A 
ATOM     56  C   UNL A   1      48.841  29.137  26.643  1.00  0.00     0.049 A 
ATOM     57  C   UNL A   1      43.494  29.883  28.142  1.00  0.00     0.074 A 
ATOM     58  C   UNL A   1      49.676  30.234  26.753  1.00  0.00     0.029 A 
ATOM     59  N   UNL A   1      47.585  29.546  27.063  1.00  0.00    -0.354 N 
ATOM     60  N   UNL A   1      44.764  29.863  27.817  1.00  0.00    -0.248 NA
ATOM     61  C   UNL A   1      43.025  31.177  28.659  1.00  0.00     0.031 C 
ATOM     62  C   UNL A   1      48.930  31.304  27.257  1.00  0.00     0.029 A 
ATOM     63  C   UNL A   1      47.622  30.880  27.432  1.00  0.00     0.049 A 
ATOM     64  H   UNL A   1      46.785  28.974  27.095  1.00  0.00     0.167 HD
ATOM     65  C   UNL A   1      45.240  31.147  28.063  1.00  0.00     0.074 A 
ATOM     66  C   UNL A   1      44.118  31.920  28.556  1.00  0.00     0.031 C 
ATOM     67  C   UNL A   1      46.491  31.639  27.900  1.00  0.00     0.037 A 
BRANCH  54  68
ATOM     68  C   UNL A   1      50.575  27.521  25.772  1.00  0.00     0.058 A 
ATOM     69  C   UNL A   1      51.020  27.739  24.458  1.00  0.00     0.135 A 
ATOM     70  C   UNL A   1      51.507  27.055  26.712  1.00  0.00     0.135 A 
ATOM     71  F   UNL A   1      50.164  28.166  23.517  1.00  0.00    -0.206 F 
ATOM     72  C   UNL A   1      52.334  27.481  24.084  1.00  0.00     0.059 A 
ATOM     73  C   UNL A   1      52.834  26.814  26.366  1.00  0.00     0.059 A 
ATOM     74  F   UNL A   1      51.133  26.829  27.981  1.00  0.00    -0.206 F 
ATOM     75  C   UNL A   1      53.234  27.018  25.045  1.00  0.00     0.060 A 
BRANCH  75  76
ATOM     76  S   UNL A   1      54.940  26.702  24.549  1.00  0.00     0.124 S 
ATOM     77  O   UNL A   1      55.630  27.845  25.139  1.00  0.00    -0.237 OA
ATOM     78  O   UNL A   1      55.214  25.408  25.166  1.00  0.00    -0.237 OA
ATOM     79  O   UNL A   1      54.873  26.695  23.091  1.00  0.00    -0.744 OA
ENDBRANCH  75  76
ENDBRANCH  54  68
BRANCH  55  80
ATOM     80  C   UNL A   1      41.081  28.996  28.510  1.00  0.00     0.058 A 
ATOM     81  C   UNL A   1      40.063  29.271  27.584  1.00  0.00     0.135 A 
ATOM     82  C   UNL A   1      40.736  28.953  29.868  1.00  0.00     0.135 A 
ATOM     83  F   UNL A   1      40.346  29.329  26.274  1.00  0.00    -0.206 F 
ATOM     84  C   UNL A   1      38.758  29.524  27.990  1.00  0.00     0.059 A 
ATOM     85  C   UNL A   1      39.432  29.179  30.298  1.00  0.00     0.059 A 
ATOM     86  F   UNL A   1      41.670  28.675  30.791  1.00  0.00    -0.206 F 
ATOM     87  C   UNL A   1      38.452  29.480  29.352  1.00  0.00     0.060 A 
BRANCH  87  88
ATOM     88  S   UNL A   1      36.749  29.785  29.873  1.00  0.00     0.124 S 
ATOM     89  O   UNL A   1      36.659  28.963  31.074  1.00  0.00    -0.237 OA
ATOM     90  O   UNL A   1      36.744  31.230  30.086  1.00  0.00    -0.237 OA
ATOM     91  O   UNL A   1      35.965  29.326  28.730  1.00  0.00    -0.744 OA
ENDBRANCH  87  88
ENDBRANCH  55  80
BRANCH  67  92
ATOM     92  C   UNL A   1      46.709  33.090  28.218  1.00  0.00     0.058 A 
ATOM     93  C   UNL A   1      46.519  34.089  27.252  1.00  0.00     0.135 A 
ATOM     94  C   UNL A   1      47.056  33.487  29.519  1.00  0.00     0.135 A 
ATOM     95  F   UNL A   1      46.191  33.759  25.993  1.00  0.00    -0.206 F 
ATOM     96  C   UNL A   1      46.684  35.435  27.561  1.00  0.00     0.059 A 
ATOM     97  C   UNL A   1      47.205  34.829  29.854  1.00  0.00     0.059 A 
ATOM     98  F   UNL A   1      47.239  32.569  30.480  1.00  0.00    -0.206 F 
ATOM     99  C   UNL A   1      47.026  35.796  28.866  1.00  0.00     0.060 A 
BRANCH  99 100
ATOM    100  S   UNL A   1      47.197  37.547  29.267  1.00  0.00     0.124 S 
ATOM    101  O   UNL A   1      47.354  37.503  30.716  1.00  0.00    -0.237 OA
ATOM    102  O   UNL A   1      48.386  37.930  28.511  1.00  0.00    -0.237 OA
ATOM    103  O   UNL A   1      45.946  38.128  28.787  1.00  0.00    -0.744 OA
ENDBRANCH  99 100
ENDBRANCH  67  92
ENDBRANCH  41  42
ENDBRANCH  33  36
ENDBRANCH  31  32
ENDBRANCH  30  31
ENDBRANCH  29  30
ENDBRANCH   1  29
TORSDOF 19
ENDMDL
