MODEL 1
REMARK VINA RESULT:     -12.7      0.000      0.000
REMARK SMILES O=C(NCCCCCCNC(=O)c1ccc(-c2c3nc(c(-c4c(F)cc(S(=O)(=O)[O-])cc4F)c4ccc([nH]4)c(-c4c(F)cc(S(=O)(=O)[O-])cc4F)c4nc(c(-c5c(F)cc(S(=O)(=O)[O-])cc5F)c5ccc2[nH]5)C=C4)C=C3)cc1)C1=Cc2cc(Cl)cc(C#Cc3ccccc3)c2O[C@@H]1C(F)(F)F
REMARK SMILES IDX 7 1 6 2 5 3 4 4 3 5 1 6 2 7 79 9 80 10 97 11 81 12 96 13
REMARK SMILES IDX 82 14 95 15 83 16 86 17 84 18 85 19 98 20 99 21 100 22
REMARK SMILES IDX 101 23 87 24 88 25 89 26 90 27 94 28 91 29 93 30 92 31 8 32
REMARK SMILES IDX 9 33 10 34 11 35 12 37 13 38 14 39 78 40 15 41 77 42 16 43
REMARK SMILES IDX 17 44 18 45 71 46 19 47 76 48 70 49 72 50 20 51 75 52 69 53
REMARK SMILES IDX 68 54 21 56 55 57 34 58 54 59 35 60 38 61 53 62 73 63 36 64
REMARK SMILES IDX 37 65 52 67 74 68 39 69 22 70 23 71 32 72 24 73 25 74 31 75
REMARK SMILES IDX 33 76 26 77 27 78 28 79 29 80 30 81 56 82 57 83 66 84 58 85
REMARK SMILES IDX 59 86 65 87 67 88 60 89 61 90 62 91 63 92 64 93 40 94 41 95
REMARK SMILES IDX 50 96 42 97 43 98 49 99 51 100 44 101 45 102 46 103 47 104
REMARK SMILES IDX 48 105
REMARK H PARENT 3 8 10 36 72 55 38 66
REMARK Flexibility Score: inf
ROOT
ATOM      1  C   UNL A   1      33.524  28.908  25.882  1.00  0.00     0.002 C 
ENDROOT
BRANCH   1   2
ATOM      2  C   UNL A   1      32.060  28.555  25.599  1.00  0.00     0.002 C 
BRANCH   2   3
ATOM      3  C   UNL A   1      31.327  27.772  26.686  1.00  0.00     0.021 C 
BRANCH   3   4
ATOM      4  C   UNL A   1      30.640  26.489  26.240  1.00  0.00     0.116 C 
BRANCH   4   5
ATOM      5  N   UNL A   1      31.116  25.264  26.852  1.00  0.00    -0.352 N 
ATOM      6  O   UNL A   1      32.531  23.573  27.266  1.00  0.00    -0.270 OA
ATOM      7  C   UNL A   1      32.204  24.500  26.525  1.00  0.00     0.251 C 
ATOM      8  H   UNL A   1      30.581  24.935  27.609  1.00  0.00     0.163 HD
BRANCH   7   9
ATOM      9  C   UNL A   1      33.082  24.804  25.352  1.00  0.00     0.067 C 
ATOM     10  C   UNL A   1      34.388  25.112  25.465  1.00  0.00     0.025 C 
ATOM     11  C   UNL A   1      32.656  24.026  24.128  1.00  0.00     0.314 C 
ATOM     12  C   UNL A   1      35.264  23.975  25.058  1.00  0.00     0.020 A 
ATOM     13  O   UNL A   1      33.395  22.776  24.044  1.00  0.00    -0.474 OA
ATOM     14  C   UNL A   1      36.579  23.971  25.537  1.00  0.00     0.032 A 
ATOM     15  C   UNL A   1      34.679  22.795  24.545  1.00  0.00     0.143 A 
ATOM     16  C   UNL A   1      37.277  22.769  25.601  1.00  0.00     0.043 A 
ATOM     17  C   UNL A   1      35.362  21.579  24.701  1.00  0.00     0.069 A 
ATOM     18  Cl  UNL A   1      38.815  22.721  26.371  1.00  0.00    -0.084 Cl
ATOM     19  C   UNL A   1      36.673  21.579  25.203  1.00  0.00     0.041 A 
BRANCH  11  20
ATOM     20  C   UNL A   1      32.743  24.887  22.851  1.00  0.00     0.429 C 
ATOM     21  F   UNL A   1      33.768  24.504  22.056  1.00  0.00    -0.167 F 
ATOM     22  F   UNL A   1      31.612  24.772  22.108  1.00  0.00    -0.167 F 
ATOM     23  F   UNL A   1      32.905  26.205  23.113  1.00  0.00    -0.167 F 
ENDBRANCH  11  20
BRANCH  17  24
ATOM     24  C   UNL A   1      34.696  20.310  24.641  1.00  0.00    -0.058 C 
ATOM     25  C   UNL A   1      34.246  19.194  24.758  1.00  0.00    -0.062 C 
BRANCH  25  26
ATOM     26  C   UNL A   1      33.833  17.831  24.912  1.00  0.00     0.025 A 
ATOM     27  C   UNL A   1      32.518  17.501  25.260  1.00  0.00     0.017 A 
ATOM     28  C   UNL A   1      34.780  16.816  24.778  1.00  0.00     0.017 A 
ATOM     29  C   UNL A   1      32.160  16.166  25.483  1.00  0.00     0.001 A 
ATOM     30  C   UNL A   1      34.423  15.484  25.001  1.00  0.00     0.001 A 
ATOM     31  C   UNL A   1      33.116  15.160  25.357  1.00  0.00     0.000 A 
ENDBRANCH  25  26
ENDBRANCH  17  24
ENDBRANCH   7   9
ENDBRANCH   4   5
ENDBRANCH   3   4
ENDBRANCH   2   3
ENDBRANCH   1   2
BRANCH   1  32
ATOM     32  C   UNL A   1      33.974  28.861  27.344  1.00  0.00     0.021 C 
BRANCH  32  33
ATOM     33  C   UNL A   1      35.270  29.592  27.672  1.00  0.00     0.116 C 
BRANCH  33  34
ATOM     34  N   UNL A   1      35.271  30.146  29.014  1.00  0.00    -0.352 N 
ATOM     35  C   UNL A   1      36.285  30.229  29.935  1.00  0.00     0.251 C 
ATOM     36  H   UNL A   1      34.409  30.520  29.310  1.00  0.00     0.163 HD
ATOM     37  O   UNL A   1      36.025  30.576  31.084  1.00  0.00    -0.269 OA
BRANCH  35  38
ATOM     38  C   UNL A   1      37.678  29.890  29.561  1.00  0.00     0.039 A 
ATOM     39  C   UNL A   1      38.587  29.578  30.577  1.00  0.00     0.014 A 
ATOM     40  C   UNL A   1      38.105  29.912  28.230  1.00  0.00     0.014 A 
ATOM     41  C   UNL A   1      39.904  29.246  30.254  1.00  0.00     0.010 A 
ATOM     42  C   UNL A   1      39.396  29.500  27.904  1.00  0.00     0.010 A 
ATOM     43  C   UNL A   1      40.314  29.174  28.913  1.00  0.00    -0.014 A 
BRANCH  43  44
ATOM     44  C   UNL A   1      41.700  28.771  28.555  1.00  0.00     0.031 A 
ATOM     45  C   UNL A   1      42.800  29.798  28.495  1.00  0.00     0.074 A 
ATOM     46  C   UNL A   1      41.958  27.486  28.240  1.00  0.00     0.049 A 
ATOM     47  N   UNL A   1      44.055  29.645  28.160  1.00  0.00    -0.248 NA
ATOM     48  C   UNL A   1      42.434  31.182  28.834  1.00  0.00     0.031 C 
ATOM     49  C   UNL A   1      40.967  26.408  28.214  1.00  0.00     0.029 A 
ATOM     50  N   UNL A   1      43.128  26.869  27.872  1.00  0.00    -0.354 N 
ATOM     51  C   UNL A   1      44.628  30.910  28.245  1.00  0.00     0.074 A 
ATOM     52  C   UNL A   1      43.566  31.829  28.595  1.00  0.00     0.031 C 
ATOM     53  C   UNL A   1      41.572  25.261  27.870  1.00  0.00     0.029 A 
ATOM     54  C   UNL A   1      42.984  25.527  27.608  1.00  0.00     0.049 A 
ATOM     55  H   UNL A   1      43.988  27.342  27.805  1.00  0.00     0.167 HD
ATOM     56  C   UNL A   1      45.923  31.269  28.073  1.00  0.00     0.037 A 
ATOM     57  C   UNL A   1      43.881  24.615  27.185  1.00  0.00     0.037 A 
ATOM     58  C   UNL A   1      46.973  30.345  27.726  1.00  0.00     0.049 A 
ATOM     59  C   UNL A   1      45.310  25.039  26.977  1.00  0.00     0.074 A 
ATOM     60  C   UNL A   1      48.323  30.599  27.565  1.00  0.00     0.029 A 
ATOM     61  N   UNL A   1      46.790  28.991  27.478  1.00  0.00    -0.354 N 
ATOM     62  N   UNL A   1      45.847  26.227  27.122  1.00  0.00    -0.248 NA
ATOM     63  C   UNL A   1      46.258  23.998  26.556  1.00  0.00     0.031 C 
ATOM     64  C   UNL A   1      48.947  29.413  27.164  1.00  0.00     0.029 A 
ATOM     65  C   UNL A   1      47.998  28.403  27.139  1.00  0.00     0.049 A 
ATOM     66  H   UNL A   1      45.928  28.519  27.533  1.00  0.00     0.167 HD
ATOM     67  C   UNL A   1      47.200  26.073  26.836  1.00  0.00     0.074 A 
ATOM     68  C   UNL A   1      47.400  24.671  26.525  1.00  0.00     0.031 C 
ATOM     69  C   UNL A   1      48.184  27.005  26.833  1.00  0.00     0.037 A 
BRANCH  56  70
ATOM     70  C   UNL A   1      46.273  32.722  28.259  1.00  0.00     0.058 A 
ATOM     71  C   UNL A   1      46.679  33.231  29.505  1.00  0.00     0.135 A 
ATOM     72  C   UNL A   1      46.225  33.616  27.176  1.00  0.00     0.135 A 
ATOM     73  F   UNL A   1      46.732  32.428  30.580  1.00  0.00    -0.206 F 
ATOM     74  C   UNL A   1      46.982  34.578  29.679  1.00  0.00     0.059 A 
ATOM     75  C   UNL A   1      46.558  34.961  27.320  1.00  0.00     0.059 A 
ATOM     76  F   UNL A   1      45.847  33.187  25.962  1.00  0.00    -0.206 F 
ATOM     77  C   UNL A   1      46.917  35.435  28.581  1.00  0.00     0.060 A 
BRANCH  77  78
ATOM     78  S   UNL A   1      47.303  37.181  28.829  1.00  0.00     0.124 S 
ATOM     79  O   UNL A   1      45.968  37.768  28.890  1.00  0.00    -0.237 OA
ATOM     80  O   UNL A   1      48.045  37.160  30.086  1.00  0.00    -0.237 OA
ATOM     81  O   UNL A   1      48.087  37.529  27.647  1.00  0.00    -0.744 OA
ENDBRANCH  77  78
ENDBRANCH  56  70
BRANCH  57  82
ATOM     82  C   UNL A   1      43.448  23.212  26.939  1.00  0.00     0.058 A 
ATOM     83  C   UNL A   1      43.152  22.758  25.646  1.00  0.00     0.135 A 
ATOM     84  C   UNL A   1      43.349  22.290  27.993  1.00  0.00     0.135 A 
ATOM     85  F   UNL A   1      43.224  23.600  24.605  1.00  0.00    -0.206 F 
ATOM     86  C   UNL A   1      42.762  21.443  25.407  1.00  0.00     0.059 A 
ATOM     87  C   UNL A   1      42.992  20.964  27.776  1.00  0.00     0.059 A 
ATOM     88  F   UNL A   1      43.637  22.669  29.248  1.00  0.00    -0.206 F 
ATOM     89  C   UNL A   1      42.692  20.551  26.479  1.00  0.00     0.060 A 
BRANCH  89  90
ATOM     90  S   UNL A   1      42.244  18.833  26.149  1.00  0.00     0.124 S 
ATOM     91  O   UNL A   1      43.236  18.458  25.148  1.00  0.00    -0.237 OA
ATOM     92  O   UNL A   1      42.400  18.219  27.464  1.00  0.00    -0.237 OA
ATOM     93  O   UNL A   1      40.869  18.931  25.669  1.00  0.00    -0.744 OA
ENDBRANCH  89  90
ENDBRANCH  57  82
BRANCH  69  94
ATOM     94  C   UNL A   1      49.581  26.540  26.517  1.00  0.00     0.058 A 
ATOM     95  C   UNL A   1      50.398  25.933  27.484  1.00  0.00     0.135 A 
ATOM     96  C   UNL A   1      50.090  26.655  25.213  1.00  0.00     0.135 A 
ATOM     97  F   UNL A   1      49.966  25.801  28.748  1.00  0.00    -0.206 F 
ATOM     98  C   UNL A   1      51.677  25.480  27.176  1.00  0.00     0.059 A 
ATOM     99  C   UNL A   1      51.353  26.180  24.874  1.00  0.00     0.059 A 
ATOM    100  F   UNL A   1      49.349  27.219  24.245  1.00  0.00    -0.206 F 
ATOM    101  C   UNL A   1      52.144  25.605  25.866  1.00  0.00     0.060 A 
BRANCH 101 102
ATOM    102  S   UNL A   1      53.792  24.981  25.473  1.00  0.00     0.124 S 
ATOM    103  O   UNL A   1      54.533  25.321  26.684  1.00  0.00    -0.237 OA
ATOM    104  O   UNL A   1      53.543  23.558  25.260  1.00  0.00    -0.237 OA
ATOM    105  O   UNL A   1      54.165  25.732  24.278  1.00  0.00    -0.744 OA
ENDBRANCH 101 102
ENDBRANCH  69  94
ENDBRANCH  43  44
ENDBRANCH  35  38
ENDBRANCH  33  34
ENDBRANCH  32  33
ENDBRANCH   1  32
TORSDOF 19
ENDMDL
MODEL 2
REMARK VINA RESULT:     -12.4      0.496      7.839
REMARK SMILES O=C(NCCCCCCNC(=O)c1ccc(-c2c3nc(c(-c4c(F)cc(S(=O)(=O)[O-])cc4F)c4ccc([nH]4)c(-c4c(F)cc(S(=O)(=O)[O-])cc4F)c4nc(c(-c5c(F)cc(S(=O)(=O)[O-])cc5F)c5ccc2[nH]5)C=C4)C=C3)cc1)C1=Cc2cc(Cl)cc(C#Cc3ccccc3)c2O[C@@H]1C(F)(F)F
REMARK SMILES IDX 7 1 6 2 5 3 4 4 3 5 1 6 2 7 79 9 80 10 97 11 81 12 96 13
REMARK SMILES IDX 82 14 95 15 83 16 86 17 84 18 85 19 98 20 99 21 100 22
REMARK SMILES IDX 101 23 87 24 88 25 89 26 90 27 94 28 91 29 93 30 92 31 8 32
REMARK SMILES IDX 9 33 10 34 11 35 12 37 13 38 14 39 78 40 15 41 77 42 16 43
REMARK SMILES IDX 17 44 18 45 71 46 19 47 76 48 70 49 72 50 20 51 75 52 69 53
REMARK SMILES IDX 68 54 21 56 55 57 34 58 54 59 35 60 38 61 53 62 73 63 36 64
REMARK SMILES IDX 37 65 52 67 74 68 39 69 22 70 23 71 32 72 24 73 25 74 31 75
REMARK SMILES IDX 33 76 26 77 27 78 28 79 29 80 30 81 56 82 57 83 66 84 58 85
REMARK SMILES IDX 59 86 65 87 67 88 60 89 61 90 62 91 63 92 64 93 40 94 41 95
REMARK SMILES IDX 50 96 42 97 43 98 49 99 51 100 44 101 45 102 46 103 47 104
REMARK SMILES IDX 48 105
REMARK H PARENT 3 8 10 36 72 55 38 66
REMARK Flexibility Score: inf
ROOT
ATOM      1  C   UNL A   1      33.698  28.756  25.736  1.00  0.00     0.002 C 
ENDROOT
BRANCH   1   2
ATOM      2  C   UNL A   1      32.279  28.347  25.323  1.00  0.00     0.002 C 
BRANCH   2   3
ATOM      3  C   UNL A   1      31.404  27.732  26.413  1.00  0.00     0.021 C 
BRANCH   3   4
ATOM      4  C   UNL A   1      30.697  26.434  26.050  1.00  0.00     0.116 C 
BRANCH   4   5
ATOM      5  N   UNL A   1      31.179  25.237  26.713  1.00  0.00    -0.352 N 
ATOM      6  O   UNL A   1      32.605  23.575  27.199  1.00  0.00    -0.270 OA
ATOM      7  C   UNL A   1      32.274  24.470  26.421  1.00  0.00     0.251 C 
ATOM      8  H   UNL A   1      30.643  24.934  27.479  1.00  0.00     0.163 HD
BRANCH   7   9
ATOM      9  C   UNL A   1      33.156  24.734  25.240  1.00  0.00     0.067 C 
ATOM     10  C   UNL A   1      34.465  25.029  25.346  1.00  0.00     0.025 C 
ATOM     11  C   UNL A   1      32.720  23.931  24.036  1.00  0.00     0.314 C 
ATOM     12  C   UNL A   1      35.327  23.871  24.967  1.00  0.00     0.020 A 
ATOM     13  O   UNL A   1      33.444  22.671  23.984  1.00  0.00    -0.474 OA
ATOM     14  C   UNL A   1      36.643  23.864  25.447  1.00  0.00     0.032 A 
ATOM     15  C   UNL A   1      34.729  22.687  24.484  1.00  0.00     0.143 A 
ATOM     16  C   UNL A   1      37.326  22.655  25.540  1.00  0.00     0.043 A 
ATOM     17  C   UNL A   1      35.397  21.467  24.670  1.00  0.00     0.069 A 
ATOM     18  Cl  UNL A   1      38.863  22.608  26.312  1.00  0.00    -0.084 Cl
ATOM     19  C   UNL A   1      36.708  21.463  25.172  1.00  0.00     0.041 A 
BRANCH  11  20
ATOM     20  C   UNL A   1      32.817  24.759  22.738  1.00  0.00     0.429 C 
ATOM     21  F   UNL A   1      33.342  24.038  21.721  1.00  0.00    -0.167 F 
ATOM     22  F   UNL A   1      31.589  25.170  22.329  1.00  0.00    -0.167 F 
ATOM     23  F   UNL A   1      33.574  25.872  22.877  1.00  0.00    -0.167 F 
ENDBRANCH  11  20
BRANCH  17  24
ATOM     24  C   UNL A   1      34.716  20.204  24.641  1.00  0.00    -0.058 C 
ATOM     25  C   UNL A   1      34.268  19.089  24.773  1.00  0.00    -0.062 C 
BRANCH  25  26
ATOM     26  C   UNL A   1      33.857  17.727  24.933  1.00  0.00     0.025 A 
ATOM     27  C   UNL A   1      32.542  17.396  25.285  1.00  0.00     0.017 A 
ATOM     28  C   UNL A   1      34.804  16.712  24.800  1.00  0.00     0.017 A 
ATOM     29  C   UNL A   1      32.187  16.061  25.514  1.00  0.00     0.001 A 
ATOM     30  C   UNL A   1      34.450  15.381  25.028  1.00  0.00     0.001 A 
ATOM     31  C   UNL A   1      33.144  15.056  25.388  1.00  0.00     0.000 A 
ENDBRANCH  25  26
ENDBRANCH  17  24
ENDBRANCH   7   9
ENDBRANCH   4   5
ENDBRANCH   3   4
ENDBRANCH   2   3
ENDBRANCH   1   2
BRANCH   1  32
ATOM     32  C   UNL A   1      33.974  28.863  27.238  1.00  0.00     0.021 C 
BRANCH  32  33
ATOM     33  C   UNL A   1      35.385  29.279  27.634  1.00  0.00     0.116 C 
BRANCH  33  34
ATOM     34  N   UNL A   1      35.419  30.009  28.888  1.00  0.00    -0.352 N 
ATOM     35  C   UNL A   1      36.457  30.215  29.763  1.00  0.00     0.251 C 
ATOM     36  H   UNL A   1      34.564  30.420  29.153  1.00  0.00     0.163 HD
ATOM     37  O   UNL A   1      36.225  30.714  30.861  1.00  0.00    -0.269 OA
BRANCH  35  38
ATOM     38  C   UNL A   1      37.840  29.829  29.401  1.00  0.00     0.039 A 
ATOM     39  C   UNL A   1      38.202  29.817  28.051  1.00  0.00     0.014 A 
ATOM     40  C   UNL A   1      38.771  29.446  30.372  1.00  0.00     0.014 A 
ATOM     41  C   UNL A   1      39.502  29.465  27.681  1.00  0.00     0.010 A 
ATOM     42  C   UNL A   1      40.089  29.177  30.008  1.00  0.00     0.010 A 
ATOM     43  C   UNL A   1      40.467  29.171  28.658  1.00  0.00    -0.014 A 
BRANCH  43  44
ATOM     44  C   UNL A   1      41.867  28.847  28.279  1.00  0.00     0.031 A 
ATOM     45  C   UNL A   1      42.250  27.436  27.916  1.00  0.00     0.074 A 
ATOM     46  C   UNL A   1      42.804  29.815  28.305  1.00  0.00     0.049 A 
ATOM     47  N   UNL A   1      43.425  26.954  27.603  1.00  0.00    -0.248 NA
ATOM     48  C   UNL A   1      41.175  26.432  27.929  1.00  0.00     0.031 C 
ATOM     49  C   UNL A   1      42.567  31.209  28.686  1.00  0.00     0.029 A 
ATOM     50  N   UNL A   1      44.145  29.776  28.014  1.00  0.00    -0.354 N 
ATOM     51  C   UNL A   1      43.232  25.594  27.385  1.00  0.00     0.074 A 
ATOM     52  C   UNL A   1      41.841  25.317  27.670  1.00  0.00     0.031 C 
ATOM     53  C   UNL A   1      43.716  31.895  28.588  1.00  0.00     0.029 A 
ATOM     54  C   UNL A   1      44.781  30.984  28.180  1.00  0.00     0.049 A 
ATOM     55  H   UNL A   1      44.608  28.961  27.715  1.00  0.00     0.167 HD
ATOM     56  C   UNL A   1      44.125  24.667  26.962  1.00  0.00     0.037 A 
ATOM     57  C   UNL A   1      46.079  31.319  28.036  1.00  0.00     0.037 A 
ATOM     58  C   UNL A   1      45.508  24.954  26.679  1.00  0.00     0.049 A 
ATOM     59  C   UNL A   1      47.059  30.269  27.589  1.00  0.00     0.074 A 
ATOM     60  C   UNL A   1      46.487  24.096  26.210  1.00  0.00     0.029 A 
ATOM     61  N   UNL A   1      46.113  26.193  26.848  1.00  0.00    -0.354 N 
ATOM     62  N   UNL A   1      46.847  29.001  27.327  1.00  0.00    -0.248 NA
ATOM     63  C   UNL A   1      48.453  30.695  27.407  1.00  0.00     0.031 C 
ATOM     64  C   UNL A   1      47.694  24.799  26.149  1.00  0.00     0.029 A 
ATOM     65  C   UNL A   1      47.456  26.114  26.517  1.00  0.00     0.049 A 
ATOM     66  H   UNL A   1      45.654  27.007  27.158  1.00  0.00     0.167 HD
ATOM     67  C   UNL A   1      48.074  28.483  26.925  1.00  0.00     0.074 A 
ATOM     68  C   UNL A   1      49.019  29.581  26.963  1.00  0.00     0.031 C 
ATOM     69  C   UNL A   1      48.388  27.216  26.558  1.00  0.00     0.037 A 
BRANCH  56  70
ATOM     70  C   UNL A   1      43.629  23.255  26.779  1.00  0.00     0.058 A 
ATOM     71  C   UNL A   1      43.336  22.427  27.876  1.00  0.00     0.135 A 
ATOM     72  C   UNL A   1      43.424  22.729  25.493  1.00  0.00     0.135 A 
ATOM     73  F   UNL A   1      43.525  22.871  29.129  1.00  0.00    -0.206 F 
ATOM     74  C   UNL A   1      42.898  21.118  27.705  1.00  0.00     0.059 A 
ATOM     75  C   UNL A   1      42.953  21.432  25.299  1.00  0.00     0.059 A 
ATOM     76  F   UNL A   1      43.683  23.473  24.408  1.00  0.00    -0.206 F 
ATOM     77  C   UNL A   1      42.711  20.628  26.413  1.00  0.00     0.060 A 
BRANCH  77  78
ATOM     78  S   UNL A   1      42.154  18.924  26.211  1.00  0.00     0.124 S 
ATOM     79  O   UNL A   1      43.084  18.431  25.200  1.00  0.00    -0.237 OA
ATOM     80  O   UNL A   1      42.330  18.378  27.554  1.00  0.00    -0.237 OA
ATOM     81  O   UNL A   1      40.769  19.067  25.771  1.00  0.00    -0.744 OA
ENDBRANCH  77  78
ENDBRANCH  56  70
BRANCH  57  82
ATOM     82  C   UNL A   1      46.516  32.714  28.315  1.00  0.00     0.058 A 
ATOM     83  C   UNL A   1      46.533  33.688  27.306  1.00  0.00     0.135 A 
ATOM     84  C   UNL A   1      46.899  33.107  29.608  1.00  0.00     0.135 A 
ATOM     85  F   UNL A   1      46.183  33.363  26.054  1.00  0.00    -0.206 F 
ATOM     86  C   UNL A   1      46.926  34.999  27.565  1.00  0.00     0.059 A 
ATOM     87  C   UNL A   1      47.266  34.417  29.898  1.00  0.00     0.059 A 
ATOM     88  F   UNL A   1      46.885  32.218  30.613  1.00  0.00    -0.206 F 
ATOM     89  C   UNL A   1      47.284  35.355  28.866  1.00  0.00     0.060 A 
BRANCH  89  90
ATOM     90  S   UNL A   1      47.733  37.071  29.202  1.00  0.00     0.124 S 
ATOM     91  O   UNL A   1      47.009  37.328  30.442  1.00  0.00    -0.237 OA
ATOM     92  O   UNL A   1      49.186  36.991  29.316  1.00  0.00    -0.237 OA
ATOM     93  O   UNL A   1      47.241  37.784  28.026  1.00  0.00    -0.744 OA
ENDBRANCH  89  90
ENDBRANCH  57  82
BRANCH  69  94
ATOM     94  C   UNL A   1      49.806  26.947  26.130  1.00  0.00     0.058 A 
ATOM     95  C   UNL A   1      50.802  26.578  27.049  1.00  0.00     0.135 A 
ATOM     96  C   UNL A   1      50.162  27.009  24.773  1.00  0.00     0.135 A 
ATOM     97  F   UNL A   1      50.520  26.509  28.360  1.00  0.00    -0.206 F 
ATOM     98  C   UNL A   1      52.103  26.305  26.641  1.00  0.00     0.059 A 
ATOM     99  C   UNL A   1      51.448  26.708  24.337  1.00  0.00     0.059 A 
ATOM    100  F   UNL A   1      49.248  27.348  23.849  1.00  0.00    -0.206 F 
ATOM    101  C   UNL A   1      52.415  26.368  25.281  1.00  0.00     0.060 A 
BRANCH 101 102
ATOM    102  S   UNL A   1      54.100  25.976  24.762  1.00  0.00     0.124 S 
ATOM    103  O   UNL A   1      54.104  26.456  23.384  1.00  0.00    -0.237 OA
ATOM    104  O   UNL A   1      54.903  26.749  25.705  1.00  0.00    -0.237 OA
ATOM    105  O   UNL A   1      54.177  24.527  24.922  1.00  0.00    -0.744 OA
ENDBRANCH 101 102
ENDBRANCH  69  94
ENDBRANCH  43  44
ENDBRANCH  35  38
ENDBRANCH  33  34
ENDBRANCH  32  33
ENDBRANCH   1  32
TORSDOF 19
ENDMDL
MODEL 3
REMARK VINA RESULT:     -12.0      4.633      5.661
REMARK SMILES O=C(NCCCCCCNC(=O)c1ccc(-c2c3nc(c(-c4c(F)cc(S(=O)(=O)[O-])cc4F)c4ccc([nH]4)c(-c4c(F)cc(S(=O)(=O)[O-])cc4F)c4nc(c(-c5c(F)cc(S(=O)(=O)[O-])cc5F)c5ccc2[nH]5)C=C4)C=C3)cc1)C1=Cc2cc(Cl)cc(C#Cc3ccccc3)c2O[C@@H]1C(F)(F)F
REMARK SMILES IDX 7 1 6 2 5 3 4 4 3 5 1 6 2 7 79 9 80 10 97 11 81 12 96 13
REMARK SMILES IDX 82 14 95 15 83 16 86 17 84 18 85 19 98 20 99 21 100 22
REMARK SMILES IDX 101 23 87 24 88 25 89 26 90 27 94 28 91 29 93 30 92 31 8 32
REMARK SMILES IDX 9 33 10 34 11 35 12 37 13 38 14 39 78 40 15 41 77 42 16 43
REMARK SMILES IDX 17 44 18 45 71 46 19 47 76 48 70 49 72 50 20 51 75 52 69 53
REMARK SMILES IDX 68 54 21 56 55 57 34 58 54 59 35 60 38 61 53 62 73 63 36 64
REMARK SMILES IDX 37 65 52 67 74 68 39 69 22 70 23 71 32 72 24 73 25 74 31 75
REMARK SMILES IDX 33 76 26 77 27 78 28 79 29 80 30 81 56 82 57 83 66 84 58 85
REMARK SMILES IDX 59 86 65 87 67 88 60 89 61 90 62 91 63 92 64 93 40 94 41 95
REMARK SMILES IDX 50 96 42 97 43 98 49 99 51 100 44 101 45 102 46 103 47 104
REMARK SMILES IDX 48 105
REMARK H PARENT 3 8 10 36 72 55 38 66
REMARK Flexibility Score: inf
ROOT
ATOM      1  C   UNL A   1      32.232  28.257  27.385  1.00  0.00     0.002 C 
ENDROOT
BRANCH   1   2
ATOM      2  C   UNL A   1      31.081  27.254  27.237  1.00  0.00     0.002 C 
BRANCH   2   3
ATOM      3  C   UNL A   1      30.766  26.787  25.817  1.00  0.00     0.021 C 
BRANCH   3   4
ATOM      4  C   UNL A   1      30.357  25.329  25.667  1.00  0.00     0.116 C 
BRANCH   4   5
ATOM      5  N   UNL A   1      31.071  24.377  26.495  1.00  0.00    -0.352 N 
ATOM      6  O   UNL A   1      32.834  23.228  27.275  1.00  0.00    -0.270 OA
ATOM      7  C   UNL A   1      32.358  23.925  26.378  1.00  0.00     0.251 C 
ATOM      8  H   UNL A   1      30.559  24.003  27.247  1.00  0.00     0.163 HD
BRANCH   7   9
ATOM      9  C   UNL A   1      33.256  24.322  25.248  1.00  0.00     0.067 C 
ATOM     10  C   UNL A   1      34.509  24.779  25.425  1.00  0.00     0.025 C 
ATOM     11  C   UNL A   1      32.986  23.494  24.012  1.00  0.00     0.314 C 
ATOM     12  C   UNL A   1      35.531  23.749  25.076  1.00  0.00     0.020 A 
ATOM     13  O   UNL A   1      33.868  22.337  23.981  1.00  0.00    -0.474 OA
ATOM     14  C   UNL A   1      36.811  23.900  25.622  1.00  0.00     0.032 A 
ATOM     15  C   UNL A   1      35.113  22.507  24.547  1.00  0.00     0.143 A 
ATOM     16  C   UNL A   1      37.638  22.787  25.735  1.00  0.00     0.043 A 
ATOM     17  C   UNL A   1      35.923  21.379  24.751  1.00  0.00     0.069 A 
ATOM     18  Cl  UNL A   1      39.129  22.921  26.583  1.00  0.00    -0.084 Cl
ATOM     19  C   UNL A   1      37.197  21.533  25.319  1.00  0.00     0.041 A 
BRANCH  11  20
ATOM     20  C   UNL A   1      33.040  24.352  22.733  1.00  0.00     0.429 C 
ATOM     21  F   UNL A   1      33.900  25.389  22.859  1.00  0.00    -0.167 F 
ATOM     22  F   UNL A   1      33.467  23.620  21.671  1.00  0.00    -0.167 F 
ATOM     23  F   UNL A   1      31.835  24.866  22.391  1.00  0.00    -0.167 F 
ENDBRANCH  11  20
BRANCH  17  24
ATOM     24  C   UNL A   1      35.412  20.041  24.671  1.00  0.00    -0.058 C 
ATOM     25  C   UNL A   1      34.835  18.980  24.732  1.00  0.00    -0.062 C 
BRANCH  25  26
ATOM     26  C   UNL A   1      34.148  17.740  24.930  1.00  0.00     0.025 A 
ATOM     27  C   UNL A   1      32.809  17.702  25.339  1.00  0.00     0.017 A 
ATOM     28  C   UNL A   1      34.849  16.544  24.778  1.00  0.00     0.017 A 
ATOM     29  C   UNL A   1      32.185  16.477  25.603  1.00  0.00     0.001 A 
ATOM     30  C   UNL A   1      34.227  15.322  25.042  1.00  0.00     0.001 A 
ATOM     31  C   UNL A   1      32.898  15.288  25.458  1.00  0.00     0.000 A 
ENDBRANCH  25  26
ENDBRANCH  17  24
ENDBRANCH   7   9
ENDBRANCH   4   5
ENDBRANCH   3   4
ENDBRANCH   2   3
ENDBRANCH   1   2
BRANCH   1  32
ATOM     32  C   UNL A   1      33.578  27.856  26.778  1.00  0.00     0.021 C 
BRANCH  32  33
ATOM     33  C   UNL A   1      34.398  28.981  26.159  1.00  0.00     0.116 C 
BRANCH  33  34
ATOM     34  N   UNL A   1      33.979  30.292  26.619  1.00  0.00    -0.352 N 
ATOM     35  C   UNL A   1      34.486  31.080  27.622  1.00  0.00     0.251 C 
ATOM     36  H   UNL A   1      33.210  30.677  26.138  1.00  0.00     0.163 HD
ATOM     37  O   UNL A   1      33.868  32.083  27.969  1.00  0.00    -0.269 OA
BRANCH  35  38
ATOM     38  C   UNL A   1      35.756  30.723  28.297  1.00  0.00     0.039 A 
ATOM     39  C   UNL A   1      35.732  29.747  29.298  1.00  0.00     0.014 A 
ATOM     40  C   UNL A   1      36.958  31.363  27.981  1.00  0.00     0.014 A 
ATOM     41  C   UNL A   1      36.915  29.384  29.945  1.00  0.00     0.010 A 
ATOM     42  C   UNL A   1      38.149  30.942  28.568  1.00  0.00     0.010 A 
ATOM     43  C   UNL A   1      38.140  29.956  29.565  1.00  0.00    -0.014 A 
BRANCH  43  44
ATOM     44  C   UNL A   1      39.413  29.540  30.212  1.00  0.00     0.031 A 
ATOM     45  C   UNL A   1      39.941  30.288  31.407  1.00  0.00     0.074 A 
ATOM     46  C   UNL A   1      40.117  28.514  29.693  1.00  0.00     0.049 A 
ATOM     47  N   UNL A   1      41.050  30.102  32.075  1.00  0.00    -0.248 NA
ATOM     48  C   UNL A   1      39.125  31.408  31.901  1.00  0.00     0.031 C 
ATOM     49  C   UNL A   1      39.735  27.741  28.509  1.00  0.00     0.029 A 
ATOM     50  N   UNL A   1      41.305  27.949  30.087  1.00  0.00    -0.354 N 
ATOM     51  C   UNL A   1      41.067  31.080  33.064  1.00  0.00     0.074 A 
ATOM     52  C   UNL A   1      39.891  31.899  32.865  1.00  0.00     0.031 C 
ATOM     53  C   UNL A   1      40.658  26.793  28.285  1.00  0.00     0.029 A 
ATOM     54  C   UNL A   1      41.719  26.916  29.280  1.00  0.00     0.049 A 
ATOM     55  H   UNL A   1      41.811  28.254  30.874  1.00  0.00     0.167 HD
ATOM     56  C   UNL A   1      41.965  31.262  34.062  1.00  0.00     0.037 A 
ATOM     57  C   UNL A   1      42.835  26.161  29.323  1.00  0.00     0.037 A 
ATOM     58  C   UNL A   1      43.132  30.439  34.253  1.00  0.00     0.049 A 
ATOM     59  C   UNL A   1      43.832  26.396  30.426  1.00  0.00     0.074 A 
ATOM     60  C   UNL A   1      44.084  30.515  35.254  1.00  0.00     0.029 A 
ATOM     61  N   UNL A   1      43.512  29.394  33.421  1.00  0.00    -0.354 N 
ATOM     62  N   UNL A   1      43.801  27.285  31.391  1.00  0.00    -0.248 NA
ATOM     63  C   UNL A   1      45.011  25.520  30.453  1.00  0.00     0.031 C 
ATOM     64  C   UNL A   1      45.069  29.556  34.996  1.00  0.00     0.029 A 
ATOM     65  C   UNL A   1      44.697  28.835  33.871  1.00  0.00     0.049 A 
ATOM     66  H   UNL A   1      43.012  29.095  32.627  1.00  0.00     0.167 HD
ATOM     67  C   UNL A   1      44.941  27.059  32.155  1.00  0.00     0.074 A 
ATOM     68  C   UNL A   1      45.631  25.938  31.548  1.00  0.00     0.031 C 
ATOM     69  C   UNL A   1      45.375  27.718  33.258  1.00  0.00     0.037 A 
BRANCH  56  70
ATOM     70  C   UNL A   1      41.717  32.395  35.024  1.00  0.00     0.058 A 
ATOM     71  C   UNL A   1      40.921  32.231  36.170  1.00  0.00     0.135 A 
ATOM     72  C   UNL A   1      42.298  33.656  34.811  1.00  0.00     0.135 A 
ATOM     73  F   UNL A   1      40.328  31.052  36.420  1.00  0.00    -0.206 F 
ATOM     74  C   UNL A   1      40.676  33.284  37.046  1.00  0.00     0.059 A 
ATOM     75  C   UNL A   1      42.095  34.715  35.693  1.00  0.00     0.059 A 
ATOM     76  F   UNL A   1      43.070  33.872  33.735  1.00  0.00    -0.206 F 
ATOM     77  C   UNL A   1      41.266  34.524  36.797  1.00  0.00     0.060 A 
BRANCH  77  78
ATOM     78  S   UNL A   1      40.928  35.881  37.938  1.00  0.00     0.124 S 
ATOM     79  O   UNL A   1      42.242  36.509  38.041  1.00  0.00    -0.237 OA
ATOM     80  O   UNL A   1      39.915  36.647  37.218  1.00  0.00    -0.237 OA
ATOM     81  O   UNL A   1      40.461  35.205  39.144  1.00  0.00    -0.744 OA
ENDBRANCH  77  78
ENDBRANCH  56  70
BRANCH  57  82
ATOM     82  C   UNL A   1      43.058  25.113  28.290  1.00  0.00     0.058 A 
ATOM     83  C   UNL A   1      43.592  25.432  27.033  1.00  0.00     0.135 A 
ATOM     84  C   UNL A   1      42.767  23.765  28.553  1.00  0.00     0.135 A 
ATOM     85  F   UNL A   1      43.881  26.705  26.729  1.00  0.00    -0.206 F 
ATOM     86  C   UNL A   1      43.818  24.453  26.069  1.00  0.00     0.059 A 
ATOM     87  C   UNL A   1      43.012  22.766  27.617  1.00  0.00     0.059 A 
ATOM     88  F   UNL A   1      42.269  23.404  29.746  1.00  0.00    -0.206 F 
ATOM     89  C   UNL A   1      43.531  23.121  26.373  1.00  0.00     0.060 A 
BRANCH  89  90
ATOM     90  S   UNL A   1      43.886  21.854  25.137  1.00  0.00     0.124 S 
ATOM     91  O   UNL A   1      45.255  21.486  25.477  1.00  0.00    -0.237 OA
ATOM     92  O   UNL A   1      42.864  20.853  25.424  1.00  0.00    -0.237 OA
ATOM     93  O   UNL A   1      43.720  22.564  23.871  1.00  0.00    -0.744 OA
ENDBRANCH  89  90
ENDBRANCH  57  82
BRANCH  69  94
ATOM     94  C   UNL A   1      46.640  27.226  33.909  1.00  0.00     0.058 A 
ATOM     95  C   UNL A   1      46.629  26.219  34.887  1.00  0.00     0.135 A 
ATOM     96  C   UNL A   1      47.887  27.734  33.509  1.00  0.00     0.135 A 
ATOM     97  F   UNL A   1      45.465  25.702  35.312  1.00  0.00    -0.206 F 
ATOM     98  C   UNL A   1      47.806  25.751  35.463  1.00  0.00     0.059 A 
ATOM     99  C   UNL A   1      49.079  27.257  34.046  1.00  0.00     0.059 A 
ATOM    100  F   UNL A   1      47.959  28.691  32.570  1.00  0.00    -0.206 F 
ATOM    101  C   UNL A   1      49.027  26.274  35.032  1.00  0.00     0.060 A 
BRANCH 101 102
ATOM    102  S   UNL A   1      50.548  25.632  35.763  1.00  0.00     0.124 S 
ATOM    103  O   UNL A   1      50.371  24.193  35.596  1.00  0.00    -0.237 OA
ATOM    104  O   UNL A   1      51.577  26.245  34.928  1.00  0.00    -0.237 OA
ATOM    105  O   UNL A   1      50.495  26.115  37.139  1.00  0.00    -0.744 OA
ENDBRANCH 101 102
ENDBRANCH  69  94
ENDBRANCH  43  44
ENDBRANCH  35  38
ENDBRANCH  33  34
ENDBRANCH  32  33
ENDBRANCH   1  32
TORSDOF 19
ENDMDL
