MODEL 1
REMARK VINA RESULT:     -10.8      0.000      0.000
REMARK SMILES O=C(COc1cccc(NC(=O)c2ccc3c(c2)C(=O)N(c2ccccc2-c2ccccc2)C3=O)c1)NCCCCCCNC(=O)c1ccc(-c2c3nc(c(-c4c(F)cc(S(=O)(=O)[O-])cc4F)c4ccc([nH]4)c(-c4c(F)cc(S(=O)(=O)[O-])cc4F)c4nc(c(-c5c(F)cc(S(=O)(=O)[O-])cc5F)c5ccc2[nH]5)C=C4)C=C3)cc1
REMARK SMILES IDX 39 1 38 2 37 3 1 4 2 5 3 7 4 8 5 9 6 10 36 11 7 12 9 13 8 14
REMARK SMILES IDX 10 15 11 16 12 18 13 19 14 20 18 21 15 22 17 23 16 24 19 25
REMARK SMILES IDX 34 26 20 27 21 28 35 29 22 30 23 31 27 32 24 33 26 34 25 35
REMARK SMILES IDX 28 36 29 37 33 38 30 39 32 40 31 41 40 42 41 43 42 44 43 45
REMARK SMILES IDX 44 46 45 47 46 49 47 50 48 51 112 52 49 53 111 54 50 55
REMARK SMILES IDX 51 56 52 57 105 58 53 59 110 60 104 61 106 62 54 63 109 64
REMARK SMILES IDX 103 65 102 66 55 68 89 69 68 70 88 71 69 72 72 73 87 74
REMARK SMILES IDX 107 75 70 76 71 77 86 79 108 80 73 81 56 82 57 83 66 84
REMARK SMILES IDX 58 85 59 86 65 87 67 88 60 89 61 90 62 91 63 92 64 93 90 94
REMARK SMILES IDX 91 95 100 96 92 97 93 98 99 99 101 100 94 101 95 102 96 103
REMARK SMILES IDX 97 104 98 105 74 106 75 107 84 108 76 109 77 110 83 111
REMARK SMILES IDX 85 112 78 113 79 114 80 115 81 116 82 117
REMARK H PARENT 37 6 10 17 44 48 106 67 72 78
REMARK Flexibility Score: inf
ROOT
ATOM      1  C   UNL A   1      44.857  24.354  27.236  1.00  0.00     0.021 C 
ENDROOT
BRANCH   1   2
ATOM      2  C   UNL A   1      46.038  24.158  28.179  1.00  0.00     0.116 C 
BRANCH   2   3
ATOM      3  N   UNL A   1      45.881  24.895  29.412  1.00  0.00    -0.353 N 
ATOM      4  O   UNL A   1      44.124  23.665  30.251  1.00  0.00    -0.271 OA
ATOM      5  C   UNL A   1      44.972  24.541  30.385  1.00  0.00     0.257 C 
ATOM      6  H   UNL A   1      46.450  25.683  29.563  1.00  0.00     0.163 HD
BRANCH   5   7
ATOM      7  C   UNL A   1      45.114  25.341  31.680  1.00  0.00     0.329 C 
BRANCH   7   8
ATOM      8  O   UNL A   1      45.844  24.682  32.709  1.00  0.00    -0.484 OA
BRANCH   8   9
ATOM      9  C   UNL A   1      45.092  24.210  33.751  1.00  0.00     0.122 A 
ATOM     10  C   UNL A   1      43.717  24.271  33.558  1.00  0.00     0.046 A 
ATOM     11  C   UNL A   1      45.614  23.837  35.002  1.00  0.00     0.072 A 
ATOM     12  C   UNL A   1      42.868  23.971  34.611  1.00  0.00     0.006 A 
ATOM     13  C   UNL A   1      44.766  23.538  36.078  1.00  0.00     0.045 A 
ATOM     14  C   UNL A   1      43.392  23.627  35.859  1.00  0.00     0.026 A 
BRANCH  13  15
ATOM     15  N   UNL A   1      45.364  23.279  37.340  1.00  0.00    -0.322 N 
ATOM     16  C   UNL A   1      45.977  22.158  37.877  1.00  0.00     0.255 C 
ATOM     17  H   UNL A   1      45.337  24.048  37.955  1.00  0.00     0.170 HD
ATOM     18  O   UNL A   1      46.220  22.065  39.075  1.00  0.00    -0.269 OA
BRANCH  16  19
ATOM     19  C   UNL A   1      46.506  21.127  36.969  1.00  0.00     0.041 A 
ATOM     20  C   UNL A   1      45.738  20.655  35.882  1.00  0.00     0.015 A 
ATOM     21  C   UNL A   1      47.870  20.868  37.076  1.00  0.00     0.028 A 
ATOM     22  C   UNL A   1      46.390  20.116  34.758  1.00  0.00     0.015 A 
ATOM     23  C   UNL A   1      48.466  20.344  35.955  1.00  0.00     0.054 A 
ATOM     24  C   UNL A   1      47.775  20.055  34.802  1.00  0.00     0.053 A 
ATOM     25  C   UNL A   1      49.877  20.347  35.649  1.00  0.00     0.266 C 
ATOM     26  C   UNL A   1      48.780  19.968  33.733  1.00  0.00     0.266 C 
ATOM     27  O   UNL A   1      50.687  20.343  36.556  1.00  0.00    -0.268 OA
ATOM     28  N   UNL A   1      49.982  20.381  34.274  1.00  0.00    -0.242 N 
ATOM     29  O   UNL A   1      48.474  19.526  32.641  1.00  0.00    -0.268 OA
BRANCH  28  30
ATOM     30  C   UNL A   1      51.168  20.845  33.596  1.00  0.00     0.060 A 
ATOM     31  C   UNL A   1      52.224  19.921  33.389  1.00  0.00     0.027 A 
ATOM     32  C   UNL A   1      51.433  22.194  33.239  1.00  0.00     0.006 A 
ATOM     33  C   UNL A   1      53.473  20.278  32.876  1.00  0.00     0.002 A 
ATOM     34  C   UNL A   1      52.700  22.525  32.681  1.00  0.00     0.011 A 
ATOM     35  C   UNL A   1      53.711  21.586  32.511  1.00  0.00     0.001 A 
BRANCH  32  36
ATOM     36  C   UNL A   1      50.577  23.357  33.518  1.00  0.00    -0.016 A 
ATOM     37  C   UNL A   1      50.172  24.219  32.487  1.00  0.00     0.009 A 
ATOM     38  C   UNL A   1      50.251  23.700  34.840  1.00  0.00     0.009 A 
ATOM     39  C   UNL A   1      49.412  25.358  32.764  1.00  0.00     0.001 A 
ATOM     40  C   UNL A   1      49.497  24.843  35.119  1.00  0.00     0.001 A 
ATOM     41  C   UNL A   1      49.069  25.665  34.079  1.00  0.00     0.000 A 
ENDBRANCH  32  36
ENDBRANCH  28  30
ENDBRANCH  16  19
ENDBRANCH  13  15
ENDBRANCH   8   9
ENDBRANCH   7   8
ENDBRANCH   5   7
ENDBRANCH   2   3
ENDBRANCH   1   2
BRANCH   1  42
ATOM     42  C   UNL A   1      44.979  25.560  26.297  1.00  0.00     0.002 C 
BRANCH  42  43
ATOM     43  C   UNL A   1      44.023  25.573  25.100  1.00  0.00     0.002 C 
BRANCH  43  44
ATOM     44  C   UNL A   1      43.125  26.807  24.979  1.00  0.00     0.021 C 
BRANCH  44  45
ATOM     45  C   UNL A   1      41.638  26.564  25.223  1.00  0.00     0.116 C 
BRANCH  45  46
ATOM     46  N   UNL A   1      41.355  25.208  25.662  1.00  0.00    -0.352 N 
ATOM     47  C   UNL A   1      41.103  24.731  26.926  1.00  0.00     0.251 C 
ATOM     48  H   UNL A   1      41.344  24.530  24.948  1.00  0.00     0.163 HD
ATOM     49  O   UNL A   1      41.029  23.520  27.111  1.00  0.00    -0.269 OA
BRANCH  47  50
ATOM     50  C   UNL A   1      40.946  25.664  28.066  1.00  0.00     0.039 A 
ATOM     51  C   UNL A   1      42.081  26.309  28.565  1.00  0.00     0.014 A 
ATOM     52  C   UNL A   1      39.700  25.894  28.656  1.00  0.00     0.014 A 
ATOM     53  C   UNL A   1      41.957  27.226  29.613  1.00  0.00     0.010 A 
ATOM     54  C   UNL A   1      39.567  26.858  29.655  1.00  0.00     0.010 A 
ATOM     55  C   UNL A   1      40.695  27.533  30.147  1.00  0.00    -0.014 A 
BRANCH  55  56
ATOM     56  C   UNL A   1      40.543  28.566  31.205  1.00  0.00     0.031 A 
ATOM     57  C   UNL A   1      41.391  28.520  32.448  1.00  0.00     0.074 A 
ATOM     58  C   UNL A   1      39.603  29.521  31.069  1.00  0.00     0.049 A 
ATOM     59  N   UNL A   1      41.392  29.329  33.477  1.00  0.00    -0.248 NA
ATOM     60  C   UNL A   1      42.346  27.407  32.560  1.00  0.00     0.031 C 
ATOM     61  C   UNL A   1      38.682  29.645  29.936  1.00  0.00     0.029 A 
ATOM     62  N   UNL A   1      39.264  30.570  31.886  1.00  0.00    -0.354 N 
ATOM     63  C   UNL A   1      42.330  28.815  34.366  1.00  0.00     0.074 A 
ATOM     64  C   UNL A   1      42.844  27.598  33.774  1.00  0.00     0.031 C 
ATOM     65  C   UNL A   1      37.910  30.729  30.113  1.00  0.00     0.029 A 
ATOM     66  C   UNL A   1      38.255  31.359  31.384  1.00  0.00     0.049 A 
ATOM     67  H   UNL A   1      39.701  30.741  32.752  1.00  0.00     0.167 HD
ATOM     68  C   UNL A   1      42.737  29.318  35.556  1.00  0.00     0.037 A 
ATOM     69  C   UNL A   1      37.679  32.468  31.885  1.00  0.00     0.037 A 
ATOM     70  C   UNL A   1      42.242  30.544  36.129  1.00  0.00     0.049 A 
ATOM     71  C   UNL A   1      38.156  33.014  33.202  1.00  0.00     0.074 A 
ATOM     72  C   UNL A   1      42.651  31.181  37.287  1.00  0.00     0.029 A 
ATOM     73  N   UNL A   1      41.223  31.315  35.589  1.00  0.00    -0.354 N 
ATOM     74  N   UNL A   1      39.100  32.559  33.991  1.00  0.00    -0.248 NA
ATOM     75  C   UNL A   1      37.492  34.228  33.695  1.00  0.00     0.031 C 
ATOM     76  C   UNL A   1      41.848  32.313  37.473  1.00  0.00     0.029 A 
ATOM     77  C   UNL A   1      40.969  32.407  36.406  1.00  0.00     0.049 A 
ATOM     78  H   UNL A   1      40.748  31.116  34.751  1.00  0.00     0.167 HD
ATOM     79  C   UNL A   1      39.163  33.445  35.060  1.00  0.00     0.074 A 
ATOM     80  C   UNL A   1      38.168  34.469  34.810  1.00  0.00     0.031 C 
ATOM     81  C   UNL A   1      39.972  33.416  36.148  1.00  0.00     0.037 A 
BRANCH  68  82
ATOM     82  C   UNL A   1      43.769  28.534  36.323  1.00  0.00     0.058 A 
ATOM     83  C   UNL A   1      43.434  27.382  37.052  1.00  0.00     0.135 A 
ATOM     84  C   UNL A   1      45.115  28.935  36.320  1.00  0.00     0.135 A 
ATOM     85  F   UNL A   1      42.160  26.959  37.099  1.00  0.00    -0.206 F 
ATOM     86  C   UNL A   1      44.385  26.681  37.787  1.00  0.00     0.059 A 
ATOM     87  C   UNL A   1      46.089  28.233  37.024  1.00  0.00     0.059 A 
ATOM     88  F   UNL A   1      45.494  30.026  35.636  1.00  0.00    -0.206 F 
ATOM     89  C   UNL A   1      45.710  27.120  37.773  1.00  0.00     0.060 A 
BRANCH  89  90
ATOM     90  S   UNL A   1      46.931  26.217  38.750  1.00  0.00     0.124 S 
ATOM     91  O   UNL A   1      47.743  27.308  39.278  1.00  0.00    -0.237 OA
ATOM     92  O   UNL A   1      46.098  25.519  39.725  1.00  0.00    -0.237 OA
ATOM     93  O   UNL A   1      47.589  25.363  37.767  1.00  0.00    -0.744 OA
ENDBRANCH  89  90
ENDBRANCH  68  82
BRANCH  69  94
ATOM     94  C   UNL A   1      36.620  33.166  31.110  1.00  0.00     0.058 A 
ATOM     95  C   UNL A   1      35.264  32.907  31.362  1.00  0.00     0.135 A 
ATOM     96  C   UNL A   1      36.934  34.119  30.130  1.00  0.00     0.135 A 
ATOM     97  F   UNL A   1      34.915  31.999  32.285  1.00  0.00    -0.206 F 
ATOM     98  C   UNL A   1      34.256  33.560  30.661  1.00  0.00     0.059 A 
ATOM     99  C   UNL A   1      35.942  34.802  29.432  1.00  0.00     0.059 A 
ATOM    100  F   UNL A   1      38.216  34.413  29.865  1.00  0.00    -0.206 F 
ATOM    101  C   UNL A   1      34.605  34.511  29.701  1.00  0.00     0.060 A 
BRANCH 101 102
ATOM    102  S   UNL A   1      33.286  35.398  28.843  1.00  0.00     0.124 S 
ATOM    103  O   UNL A   1      34.045  36.344  28.036  1.00  0.00    -0.237 OA
ATOM    104  O   UNL A   1      32.620  34.324  28.112  1.00  0.00    -0.237 OA
ATOM    105  O   UNL A   1      32.509  35.977  29.935  1.00  0.00    -0.744 OA
ENDBRANCH 101 102
ENDBRANCH  69  94
BRANCH  81 106
ATOM    106  C   UNL A   1      39.831  34.541  37.137  1.00  0.00     0.058 A 
ATOM    107  C   UNL A   1      40.648  35.682  37.079  1.00  0.00     0.135 A 
ATOM    108  C   UNL A   1      38.854  34.486  38.144  1.00  0.00     0.135 A 
ATOM    109  F   UNL A   1      41.602  35.782  36.139  1.00  0.00    -0.206 F 
ATOM    110  C   UNL A   1      40.526  36.712  38.005  1.00  0.00     0.059 A 
ATOM    111  C   UNL A   1      38.696  35.517  39.064  1.00  0.00     0.059 A 
ATOM    112  F   UNL A   1      38.039  33.424  38.238  1.00  0.00    -0.206 F 
ATOM    113  C   UNL A   1      39.548  36.619  38.998  1.00  0.00     0.060 A 
BRANCH 113 114
ATOM    114  S   UNL A   1      39.390  37.965  40.191  1.00  0.00     0.124 S 
ATOM    115  O   UNL A   1      38.198  38.650  39.704  1.00  0.00    -0.237 OA
ATOM    116  O   UNL A   1      39.239  37.249  41.454  1.00  0.00    -0.237 OA
ATOM    117  O   UNL A   1      40.644  38.699  40.041  1.00  0.00    -0.744 OA
ENDBRANCH 113 114
ENDBRANCH  81 106
ENDBRANCH  55  56
ENDBRANCH  47  50
ENDBRANCH  45  46
ENDBRANCH  44  45
ENDBRANCH  43  44
ENDBRANCH  42  43
ENDBRANCH   1  42
TORSDOF 22
ENDMDL
MODEL 2
REMARK VINA RESULT:     -10.2      4.502      9.844
REMARK SMILES O=C(COc1cccc(NC(=O)c2ccc3c(c2)C(=O)N(c2ccccc2-c2ccccc2)C3=O)c1)NCCCCCCNC(=O)c1ccc(-c2c3nc(c(-c4c(F)cc(S(=O)(=O)[O-])cc4F)c4ccc([nH]4)c(-c4c(F)cc(S(=O)(=O)[O-])cc4F)c4nc(c(-c5c(F)cc(S(=O)(=O)[O-])cc5F)c5ccc2[nH]5)C=C4)C=C3)cc1
REMARK SMILES IDX 39 1 38 2 37 3 1 4 2 5 3 7 4 8 5 9 6 10 36 11 7 12 9 13 8 14
REMARK SMILES IDX 10 15 11 16 12 18 13 19 14 20 18 21 15 22 17 23 16 24 19 25
REMARK SMILES IDX 34 26 20 27 21 28 35 29 22 30 23 31 27 32 24 33 26 34 25 35
REMARK SMILES IDX 28 36 29 37 33 38 30 39 32 40 31 41 40 42 41 43 42 44 43 45
REMARK SMILES IDX 44 46 45 47 46 49 47 50 48 51 112 52 49 53 111 54 50 55
REMARK SMILES IDX 51 56 52 57 105 58 53 59 110 60 104 61 106 62 54 63 109 64
REMARK SMILES IDX 103 65 102 66 55 68 89 69 68 70 88 71 69 72 72 73 87 74
REMARK SMILES IDX 107 75 70 76 71 77 86 79 108 80 73 81 56 82 57 83 66 84
REMARK SMILES IDX 58 85 59 86 65 87 67 88 60 89 61 90 62 91 63 92 64 93 90 94
REMARK SMILES IDX 91 95 100 96 92 97 93 98 99 99 101 100 94 101 95 102 96 103
REMARK SMILES IDX 97 104 98 105 74 106 75 107 84 108 76 109 77 110 83 111
REMARK SMILES IDX 85 112 78 113 79 114 80 115 81 116 82 117
REMARK H PARENT 37 6 10 17 44 48 106 67 72 78
REMARK Flexibility Score: inf
ROOT
ATOM      1  C   UNL A   1      38.192  32.814  33.123  1.00  0.00     0.021 C 
ENDROOT
BRANCH   1   2
ATOM      2  C   UNL A   1      38.011  31.494  33.863  1.00  0.00     0.116 C 
BRANCH   2   3
ATOM      3  N   UNL A   1      39.274  30.901  34.238  1.00  0.00    -0.353 N 
ATOM      4  O   UNL A   1      38.968  31.008  36.518  1.00  0.00    -0.271 OA
ATOM      5  C   UNL A   1      39.622  30.644  35.546  1.00  0.00     0.257 C 
ATOM      6  H   UNL A   1      39.914  30.670  33.527  1.00  0.00     0.163 HD
BRANCH   5   7
ATOM      7  C   UNL A   1      40.914  29.840  35.693  1.00  0.00     0.329 C 
BRANCH   7   8
ATOM      8  O   UNL A   1      40.953  28.634  34.939  1.00  0.00    -0.484 OA
BRANCH   8   9
ATOM      9  C   UNL A   1      42.200  28.235  34.535  1.00  0.00     0.122 A 
ATOM     10  C   UNL A   1      43.234  29.092  34.893  1.00  0.00     0.046 A 
ATOM     11  C   UNL A   1      42.447  27.144  33.685  1.00  0.00     0.072 A 
ATOM     12  C   UNL A   1      44.508  28.866  34.396  1.00  0.00     0.006 A 
ATOM     13  C   UNL A   1      43.730  26.908  33.168  1.00  0.00     0.045 A 
ATOM     14  C   UNL A   1      44.742  27.796  33.529  1.00  0.00     0.026 A 
BRANCH  13  15
ATOM     15  N   UNL A   1      43.882  25.855  32.228  1.00  0.00    -0.322 N 
ATOM     16  C   UNL A   1      44.585  24.660  32.260  1.00  0.00     0.255 C 
ATOM     17  H   UNL A   1      43.391  26.002  31.387  1.00  0.00     0.170 HD
ATOM     18  O   UNL A   1      44.776  23.995  31.248  1.00  0.00    -0.269 OA
BRANCH  16  19
ATOM     19  C   UNL A   1      44.962  24.086  33.562  1.00  0.00     0.041 A 
ATOM     20  C   UNL A   1      44.182  23.071  34.160  1.00  0.00     0.015 A 
ATOM     21  C   UNL A   1      46.244  24.391  34.010  1.00  0.00     0.028 A 
ATOM     22  C   UNL A   1      44.784  22.184  35.070  1.00  0.00     0.015 A 
ATOM     23  C   UNL A   1      46.794  23.496  34.896  1.00  0.00     0.054 A 
ATOM     24  C   UNL A   1      46.129  22.383  35.349  1.00  0.00     0.053 A 
ATOM     25  C   UNL A   1      48.196  23.345  35.207  1.00  0.00     0.266 C 
ATOM     26  C   UNL A   1      47.158  21.475  35.874  1.00  0.00     0.266 C 
ATOM     27  O   UNL A   1      48.937  24.305  35.115  1.00  0.00    -0.268 OA
ATOM     28  N   UNL A   1      48.384  22.021  35.544  1.00  0.00    -0.242 N 
ATOM     29  O   UNL A   1      46.838  20.496  36.522  1.00  0.00    -0.268 OA
BRANCH  28  30
ATOM     30  C   UNL A   1      49.672  21.376  35.474  1.00  0.00     0.060 A 
ATOM     31  C   UNL A   1      49.926  20.509  34.380  1.00  0.00     0.027 A 
ATOM     32  C   UNL A   1      50.669  21.421  36.486  1.00  0.00     0.006 A 
ATOM     33  C   UNL A   1      51.072  19.718  34.272  1.00  0.00     0.002 A 
ATOM     34  C   UNL A   1      51.846  20.635  36.332  1.00  0.00     0.011 A 
ATOM     35  C   UNL A   1      52.044  19.787  35.248  1.00  0.00     0.001 A 
BRANCH  32  36
ATOM     36  C   UNL A   1      50.563  22.095  37.788  1.00  0.00    -0.016 A 
ATOM     37  C   UNL A   1      51.497  23.068  38.175  1.00  0.00     0.009 A 
ATOM     38  C   UNL A   1      49.597  21.689  38.723  1.00  0.00     0.009 A 
ATOM     39  C   UNL A   1      51.430  23.662  39.438  1.00  0.00     0.001 A 
ATOM     40  C   UNL A   1      49.534  22.277  39.989  1.00  0.00     0.001 A 
ATOM     41  C   UNL A   1      50.444  23.271  40.342  1.00  0.00     0.000 A 
ENDBRANCH  32  36
ENDBRANCH  28  30
ENDBRANCH  16  19
ENDBRANCH  13  15
ENDBRANCH   8   9
ENDBRANCH   7   8
ENDBRANCH   5   7
ENDBRANCH   2   3
ENDBRANCH   1   2
BRANCH   1  42
ATOM     42  C   UNL A   1      37.144  33.088  32.036  1.00  0.00     0.002 C 
BRANCH  42  43
ATOM     43  C   UNL A   1      36.016  32.059  31.923  1.00  0.00     0.002 C 
BRANCH  43  44
ATOM     44  C   UNL A   1      34.835  32.461  31.035  1.00  0.00     0.021 C 
BRANCH  44  45
ATOM     45  C   UNL A   1      35.108  32.448  29.534  1.00  0.00     0.116 C 
BRANCH  45  46
ATOM     46  N   UNL A   1      34.385  31.395  28.840  1.00  0.00    -0.352 N 
ATOM     47  C   UNL A   1      34.857  30.230  28.284  1.00  0.00     0.251 C 
ATOM     48  H   UNL A   1      33.415  31.538  28.756  1.00  0.00     0.163 HD
ATOM     49  O   UNL A   1      34.102  29.534  27.610  1.00  0.00    -0.269 OA
BRANCH  47  50
ATOM     50  C   UNL A   1      36.270  29.825  28.468  1.00  0.00     0.039 A 
ATOM     51  C   UNL A   1      37.165  30.014  27.411  1.00  0.00     0.014 A 
ATOM     52  C   UNL A   1      36.714  29.245  29.660  1.00  0.00     0.014 A 
ATOM     53  C   UNL A   1      38.512  29.678  27.571  1.00  0.00     0.010 A 
ATOM     54  C   UNL A   1      38.070  28.974  29.841  1.00  0.00     0.010 A 
ATOM     55  C   UNL A   1      38.984  29.185  28.798  1.00  0.00    -0.014 A 
BRANCH  55  56
ATOM     56  C   UNL A   1      40.429  28.904  29.004  1.00  0.00     0.031 A 
ATOM     57  C   UNL A   1      41.015  27.574  28.608  1.00  0.00     0.074 A 
ATOM     58  C   UNL A   1      41.207  29.830  29.596  1.00  0.00     0.049 A 
ATOM     59  N   UNL A   1      42.248  27.149  28.719  1.00  0.00    -0.248 NA
ATOM     60  C   UNL A   1      40.090  26.585  28.033  1.00  0.00     0.031 C 
ATOM     61  C   UNL A   1      40.750  31.137  30.074  1.00  0.00     0.029 A 
ATOM     62  N   UNL A   1      42.546  29.818  29.899  1.00  0.00    -0.354 N 
ATOM     63  C   UNL A   1      42.244  25.841  28.248  1.00  0.00     0.074 A 
ATOM     64  C   UNL A   1      40.876  25.528  27.894  1.00  0.00     0.031 C 
ATOM     65  C   UNL A   1      41.796  31.814  30.574  1.00  0.00     0.029 A 
ATOM     66  C   UNL A   1      42.991  30.980  30.484  1.00  0.00     0.049 A 
ATOM     67  H   UNL A   1      43.132  29.048  29.714  1.00  0.00     0.167 HD
ATOM     68  C   UNL A   1      43.286  24.986  28.108  1.00  0.00     0.037 A 
ATOM     69  C   UNL A   1      44.223  31.337  30.895  1.00  0.00     0.037 A 
ATOM     70  C   UNL A   1      44.650  25.312  28.437  1.00  0.00     0.049 A 
ATOM     71  C   UNL A   1      45.365  30.375  30.718  1.00  0.00     0.074 A 
ATOM     72  C   UNL A   1      45.788  24.545  28.253  1.00  0.00     0.029 A 
ATOM     73  N   UNL A   1      45.061  26.499  29.026  1.00  0.00    -0.354 N 
ATOM     74  N   UNL A   1      45.357  29.172  30.196  1.00  0.00    -0.248 NA
ATOM     75  C   UNL A   1      46.685  30.824  31.182  1.00  0.00     0.031 C 
ATOM     76  C   UNL A   1      46.880  25.249  28.773  1.00  0.00     0.029 A 
ATOM     77  C   UNL A   1      46.431  26.475  29.238  1.00  0.00     0.049 A 
ATOM     78  H   UNL A   1      44.468  27.248  29.260  1.00  0.00     0.167 HD
ATOM     79  C   UNL A   1      46.674  28.729  30.244  1.00  0.00     0.074 A 
ATOM     80  C   UNL A   1      47.452  29.799  30.836  1.00  0.00     0.031 C 
ATOM     81  C   UNL A   1      47.193  27.544  29.833  1.00  0.00     0.037 A 
BRANCH  68  82
ATOM     82  C   UNL A   1      42.985  23.609  27.579  1.00  0.00     0.058 A 
ATOM     83  C   UNL A   1      42.509  22.582  28.412  1.00  0.00     0.135 A 
ATOM     84  C   UNL A   1      43.165  23.313  26.218  1.00  0.00     0.135 A 
ATOM     85  F   UNL A   1      42.329  22.805  29.724  1.00  0.00    -0.206 F 
ATOM     86  C   UNL A   1      42.266  21.302  27.925  1.00  0.00     0.059 A 
ATOM     87  C   UNL A   1      42.901  22.047  25.703  1.00  0.00     0.059 A 
ATOM     88  F   UNL A   1      43.613  24.256  25.375  1.00  0.00    -0.206 F 
ATOM     89  C   UNL A   1      42.472  21.042  26.569  1.00  0.00     0.060 A 
BRANCH  89  90
ATOM     90  S   UNL A   1      42.177  19.370  25.954  1.00  0.00     0.124 S 
ATOM     91  O   UNL A   1      40.729  19.382  25.771  1.00  0.00    -0.237 OA
ATOM     92  O   UNL A   1      42.970  19.342  24.728  1.00  0.00    -0.237 OA
ATOM     93  O   UNL A   1      42.667  18.519  27.033  1.00  0.00    -0.744 OA
ENDBRANCH  89  90
ENDBRANCH  68  82
BRANCH  69  94
ATOM     94  C   UNL A   1      44.448  32.690  31.467  1.00  0.00     0.058 A 
ATOM     95  C   UNL A   1      44.307  32.915  32.845  1.00  0.00     0.135 A 
ATOM     96  C   UNL A   1      44.833  33.774  30.663  1.00  0.00     0.135 A 
ATOM     97  F   UNL A   1      43.934  31.911  33.653  1.00  0.00    -0.206 F 
ATOM     98  C   UNL A   1      44.529  34.168  33.405  1.00  0.00     0.059 A 
ATOM     99  C   UNL A   1      45.083  35.031  31.204  1.00  0.00     0.059 A 
ATOM    100  F   UNL A   1      44.996  33.605  29.342  1.00  0.00    -0.206 F 
ATOM    101  C   UNL A   1      44.922  35.220  32.576  1.00  0.00     0.060 A 
BRANCH 101 102
ATOM    102  S   UNL A   1      45.269  36.826  33.325  1.00  0.00     0.124 S 
ATOM    103  O   UNL A   1      44.061  37.571  32.996  1.00  0.00    -0.237 OA
ATOM    104  O   UNL A   1      45.442  36.478  34.732  1.00  0.00    -0.237 OA
ATOM    105  O   UNL A   1      46.485  37.257  32.641  1.00  0.00    -0.744 OA
ENDBRANCH 101 102
ENDBRANCH  69  94
BRANCH  81 106
ATOM    106  C   UNL A   1      48.678  27.357  29.986  1.00  0.00     0.058 A 
ATOM    107  C   UNL A   1      49.234  26.772  31.134  1.00  0.00     0.135 A 
ATOM    108  C   UNL A   1      49.554  27.750  28.961  1.00  0.00     0.135 A 
ATOM    109  F   UNL A   1      48.441  26.383  32.146  1.00  0.00    -0.206 F 
ATOM    110  C   UNL A   1      50.609  26.615  31.277  1.00  0.00     0.059 A 
ATOM    111  C   UNL A   1      50.930  27.578  29.071  1.00  0.00     0.059 A 
ATOM    112  F   UNL A   1      49.074  28.304  27.837  1.00  0.00    -0.206 F 
ATOM    113  C   UNL A   1      51.450  27.026  30.241  1.00  0.00     0.060 A 
BRANCH 113 114
ATOM    114  S   UNL A   1      53.233  26.811  30.432  1.00  0.00     0.124 S 
ATOM    115  O   UNL A   1      53.294  25.728  31.407  1.00  0.00    -0.237 OA
ATOM    116  O   UNL A   1      53.655  26.469  29.077  1.00  0.00    -0.237 OA
ATOM    117  O   UNL A   1      53.681  28.115  30.910  1.00  0.00    -0.744 OA
ENDBRANCH 113 114
ENDBRANCH  81 106
ENDBRANCH  55  56
ENDBRANCH  47  50
ENDBRANCH  45  46
ENDBRANCH  44  45
ENDBRANCH  43  44
ENDBRANCH  42  43
ENDBRANCH   1  42
TORSDOF 22
ENDMDL
MODEL 3
REMARK VINA RESULT:     -10.1      8.767     16.675
REMARK SMILES O=C(COc1cccc(NC(=O)c2ccc3c(c2)C(=O)N(c2ccccc2-c2ccccc2)C3=O)c1)NCCCCCCNC(=O)c1ccc(-c2c3nc(c(-c4c(F)cc(S(=O)(=O)[O-])cc4F)c4ccc([nH]4)c(-c4c(F)cc(S(=O)(=O)[O-])cc4F)c4nc(c(-c5c(F)cc(S(=O)(=O)[O-])cc5F)c5ccc2[nH]5)C=C4)C=C3)cc1
REMARK SMILES IDX 39 1 38 2 37 3 1 4 2 5 3 7 4 8 5 9 6 10 36 11 7 12 9 13 8 14
REMARK SMILES IDX 10 15 11 16 12 18 13 19 14 20 18 21 15 22 17 23 16 24 19 25
REMARK SMILES IDX 34 26 20 27 21 28 35 29 22 30 23 31 27 32 24 33 26 34 25 35
REMARK SMILES IDX 28 36 29 37 33 38 30 39 32 40 31 41 40 42 41 43 42 44 43 45
REMARK SMILES IDX 44 46 45 47 46 49 47 50 48 51 112 52 49 53 111 54 50 55
REMARK SMILES IDX 51 56 52 57 105 58 53 59 110 60 104 61 106 62 54 63 109 64
REMARK SMILES IDX 103 65 102 66 55 68 89 69 68 70 88 71 69 72 72 73 87 74
REMARK SMILES IDX 107 75 70 76 71 77 86 79 108 80 73 81 56 82 57 83 66 84
REMARK SMILES IDX 58 85 59 86 65 87 67 88 60 89 61 90 62 91 63 92 64 93 90 94
REMARK SMILES IDX 91 95 100 96 92 97 93 98 99 99 101 100 94 101 95 102 96 103
REMARK SMILES IDX 97 104 98 105 74 106 75 107 84 108 76 109 77 110 83 111
REMARK SMILES IDX 85 112 78 113 79 114 80 115 81 116 82 117
REMARK H PARENT 37 6 10 17 44 48 106 67 72 78
REMARK Flexibility Score: inf
ROOT
ATOM      1  C   UNL A   1      37.948  32.138  30.677  1.00  0.00     0.021 C 
ENDROOT
BRANCH   1   2
ATOM      2  C   UNL A   1      37.165  30.831  30.626  1.00  0.00     0.116 C 
BRANCH   2   3
ATOM      3  N   UNL A   1      35.989  30.932  29.793  1.00  0.00    -0.353 N 
ATOM      4  O   UNL A   1      36.972  30.222  27.835  1.00  0.00    -0.271 OA
ATOM      5  C   UNL A   1      35.974  30.551  28.468  1.00  0.00     0.257 C 
ATOM      6  H   UNL A   1      35.162  31.287  30.189  1.00  0.00     0.163 HD
BRANCH   5   7
ATOM      7  C   UNL A   1      34.581  30.561  27.840  1.00  0.00     0.329 C 
BRANCH   7   8
ATOM      8  O   UNL A   1      34.487  29.891  26.588  1.00  0.00    -0.484 OA
BRANCH   8   9
ATOM      9  C   UNL A   1      33.311  29.227  26.366  1.00  0.00     0.122 A 
ATOM     10  C   UNL A   1      33.125  28.087  27.139  1.00  0.00     0.046 A 
ATOM     11  C   UNL A   1      32.407  29.537  25.335  1.00  0.00     0.072 A 
ATOM     12  C   UNL A   1      32.048  27.255  26.877  1.00  0.00     0.006 A 
ATOM     13  C   UNL A   1      31.316  28.701  25.055  1.00  0.00     0.045 A 
ATOM     14  C   UNL A   1      31.168  27.555  25.834  1.00  0.00     0.026 A 
BRANCH  13  15
ATOM     15  N   UNL A   1      30.511  29.017  23.929  1.00  0.00    -0.322 N 
ATOM     16  C   UNL A   1      30.561  28.631  22.599  1.00  0.00     0.255 C 
ATOM     17  H   UNL A   1      29.770  29.632  24.135  1.00  0.00     0.170 HD
ATOM     18  O   UNL A   1      29.908  29.204  21.734  1.00  0.00    -0.269 OA
BRANCH  16  19
ATOM     19  C   UNL A   1      31.278  27.398  22.238  1.00  0.00     0.041 A 
ATOM     20  C   UNL A   1      32.547  27.452  21.619  1.00  0.00     0.015 A 
ATOM     21  C   UNL A   1      30.776  26.222  22.787  1.00  0.00     0.028 A 
ATOM     22  C   UNL A   1      33.432  26.367  21.761  1.00  0.00     0.015 A 
ATOM     23  C   UNL A   1      31.674  25.189  22.909  1.00  0.00     0.054 A 
ATOM     24  C   UNL A   1      32.981  25.278  22.492  1.00  0.00     0.053 A 
ATOM     25  C   UNL A   1      31.550  24.037  23.770  1.00  0.00     0.266 C 
ATOM     26  C   UNL A   1      33.707  24.206  23.188  1.00  0.00     0.266 C 
ATOM     27  O   UNL A   1      30.444  23.625  24.063  1.00  0.00    -0.268 OA
ATOM     28  N   UNL A   1      32.832  23.656  24.106  1.00  0.00    -0.242 N 
ATOM     29  O   UNL A   1      34.843  23.922  22.858  1.00  0.00    -0.268 OA
BRANCH  28  30
ATOM     30  C   UNL A   1      33.127  22.865  25.275  1.00  0.00     0.060 A 
ATOM     31  C   UNL A   1      33.592  23.537  26.435  1.00  0.00     0.027 A 
ATOM     32  C   UNL A   1      33.130  21.446  25.327  1.00  0.00     0.006 A 
ATOM     33  C   UNL A   1      34.046  22.878  27.580  1.00  0.00     0.002 A 
ATOM     34  C   UNL A   1      33.560  20.798  26.520  1.00  0.00     0.011 A 
ATOM     35  C   UNL A   1      34.022  21.500  27.628  1.00  0.00     0.001 A 
BRANCH  32  36
ATOM     36  C   UNL A   1      32.868  20.529  24.208  1.00  0.00    -0.016 A 
ATOM     37  C   UNL A   1      32.302  20.995  23.011  1.00  0.00     0.009 A 
ATOM     38  C   UNL A   1      33.062  19.147  24.359  1.00  0.00     0.009 A 
ATOM     39  C   UNL A   1      31.997  20.112  21.973  1.00  0.00     0.001 A 
ATOM     40  C   UNL A   1      32.750  18.262  23.324  1.00  0.00     0.001 A 
ATOM     41  C   UNL A   1      32.228  18.746  22.127  1.00  0.00     0.000 A 
ENDBRANCH  32  36
ENDBRANCH  28  30
ENDBRANCH  16  19
ENDBRANCH  13  15
ENDBRANCH   8   9
ENDBRANCH   7   8
ENDBRANCH   5   7
ENDBRANCH   2   3
ENDBRANCH   1   2
BRANCH   1  42
ATOM     42  C   UNL A   1      37.252  33.329  30.008  1.00  0.00     0.002 C 
BRANCH  42  43
ATOM     43  C   UNL A   1      38.133  34.195  29.102  1.00  0.00     0.002 C 
BRANCH  43  44
ATOM     44  C   UNL A   1      39.228  34.997  29.810  1.00  0.00     0.021 C 
BRANCH  44  45
ATOM     45  C   UNL A   1      40.620  34.895  29.192  1.00  0.00     0.116 C 
BRANCH  45  46
ATOM     46  N   UNL A   1      40.898  35.970  28.253  1.00  0.00    -0.352 N 
ATOM     47  C   UNL A   1      41.993  36.166  27.447  1.00  0.00     0.251 C 
ATOM     48  H   UNL A   1      40.199  36.659  28.187  1.00  0.00     0.163 HD
ATOM     49  O   UNL A   1      42.105  37.220  26.826  1.00  0.00    -0.269 OA
BRANCH  47  50
ATOM     50  C   UNL A   1      43.048  35.131  27.343  1.00  0.00     0.039 A 
ATOM     51  C   UNL A   1      43.379  34.637  26.077  1.00  0.00     0.014 A 
ATOM     52  C   UNL A   1      43.696  34.632  28.476  1.00  0.00     0.014 A 
ATOM     53  C   UNL A   1      44.399  33.689  25.945  1.00  0.00     0.010 A 
ATOM     54  C   UNL A   1      44.758  33.738  28.336  1.00  0.00     0.010 A 
ATOM     55  C   UNL A   1      45.119  33.255  27.069  1.00  0.00    -0.014 A 
BRANCH  55  56
ATOM     56  C   UNL A   1      46.259  32.311  26.928  1.00  0.00     0.031 A 
ATOM     57  C   UNL A   1      47.662  32.824  26.741  1.00  0.00     0.074 A 
ATOM     58  C   UNL A   1      46.023  30.984  26.918  1.00  0.00     0.049 A 
ATOM     59  N   UNL A   1      48.774  32.151  26.593  1.00  0.00    -0.248 NA
ATOM     60  C   UNL A   1      47.834  34.284  26.690  1.00  0.00     0.031 C 
ATOM     61  C   UNL A   1      44.703  30.360  27.038  1.00  0.00     0.029 A 
ATOM     62  N   UNL A   1      46.882  29.921  26.801  1.00  0.00    -0.354 N 
ATOM     63  C   UNL A   1      49.774  33.101  26.412  1.00  0.00     0.074 A 
ATOM     64  C   UNL A   1      49.126  34.396  26.423  1.00  0.00     0.031 C 
ATOM     65  C   UNL A   1      44.844  29.025  27.027  1.00  0.00     0.029 A 
ATOM     66  C   UNL A   1      46.258  28.696  26.865  1.00  0.00     0.049 A 
ATOM     67  H   UNL A   1      47.854  30.024  26.683  1.00  0.00     0.167 HD
ATOM     68  C   UNL A   1      51.108  32.913  26.268  1.00  0.00     0.037 A 
ATOM     69  C   UNL A   1      46.766  27.450  26.809  1.00  0.00     0.037 A 
ATOM     70  C   UNL A   1      51.750  31.624  26.285  1.00  0.00     0.049 A 
ATOM     71  C   UNL A   1      48.252  27.268  26.661  1.00  0.00     0.074 A 
ATOM     72  C   UNL A   1      53.103  31.334  26.231  1.00  0.00     0.029 A 
ATOM     73  N   UNL A   1      51.085  30.408  26.354  1.00  0.00    -0.354 N 
ATOM     74  N   UNL A   1      49.190  28.180  26.572  1.00  0.00    -0.248 NA
ATOM     75  C   UNL A   1      48.746  25.886  26.609  1.00  0.00     0.031 C 
ATOM     76  C   UNL A   1      53.253  29.942  26.221  1.00  0.00     0.029 A 
ATOM     77  C   UNL A   1      51.997  29.364  26.315  1.00  0.00     0.049 A 
ATOM     78  H   UNL A   1      50.109  30.302  26.419  1.00  0.00     0.167 HD
ATOM     79  C   UNL A   1      50.389  27.482  26.482  1.00  0.00     0.074 A 
ATOM     80  C   UNL A   1      50.056  26.073  26.538  1.00  0.00     0.031 C 
ATOM     81  C   UNL A   1      51.652  27.965  26.366  1.00  0.00     0.037 A 
BRANCH  68  82
ATOM     82  C   UNL A   1      51.962  34.137  26.073  1.00  0.00     0.058 A 
ATOM     83  C   UNL A   1      52.529  34.827  27.157  1.00  0.00     0.135 A 
ATOM     84  C   UNL A   1      52.226  34.623  24.781  1.00  0.00     0.135 A 
ATOM     85  F   UNL A   1      52.301  34.414  28.415  1.00  0.00    -0.206 F 
ATOM     86  C   UNL A   1      53.289  35.978  26.973  1.00  0.00     0.059 A 
ATOM     87  C   UNL A   1      53.007  35.756  24.572  1.00  0.00     0.059 A 
ATOM     88  F   UNL A   1      51.714  34.002  23.708  1.00  0.00    -0.206 F 
ATOM     89  C   UNL A   1      53.516  36.439  25.675  1.00  0.00     0.060 A 
BRANCH  89  90
ATOM     90  S   UNL A   1      54.482  37.948  25.450  1.00  0.00     0.124 S 
ATOM     91  O   UNL A   1      53.765  38.590  24.354  1.00  0.00    -0.237 OA
ATOM     92  O   UNL A   1      54.360  38.596  26.752  1.00  0.00    -0.237 OA
ATOM     93  O   UNL A   1      55.815  37.452  25.123  1.00  0.00    -0.744 OA
ENDBRANCH  89  90
ENDBRANCH  68  82
BRANCH  69  94
ATOM     94  C   UNL A   1      45.864  26.277  26.946  1.00  0.00     0.058 A 
ATOM     95  C   UNL A   1      45.226  25.733  25.822  1.00  0.00     0.135 A 
ATOM     96  C   UNL A   1      45.643  25.661  28.187  1.00  0.00     0.135 A 
ATOM     97  F   UNL A   1      45.401  26.291  24.616  1.00  0.00    -0.206 F 
ATOM     98  C   UNL A   1      44.391  24.625  25.924  1.00  0.00     0.059 A 
ATOM     99  C   UNL A   1      44.831  24.538  28.311  1.00  0.00     0.059 A 
ATOM    100  F   UNL A   1      46.244  26.136  29.289  1.00  0.00    -0.206 F 
ATOM    101  C   UNL A   1      44.204  24.030  27.173  1.00  0.00     0.060 A 
BRANCH 101 102
ATOM    102  S   UNL A   1      43.169  22.554  27.281  1.00  0.00     0.124 S 
ATOM    103  O   UNL A   1      41.862  23.085  26.917  1.00  0.00    -0.237 OA
ATOM    104  O   UNL A   1      43.795  21.670  26.303  1.00  0.00    -0.237 OA
ATOM    105  O   UNL A   1      43.320  22.143  28.673  1.00  0.00    -0.744 OA
ENDBRANCH 101 102
ENDBRANCH  69  94
BRANCH  81 106
ATOM    106  C   UNL A   1      52.769  26.958  26.319  1.00  0.00     0.058 A 
ATOM    107  C   UNL A   1      53.449  26.556  27.480  1.00  0.00     0.135 A 
ATOM    108  C   UNL A   1      53.151  26.375  25.101  1.00  0.00     0.135 A 
ATOM    109  F   UNL A   1      53.126  27.087  28.671  1.00  0.00    -0.206 F 
ATOM    110  C   UNL A   1      54.491  25.637  27.430  1.00  0.00     0.059 A 
ATOM    111  C   UNL A   1      54.173  25.434  25.031  1.00  0.00     0.059 A 
ATOM    112  F   UNL A   1      52.527  26.716  23.962  1.00  0.00    -0.206 F 
ATOM    113  C   UNL A   1      54.850  25.084  26.199  1.00  0.00     0.060 A 
BRANCH 113 114
ATOM    114  S   UNL A   1      56.199  23.885  26.145  1.00  0.00     0.124 S 
ATOM    115  O   UNL A   1      56.795  24.174  24.845  1.00  0.00    -0.237 OA
ATOM    116  O   UNL A   1      57.000  24.261  27.306  1.00  0.00    -0.237 OA
ATOM    117  O   UNL A   1      55.516  22.600  26.253  1.00  0.00    -0.744 OA
ENDBRANCH 113 114
ENDBRANCH  81 106
ENDBRANCH  55  56
ENDBRANCH  47  50
ENDBRANCH  45  46
ENDBRANCH  44  45
ENDBRANCH  43  44
ENDBRANCH  42  43
ENDBRANCH   1  42
TORSDOF 22
ENDMDL
