MODEL 1
REMARK VINA RESULT:     -12.7      0.000      0.000
REMARK SMILES Nn1c(S[C@@H](C(=O)NCCCCCCNC(=O)c2ccc(-c3c4nc(c(-c5c(F)cc(S(=O)(=O)[O-])cc5F)c5ccc([nH]5)c(-c5c(F)cc(S(=O)(=O)[O-])cc5F)c5nc(c(-c6c(F)cc(S(=O)(=O)[O-])cc6F)c6ccc3[nH]6)C=C5)C=C4)cc2)c2ccccc2)nc2ccc(Br)cc2c1=O
REMARK SMILES IDX 11 1 10 2 9 3 8 4 6 5 7 6 5 8 4 9 3 10 2 11 98 12 90 13
REMARK SMILES IDX 97 14 99 15 91 16 96 17 92 18 94 19 93 20 95 21 1 22 84 25
REMARK SMILES IDX 85 26 89 27 86 28 88 29 87 30 12 31 13 32 14 33 15 34 16 35
REMARK SMILES IDX 17 37 18 38 19 39 83 40 20 41 82 42 21 43 22 44 23 45 76 46
REMARK SMILES IDX 24 47 81 48 75 49 77 50 25 51 80 52 74 53 73 54 26 56 60 57
REMARK SMILES IDX 39 58 59 59 40 60 43 61 58 62 78 63 41 64 42 65 57 67 79 68
REMARK SMILES IDX 44 69 27 70 28 71 37 72 29 73 30 74 36 75 38 76 31 77 32 78
REMARK SMILES IDX 33 79 34 80 35 81 61 82 62 83 71 84 63 85 64 86 70 87 72 88
REMARK SMILES IDX 65 89 66 90 67 91 68 92 69 93 45 94 46 95 55 96 47 97 48 98
REMARK SMILES IDX 54 99 56 100 49 101 50 102 51 103 52 104 53 105
REMARK H PARENT 8 7 1 23 1 24 15 36 77 55 43 66
REMARK Flexibility Score: inf
ROOT
ATOM      1  C   UNL A   1      31.979  29.546  26.453  1.00  0.00     0.002 C 
ENDROOT
BRANCH   1   2
ATOM      2  C   UNL A   1      31.570  28.239  27.151  1.00  0.00     0.021 C 
BRANCH   2   3
ATOM      3  C   UNL A   1      32.237  26.970  26.607  1.00  0.00     0.116 C 
BRANCH   3   4
ATOM      4  N   UNL A   1      31.422  25.795  26.862  1.00  0.00    -0.355 N 
ATOM      5  C   UNL A   1      30.579  25.088  26.049  1.00  0.00     0.238 C 
ATOM      6  O   UNL A   1      29.869  24.267  26.641  1.00  0.00    -0.273 OA
ATOM      7  H   UNL A   1      31.489  25.447  27.781  1.00  0.00     0.163 HD
BRANCH   5   8
ATOM      8  C   UNL A   1      30.570  25.309  24.512  1.00  0.00     0.174 C 
BRANCH   8   9
ATOM      9  S   UNL A   1      32.186  24.898  23.811  1.00  0.00    -0.068 SA
BRANCH   9  10
ATOM     10  C   UNL A   1      32.764  23.307  24.232  1.00  0.00     0.191 A 
ATOM     11  N   UNL A   1      33.658  22.981  25.251  1.00  0.00    -0.202 N 
ATOM     12  C   UNL A   1      34.027  21.656  25.512  1.00  0.00     0.280 A 
ATOM     13  N   UNL A   1      32.242  22.400  23.464  1.00  0.00    -0.222 NA
ATOM     14  C   UNL A   1      33.460  20.633  24.625  1.00  0.00     0.069 A 
ATOM     15  O   UNL A   1      34.805  21.327  26.409  1.00  0.00    -0.267 OA
ATOM     16  C   UNL A   1      32.595  21.061  23.625  1.00  0.00     0.079 A 
ATOM     17  C   UNL A   1      33.810  19.285  24.760  1.00  0.00     0.031 A 
ATOM     18  C   UNL A   1      32.071  20.118  22.739  1.00  0.00     0.030 A 
ATOM     19  C   UNL A   1      33.282  18.359  23.866  1.00  0.00     0.018 A 
ATOM     20  C   UNL A   1      32.414  18.768  22.854  1.00  0.00     0.018 A 
ATOM     21  Br  UNL A   1      33.755  16.536  24.017  1.00  0.00    -0.051 Br
BRANCH  11  22
ATOM     22  N   UNL A   1      34.328  23.936  26.028  1.00  0.00    -0.334 N 
ATOM     23  H   UNL A   1      35.225  23.741  26.384  1.00  0.00     0.178 HD
ATOM     24  H   UNL A   1      33.902  24.803  26.220  1.00  0.00     0.178 HD
ENDBRANCH  11  22
ENDBRANCH   9  10
ENDBRANCH   8   9
BRANCH   8  25
ATOM     25  C   UNL A   1      29.901  26.579  23.957  1.00  0.00    -0.025 A 
ATOM     26  C   UNL A   1      30.661  27.659  23.471  1.00  0.00     0.005 A 
ATOM     27  C   UNL A   1      28.499  26.736  23.964  1.00  0.00     0.005 A 
ATOM     28  C   UNL A   1      30.048  28.791  22.922  1.00  0.00     0.000 A 
ATOM     29  C   UNL A   1      27.886  27.868  23.416  1.00  0.00     0.000 A 
ATOM     30  C   UNL A   1      28.662  28.888  22.881  1.00  0.00     0.000 A 
ENDBRANCH   8  25
ENDBRANCH   5   8
ENDBRANCH   3   4
ENDBRANCH   2   3
ENDBRANCH   1   2
BRANCH   1  31
ATOM     31  C   UNL A   1      33.450  29.950  26.592  1.00  0.00     0.002 C 
BRANCH  31  32
ATOM     32  C   UNL A   1      33.728  31.095  27.564  1.00  0.00     0.021 C 
BRANCH  32  33
ATOM     33  C   UNL A   1      35.124  31.100  28.175  1.00  0.00     0.116 C 
BRANCH  33  34
ATOM     34  N   UNL A   1      35.121  31.366  29.606  1.00  0.00    -0.352 N 
ATOM     35  C   UNL A   1      36.047  30.974  30.552  1.00  0.00     0.251 C 
ATOM     36  H   UNL A   1      34.361  31.895  29.941  1.00  0.00     0.163 HD
ATOM     37  O   UNL A   1      35.858  31.179  31.737  1.00  0.00    -0.269 OA
BRANCH  35  38
ATOM     38  C   UNL A   1      37.256  30.252  30.094  1.00  0.00     0.039 A 
ATOM     39  C   UNL A   1      37.995  29.474  30.990  1.00  0.00     0.014 A 
ATOM     40  C   UNL A   1      37.701  30.442  28.783  1.00  0.00     0.014 A 
ATOM     41  C   UNL A   1      39.263  29.031  30.627  1.00  0.00     0.010 A 
ATOM     42  C   UNL A   1      38.946  29.937  28.402  1.00  0.00     0.010 A 
ATOM     43  C   UNL A   1      39.761  29.281  29.338  1.00  0.00    -0.014 A 
BRANCH  43  44
ATOM     44  C   UNL A   1      41.155  28.895  28.996  1.00  0.00     0.031 A 
ATOM     45  C   UNL A   1      42.275  29.894  29.122  1.00  0.00     0.074 A 
ATOM     46  C   UNL A   1      41.421  27.638  28.600  1.00  0.00     0.049 A 
ATOM     47  N   UNL A   1      43.540  29.761  28.814  1.00  0.00    -0.248 NA
ATOM     48  C   UNL A   1      41.927  31.218  29.664  1.00  0.00     0.031 C 
ATOM     49  C   UNL A   1      40.428  26.571  28.458  1.00  0.00     0.029 A 
ATOM     50  N   UNL A   1      42.605  27.041  28.253  1.00  0.00    -0.354 N 
ATOM     51  C   UNL A   1      44.132  30.989  29.085  1.00  0.00     0.074 A 
ATOM     52  C   UNL A   1      43.085  31.859  29.578  1.00  0.00     0.031 C 
ATOM     53  C   UNL A   1      41.047  25.444  28.080  1.00  0.00     0.029 A 
ATOM     54  C   UNL A   1      42.470  25.721  27.898  1.00  0.00     0.049 A 
ATOM     55  H   UNL A   1      43.469  27.512  28.258  1.00  0.00     0.167 HD
ATOM     56  C   UNL A   1      45.428  31.357  28.943  1.00  0.00     0.037 A 
ATOM     57  C   UNL A   1      43.380  24.837  27.450  1.00  0.00     0.037 A 
ATOM     58  C   UNL A   1      46.475  30.480  28.484  1.00  0.00     0.049 A 
ATOM     59  C   UNL A   1      44.806  25.268  27.282  1.00  0.00     0.074 A 
ATOM     60  C   UNL A   1      47.826  30.748  28.343  1.00  0.00     0.029 A 
ATOM     61  N   UNL A   1      46.288  29.162  28.093  1.00  0.00    -0.354 N 
ATOM     62  N   UNL A   1      45.346  26.439  27.527  1.00  0.00    -0.248 NA
ATOM     63  C   UNL A   1      45.745  24.265  26.764  1.00  0.00     0.031 C 
ATOM     64  C   UNL A   1      48.450  29.601  27.834  1.00  0.00     0.029 A 
ATOM     65  C   UNL A   1      47.494  28.609  27.691  1.00  0.00     0.049 A 
ATOM     66  H   UNL A   1      45.425  28.688  28.099  1.00  0.00     0.167 HD
ATOM     67  C   UNL A   1      46.686  26.319  27.180  1.00  0.00     0.074 A 
ATOM     68  C   UNL A   1      46.880  24.951  26.738  1.00  0.00     0.031 C 
ATOM     69  C   UNL A   1      47.663  27.257  27.219  1.00  0.00     0.037 A 
BRANCH  56  70
ATOM     70  C   UNL A   1      45.780  32.784  29.260  1.00  0.00     0.058 A 
ATOM     71  C   UNL A   1      45.734  33.793  28.286  1.00  0.00     0.135 A 
ATOM     72  C   UNL A   1      46.165  33.146  30.562  1.00  0.00     0.135 A 
ATOM     73  F   UNL A   1      45.390  33.497  27.022  1.00  0.00    -0.206 F 
ATOM     74  C   UNL A   1      46.090  35.106  28.583  1.00  0.00     0.059 A 
ATOM     75  C   UNL A   1      46.505  34.457  30.885  1.00  0.00     0.059 A 
ATOM     76  F   UNL A   1      46.226  32.218  31.530  1.00  0.00    -0.206 F 
ATOM     77  C   UNL A   1      46.482  35.425  29.884  1.00  0.00     0.060 A 
BRANCH  77  78
ATOM     78  S   UNL A   1      46.969  37.126  30.246  1.00  0.00     0.124 S 
ATOM     79  O   UNL A   1      45.832  37.871  29.715  1.00  0.00    -0.237 OA
ATOM     80  O   UNL A   1      47.093  37.115  31.700  1.00  0.00    -0.237 OA
ATOM     81  O   UNL A   1      48.221  37.285  29.513  1.00  0.00    -0.744 OA
ENDBRANCH  77  78
ENDBRANCH  56  70
BRANCH  57  82
ATOM     82  C   UNL A   1      42.941  23.459  27.118  1.00  0.00     0.058 A 
ATOM     83  C   UNL A   1      42.832  23.041  25.786  1.00  0.00     0.135 A 
ATOM     84  C   UNL A   1      42.717  22.511  28.129  1.00  0.00     0.135 A 
ATOM     85  F   UNL A   1      43.030  23.917  24.789  1.00  0.00    -0.206 F 
ATOM     86  C   UNL A   1      42.537  21.722  25.463  1.00  0.00     0.059 A 
ATOM     87  C   UNL A   1      42.439  21.182  27.831  1.00  0.00     0.059 A 
ATOM     88  F   UNL A   1      42.823  22.866  29.418  1.00  0.00    -0.206 F 
ATOM     89  C   UNL A   1      42.357  20.795  26.494  1.00  0.00     0.060 A 
BRANCH  89  90
ATOM     90  S   UNL A   1      42.100  19.061  26.064  1.00  0.00     0.124 S 
ATOM     91  O   UNL A   1      40.685  19.050  25.713  1.00  0.00    -0.237 OA
ATOM     92  O   UNL A   1      43.035  18.877  24.957  1.00  0.00    -0.237 OA
ATOM     93  O   UNL A   1      42.453  18.356  27.293  1.00  0.00    -0.744 OA
ENDBRANCH  89  90
ENDBRANCH  57  82
BRANCH  69  94
ATOM     94  C   UNL A   1      49.025  26.836  26.746  1.00  0.00     0.058 A 
ATOM     95  C   UNL A   1      49.432  27.048  25.420  1.00  0.00     0.135 A 
ATOM     96  C   UNL A   1      49.934  26.225  27.624  1.00  0.00     0.135 A 
ATOM     97  F   UNL A   1      48.595  27.623  24.541  1.00  0.00    -0.206 F 
ATOM     98  C   UNL A   1      50.683  26.641  24.971  1.00  0.00     0.059 A 
ATOM     99  C   UNL A   1      51.198  25.827  27.201  1.00  0.00     0.059 A 
ATOM    100  F   UNL A   1      49.596  26.007  28.905  1.00  0.00    -0.206 F 
ATOM    101  C   UNL A   1      51.557  26.023  25.868  1.00  0.00     0.060 A 
BRANCH 101 102
ATOM    102  S   UNL A   1      53.179  25.496  25.275  1.00  0.00     0.124 S 
ATOM    103  O   UNL A   1      54.069  26.285  26.121  1.00  0.00    -0.237 OA
ATOM    104  O   UNL A   1      53.161  24.061  25.539  1.00  0.00    -0.237 OA
ATOM    105  O   UNL A   1      53.160  25.868  23.864  1.00  0.00    -0.744 OA
ENDBRANCH 101 102
ENDBRANCH  69  94
ENDBRANCH  43  44
ENDBRANCH  35  38
ENDBRANCH  33  34
ENDBRANCH  32  33
ENDBRANCH  31  32
ENDBRANCH   1  31
TORSDOF 20
ENDMDL
MODEL 2
REMARK VINA RESULT:     -12.7      2.729      4.571
REMARK SMILES Nn1c(S[C@@H](C(=O)NCCCCCCNC(=O)c2ccc(-c3c4nc(c(-c5c(F)cc(S(=O)(=O)[O-])cc5F)c5ccc([nH]5)c(-c5c(F)cc(S(=O)(=O)[O-])cc5F)c5nc(c(-c6c(F)cc(S(=O)(=O)[O-])cc6F)c6ccc3[nH]6)C=C5)C=C4)cc2)c2ccccc2)nc2ccc(Br)cc2c1=O
REMARK SMILES IDX 11 1 10 2 9 3 8 4 6 5 7 6 5 8 4 9 3 10 2 11 98 12 90 13
REMARK SMILES IDX 97 14 99 15 91 16 96 17 92 18 94 19 93 20 95 21 1 22 84 25
REMARK SMILES IDX 85 26 89 27 86 28 88 29 87 30 12 31 13 32 14 33 15 34 16 35
REMARK SMILES IDX 17 37 18 38 19 39 83 40 20 41 82 42 21 43 22 44 23 45 76 46
REMARK SMILES IDX 24 47 81 48 75 49 77 50 25 51 80 52 74 53 73 54 26 56 60 57
REMARK SMILES IDX 39 58 59 59 40 60 43 61 58 62 78 63 41 64 42 65 57 67 79 68
REMARK SMILES IDX 44 69 27 70 28 71 37 72 29 73 30 74 36 75 38 76 31 77 32 78
REMARK SMILES IDX 33 79 34 80 35 81 61 82 62 83 71 84 63 85 64 86 70 87 72 88
REMARK SMILES IDX 65 89 66 90 67 91 68 92 69 93 45 94 46 95 55 96 47 97 48 98
REMARK SMILES IDX 54 99 56 100 49 101 50 102 51 103 52 104 53 105
REMARK H PARENT 8 7 1 23 1 24 15 36 77 55 43 66
REMARK Flexibility Score: inf
ROOT
ATOM      1  C   UNL A   1      32.318  25.724  26.450  1.00  0.00     0.002 C 
ENDROOT
BRANCH   1   2
ATOM      2  C   UNL A   1      31.367  24.528  26.617  1.00  0.00     0.021 C 
BRANCH   2   3
ATOM      3  C   UNL A   1      31.930  23.353  27.426  1.00  0.00     0.116 C 
BRANCH   3   4
ATOM      4  N   UNL A   1      31.764  22.096  26.717  1.00  0.00    -0.355 N 
ATOM      5  C   UNL A   1      32.108  21.726  25.445  1.00  0.00     0.238 C 
ATOM      6  O   UNL A   1      31.625  20.647  25.080  1.00  0.00    -0.273 OA
ATOM      7  H   UNL A   1      31.328  21.388  27.243  1.00  0.00     0.163 HD
BRANCH   5   8
ATOM      8  C   UNL A   1      33.052  22.603  24.579  1.00  0.00     0.174 C 
BRANCH   8   9
ATOM      9  S   UNL A   1      32.241  23.051  23.025  1.00  0.00    -0.068 SA
BRANCH   9  10
ATOM     10  C   UNL A   1      31.801  24.735  22.910  1.00  0.00     0.191 A 
ATOM     11  N   UNL A   1      32.628  25.796  22.542  1.00  0.00    -0.202 N 
ATOM     12  C   UNL A   1      32.150  27.109  22.458  1.00  0.00     0.280 A 
ATOM     13  N   UNL A   1      30.551  24.915  23.210  1.00  0.00    -0.222 NA
ATOM     14  C   UNL A   1      30.744  27.317  22.825  1.00  0.00     0.069 A 
ATOM     15  O   UNL A   1      32.846  28.070  22.127  1.00  0.00    -0.267 OA
ATOM     16  C   UNL A   1      30.008  26.198  23.199  1.00  0.00     0.079 A 
ATOM     17  C   UNL A   1      30.181  28.597  22.835  1.00  0.00     0.031 A 
ATOM     18  C   UNL A   1      28.679  26.368  23.594  1.00  0.00     0.030 A 
ATOM     19  C   UNL A   1      28.857  28.749  23.235  1.00  0.00     0.018 A 
ATOM     20  C   UNL A   1      28.102  27.640  23.616  1.00  0.00     0.018 A 
ATOM     21  Br  UNL A   1      28.082  30.472  23.273  1.00  0.00    -0.051 Br
BRANCH  11  22
ATOM     22  N   UNL A   1      34.006  25.663  22.319  1.00  0.00    -0.334 N 
ATOM     23  H   UNL A   1      34.468  24.833  22.576  1.00  0.00     0.178 HD
ATOM     24  H   UNL A   1      34.511  26.399  21.905  1.00  0.00     0.178 HD
ENDBRANCH  11  22
ENDBRANCH   9  10
ENDBRANCH   8   9
BRANCH   8  25
ATOM     25  C   UNL A   1      34.533  22.201  24.470  1.00  0.00    -0.025 A 
ATOM     26  C   UNL A   1      35.430  22.908  23.649  1.00  0.00     0.005 A 
ATOM     27  C   UNL A   1      35.041  21.071  25.146  1.00  0.00     0.005 A 
ATOM     28  C   UNL A   1      36.787  22.568  23.590  1.00  0.00     0.000 A 
ATOM     29  C   UNL A   1      36.397  20.731  25.088  1.00  0.00     0.000 A 
ATOM     30  C   UNL A   1      37.272  21.490  24.322  1.00  0.00     0.000 A 
ENDBRANCH   8  25
ENDBRANCH   5   8
ENDBRANCH   3   4
ENDBRANCH   2   3
ENDBRANCH   1   2
BRANCH   1  31
ATOM     31  C   UNL A   1      31.653  27.098  26.324  1.00  0.00     0.002 C 
BRANCH  31  32
ATOM     32  C   UNL A   1      31.971  28.087  27.445  1.00  0.00     0.021 C 
BRANCH  32  33
ATOM     33  C   UNL A   1      33.354  28.723  27.374  1.00  0.00     0.116 C 
BRANCH  33  34
ATOM     34  N   UNL A   1      33.371  30.106  27.824  1.00  0.00    -0.352 N 
ATOM     35  C   UNL A   1      34.423  30.818  28.365  1.00  0.00     0.251 C 
ATOM     36  H   UNL A   1      32.523  30.598  27.730  1.00  0.00     0.163 HD
ATOM     37  O   UNL A   1      34.261  31.944  28.800  1.00  0.00    -0.269 OA
BRANCH  35  38
ATOM     38  C   UNL A   1      35.747  30.158  28.450  1.00  0.00     0.039 A 
ATOM     39  C   UNL A   1      36.193  29.626  29.664  1.00  0.00     0.014 A 
ATOM     40  C   UNL A   1      36.579  30.167  27.328  1.00  0.00     0.014 A 
ATOM     41  C   UNL A   1      37.529  29.262  29.800  1.00  0.00     0.010 A 
ATOM     42  C   UNL A   1      37.902  29.736  27.453  1.00  0.00     0.010 A 
ATOM     43  C   UNL A   1      38.402  29.338  28.703  1.00  0.00    -0.014 A 
BRANCH  43  44
ATOM     44  C   UNL A   1      39.848  29.047  28.887  1.00  0.00     0.031 A 
ATOM     45  C   UNL A   1      40.764  30.081  29.487  1.00  0.00     0.074 A 
ATOM     46  C   UNL A   1      40.334  27.841  28.542  1.00  0.00     0.049 A 
ATOM     47  N   UNL A   1      42.059  30.033  29.669  1.00  0.00    -0.248 NA
ATOM     48  C   UNL A   1      40.142  31.337  29.939  1.00  0.00     0.031 C 
ATOM     49  C   UNL A   1      39.548  26.747  27.971  1.00  0.00     0.029 A 
ATOM     50  N   UNL A   1      41.604  27.331  28.629  1.00  0.00    -0.354 N 
ATOM     51  C   UNL A   1      42.414  31.259  30.219  1.00  0.00     0.074 A 
ATOM     52  C   UNL A   1      41.198  32.035  30.335  1.00  0.00     0.031 C 
ATOM     53  C   UNL A   1      40.345  25.685  27.784  1.00  0.00     0.029 A 
ATOM     54  C   UNL A   1      41.708  26.042  28.168  1.00  0.00     0.049 A 
ATOM     55  H   UNL A   1      42.366  27.839  28.988  1.00  0.00     0.167 HD
ATOM     56  C   UNL A   1      43.640  31.696  30.598  1.00  0.00     0.037 A 
ATOM     57  C   UNL A   1      42.783  25.242  28.041  1.00  0.00     0.037 A 
ATOM     58  C   UNL A   1      44.844  30.910  30.513  1.00  0.00     0.049 A 
ATOM     59  C   UNL A   1      44.133  25.750  28.448  1.00  0.00     0.074 A 
ATOM     60  C   UNL A   1      46.127  31.250  30.906  1.00  0.00     0.029 A 
ATOM     61  N   UNL A   1      44.915  29.624  29.998  1.00  0.00    -0.354 N 
ATOM     62  N   UNL A   1      44.455  26.919  28.951  1.00  0.00    -0.248 NA
ATOM     63  C   UNL A   1      45.269  24.839  28.260  1.00  0.00     0.031 C 
ATOM     64  C   UNL A   1      46.979  30.181  30.600  1.00  0.00     0.029 A 
ATOM     65  C   UNL A   1      46.221  29.162  30.045  1.00  0.00     0.049 A 
ATOM     66  H   UNL A   1      44.149  29.112  29.650  1.00  0.00     0.167 HD
ATOM     67  C   UNL A   1      45.832  26.890  29.127  1.00  0.00     0.074 A 
ATOM     68  C   UNL A   1      46.279  25.576  28.705  1.00  0.00     0.031 C 
ATOM     69  C   UNL A   1      46.653  27.865  29.589  1.00  0.00     0.037 A 
BRANCH  56  70
ATOM     70  C   UNL A   1      43.741  33.105  31.112  1.00  0.00     0.058 A 
ATOM     71  C   UNL A   1      44.073  34.179  30.272  1.00  0.00     0.135 A 
ATOM     72  C   UNL A   1      43.499  33.384  32.468  1.00  0.00     0.135 A 
ATOM     73  F   UNL A   1      44.332  33.965  28.972  1.00  0.00    -0.206 F 
ATOM     74  C   UNL A   1      44.193  35.476  30.764  1.00  0.00     0.059 A 
ATOM     75  C   UNL A   1      43.594  34.676  32.977  1.00  0.00     0.059 A 
ATOM     76  F   UNL A   1      43.180  32.391  33.314  1.00  0.00    -0.206 F 
ATOM     77  C   UNL A   1      43.960  35.712  32.120  1.00  0.00     0.060 A 
BRANCH  77  78
ATOM     78  S   UNL A   1      44.148  37.394  32.749  1.00  0.00     0.124 S 
ATOM     79  O   UNL A   1      43.141  37.422  33.805  1.00  0.00    -0.237 OA
ATOM     80  O   UNL A   1      45.536  37.409  33.200  1.00  0.00    -0.237 OA
ATOM     81  O   UNL A   1      43.861  38.226  31.586  1.00  0.00    -0.744 OA
ENDBRANCH  77  78
ENDBRANCH  56  70
BRANCH  57  82
ATOM     82  C   UNL A   1      42.602  23.879  27.483  1.00  0.00     0.058 A 
ATOM     83  C   UNL A   1      42.757  23.637  26.112  1.00  0.00     0.135 A 
ATOM     84  C   UNL A   1      42.367  22.780  28.325  1.00  0.00     0.135 A 
ATOM     85  F   UNL A   1      42.975  24.660  25.271  1.00  0.00    -0.206 F 
ATOM     86  C   UNL A   1      42.707  22.348  25.594  1.00  0.00     0.059 A 
ATOM     87  C   UNL A   1      42.332  21.480  27.834  1.00  0.00     0.059 A 
ATOM     88  F   UNL A   1      42.226  22.966  29.646  1.00  0.00    -0.206 F 
ATOM     89  C   UNL A   1      42.509  21.274  26.466  1.00  0.00     0.060 A 
BRANCH  89  90
ATOM     90  S   UNL A   1      42.573  19.597  25.802  1.00  0.00     0.124 S 
ATOM     91  O   UNL A   1      41.178  19.368  25.442  1.00  0.00    -0.237 OA
ATOM     92  O   UNL A   1      43.504  19.743  24.686  1.00  0.00    -0.237 OA
ATOM     93  O   UNL A   1      43.075  18.811  26.925  1.00  0.00    -0.744 OA
ENDBRANCH  89  90
ENDBRANCH  57  82
BRANCH  69  94
ATOM     94  C   UNL A   1      48.120  27.548  29.637  1.00  0.00     0.058 A 
ATOM     95  C   UNL A   1      48.693  26.928  30.759  1.00  0.00     0.135 A 
ATOM     96  C   UNL A   1      48.959  27.855  28.555  1.00  0.00     0.135 A 
ATOM     97  F   UNL A   1      47.933  26.621  31.822  1.00  0.00    -0.206 F 
ATOM     98  C   UNL A   1      50.054  26.652  30.819  1.00  0.00     0.059 A 
ATOM     99  C   UNL A   1      50.320  27.570  28.585  1.00  0.00     0.059 A 
ATOM    100  F   UNL A   1      48.458  28.440  27.455  1.00  0.00    -0.206 F 
ATOM    101  C   UNL A   1      50.862  26.984  29.730  1.00  0.00     0.060 A 
BRANCH 101 102
ATOM    102  S   UNL A   1      52.629  26.623  29.817  1.00  0.00     0.124 S 
ATOM    103  O   UNL A   1      52.882  26.085  28.484  1.00  0.00    -0.237 OA
ATOM    104  O   UNL A   1      53.206  27.934  30.093  1.00  0.00    -0.237 OA
ATOM    105  O   UNL A   1      52.723  25.661  30.911  1.00  0.00    -0.744 OA
ENDBRANCH 101 102
ENDBRANCH  69  94
ENDBRANCH  43  44
ENDBRANCH  35  38
ENDBRANCH  33  34
ENDBRANCH  32  33
ENDBRANCH  31  32
ENDBRANCH   1  31
TORSDOF 20
ENDMDL
MODEL 3
REMARK VINA RESULT:     -12.4      6.190     11.412
REMARK SMILES Nn1c(S[C@@H](C(=O)NCCCCCCNC(=O)c2ccc(-c3c4nc(c(-c5c(F)cc(S(=O)(=O)[O-])cc5F)c5ccc([nH]5)c(-c5c(F)cc(S(=O)(=O)[O-])cc5F)c5nc(c(-c6c(F)cc(S(=O)(=O)[O-])cc6F)c6ccc3[nH]6)C=C5)C=C4)cc2)c2ccccc2)nc2ccc(Br)cc2c1=O
REMARK SMILES IDX 11 1 10 2 9 3 8 4 6 5 7 6 5 8 4 9 3 10 2 11 98 12 90 13
REMARK SMILES IDX 97 14 99 15 91 16 96 17 92 18 94 19 93 20 95 21 1 22 84 25
REMARK SMILES IDX 85 26 89 27 86 28 88 29 87 30 12 31 13 32 14 33 15 34 16 35
REMARK SMILES IDX 17 37 18 38 19 39 83 40 20 41 82 42 21 43 22 44 23 45 76 46
REMARK SMILES IDX 24 47 81 48 75 49 77 50 25 51 80 52 74 53 73 54 26 56 60 57
REMARK SMILES IDX 39 58 59 59 40 60 43 61 58 62 78 63 41 64 42 65 57 67 79 68
REMARK SMILES IDX 44 69 27 70 28 71 37 72 29 73 30 74 36 75 38 76 31 77 32 78
REMARK SMILES IDX 33 79 34 80 35 81 61 82 62 83 71 84 63 85 64 86 70 87 72 88
REMARK SMILES IDX 65 89 66 90 67 91 68 92 69 93 45 94 46 95 55 96 47 97 48 98
REMARK SMILES IDX 54 99 56 100 49 101 50 102 51 103 52 104 53 105
REMARK H PARENT 8 7 1 23 1 24 15 36 77 55 43 66
REMARK Flexibility Score: inf
ROOT
ATOM      1  C   UNL A   1      38.981  21.221  26.011  1.00  0.00     0.002 C 
ENDROOT
BRANCH   1   2
ATOM      2  C   UNL A   1      38.271  22.575  25.849  1.00  0.00     0.021 C 
BRANCH   2   3
ATOM      3  C   UNL A   1      36.846  22.503  25.287  1.00  0.00     0.116 C 
BRANCH   3   4
ATOM      4  N   UNL A   1      35.920  21.959  26.265  1.00  0.00    -0.355 N 
ATOM      5  C   UNL A   1      34.779  21.220  26.114  1.00  0.00     0.238 C 
ATOM      6  O   UNL A   1      34.106  21.104  27.145  1.00  0.00    -0.273 OA
ATOM      7  H   UNL A   1      36.156  22.157  27.200  1.00  0.00     0.163 HD
BRANCH   5   8
ATOM      8  C   UNL A   1      34.414  20.573  24.750  1.00  0.00     0.174 C 
BRANCH   8   9
ATOM      9  S   UNL A   1      33.366  21.689  23.788  1.00  0.00    -0.068 SA
BRANCH   9  10
ATOM     10  C   UNL A   1      32.787  23.072  24.680  1.00  0.00     0.191 A 
ATOM     11  N   UNL A   1      31.791  23.084  25.655  1.00  0.00    -0.202 N 
ATOM     12  C   UNL A   1      31.430  24.259  26.326  1.00  0.00     0.280 A 
ATOM     13  N   UNL A   1      33.418  24.151  24.332  1.00  0.00    -0.222 NA
ATOM     14  C   UNL A   1      32.122  25.486  25.913  1.00  0.00     0.069 A 
ATOM     15  O   UNL A   1      30.564  24.309  27.201  1.00  0.00    -0.267 OA
ATOM     16  C   UNL A   1      33.085  25.373  24.915  1.00  0.00     0.079 A 
ATOM     17  C   UNL A   1      31.796  26.724  26.474  1.00  0.00     0.031 A 
ATOM     18  C   UNL A   1      33.731  26.527  24.471  1.00  0.00     0.030 A 
ATOM     19  C   UNL A   1      32.448  27.865  26.017  1.00  0.00     0.018 A 
ATOM     20  C   UNL A   1      33.414  27.774  25.016  1.00  0.00     0.018 A 
ATOM     21  Br  UNL A   1      32.009  29.551  26.749  1.00  0.00    -0.051 Br
BRANCH  11  22
ATOM     22  N   UNL A   1      31.011  21.965  25.981  1.00  0.00    -0.334 N 
ATOM     23  H   UNL A   1      30.183  22.076  26.502  1.00  0.00     0.178 HD
ATOM     24  H   UNL A   1      31.291  21.067  25.689  1.00  0.00     0.178 HD
ENDBRANCH  11  22
ENDBRANCH   9  10
ENDBRANCH   8   9
BRANCH   8  25
ATOM     25  C   UNL A   1      34.011  19.087  24.727  1.00  0.00    -0.025 A 
ATOM     26  C   UNL A   1      32.730  18.666  25.127  1.00  0.00     0.005 A 
ATOM     27  C   UNL A   1      34.928  18.081  24.357  1.00  0.00     0.005 A 
ATOM     28  C   UNL A   1      32.352  17.320  25.058  1.00  0.00     0.000 A 
ATOM     29  C   UNL A   1      34.551  16.736  24.289  1.00  0.00     0.000 A 
ATOM     30  C   UNL A   1      33.257  16.358  24.625  1.00  0.00     0.000 A 
ENDBRANCH   8  25
ENDBRANCH   5   8
ENDBRANCH   3   4
ENDBRANCH   2   3
ENDBRANCH   1   2
BRANCH   1  31
ATOM     31  C   UNL A   1      40.455  21.280  26.420  1.00  0.00     0.002 C 
BRANCH  31  32
ATOM     32  C   UNL A   1      40.823  22.397  27.395  1.00  0.00     0.021 C 
BRANCH  32  33
ATOM     33  C   UNL A   1      42.088  23.171  27.044  1.00  0.00     0.116 C 
BRANCH  33  34
ATOM     34  N   UNL A   1      41.889  24.137  25.975  1.00  0.00    -0.352 N 
ATOM     35  C   UNL A   1      41.610  25.485  26.079  1.00  0.00     0.251 C 
ATOM     36  H   UNL A   1      41.964  23.784  25.059  1.00  0.00     0.163 HD
ATOM     37  O   UNL A   1      41.361  26.153  25.092  1.00  0.00    -0.269 OA
BRANCH  35  38
ATOM     38  C   UNL A   1      41.573  26.092  27.430  1.00  0.00     0.039 A 
ATOM     39  C   UNL A   1      40.435  25.958  28.232  1.00  0.00     0.014 A 
ATOM     40  C   UNL A   1      42.647  26.881  27.847  1.00  0.00     0.014 A 
ATOM     41  C   UNL A   1      40.302  26.750  29.368  1.00  0.00     0.010 A 
ATOM     42  C   UNL A   1      42.537  27.624  29.024  1.00  0.00     0.010 A 
ATOM     43  C   UNL A   1      41.341  27.610  29.761  1.00  0.00    -0.014 A 
BRANCH  43  44
ATOM     44  C   UNL A   1      41.146  28.527  30.914  1.00  0.00     0.031 A 
ATOM     45  C   UNL A   1      40.052  29.562  30.888  1.00  0.00     0.074 A 
ATOM     46  C   UNL A   1      41.933  28.411  31.998  1.00  0.00     0.049 A 
ATOM     47  N   UNL A   1      39.767  30.487  31.770  1.00  0.00    -0.248 NA
ATOM     48  C   UNL A   1      39.162  29.560  29.715  1.00  0.00     0.031 C 
ATOM     49  C   UNL A   1      43.012  27.435  32.155  1.00  0.00     0.029 A 
ATOM     50  N   UNL A   1      41.940  29.111  33.177  1.00  0.00    -0.354 N 
ATOM     51  C   UNL A   1      38.696  31.199  31.245  1.00  0.00     0.074 A 
ATOM     52  C   UNL A   1      38.384  30.605  29.963  1.00  0.00     0.031 C 
ATOM     53  C   UNL A   1      43.560  27.580  33.370  1.00  0.00     0.029 A 
ATOM     54  C   UNL A   1      42.910  28.694  34.055  1.00  0.00     0.049 A 
ATOM     55  H   UNL A   1      41.311  29.842  33.374  1.00  0.00     0.167 HD
ATOM     56  C   UNL A   1      38.030  32.249  31.784  1.00  0.00     0.037 A 
ATOM     57  C   UNL A   1      43.258  29.170  35.265  1.00  0.00     0.037 A 
ATOM     58  C   UNL A   1      38.320  32.818  33.076  1.00  0.00     0.049 A 
ATOM     59  C   UNL A   1      42.521  30.343  35.836  1.00  0.00     0.074 A 
ATOM     60  C   UNL A   1      37.677  33.857  33.726  1.00  0.00     0.029 A 
ATOM     61  N   UNL A   1      39.339  32.395  33.916  1.00  0.00    -0.354 N 
ATOM     62  N   UNL A   1      41.520  31.017  35.319  1.00  0.00    -0.248 NA
ATOM     63  C   UNL A   1      42.966  30.831  37.148  1.00  0.00     0.031 C 
ATOM     64  C   UNL A   1      38.329  34.084  34.945  1.00  0.00     0.029 A 
ATOM     65  C   UNL A   1      39.357  33.163  35.069  1.00  0.00     0.049 A 
ATOM     66  H   UNL A   1      39.961  31.656  33.722  1.00  0.00     0.167 HD
ATOM     67  C   UNL A   1      41.224  32.018  36.236  1.00  0.00     0.074 A 
ATOM     68  C   UNL A   1      42.131  31.842  37.354  1.00  0.00     0.031 C 
ATOM     69  C   UNL A   1      40.290  32.997  36.156  1.00  0.00     0.037 A 
BRANCH  56  70
ATOM     70  C   UNL A   1      36.937  32.869  30.960  1.00  0.00     0.058 A 
ATOM     71  C   UNL A   1      37.205  33.844  29.987  1.00  0.00     0.135 A 
ATOM     72  C   UNL A   1      35.600  32.478  31.145  1.00  0.00     0.135 A 
ATOM     73  F   UNL A   1      38.462  34.268  29.783  1.00  0.00    -0.206 F 
ATOM     74  C   UNL A   1      36.182  34.435  29.249  1.00  0.00     0.059 A 
ATOM     75  C   UNL A   1      34.564  33.040  30.404  1.00  0.00     0.059 A 
ATOM     76  F   UNL A   1      35.289  31.550  32.064  1.00  0.00    -0.206 F 
ATOM     77  C   UNL A   1      34.864  34.031  29.471  1.00  0.00     0.060 A 
BRANCH  77  78
ATOM     78  S   UNL A   1      33.546  34.826  28.527  1.00  0.00     0.124 S 
ATOM     79  O   UNL A   1      32.934  33.679  27.865  1.00  0.00    -0.237 OA
ATOM     80  O   UNL A   1      32.745  35.455  29.572  1.00  0.00    -0.237 OA
ATOM     81  O   UNL A   1      34.263  35.747  27.652  1.00  0.00    -0.744 OA
ENDBRANCH  77  78
ENDBRANCH  56  70
BRANCH  57  82
ATOM     82  C   UNL A   1      44.378  28.526  35.994  1.00  0.00     0.058 A 
ATOM     83  C   UNL A   1      45.694  28.979  35.836  1.00  0.00     0.135 A 
ATOM     84  C   UNL A   1      44.137  27.512  36.935  1.00  0.00     0.135 A 
ATOM     85  F   UNL A   1      45.969  29.942  34.942  1.00  0.00    -0.206 F 
ATOM     86  C   UNL A   1      46.734  28.464  36.601  1.00  0.00     0.059 A 
ATOM     87  C   UNL A   1      45.158  26.994  37.725  1.00  0.00     0.059 A 
ATOM     88  F   UNL A   1      42.890  27.057  37.128  1.00  0.00    -0.206 F 
ATOM     89  C   UNL A   1      46.453  27.482  37.554  1.00  0.00     0.060 A 
BRANCH  89  90
ATOM     90  S   UNL A   1      47.787  26.911  38.629  1.00  0.00     0.124 S 
ATOM     91  O   UNL A   1      47.257  25.641  39.108  1.00  0.00    -0.237 OA
ATOM     92  O   UNL A   1      48.912  26.826  37.702  1.00  0.00    -0.237 OA
ATOM     93  O   UNL A   1      47.889  27.972  39.627  1.00  0.00    -0.744 OA
ENDBRANCH  89  90
ENDBRANCH  57  82
BRANCH  69  94
ATOM     94  C   UNL A   1      40.224  33.966  37.302  1.00  0.00     0.058 A 
ATOM     95  C   UNL A   1      40.957  35.162  37.285  1.00  0.00     0.135 A 
ATOM     96  C   UNL A   1      39.418  33.703  38.420  1.00  0.00     0.135 A 
ATOM     97  F   UNL A   1      41.749  35.454  36.241  1.00  0.00    -0.206 F 
ATOM     98  C   UNL A   1      40.918  36.053  38.353  1.00  0.00     0.059 A 
ATOM     99  C   UNL A   1      39.347  34.589  39.491  1.00  0.00     0.059 A 
ATOM    100  F   UNL A   1      38.690  32.576  38.480  1.00  0.00    -0.206 F 
ATOM    101  C   UNL A   1      40.115  35.753  39.455  1.00  0.00     0.060 A 
BRANCH 101 102
ATOM    102  S   UNL A   1      40.071  36.914  40.837  1.00  0.00     0.124 S 
ATOM    103  O   UNL A   1      40.860  36.203  41.839  1.00  0.00    -0.237 OA
ATOM    104  O   UNL A   1      40.692  38.105  40.270  1.00  0.00    -0.237 OA
ATOM    105  O   UNL A   1      38.646  37.036  41.130  1.00  0.00    -0.744 OA
ENDBRANCH 101 102
ENDBRANCH  69  94
ENDBRANCH  43  44
ENDBRANCH  35  38
ENDBRANCH  33  34
ENDBRANCH  32  33
ENDBRANCH  31  32
ENDBRANCH   1  31
TORSDOF 20
ENDMDL
