MODEL 1
REMARK VINA RESULT:     -11.5      0.000      0.000
REMARK SMILES O=C(NCCCCCCNC(=O)c1ccccc1-n1ccnn1)c1ccc(-c2c3nc(c(-c4c(F)cc(S(=O)(=O)[O-])cc4F)c4ccc([nH]4)c(-c4c(F)cc(S(=O)(=O)[O-])cc4F)c4nc(c(-c5c(F)cc(S(=O)(=O)[O-])cc5F)c5ccc2[nH]5)C=C4)C=C3)cc1
REMARK SMILES IDX 5 1 4 2 3 3 1 4 2 5 24 7 25 8 89 9 26 10 88 11 27 12 28 13
REMARK SMILES IDX 29 14 82 15 30 16 87 17 81 18 83 19 31 20 86 21 80 22 79 23
REMARK SMILES IDX 32 25 66 26 45 27 65 28 46 29 49 30 64 31 84 32 47 33 48 34
REMARK SMILES IDX 63 36 85 37 50 38 33 39 34 40 43 41 35 42 36 43 42 44 44 45
REMARK SMILES IDX 37 46 38 47 39 48 40 49 41 50 67 51 68 52 77 53 69 54 70 55
REMARK SMILES IDX 76 56 78 57 71 58 72 59 73 60 74 61 75 62 51 63 52 64 61 65
REMARK SMILES IDX 53 66 54 67 60 68 62 69 55 70 56 71 57 72 58 73 59 74 6 75
REMARK SMILES IDX 7 76 8 77 9 78 10 79 11 80 12 82 13 83 14 84 18 85 15 86
REMARK SMILES IDX 17 87 16 88 19 89 20 90 23 91 21 92 22 93
REMARK H PARENT 3 6 83 24 49 35 10 81
REMARK Flexibility Score: inf
ROOT
ATOM      1  C   UNL A   1      40.417  20.252  26.527  1.00  0.00     0.021 C 
ENDROOT
BRANCH   1   2
ATOM      2  C   UNL A   1      41.900  20.218  26.887  1.00  0.00     0.116 C 
BRANCH   2   3
ATOM      3  N   UNL A   1      42.787  20.591  25.805  1.00  0.00    -0.352 N 
ATOM      4  O   UNL A   1      44.206  21.635  24.478  1.00  0.00    -0.269 OA
ATOM      5  C   UNL A   1      43.436  21.737  25.438  1.00  0.00     0.251 C 
ATOM      6  H   UNL A   1      42.963  19.843  25.188  1.00  0.00     0.163 HD
BRANCH   5   7
ATOM      7  C   UNL A   1      43.240  23.073  26.061  1.00  0.00     0.039 A 
ATOM      8  C   UNL A   1      42.658  24.184  25.450  1.00  0.00     0.014 A 
ATOM      9  C   UNL A   1      43.678  23.193  27.395  1.00  0.00     0.014 A 
ATOM     10  C   UNL A   1      42.577  25.401  26.128  1.00  0.00     0.010 A 
ATOM     11  C   UNL A   1      43.586  24.400  28.081  1.00  0.00     0.010 A 
ATOM     12  C   UNL A   1      43.058  25.514  27.435  1.00  0.00    -0.014 A 
BRANCH  12  13
ATOM     13  C   UNL A   1      42.819  26.766  28.156  1.00  0.00     0.031 A 
ATOM     14  C   UNL A   1      43.881  27.803  27.968  1.00  0.00     0.074 A 
ATOM     15  C   UNL A   1      41.666  27.057  28.793  1.00  0.00     0.049 A 
ATOM     16  N   UNL A   1      44.613  28.388  28.861  1.00  0.00    -0.248 NA
ATOM     17  C   UNL A   1      44.239  28.161  26.583  1.00  0.00     0.031 C 
ATOM     18  C   UNL A   1      40.424  26.280  28.803  1.00  0.00     0.029 A 
ATOM     19  N   UNL A   1      41.328  28.179  29.491  1.00  0.00    -0.354 N 
ATOM     20  C   UNL A   1      45.385  29.325  28.175  1.00  0.00     0.074 A 
ATOM     21  C   UNL A   1      45.220  29.042  26.773  1.00  0.00     0.031 C 
ATOM     22  C   UNL A   1      39.418  27.052  29.275  1.00  0.00     0.029 A 
ATOM     23  C   UNL A   1      39.963  28.325  29.720  1.00  0.00     0.049 A 
ATOM     24  H   UNL A   1      41.994  28.832  29.806  1.00  0.00     0.167 HD
ATOM     25  C   UNL A   1      45.952  30.399  28.794  1.00  0.00     0.037 A 
ATOM     26  C   UNL A   1      39.324  29.433  30.177  1.00  0.00     0.037 A 
ATOM     27  C   UNL A   1      46.049  30.205  30.214  1.00  0.00     0.049 A 
ATOM     28  C   UNL A   1      40.340  30.289  30.842  1.00  0.00     0.074 A 
ATOM     29  C   UNL A   1      46.682  29.278  31.023  1.00  0.00     0.029 A 
ATOM     30  N   UNL A   1      45.135  30.833  31.023  1.00  0.00    -0.354 N 
ATOM     31  N   UNL A   1      40.962  29.969  31.943  1.00  0.00    -0.248 NA
ATOM     32  C   UNL A   1      40.984  31.316  30.038  1.00  0.00     0.031 C 
ATOM     33  C   UNL A   1      45.775  29.051  32.100  1.00  0.00     0.029 A 
ATOM     34  C   UNL A   1      44.679  29.894  31.914  1.00  0.00     0.049 A 
ATOM     35  H   UNL A   1      44.859  31.777  30.973  1.00  0.00     0.167 HD
ATOM     36  C   UNL A   1      42.259  30.423  31.763  1.00  0.00     0.074 A 
ATOM     37  C   UNL A   1      42.190  31.319  30.610  1.00  0.00     0.031 C 
ATOM     38  C   UNL A   1      43.316  29.828  32.391  1.00  0.00     0.037 A 
BRANCH  25  39
ATOM     39  C   UNL A   1      46.124  31.751  28.142  1.00  0.00     0.058 A 
ATOM     40  C   UNL A   1      47.386  32.380  28.136  1.00  0.00     0.135 A 
ATOM     41  C   UNL A   1      45.036  32.567  27.756  1.00  0.00     0.135 A 
ATOM     42  F   UNL A   1      48.486  31.708  28.508  1.00  0.00    -0.206 F 
ATOM     43  C   UNL A   1      47.546  33.731  27.815  1.00  0.00     0.059 A 
ATOM     44  C   UNL A   1      45.180  33.898  27.382  1.00  0.00     0.059 A 
ATOM     45  F   UNL A   1      43.770  32.137  27.818  1.00  0.00    -0.206 F 
ATOM     46  C   UNL A   1      46.434  34.483  27.449  1.00  0.00     0.060 A 
BRANCH  46  47
ATOM     47  S   UNL A   1      46.621  36.245  27.119  1.00  0.00     0.124 S 
ATOM     48  O   UNL A   1      47.390  36.229  25.880  1.00  0.00    -0.237 OA
ATOM     49  O   UNL A   1      45.234  36.681  27.006  1.00  0.00    -0.237 OA
ATOM     50  O   UNL A   1      47.331  36.733  28.298  1.00  0.00    -0.744 OA
ENDBRANCH  46  47
ENDBRANCH  25  39
BRANCH  26  51
ATOM     51  C   UNL A   1      37.990  29.961  29.773  1.00  0.00     0.058 A 
ATOM     52  C   UNL A   1      37.116  30.547  30.709  1.00  0.00     0.135 A 
ATOM     53  C   UNL A   1      37.666  30.164  28.417  1.00  0.00     0.135 A 
ATOM     54  F   UNL A   1      37.360  30.428  32.023  1.00  0.00    -0.206 F 
ATOM     55  C   UNL A   1      36.019  31.326  30.323  1.00  0.00     0.059 A 
ATOM     56  C   UNL A   1      36.572  30.927  28.008  1.00  0.00     0.059 A 
ATOM     57  F   UNL A   1      38.461  29.706  27.439  1.00  0.00    -0.206 F 
ATOM     58  C   UNL A   1      35.766  31.527  28.967  1.00  0.00     0.060 A 
BRANCH  58  59
ATOM     59  S   UNL A   1      34.461  32.673  28.460  1.00  0.00     0.124 S 
ATOM     60  O   UNL A   1      33.558  31.797  27.722  1.00  0.00    -0.237 OA
ATOM     61  O   UNL A   1      33.965  33.164  29.742  1.00  0.00    -0.237 OA
ATOM     62  O   UNL A   1      35.171  33.660  27.652  1.00  0.00    -0.744 OA
ENDBRANCH  58  59
ENDBRANCH  26  51
BRANCH  38  63
ATOM     63  C   UNL A   1      43.031  28.850  33.503  1.00  0.00     0.058 A 
ATOM     64  C   UNL A   1      42.747  29.212  34.833  1.00  0.00     0.135 A 
ATOM     65  C   UNL A   1      42.891  27.493  33.171  1.00  0.00     0.135 A 
ATOM     66  F   UNL A   1      42.753  30.496  35.214  1.00  0.00    -0.206 F 
ATOM     67  C   UNL A   1      42.384  28.266  35.794  1.00  0.00     0.059 A 
ATOM     68  C   UNL A   1      42.497  26.537  34.103  1.00  0.00     0.059 A 
ATOM     69  F   UNL A   1      43.086  27.088  31.904  1.00  0.00    -0.206 F 
ATOM     70  C   UNL A   1      42.259  26.929  35.418  1.00  0.00     0.060 A 
BRANCH  70  71
ATOM     71  S   UNL A   1      41.714  25.718  36.642  1.00  0.00     0.124 S 
ATOM     72  O   UNL A   1      41.267  24.612  35.803  1.00  0.00    -0.237 OA
ATOM     73  O   UNL A   1      42.928  25.477  37.416  1.00  0.00    -0.237 OA
ATOM     74  O   UNL A   1      40.654  26.418  37.367  1.00  0.00    -0.744 OA
ENDBRANCH  70  71
ENDBRANCH  38  63
ENDBRANCH  12  13
ENDBRANCH   5   7
ENDBRANCH   2   3
ENDBRANCH   1   2
BRANCH   1  75
ATOM     75  C   UNL A   1      39.908  21.600  25.997  1.00  0.00     0.002 C 
BRANCH  75  76
ATOM     76  C   UNL A   1      39.696  22.706  27.039  1.00  0.00     0.002 C 
BRANCH  76  77
ATOM     77  C   UNL A   1      38.823  23.893  26.611  1.00  0.00     0.021 C 
BRANCH  77  78
ATOM     78  C   UNL A   1      37.479  23.527  25.992  1.00  0.00     0.116 C 
BRANCH  78  79
ATOM     79  N   UNL A   1      37.518  23.470  24.539  1.00  0.00    -0.352 N 
ATOM     80  C   UNL A   1      36.552  23.057  23.647  1.00  0.00     0.253 C 
ATOM     81  H   UNL A   1      38.361  23.772  24.131  1.00  0.00     0.163 HD
ATOM     82  O   UNL A   1      36.767  23.063  22.451  1.00  0.00    -0.269 OA
BRANCH  80  83
ATOM     83  C   UNL A   1      35.248  22.557  24.146  1.00  0.00     0.065 A 
ATOM     84  C   UNL A   1      35.281  21.285  24.743  1.00  0.00     0.016 A 
ATOM     85  C   UNL A   1      34.051  23.288  24.134  1.00  0.00     0.079 A 
ATOM     86  C   UNL A   1      34.148  20.769  25.372  1.00  0.00     0.001 A 
ATOM     87  C   UNL A   1      32.929  22.781  24.815  1.00  0.00     0.029 A 
ATOM     88  C   UNL A   1      32.979  21.524  25.423  1.00  0.00     0.002 A 
BRANCH  85  89
ATOM     89  N   UNL A   1      33.924  24.532  23.474  1.00  0.00    -0.220 N 
ATOM     90  C   UNL A   1      33.813  25.799  23.994  1.00  0.00     0.137 A 
ATOM     91  N   UNL A   1      33.845  24.591  22.124  1.00  0.00    -0.062 NA
ATOM     92  C   UNL A   1      33.544  26.596  22.908  1.00  0.00     0.157 A 
ATOM     93  N   UNL A   1      33.548  25.836  21.779  1.00  0.00    -0.139 NA
ENDBRANCH  85  89
ENDBRANCH  80  83
ENDBRANCH  78  79
ENDBRANCH  77  78
ENDBRANCH  76  77
ENDBRANCH  75  76
ENDBRANCH   1  75
TORSDOF 17
ENDMDL
MODEL 2
REMARK VINA RESULT:     -11.4      2.965      9.518
REMARK SMILES O=C(NCCCCCCNC(=O)c1ccccc1-n1ccnn1)c1ccc(-c2c3nc(c(-c4c(F)cc(S(=O)(=O)[O-])cc4F)c4ccc([nH]4)c(-c4c(F)cc(S(=O)(=O)[O-])cc4F)c4nc(c(-c5c(F)cc(S(=O)(=O)[O-])cc5F)c5ccc2[nH]5)C=C4)C=C3)cc1
REMARK SMILES IDX 5 1 4 2 3 3 1 4 2 5 24 7 25 8 89 9 26 10 88 11 27 12 28 13
REMARK SMILES IDX 29 14 82 15 30 16 87 17 81 18 83 19 31 20 86 21 80 22 79 23
REMARK SMILES IDX 32 25 66 26 45 27 65 28 46 29 49 30 64 31 84 32 47 33 48 34
REMARK SMILES IDX 63 36 85 37 50 38 33 39 34 40 43 41 35 42 36 43 42 44 44 45
REMARK SMILES IDX 37 46 38 47 39 48 40 49 41 50 67 51 68 52 77 53 69 54 70 55
REMARK SMILES IDX 76 56 78 57 71 58 72 59 73 60 74 61 75 62 51 63 52 64 61 65
REMARK SMILES IDX 53 66 54 67 60 68 62 69 55 70 56 71 57 72 58 73 59 74 6 75
REMARK SMILES IDX 7 76 8 77 9 78 10 79 11 80 12 82 13 83 14 84 18 85 15 86
REMARK SMILES IDX 17 87 16 88 19 89 20 90 23 91 21 92 22 93
REMARK H PARENT 3 6 83 24 49 35 10 81
REMARK Flexibility Score: inf
ROOT
ATOM      1  C   UNL A   1      34.902  34.252  28.392  1.00  0.00     0.021 C 
ENDROOT
BRANCH   1   2
ATOM      2  C   UNL A   1      33.558  34.144  29.107  1.00  0.00     0.116 C 
BRANCH   2   3
ATOM      3  N   UNL A   1      33.621  34.371  30.535  1.00  0.00    -0.352 N 
ATOM      4  O   UNL A   1      34.275  34.578  32.632  1.00  0.00    -0.269 OA
ATOM      5  C   UNL A   1      34.554  34.146  31.510  1.00  0.00     0.251 C 
ATOM      6  H   UNL A   1      32.799  34.782  30.888  1.00  0.00     0.163 HD
BRANCH   5   7
ATOM      7  C   UNL A   1      35.821  33.387  31.328  1.00  0.00     0.039 A 
ATOM      8  C   UNL A   1      37.091  33.940  31.167  1.00  0.00     0.014 A 
ATOM      9  C   UNL A   1      35.696  31.983  31.339  1.00  0.00     0.014 A 
ATOM     10  C   UNL A   1      38.197  33.118  30.953  1.00  0.00     0.010 A 
ATOM     11  C   UNL A   1      36.799  31.158  31.142  1.00  0.00     0.010 A 
ATOM     12  C   UNL A   1      38.048  31.729  30.922  1.00  0.00    -0.014 A 
BRANCH  12  13
ATOM     13  C   UNL A   1      39.255  30.904  30.842  1.00  0.00     0.031 A 
ATOM     14  C   UNL A   1      39.959  30.704  32.147  1.00  0.00     0.074 A 
ATOM     15  C   UNL A   1      39.625  30.220  29.739  1.00  0.00     0.049 A 
ATOM     16  N   UNL A   1      41.179  31.001  32.466  1.00  0.00    -0.248 NA
ATOM     17  C   UNL A   1      39.159  30.194  33.276  1.00  0.00     0.031 C 
ATOM     18  C   UNL A   1      38.881  30.062  28.488  1.00  0.00     0.029 A 
ATOM     19  N   UNL A   1      40.716  29.425  29.545  1.00  0.00    -0.354 N 
ATOM     20  C   UNL A   1      41.360  30.539  33.770  1.00  0.00     0.074 A 
ATOM     21  C   UNL A   1      40.054  30.186  34.263  1.00  0.00     0.031 C 
ATOM     22  C   UNL A   1      39.427  29.057  27.766  1.00  0.00     0.029 A 
ATOM     23  C   UNL A   1      40.629  28.588  28.437  1.00  0.00     0.049 A 
ATOM     24  H   UNL A   1      41.501  29.441  30.140  1.00  0.00     0.167 HD
ATOM     25  C   UNL A   1      42.594  30.287  34.292  1.00  0.00     0.037 A 
ATOM     26  C   UNL A   1      41.445  27.546  28.132  1.00  0.00     0.037 A 
ATOM     27  C   UNL A   1      43.630  30.958  33.555  1.00  0.00     0.049 A 
ATOM     28  C   UNL A   1      42.709  27.735  28.891  1.00  0.00     0.074 A 
ATOM     29  C   UNL A   1      43.911  32.281  33.268  1.00  0.00     0.029 A 
ATOM     30  N   UNL A   1      44.384  30.223  32.675  1.00  0.00    -0.354 N 
ATOM     31  N   UNL A   1      43.557  28.701  28.674  1.00  0.00    -0.248 NA
ATOM     32  C   UNL A   1      42.815  27.093  30.192  1.00  0.00     0.031 C 
ATOM     33  C   UNL A   1      44.400  32.270  31.929  1.00  0.00     0.029 A 
ATOM     34  C   UNL A   1      44.445  30.940  31.507  1.00  0.00     0.049 A 
ATOM     35  H   UNL A   1      44.802  29.348  32.849  1.00  0.00     0.167 HD
ATOM     36  C   UNL A   1      44.002  29.073  29.933  1.00  0.00     0.074 A 
ATOM     37  C   UNL A   1      43.576  27.991  30.819  1.00  0.00     0.031 C 
ATOM     38  C   UNL A   1      44.434  30.342  30.190  1.00  0.00     0.037 A 
BRANCH  25  39
ATOM     39  C   UNL A   1      42.879  29.178  35.276  1.00  0.00     0.058 A 
ATOM     40  C   UNL A   1      43.588  29.449  36.464  1.00  0.00     0.135 A 
ATOM     41  C   UNL A   1      42.713  27.808  34.967  1.00  0.00     0.135 A 
ATOM     42  F   UNL A   1      43.828  30.714  36.844  1.00  0.00    -0.206 F 
ATOM     43  C   UNL A   1      44.129  28.435  37.260  1.00  0.00     0.059 A 
ATOM     44  C   UNL A   1      43.197  26.783  35.772  1.00  0.00     0.059 A 
ATOM     45  F   UNL A   1      42.156  27.403  33.818  1.00  0.00    -0.206 F 
ATOM     46  C   UNL A   1      43.935  27.106  36.898  1.00  0.00     0.060 A 
BRANCH  46  47
ATOM     47  S   UNL A   1      44.704  25.798  37.871  1.00  0.00     0.124 S 
ATOM     48  O   UNL A   1      44.128  24.605  37.262  1.00  0.00    -0.237 OA
ATOM     49  O   UNL A   1      46.123  26.025  37.618  1.00  0.00    -0.237 OA
ATOM     50  O   UNL A   1      44.263  26.089  39.232  1.00  0.00    -0.744 OA
ENDBRANCH  46  47
ENDBRANCH  25  39
BRANCH  26  51
ATOM     51  C   UNL A   1      41.080  26.236  27.521  1.00  0.00     0.058 A 
ATOM     52  C   UNL A   1      41.921  25.600  26.588  1.00  0.00     0.135 A 
ATOM     53  C   UNL A   1      40.043  25.446  28.055  1.00  0.00     0.135 A 
ATOM     54  F   UNL A   1      42.952  26.267  26.046  1.00  0.00    -0.206 F 
ATOM     55  C   UNL A   1      41.772  24.251  26.243  1.00  0.00     0.059 A 
ATOM     56  C   UNL A   1      39.868  24.103  27.720  1.00  0.00     0.059 A 
ATOM     57  F   UNL A   1      39.222  25.928  28.999  1.00  0.00    -0.206 F 
ATOM     58  C   UNL A   1      40.752  23.503  26.831  1.00  0.00     0.060 A 
BRANCH  58  59
ATOM     59  S   UNL A   1      40.660  21.723  26.530  1.00  0.00     0.124 S 
ATOM     60  O   UNL A   1      41.834  21.495  25.695  1.00  0.00    -0.237 OA
ATOM     61  O   UNL A   1      40.724  21.176  27.882  1.00  0.00    -0.237 OA
ATOM     62  O   UNL A   1      39.375  21.558  25.855  1.00  0.00    -0.744 OA
ENDBRANCH  58  59
ENDBRANCH  26  51
BRANCH  38  63
ATOM     63  C   UNL A   1      44.691  31.263  29.023  1.00  0.00     0.058 A 
ATOM     64  C   UNL A   1      43.765  32.196  28.522  1.00  0.00     0.135 A 
ATOM     65  C   UNL A   1      45.988  31.303  28.487  1.00  0.00     0.135 A 
ATOM     66  F   UNL A   1      42.538  32.299  29.048  1.00  0.00    -0.206 F 
ATOM     67  C   UNL A   1      44.100  33.096  27.509  1.00  0.00     0.059 A 
ATOM     68  C   UNL A   1      46.355  32.214  27.500  1.00  0.00     0.059 A 
ATOM     69  F   UNL A   1      46.939  30.481  28.963  1.00  0.00    -0.206 F 
ATOM     70  C   UNL A   1      45.400  33.100  27.005  1.00  0.00     0.060 A 
BRANCH  70  71
ATOM     71  S   UNL A   1      45.855  34.316  25.749  1.00  0.00     0.124 S 
ATOM     72  O   UNL A   1      47.284  34.075  25.590  1.00  0.00    -0.237 OA
ATOM     73  O   UNL A   1      45.017  33.934  24.616  1.00  0.00    -0.237 OA
ATOM     74  O   UNL A   1      45.503  35.593  26.368  1.00  0.00    -0.744 OA
ENDBRANCH  70  71
ENDBRANCH  38  63
ENDBRANCH  12  13
ENDBRANCH   5   7
ENDBRANCH   2   3
ENDBRANCH   1   2
BRANCH   1  75
ATOM     75  C   UNL A   1      35.424  32.942  27.787  1.00  0.00     0.002 C 
BRANCH  75  76
ATOM     76  C   UNL A   1      34.489  31.729  27.878  1.00  0.00     0.002 C 
BRANCH  76  77
ATOM     77  C   UNL A   1      35.140  30.348  27.726  1.00  0.00     0.021 C 
BRANCH  77  78
ATOM     78  C   UNL A   1      34.292  29.300  27.015  1.00  0.00     0.116 C 
BRANCH  78  79
ATOM     79  N   UNL A   1      33.142  28.873  27.797  1.00  0.00    -0.352 N 
ATOM     80  C   UNL A   1      31.959  28.298  27.383  1.00  0.00     0.253 C 
ATOM     81  H   UNL A   1      33.219  29.016  28.767  1.00  0.00     0.163 HD
ATOM     82  O   UNL A   1      31.091  28.018  28.186  1.00  0.00    -0.269 OA
BRANCH  80  83
ATOM     83  C   UNL A   1      31.717  28.057  25.940  1.00  0.00     0.065 A 
ATOM     84  C   UNL A   1      31.423  29.202  25.181  1.00  0.00     0.016 A 
ATOM     85  C   UNL A   1      31.848  26.815  25.303  1.00  0.00     0.079 A 
ATOM     86  C   UNL A   1      31.313  29.121  23.792  1.00  0.00     0.001 A 
ATOM     87  C   UNL A   1      31.787  26.753  23.899  1.00  0.00     0.029 A 
ATOM     88  C   UNL A   1      31.513  27.901  23.151  1.00  0.00     0.002 A 
BRANCH  85  89
ATOM     89  N   UNL A   1      32.056  25.610  26.014  1.00  0.00    -0.220 N 
ATOM     90  C   UNL A   1      33.157  24.789  26.056  1.00  0.00     0.137 A 
ATOM     91  N   UNL A   1      31.065  25.073  26.764  1.00  0.00    -0.062 NA
ATOM     92  C   UNL A   1      32.739  23.686  26.761  1.00  0.00     0.157 A 
ATOM     93  N   UNL A   1      31.453  23.871  27.167  1.00  0.00    -0.139 NA
ENDBRANCH  85  89
ENDBRANCH  80  83
ENDBRANCH  78  79
ENDBRANCH  77  78
ENDBRANCH  76  77
ENDBRANCH  75  76
ENDBRANCH   1  75
TORSDOF 17
ENDMDL
MODEL 3
REMARK VINA RESULT:     -11.4      1.642      2.652
REMARK SMILES O=C(NCCCCCCNC(=O)c1ccccc1-n1ccnn1)c1ccc(-c2c3nc(c(-c4c(F)cc(S(=O)(=O)[O-])cc4F)c4ccc([nH]4)c(-c4c(F)cc(S(=O)(=O)[O-])cc4F)c4nc(c(-c5c(F)cc(S(=O)(=O)[O-])cc5F)c5ccc2[nH]5)C=C4)C=C3)cc1
REMARK SMILES IDX 5 1 4 2 3 3 1 4 2 5 24 7 25 8 89 9 26 10 88 11 27 12 28 13
REMARK SMILES IDX 29 14 82 15 30 16 87 17 81 18 83 19 31 20 86 21 80 22 79 23
REMARK SMILES IDX 32 25 66 26 45 27 65 28 46 29 49 30 64 31 84 32 47 33 48 34
REMARK SMILES IDX 63 36 85 37 50 38 33 39 34 40 43 41 35 42 36 43 42 44 44 45
REMARK SMILES IDX 37 46 38 47 39 48 40 49 41 50 67 51 68 52 77 53 69 54 70 55
REMARK SMILES IDX 76 56 78 57 71 58 72 59 73 60 74 61 75 62 51 63 52 64 61 65
REMARK SMILES IDX 53 66 54 67 60 68 62 69 55 70 56 71 57 72 58 73 59 74 6 75
REMARK SMILES IDX 7 76 8 77 9 78 10 79 11 80 12 82 13 83 14 84 18 85 15 86
REMARK SMILES IDX 17 87 16 88 19 89 20 90 23 91 21 92 22 93
REMARK H PARENT 3 6 83 24 49 35 10 81
REMARK Flexibility Score: inf
ROOT
ATOM      1  C   UNL A   1      40.415  21.528  27.236  1.00  0.00     0.021 C 
ENDROOT
BRANCH   1   2
ATOM      2  C   UNL A   1      41.457  20.459  26.915  1.00  0.00     0.116 C 
BRANCH   2   3
ATOM      3  N   UNL A   1      42.409  20.841  25.894  1.00  0.00    -0.352 N 
ATOM      4  O   UNL A   1      43.920  21.890  24.676  1.00  0.00    -0.269 OA
ATOM      5  C   UNL A   1      43.100  21.982  25.594  1.00  0.00     0.251 C 
ATOM      6  H   UNL A   1      42.606  20.106  25.269  1.00  0.00     0.163 HD
BRANCH   5   7
ATOM      7  C   UNL A   1      42.894  23.306  26.241  1.00  0.00     0.039 A 
ATOM      8  C   UNL A   1      42.192  24.383  25.698  1.00  0.00     0.014 A 
ATOM      9  C   UNL A   1      43.456  23.450  27.525  1.00  0.00     0.014 A 
ATOM     10  C   UNL A   1      42.114  25.594  26.386  1.00  0.00     0.010 A 
ATOM     11  C   UNL A   1      43.367  24.651  28.223  1.00  0.00     0.010 A 
ATOM     12  C   UNL A   1      42.716  25.733  27.639  1.00  0.00    -0.014 A 
BRANCH  12  13
ATOM     13  C   UNL A   1      42.483  26.971  28.386  1.00  0.00     0.031 A 
ATOM     14  C   UNL A   1      43.584  27.978  28.282  1.00  0.00     0.074 A 
ATOM     15  C   UNL A   1      41.309  27.281  28.977  1.00  0.00     0.049 A 
ATOM     16  N   UNL A   1      44.290  28.510  29.227  1.00  0.00    -0.248 NA
ATOM     17  C   UNL A   1      44.021  28.364  26.928  1.00  0.00     0.031 C 
ATOM     18  C   UNL A   1      40.045  26.546  28.903  1.00  0.00     0.029 A 
ATOM     19  N   UNL A   1      40.973  28.392  29.692  1.00  0.00    -0.354 N 
ATOM     20  C   UNL A   1      45.124  29.442  28.609  1.00  0.00     0.074 A 
ATOM     21  C   UNL A   1      45.018  29.207  27.192  1.00  0.00     0.031 C 
ATOM     22  C   UNL A   1      39.041  27.336  29.351  1.00  0.00     0.029 A 
ATOM     23  C   UNL A   1      39.605  28.576  29.861  1.00  0.00     0.049 A 
ATOM     24  H   UNL A   1      41.644  29.013  30.060  1.00  0.00     0.167 HD
ATOM     25  C   UNL A   1      45.694  30.478  29.287  1.00  0.00     0.037 A 
ATOM     26  C   UNL A   1      38.979  29.691  30.321  1.00  0.00     0.037 A 
ATOM     27  C   UNL A   1      45.716  30.238  30.704  1.00  0.00     0.049 A 
ATOM     28  C   UNL A   1      39.989  30.492  31.061  1.00  0.00     0.074 A 
ATOM     29  C   UNL A   1      46.279  29.267  31.512  1.00  0.00     0.029 A 
ATOM     30  N   UNL A   1      44.784  30.872  31.487  1.00  0.00    -0.354 N 
ATOM     31  N   UNL A   1      40.545  30.119  32.180  1.00  0.00    -0.248 NA
ATOM     32  C   UNL A   1      40.703  31.521  30.321  1.00  0.00     0.031 C 
ATOM     33  C   UNL A   1      45.314  29.038  32.537  1.00  0.00     0.029 A 
ATOM     34  C   UNL A   1      44.256  29.923  32.325  1.00  0.00     0.049 A 
ATOM     35  H   UNL A   1      44.540  31.825  31.453  1.00  0.00     0.167 HD
ATOM     36  C   UNL A   1      41.863  30.536  32.076  1.00  0.00     0.074 A 
ATOM     37  C   UNL A   1      41.879  31.467  30.950  1.00  0.00     0.031 C 
ATOM     38  C   UNL A   1      42.869  29.887  32.734  1.00  0.00     0.037 A 
BRANCH  25  39
ATOM     39  C   UNL A   1      45.940  31.842  28.686  1.00  0.00     0.058 A 
ATOM     40  C   UNL A   1      44.869  32.584  28.149  1.00  0.00     0.135 A 
ATOM     41  C   UNL A   1      47.231  32.330  28.381  1.00  0.00     0.135 A 
ATOM     42  F   UNL A   1      43.599  32.198  28.354  1.00  0.00    -0.206 F 
ATOM     43  C   UNL A   1      45.068  33.701  27.333  1.00  0.00     0.059 A 
ATOM     44  C   UNL A   1      47.451  33.469  27.615  1.00  0.00     0.059 A 
ATOM     45  F   UNL A   1      48.341  31.668  28.732  1.00  0.00    -0.206 F 
ATOM     46  C   UNL A   1      46.365  34.128  27.064  1.00  0.00     0.060 A 
BRANCH  46  47
ATOM     47  S   UNL A   1      46.630  35.513  25.942  1.00  0.00     0.124 S 
ATOM     48  O   UNL A   1      45.633  36.466  26.415  1.00  0.00    -0.237 OA
ATOM     49  O   UNL A   1      48.023  35.858  26.210  1.00  0.00    -0.237 OA
ATOM     50  O   UNL A   1      46.377  34.933  24.627  1.00  0.00    -0.744 OA
ENDBRANCH  46  47
ENDBRANCH  25  39
BRANCH  26  51
ATOM     51  C   UNL A   1      37.684  30.274  29.871  1.00  0.00     0.058 A 
ATOM     52  C   UNL A   1      36.795  30.881  30.779  1.00  0.00     0.135 A 
ATOM     53  C   UNL A   1      37.424  30.507  28.506  1.00  0.00     0.135 A 
ATOM     54  F   UNL A   1      36.980  30.737  32.100  1.00  0.00    -0.206 F 
ATOM     55  C   UNL A   1      35.744  31.707  30.360  1.00  0.00     0.059 A 
ATOM     56  C   UNL A   1      36.377  31.316  28.064  1.00  0.00     0.059 A 
ATOM     57  F   UNL A   1      38.241  30.031  27.555  1.00  0.00    -0.206 F 
ATOM     58  C   UNL A   1      35.555  31.935  28.997  1.00  0.00     0.060 A 
BRANCH  58  59
ATOM     59  S   UNL A   1      34.317  33.136  28.455  1.00  0.00     0.124 S 
ATOM     60  O   UNL A   1      33.351  32.286  27.768  1.00  0.00    -0.237 OA
ATOM     61  O   UNL A   1      33.871  33.714  29.718  1.00  0.00    -0.237 OA
ATOM     62  O   UNL A   1      35.075  34.039  27.593  1.00  0.00    -0.744 OA
ENDBRANCH  58  59
ENDBRANCH  26  51
BRANCH  38  63
ATOM     63  C   UNL A   1      42.499  28.886  33.801  1.00  0.00     0.058 A 
ATOM     64  C   UNL A   1      42.329  27.508  33.578  1.00  0.00     0.135 A 
ATOM     65  C   UNL A   1      42.465  29.324  35.134  1.00  0.00     0.135 A 
ATOM     66  F   UNL A   1      42.451  26.987  32.350  1.00  0.00    -0.206 F 
ATOM     67  C   UNL A   1      42.094  26.615  34.626  1.00  0.00     0.059 A 
ATOM     68  C   UNL A   1      42.266  28.448  36.198  1.00  0.00     0.059 A 
ATOM     69  F   UNL A   1      42.682  30.619  35.423  1.00  0.00    -0.206 F 
ATOM     70  C   UNL A   1      42.067  27.094  35.935  1.00  0.00     0.060 A 
BRANCH  70  71
ATOM     71  S   UNL A   1      41.841  25.928  37.295  1.00  0.00     0.124 S 
ATOM     72  O   UNL A   1      40.445  26.147  37.660  1.00  0.00    -0.237 OA
ATOM     73  O   UNL A   1      42.137  24.644  36.668  1.00  0.00    -0.237 OA
ATOM     74  O   UNL A   1      42.820  26.366  38.288  1.00  0.00    -0.744 OA
ENDBRANCH  70  71
ENDBRANCH  38  63
ENDBRANCH  12  13
ENDBRANCH   5   7
ENDBRANCH   2   3
ENDBRANCH   1   2
BRANCH   1  75
ATOM     75  C   UNL A   1      39.401  21.804  26.117  1.00  0.00     0.002 C 
BRANCH  75  76
ATOM     76  C   UNL A   1      38.610  23.114  26.221  1.00  0.00     0.002 C 
BRANCH  76  77
ATOM     77  C   UNL A   1      37.245  23.148  25.524  1.00  0.00     0.021 C 
BRANCH  77  78
ATOM     78  C   UNL A   1      36.520  21.810  25.439  1.00  0.00     0.116 C 
BRANCH  78  79
ATOM     79  N   UNL A   1      35.604  21.588  26.548  1.00  0.00    -0.352 N 
ATOM     80  C   UNL A   1      34.226  21.564  26.562  1.00  0.00     0.253 C 
ATOM     81  H   UNL A   1      36.033  21.431  27.419  1.00  0.00     0.163 HD
ATOM     82  O   UNL A   1      33.618  21.377  27.597  1.00  0.00    -0.269 OA
BRANCH  80  83
ATOM     83  C   UNL A   1      33.468  21.812  25.312  1.00  0.00     0.065 A 
ATOM     84  C   UNL A   1      33.275  23.165  24.985  1.00  0.00     0.016 A 
ATOM     85  C   UNL A   1      33.029  20.815  24.429  1.00  0.00     0.079 A 
ATOM     86  C   UNL A   1      32.699  23.524  23.766  1.00  0.00     0.001 A 
ATOM     87  C   UNL A   1      32.496  21.187  23.181  1.00  0.00     0.029 A 
ATOM     88  C   UNL A   1      32.327  22.535  22.858  1.00  0.00     0.002 A 
BRANCH  85  89
ATOM     89  N   UNL A   1      33.111  19.436  24.734  1.00  0.00    -0.220 N 
ATOM     90  C   UNL A   1      34.059  18.508  24.374  1.00  0.00     0.137 A 
ATOM     91  N   UNL A   1      32.134  18.829  25.447  1.00  0.00    -0.062 NA
ATOM     92  C   UNL A   1      33.544  17.307  24.798  1.00  0.00     0.157 A 
ATOM     93  N   UNL A   1      32.359  17.522  25.432  1.00  0.00    -0.139 NA
ENDBRANCH  85  89
ENDBRANCH  80  83
ENDBRANCH  78  79
ENDBRANCH  77  78
ENDBRANCH  76  77
ENDBRANCH  75  76
ENDBRANCH   1  75
TORSDOF 17
ENDMDL
