MODEL 1
REMARK VINA RESULT:     -10.9      0.000      0.000
REMARK SMILES CCCCc1cc(S(F)(F)(F)(F)F)cc2c1O[C@@H](C(F)(F)F)C(C(=O)NCCCCCCNC(=O)c1ccc(-c3c4nc(c(-c5c(F)cc(S(=O)(=O)[O-])cc5F)c5ccc([nH]5)c(-c5c(F)cc(S(=O)(=O)[O-])cc5F)c5nc(c(-c6c(F)cc(S(=O)(=O)[O-])cc6F)c6ccc3[nH]6)C=C5)C=C4)cc1)=C2
REMARK SMILES IDX 29 1 28 2 27 3 26 4 24 5 25 6 23 8 5 9 6 10 16 11 7 12 15 13
REMARK SMILES IDX 17 14 14 15 102 16 18 17 4 18 3 19 2 20 1 21 8 22 9 23 10 24
REMARK SMILES IDX 11 25 12 26 13 27 19 28 20 29 21 30 22 31 30 32 31 33 32 34
REMARK SMILES IDX 33 35 34 36 35 38 36 39 37 40 101 41 38 42 100 43 39 44
REMARK SMILES IDX 40 45 41 46 94 47 42 48 99 49 93 50 95 51 43 52 98 53 92 54
REMARK SMILES IDX 91 55 44 57 78 58 57 59 77 60 58 61 61 62 76 63 96 64 59 65
REMARK SMILES IDX 60 66 75 68 97 69 62 70 45 71 46 72 55 73 47 74 48 75 54 76
REMARK SMILES IDX 56 77 49 78 50 79 51 80 52 81 53 82 79 83 80 84 89 85 81 86
REMARK SMILES IDX 82 87 88 88 90 89 83 90 84 91 85 92 86 93 87 94 63 95 64 96
REMARK SMILES IDX 73 97 65 98 66 99 72 100 74 101 67 102 68 103 69 104 70 105
REMARK SMILES IDX 71 106
REMARK H PARENT 26 7 33 37 95 56 61 67
REMARK Flexibility Score: inf
ROOT
ATOM      1  C   UNL A   1      35.042  30.962  27.476  1.00  0.00     0.002 C 
ENDROOT
BRANCH   1   2
ATOM      2  C   UNL A   1      35.195  29.471  27.726  1.00  0.00     0.021 C 
BRANCH   2   3
ATOM      3  C   UNL A   1      34.162  28.711  26.910  1.00  0.00     0.116 C 
BRANCH   3   4
ATOM      4  N   UNL A   1      33.955  29.391  25.623  1.00  0.00    -0.352 N 
ATOM      5  C   UNL A   1      33.560  28.617  24.438  1.00  0.00     0.251 C 
ATOM      6  O   UNL A   1      33.382  29.206  23.325  1.00  0.00    -0.270 OA
ATOM      7  H   UNL A   1      34.083  30.365  25.555  1.00  0.00     0.163 HD
BRANCH   5   8
ATOM      8  C   UNL A   1      33.363  27.114  24.542  1.00  0.00     0.067 C 
ATOM      9  C   UNL A   1      32.680  23.066  25.314  1.00  0.00    -0.004 A 
ATOM     10  C   UNL A   1      33.741  22.179  25.337  1.00  0.00     0.032 A 
ATOM     11  C   UNL A   1      32.939  24.400  25.111  1.00  0.00     0.131 A 
ATOM     12  C   UNL A   1      35.029  22.616  25.165  1.00  0.00     0.108 A 
ATOM     13  C   UNL A   1      34.223  24.875  24.916  1.00  0.00     0.019 A 
ATOM     14  O   UNL A   1      31.890  25.282  25.204  1.00  0.00    -0.475 OA
ATOM     15  C   UNL A   1      35.267  23.957  24.949  1.00  0.00     0.036 A 
ATOM     16  C   UNL A   1      34.397  26.308  24.749  1.00  0.00     0.025 C 
ATOM     17  C   UNL A   1      31.975  26.500  24.413  1.00  0.00     0.314 C 
BRANCH   9  18
ATOM     18  C   UNL A   1      31.255  22.575  25.510  1.00  0.00     0.039 C 
BRANCH  18  19
ATOM     19  C   UNL A   1      30.917  22.580  26.992  1.00  0.00     0.005 C 
BRANCH  19  20
ATOM     20  C   UNL A   1      29.433  22.854  27.173  1.00  0.00    -0.003 C 
ATOM     21  C   UNL A   1      29.146  24.316  26.871  1.00  0.00     0.004 C 
ENDBRANCH  19  20
ENDBRANCH  18  19
ENDBRANCH   9  18
BRANCH  12  22
ATOM     22  S   UNL A   1      36.405  21.442  25.223  1.00  0.00     0.310 S 
ATOM     23  F   UNL A   1      36.879  21.830  23.759  1.00  0.00    -0.094 F 
ATOM     24  F   UNL A   1      35.471  20.361  24.559  1.00  0.00    -0.094 F 
ATOM     25  F   UNL A   1      37.586  20.433  25.272  1.00  0.00    -0.094 F 
ATOM     26  F   UNL A   1      37.364  22.579  25.756  1.00  0.00    -0.094 F 
ATOM     27  F   UNL A   1      35.248  22.510  25.074  1.00  0.00    -0.094 F 
ENDBRANCH  12  22
BRANCH  17  28
ATOM     28  C   UNL A   1      30.944  27.494  24.922  1.00  0.00     0.429 C 
ATOM     29  F   UNL A   1      31.265  27.873  26.156  1.00  0.00    -0.167 F 
ATOM     30  F   UNL A   1      30.923  28.557  24.124  1.00  0.00    -0.167 F 
ATOM     31  F   UNL A   1      29.744  26.922  24.931  1.00  0.00    -0.167 F 
ENDBRANCH  17  28
ENDBRANCH   5   8
ENDBRANCH   3   4
ENDBRANCH   2   3
ENDBRANCH   1   2
BRANCH   1  32
ATOM     32  C   UNL A   1      34.041  31.541  28.462  1.00  0.00     0.002 C 
BRANCH  32  33
ATOM     33  C   UNL A   1      33.039  32.408  27.717  1.00  0.00     0.021 C 
BRANCH  33  34
ATOM     34  C   UNL A   1      33.626  33.794  27.505  1.00  0.00     0.116 C 
BRANCH  34  35
ATOM     35  N   UNL A   1      32.809  34.786  28.220  1.00  0.00    -0.352 N 
ATOM     36  C   UNL A   1      33.148  35.159  29.600  1.00  0.00     0.251 C 
ATOM     37  H   UNL A   1      32.036  35.200  27.773  1.00  0.00     0.163 HD
ATOM     38  O   UNL A   1      32.442  36.016  30.217  1.00  0.00    -0.269 OA
BRANCH  36  39
ATOM     39  C   UNL A   1      34.342  34.520  30.289  1.00  0.00     0.039 A 
ATOM     40  C   UNL A   1      35.609  34.704  29.761  1.00  0.00     0.014 A 
ATOM     41  C   UNL A   1      34.151  33.796  31.385  1.00  0.00     0.014 A 
ATOM     42  C   UNL A   1      36.588  33.837  30.302  1.00  0.00     0.010 A 
ATOM     43  C   UNL A   1      35.186  33.081  31.940  1.00  0.00     0.010 A 
ATOM     44  C   UNL A   1      36.453  33.169  31.434  1.00  0.00    -0.014 A 
BRANCH  44  45
ATOM     45  C   UNL A   1      37.641  32.532  32.134  1.00  0.00     0.031 A 
ATOM     46  C   UNL A   1      38.039  33.032  33.375  1.00  0.00     0.074 A 
ATOM     47  C   UNL A   1      38.265  31.476  31.490  1.00  0.00     0.049 A 
ATOM     48  N   UNL A   1      39.024  32.586  34.155  1.00  0.00    -0.248 NA
ATOM     49  C   UNL A   1      37.400  34.176  34.044  1.00  0.00     0.031 C 
ATOM     50  C   UNL A   1      37.866  30.959  30.242  1.00  0.00     0.029 A 
ATOM     51  N   UNL A   1      39.352  30.748  31.919  1.00  0.00    -0.354 N 
ATOM     52  C   UNL A   1      39.088  33.308  35.276  1.00  0.00     0.074 A 
ATOM     53  C   UNL A   1      38.049  34.345  35.218  1.00  0.00     0.031 C 
ATOM     54  C   UNL A   1      38.707  29.942  29.918  1.00  0.00     0.029 A 
ATOM     55  C   UNL A   1      39.646  29.806  30.958  1.00  0.00     0.049 A 
ATOM     56  H   UNL A   1      39.835  30.878  32.767  1.00  0.00     0.167 HD
ATOM     57  C   UNL A   1      39.970  33.142  36.344  1.00  0.00     0.037 A 
ATOM     58  C   UNL A   1      40.670  28.874  30.969  1.00  0.00     0.037 A 
ATOM     59  C   UNL A   1      40.969  32.181  36.374  1.00  0.00     0.049 A 
ATOM     60  C   UNL A   1      41.591  28.745  32.012  1.00  0.00     0.074 A 
ATOM     61  C   UNL A   1      41.861  31.995  37.447  1.00  0.00     0.029 A 
ATOM     62  N   UNL A   1      41.277  31.256  35.401  1.00  0.00    -0.354 N 
ATOM     63  N   UNL A   1      41.630  29.441  33.149  1.00  0.00    -0.248 NA
ATOM     64  C   UNL A   1      42.700  27.782  32.019  1.00  0.00     0.031 C 
ATOM     65  C   UNL A   1      42.704  30.978  37.122  1.00  0.00     0.029 A 
ATOM     66  C   UNL A   1      42.351  30.513  35.841  1.00  0.00     0.049 A 
ATOM     67  H   UNL A   1      40.811  31.145  34.542  1.00  0.00     0.167 HD
ATOM     68  C   UNL A   1      42.642  29.021  33.911  1.00  0.00     0.074 A 
ATOM     69  C   UNL A   1      43.350  27.952  33.192  1.00  0.00     0.031 C 
ATOM     70  C   UNL A   1      43.001  29.484  35.178  1.00  0.00     0.037 A 
BRANCH  57  71
ATOM     71  C   UNL A   1      39.829  34.067  37.541  1.00  0.00     0.058 A 
ATOM     72  C   UNL A   1      40.533  35.260  37.565  1.00  0.00     0.135 A 
ATOM     73  C   UNL A   1      39.034  33.717  38.546  1.00  0.00     0.135 A 
ATOM     74  F   UNL A   1      41.135  35.769  36.494  1.00  0.00    -0.206 F 
ATOM     75  C   UNL A   1      40.555  35.887  38.834  1.00  0.00     0.059 A 
ATOM     76  C   UNL A   1      39.004  34.454  39.704  1.00  0.00     0.059 A 
ATOM     77  F   UNL A   1      38.257  32.643  38.427  1.00  0.00    -0.206 F 
ATOM     78  C   UNL A   1      39.721  35.612  39.820  1.00  0.00     0.060 A 
BRANCH  78  79
ATOM     79  S   UNL A   1      39.537  36.710  41.247  1.00  0.00     0.124 S 
ATOM     80  O   UNL A   1      38.600  36.065  42.271  1.00  0.00    -0.237 OA
ATOM     81  O   UNL A   1      40.907  36.949  41.887  1.00  0.00    -0.237 OA
ATOM     82  O   UNL A   1      38.880  38.204  40.735  1.00  0.00    -0.744 OA
ENDBRANCH  78  79
ENDBRANCH  57  71
BRANCH  58  83
ATOM     83  C   UNL A   1      40.801  27.937  29.779  1.00  0.00     0.058 A 
ATOM     84  C   UNL A   1      39.956  26.845  29.678  1.00  0.00     0.135 A 
ATOM     85  C   UNL A   1      41.724  28.183  28.856  1.00  0.00     0.135 A 
ATOM     86  F   UNL A   1      38.867  26.699  30.426  1.00  0.00    -0.206 F 
ATOM     87  C   UNL A   1      40.357  25.899  28.705  1.00  0.00     0.059 A 
ATOM     88  C   UNL A   1      41.970  27.275  27.853  1.00  0.00     0.059 A 
ATOM     89  F   UNL A   1      42.417  29.317  28.901  1.00  0.00    -0.206 F 
ATOM     90  C   UNL A   1      41.212  26.144  27.728  1.00  0.00     0.060 A 
BRANCH  90  91
ATOM     91  S   UNL A   1      41.372  25.041  26.301  1.00  0.00     0.124 S 
ATOM     92  O   UNL A   1      40.126  24.159  26.196  1.00  0.00    -0.237 OA
ATOM     93  O   UNL A   1      41.516  25.876  25.026  1.00  0.00    -0.237 OA
ATOM     94  O   UNL A   1      42.755  24.055  26.496  1.00  0.00    -0.744 OA
ENDBRANCH  90  91
ENDBRANCH  58  83
BRANCH  70  95
ATOM     95  C   UNL A   1      44.178  28.818  35.873  1.00  0.00     0.058 A 
ATOM     96  C   UNL A   1      43.948  27.727  36.697  1.00  0.00     0.135 A 
ATOM     97  C   UNL A   1      45.403  29.293  35.685  1.00  0.00     0.135 A 
ATOM     98  F   UNL A   1      42.795  27.066  36.718  1.00  0.00    -0.206 F 
ATOM     99  C   UNL A   1      45.052  27.380  37.510  1.00  0.00     0.059 A 
ATOM    100  C   UNL A   1      46.460  28.812  36.419  1.00  0.00     0.059 A 
ATOM    101  F   UNL A   1      45.610  30.241  34.775  1.00  0.00    -0.206 F 
ATOM    102  C   UNL A   1      46.294  27.774  37.295  1.00  0.00     0.060 A 
BRANCH 102 103
ATOM    103  S   UNL A   1      47.701  26.984  38.114  1.00  0.00     0.124 S 
ATOM    104  O   UNL A   1      48.029  27.738  39.406  1.00  0.00    -0.237 OA
ATOM    105  O   UNL A   1      47.348  25.532  38.447  1.00  0.00    -0.237 OA
ATOM    106  O   UNL A   1      49.059  27.017  37.075  1.00  0.00    -0.744 OA
ENDBRANCH 102 103
ENDBRANCH  70  95
ENDBRANCH  44  45
ENDBRANCH  36  39
ENDBRANCH  34  35
ENDBRANCH  33  34
ENDBRANCH  32  33
ENDBRANCH   1  32
TORSDOF 21
ENDMDL
MODEL 2
REMARK VINA RESULT:     -10.9      5.888     10.428
REMARK SMILES CCCCc1cc(S(F)(F)(F)(F)F)cc2c1O[C@@H](C(F)(F)F)C(C(=O)NCCCCCCNC(=O)c1ccc(-c3c4nc(c(-c5c(F)cc(S(=O)(=O)[O-])cc5F)c5ccc([nH]5)c(-c5c(F)cc(S(=O)(=O)[O-])cc5F)c5nc(c(-c6c(F)cc(S(=O)(=O)[O-])cc6F)c6ccc3[nH]6)C=C5)C=C4)cc1)=C2
REMARK SMILES IDX 29 1 28 2 27 3 26 4 24 5 25 6 23 8 5 9 6 10 16 11 7 12 15 13
REMARK SMILES IDX 17 14 14 15 102 16 18 17 4 18 3 19 2 20 1 21 8 22 9 23 10 24
REMARK SMILES IDX 11 25 12 26 13 27 19 28 20 29 21 30 22 31 30 32 31 33 32 34
REMARK SMILES IDX 33 35 34 36 35 38 36 39 37 40 101 41 38 42 100 43 39 44
REMARK SMILES IDX 40 45 41 46 94 47 42 48 99 49 93 50 95 51 43 52 98 53 92 54
REMARK SMILES IDX 91 55 44 57 78 58 57 59 77 60 58 61 61 62 76 63 96 64 59 65
REMARK SMILES IDX 60 66 75 68 97 69 62 70 45 71 46 72 55 73 47 74 48 75 54 76
REMARK SMILES IDX 56 77 49 78 50 79 51 80 52 81 53 82 79 83 80 84 89 85 81 86
REMARK SMILES IDX 82 87 88 88 90 89 83 90 84 91 85 92 86 93 87 94 63 95 64 96
REMARK SMILES IDX 73 97 65 98 66 99 72 100 74 101 67 102 68 103 69 104 70 105
REMARK SMILES IDX 71 106
REMARK H PARENT 26 7 33 37 95 56 61 67
REMARK Flexibility Score: inf
ROOT
ATOM      1  C   UNL A   1      35.325  31.566  28.216  1.00  0.00     0.002 C 
ENDROOT
BRANCH   1   2
ATOM      2  C   UNL A   1      35.755  30.436  27.296  1.00  0.00     0.021 C 
BRANCH   2   3
ATOM      3  C   UNL A   1      34.982  29.175  27.646  1.00  0.00     0.116 C 
BRANCH   3   4
ATOM      4  N   UNL A   1      33.564  29.509  27.848  1.00  0.00    -0.352 N 
ATOM      5  C   UNL A   1      32.520  28.709  27.192  1.00  0.00     0.251 C 
ATOM      6  O   UNL A   1      31.295  28.998  27.366  1.00  0.00    -0.270 OA
ATOM      7  H   UNL A   1      33.314  30.269  28.421  1.00  0.00     0.163 HD
BRANCH   5   8
ATOM      8  C   UNL A   1      32.905  27.535  26.306  1.00  0.00     0.067 C 
ATOM      9  C   UNL A   1      33.515  24.378  23.639  1.00  0.00    -0.004 A 
ATOM     10  C   UNL A   1      33.552  23.077  24.107  1.00  0.00     0.032 A 
ATOM     11  C   UNL A   1      33.260  25.393  24.531  1.00  0.00     0.131 A 
ATOM     12  C   UNL A   1      33.334  22.798  25.431  1.00  0.00     0.108 A 
ATOM     13  C   UNL A   1      33.054  25.151  25.876  1.00  0.00     0.019 A 
ATOM     14  O   UNL A   1      33.114  26.665  24.033  1.00  0.00    -0.475 OA
ATOM     15  C   UNL A   1      33.093  23.831  26.312  1.00  0.00     0.036 A 
ATOM     16  C   UNL A   1      32.752  26.287  26.730  1.00  0.00     0.025 C 
ATOM     17  C   UNL A   1      33.476  27.766  24.913  1.00  0.00     0.314 C 
BRANCH   9  18
ATOM     18  C   UNL A   1      33.753  24.680  22.169  1.00  0.00     0.039 C 
BRANCH  18  19
ATOM     19  C   UNL A   1      32.416  24.835  21.462  1.00  0.00     0.005 C 
BRANCH  19  20
ATOM     20  C   UNL A   1      32.510  25.955  20.439  1.00  0.00    -0.003 C 
ATOM     21  C   UNL A   1      32.384  25.377  19.039  1.00  0.00     0.004 C 
ENDBRANCH  19  20
ENDBRANCH  18  19
ENDBRANCH   9  18
BRANCH  12  22
ATOM     22  S   UNL A   1      33.363  21.086  26.018  1.00  0.00     0.310 S 
ATOM     23  F   UNL A   1      33.753  20.535  24.583  1.00  0.00    -0.094 F 
ATOM     24  F   UNL A   1      31.854  20.944  25.587  1.00  0.00    -0.094 F 
ATOM     25  F   UNL A   1      33.386  19.616  26.523  1.00  0.00    -0.094 F 
ATOM     26  F   UNL A   1      34.911  21.203  26.313  1.00  0.00    -0.094 F 
ATOM     27  F   UNL A   1      33.385  22.544  25.406  1.00  0.00    -0.094 F 
ENDBRANCH  12  22
BRANCH  17  28
ATOM     28  C   UNL A   1      32.905  29.058  24.351  1.00  0.00     0.429 C 
ATOM     29  F   UNL A   1      31.577  29.031  24.439  1.00  0.00    -0.167 F 
ATOM     30  F   UNL A   1      33.373  30.089  25.047  1.00  0.00    -0.167 F 
ATOM     31  F   UNL A   1      33.263  29.184  23.077  1.00  0.00    -0.167 F 
ENDBRANCH  17  28
ENDBRANCH   5   8
ENDBRANCH   3   4
ENDBRANCH   2   3
ENDBRANCH   1   2
BRANCH   1  32
ATOM     32  C   UNL A   1      36.327  32.706  28.121  1.00  0.00     0.002 C 
BRANCH  32  33
ATOM     33  C   UNL A   1      36.206  33.590  29.351  1.00  0.00     0.021 C 
BRANCH  33  34
ATOM     34  C   UNL A   1      37.096  33.045  30.457  1.00  0.00     0.116 C 
BRANCH  34  35
ATOM     35  N   UNL A   1      36.330  32.096  31.278  1.00  0.00    -0.352 N 
ATOM     36  C   UNL A   1      36.867  30.753  31.541  1.00  0.00     0.251 C 
ATOM     37  H   UNL A   1      35.458  32.360  31.651  1.00  0.00     0.163 HD
ATOM     38  O   UNL A   1      36.205  29.933  32.252  1.00  0.00    -0.269 OA
BRANCH  36  39
ATOM     39  C   UNL A   1      38.213  30.346  30.965  1.00  0.00     0.039 A 
ATOM     40  C   UNL A   1      39.289  30.166  31.818  1.00  0.00     0.014 A 
ATOM     41  C   UNL A   1      38.335  30.171  29.655  1.00  0.00     0.014 A 
ATOM     42  C   UNL A   1      40.537  30.080  31.156  1.00  0.00     0.010 A 
ATOM     43  C   UNL A   1      39.569  29.955  29.090  1.00  0.00     0.010 A 
ATOM     44  C   UNL A   1      40.686  29.825  29.869  1.00  0.00    -0.014 A 
BRANCH  44  45
ATOM     45  C   UNL A   1      42.026  29.411  29.284  1.00  0.00     0.031 A 
ATOM     46  C   UNL A   1      42.195  28.092  28.857  1.00  0.00     0.074 A 
ATOM     47  C   UNL A   1      43.010  30.382  29.205  1.00  0.00     0.049 A 
ATOM     48  N   UNL A   1      43.274  27.554  28.287  1.00  0.00    -0.248 NA
ATOM     49  C   UNL A   1      41.163  27.051  28.972  1.00  0.00     0.031 C 
ATOM     50  C   UNL A   1      42.845  31.716  29.625  1.00  0.00     0.029 A 
ATOM     51  N   UNL A   1      44.292  30.248  28.722  1.00  0.00    -0.354 N 
ATOM     52  C   UNL A   1      43.051  26.269  28.001  1.00  0.00     0.074 A 
ATOM     53  C   UNL A   1      41.693  25.926  28.442  1.00  0.00     0.031 C 
ATOM     54  C   UNL A   1      44.014  32.374  29.409  1.00  0.00     0.029 A 
ATOM     55  C   UNL A   1      44.930  31.462  28.850  1.00  0.00     0.049 A 
ATOM     56  H   UNL A   1      44.686  29.426  28.348  1.00  0.00     0.167 HD
ATOM     57  C   UNL A   1      43.925  25.372  27.387  1.00  0.00     0.037 A 
ATOM     58  C   UNL A   1      46.234  31.777  28.506  1.00  0.00     0.037 A 
ATOM     59  C   UNL A   1      45.217  25.698  27.003  1.00  0.00     0.049 A 
ATOM     60  C   UNL A   1      47.130  30.863  27.945  1.00  0.00     0.074 A 
ATOM     61  C   UNL A   1      46.109  24.807  26.376  1.00  0.00     0.029 A 
ATOM     62  N   UNL A   1      45.862  26.906  27.154  1.00  0.00    -0.354 N 
ATOM     63  N   UNL A   1      46.894  29.590  27.622  1.00  0.00    -0.248 NA
ATOM     64  C   UNL A   1      48.525  31.176  27.606  1.00  0.00     0.031 C 
ATOM     65  C   UNL A   1      47.280  25.466  26.160  1.00  0.00     0.029 A 
ATOM     66  C   UNL A   1      47.137  26.778  26.650  1.00  0.00     0.049 A 
ATOM     67  H   UNL A   1      45.477  27.719  27.553  1.00  0.00     0.167 HD
ATOM     68  C   UNL A   1      47.987  29.041  27.090  1.00  0.00     0.074 A 
ATOM     69  C   UNL A   1      49.055  30.051  27.078  1.00  0.00     0.031 C 
ATOM     70  C   UNL A   1      48.136  27.738  26.610  1.00  0.00     0.037 A 
BRANCH  57  71
ATOM     71  C   UNL A   1      43.435  23.958  27.124  1.00  0.00     0.058 A 
ATOM     72  C   UNL A   1      42.866  23.653  25.898  1.00  0.00     0.135 A 
ATOM     73  C   UNL A   1      43.561  23.037  28.073  1.00  0.00     0.135 A 
ATOM     74  F   UNL A   1      42.945  24.456  24.842  1.00  0.00    -0.206 F 
ATOM     75  C   UNL A   1      42.191  22.409  25.874  1.00  0.00     0.059 A 
ATOM     76  C   UNL A   1      42.992  21.796  27.923  1.00  0.00     0.059 A 
ATOM     77  F   UNL A   1      44.246  23.320  29.178  1.00  0.00    -0.206 F 
ATOM     78  C   UNL A   1      42.362  21.446  26.762  1.00  0.00     0.060 A 
BRANCH  78  79
ATOM     79  S   UNL A   1      41.791  19.757  26.457  1.00  0.00     0.124 S 
ATOM     80  O   UNL A   1      40.270  19.754  26.284  1.00  0.00    -0.237 OA
ATOM     81  O   UNL A   1      42.450  19.217  25.185  1.00  0.00    -0.237 OA
ATOM     82  O   UNL A   1      42.215  18.764  27.783  1.00  0.00    -0.744 OA
ENDBRANCH  78  79
ENDBRANCH  57  71
BRANCH  58  83
ATOM     83  C   UNL A   1      46.719  33.196  28.753  1.00  0.00     0.058 A 
ATOM     84  C   UNL A   1      47.300  33.514  29.969  1.00  0.00     0.135 A 
ATOM     85  C   UNL A   1      46.577  34.108  27.797  1.00  0.00     0.135 A 
ATOM     86  F   UNL A   1      47.691  32.596  30.848  1.00  0.00    -0.206 F 
ATOM     87  C   UNL A   1      47.440  34.904  30.191  1.00  0.00     0.059 A 
ATOM     88  C   UNL A   1      46.863  35.430  28.044  1.00  0.00     0.059 A 
ATOM     89  F   UNL A   1      46.156  33.739  26.591  1.00  0.00    -0.206 F 
ATOM     90  C   UNL A   1      47.384  35.824  29.245  1.00  0.00     0.060 A 
BRANCH  90  91
ATOM     91  S   UNL A   1      47.965  37.516  29.523  1.00  0.00     0.124 S 
ATOM     92  O   UNL A   1      48.224  38.195  28.176  1.00  0.00    -0.237 OA
ATOM     93  O   UNL A   1      46.901  38.300  30.294  1.00  0.00    -0.237 OA
ATOM     94  O   UNL A   1      49.415  37.478  30.430  1.00  0.00    -0.744 OA
ENDBRANCH  90  91
ENDBRANCH  58  83
BRANCH  70  95
ATOM     95  C   UNL A   1      49.477  27.349  26.006  1.00  0.00     0.058 A 
ATOM     96  C   UNL A   1      49.637  27.396  24.631  1.00  0.00     0.135 A 
ATOM     97  C   UNL A   1      50.467  26.969  26.804  1.00  0.00     0.135 A 
ATOM     98  F   UNL A   1      48.775  28.002  23.820  1.00  0.00    -0.206 F 
ATOM     99  C   UNL A   1      50.803  26.741  24.168  1.00  0.00     0.059 A 
ATOM    100  C   UNL A   1      51.633  26.465  26.279  1.00  0.00     0.059 A 
ATOM    101  F   UNL A   1      50.332  27.078  28.123  1.00  0.00    -0.206 F 
ATOM    102  C   UNL A   1      51.837  26.426  24.927  1.00  0.00     0.060 A 
BRANCH 102 103
ATOM    103  S   UNL A   1      53.437  25.967  24.217  1.00  0.00     0.124 S 
ATOM    104  O   UNL A   1      53.814  24.556  24.678  1.00  0.00    -0.237 OA
ATOM    105  O   UNL A   1      53.344  25.996  22.689  1.00  0.00    -0.237 OA
ATOM    106  O   UNL A   1      54.630  27.075  24.738  1.00  0.00    -0.744 OA
ENDBRANCH 102 103
ENDBRANCH  70  95
ENDBRANCH  44  45
ENDBRANCH  36  39
ENDBRANCH  34  35
ENDBRANCH  33  34
ENDBRANCH  32  33
ENDBRANCH   1  32
TORSDOF 21
ENDMDL
MODEL 3
REMARK VINA RESULT:     -10.5      1.762      2.650
REMARK SMILES CCCCc1cc(S(F)(F)(F)(F)F)cc2c1O[C@@H](C(F)(F)F)C(C(=O)NCCCCCCNC(=O)c1ccc(-c3c4nc(c(-c5c(F)cc(S(=O)(=O)[O-])cc5F)c5ccc([nH]5)c(-c5c(F)cc(S(=O)(=O)[O-])cc5F)c5nc(c(-c6c(F)cc(S(=O)(=O)[O-])cc6F)c6ccc3[nH]6)C=C5)C=C4)cc1)=C2
REMARK SMILES IDX 29 1 28 2 27 3 26 4 24 5 25 6 23 8 5 9 6 10 16 11 7 12 15 13
REMARK SMILES IDX 17 14 14 15 102 16 18 17 4 18 3 19 2 20 1 21 8 22 9 23 10 24
REMARK SMILES IDX 11 25 12 26 13 27 19 28 20 29 21 30 22 31 30 32 31 33 32 34
REMARK SMILES IDX 33 35 34 36 35 38 36 39 37 40 101 41 38 42 100 43 39 44
REMARK SMILES IDX 40 45 41 46 94 47 42 48 99 49 93 50 95 51 43 52 98 53 92 54
REMARK SMILES IDX 91 55 44 57 78 58 57 59 77 60 58 61 61 62 76 63 96 64 59 65
REMARK SMILES IDX 60 66 75 68 97 69 62 70 45 71 46 72 55 73 47 74 48 75 54 76
REMARK SMILES IDX 56 77 49 78 50 79 51 80 52 81 53 82 79 83 80 84 89 85 81 86
REMARK SMILES IDX 82 87 88 88 90 89 83 90 84 91 85 92 86 93 87 94 63 95 64 96
REMARK SMILES IDX 73 97 65 98 66 99 72 100 74 101 67 102 68 103 69 104 70 105
REMARK SMILES IDX 71 106
REMARK H PARENT 26 7 33 37 95 56 61 67
REMARK Flexibility Score: inf
ROOT
ATOM      1  C   UNL A   1      35.289  31.262  29.029  1.00  0.00     0.002 C 
ENDROOT
BRANCH   1   2
ATOM      2  C   UNL A   1      36.021  30.480  27.952  1.00  0.00     0.021 C 
BRANCH   2   3
ATOM      3  C   UNL A   1      35.147  29.331  27.476  1.00  0.00     0.116 C 
BRANCH   3   4
ATOM      4  N   UNL A   1      33.734  29.663  27.703  1.00  0.00    -0.352 N 
ATOM      5  C   UNL A   1      32.678  28.835  27.103  1.00  0.00     0.251 C 
ATOM      6  O   UNL A   1      31.456  29.122  27.300  1.00  0.00    -0.270 OA
ATOM      7  H   UNL A   1      33.494  30.441  28.257  1.00  0.00     0.163 HD
BRANCH   5   8
ATOM      8  C   UNL A   1      33.048  27.634  26.249  1.00  0.00     0.067 C 
ATOM      9  C   UNL A   1      33.617  24.401  23.666  1.00  0.00    -0.004 A 
ATOM     10  C   UNL A   1      33.635  23.112  24.167  1.00  0.00     0.032 A 
ATOM     11  C   UNL A   1      33.374  25.441  24.530  1.00  0.00     0.131 A 
ATOM     12  C   UNL A   1      33.412  22.870  25.498  1.00  0.00     0.108 A 
ATOM     13  C   UNL A   1      33.163  25.237  25.881  1.00  0.00     0.019 A 
ATOM     14  O   UNL A   1      33.247  26.702  24.000  1.00  0.00    -0.475 OA
ATOM     15  C   UNL A   1      33.184  23.929  26.351  1.00  0.00     0.036 A 
ATOM     16  C   UNL A   1      32.876  26.399  26.705  1.00  0.00     0.025 C 
ATOM     17  C   UNL A   1      33.623  27.820  24.851  1.00  0.00     0.314 C 
BRANCH   9  18
ATOM     18  C   UNL A   1      33.859  24.661  22.188  1.00  0.00     0.039 C 
BRANCH  18  19
ATOM     19  C   UNL A   1      32.545  24.555  21.433  1.00  0.00     0.005 C 
BRANCH  19  20
ATOM     20  C   UNL A   1      32.332  25.813  20.607  1.00  0.00    -0.003 C 
ATOM     21  C   UNL A   1      32.498  25.486  19.131  1.00  0.00     0.004 C 
ENDBRANCH  19  20
ENDBRANCH  18  19
ENDBRANCH   9  18
BRANCH  12  22
ATOM     22  S   UNL A   1      33.416  21.174  26.129  1.00  0.00     0.310 S 
ATOM     23  F   UNL A   1      33.928  20.593  24.744  1.00  0.00    -0.094 F 
ATOM     24  F   UNL A   1      31.949  20.998  25.581  1.00  0.00    -0.094 F 
ATOM     25  F   UNL A   1      33.419  19.716  26.671  1.00  0.00    -0.094 F 
ATOM     26  F   UNL A   1      34.933  21.322  26.544  1.00  0.00    -0.094 F 
ATOM     27  F   UNL A   1      33.467  22.616  25.483  1.00  0.00    -0.094 F 
ENDBRANCH  12  22
BRANCH  17  28
ATOM     28  C   UNL A   1      33.070  29.105  24.255  1.00  0.00     0.429 C 
ATOM     29  F   UNL A   1      33.402  30.133  25.033  1.00  0.00    -0.167 F 
ATOM     30  F   UNL A   1      33.581  29.285  23.041  1.00  0.00    -0.167 F 
ATOM     31  F   UNL A   1      31.746  29.021  24.172  1.00  0.00    -0.167 F 
ENDBRANCH  17  28
ENDBRANCH   5   8
ENDBRANCH   3   4
ENDBRANCH   2   3
ENDBRANCH   1   2
BRANCH   1  32
ATOM     32  C   UNL A   1      35.373  32.748  28.722  1.00  0.00     0.002 C 
BRANCH  32  33
ATOM     33  C   UNL A   1      33.971  33.306  28.534  1.00  0.00     0.021 C 
BRANCH  33  34
ATOM     34  C   UNL A   1      33.972  34.794  28.842  1.00  0.00     0.116 C 
BRANCH  34  35
ATOM     35  N   UNL A   1      32.864  35.106  29.757  1.00  0.00    -0.352 N 
ATOM     36  C   UNL A   1      33.024  34.892  31.202  1.00  0.00     0.251 C 
ATOM     37  H   UNL A   1      32.016  35.458  29.401  1.00  0.00     0.163 HD
ATOM     38  O   UNL A   1      32.066  35.161  31.993  1.00  0.00    -0.269 OA
BRANCH  36  39
ATOM     39  C   UNL A   1      34.333  34.349  31.751  1.00  0.00     0.039 A 
ATOM     40  C   UNL A   1      35.462  35.151  31.729  1.00  0.00     0.014 A 
ATOM     41  C   UNL A   1      34.372  33.116  32.241  1.00  0.00     0.014 A 
ATOM     42  C   UNL A   1      36.666  34.452  31.986  1.00  0.00     0.010 A 
ATOM     43  C   UNL A   1      35.569  32.545  32.601  1.00  0.00     0.010 A 
ATOM     44  C   UNL A   1      36.734  33.260  32.548  1.00  0.00    -0.014 A 
BRANCH  44  45
ATOM     45  C   UNL A   1      38.037  32.710  33.106  1.00  0.00     0.031 A 
ATOM     46  C   UNL A   1      38.409  33.053  34.406  1.00  0.00     0.074 A 
ATOM     47  C   UNL A   1      38.783  31.889  32.278  1.00  0.00     0.049 A 
ATOM     48  N   UNL A   1      39.486  32.644  35.079  1.00  0.00    -0.248 NA
ATOM     49  C   UNL A   1      37.636  33.953  35.274  1.00  0.00     0.031 C 
ATOM     50  C   UNL A   1      38.411  31.530  30.968  1.00  0.00     0.029 A 
ATOM     51  N   UNL A   1      39.987  31.280  32.554  1.00  0.00    -0.354 N 
ATOM     52  C   UNL A   1      39.491  33.170  36.306  1.00  0.00     0.074 A 
ATOM     53  C   UNL A   1      38.304  34.024  36.447  1.00  0.00     0.031 C 
ATOM     54  C   UNL A   1      39.382  30.728  30.457  1.00  0.00     0.029 A 
ATOM     55  C   UNL A   1      40.377  30.570  31.440  1.00  0.00     0.049 A 
ATOM     56  H   UNL A   1      40.484  31.341  33.403  1.00  0.00     0.167 HD
ATOM     57  C   UNL A   1      40.436  32.970  37.312  1.00  0.00     0.037 A 
ATOM     58  C   UNL A   1      41.531  29.823  31.271  1.00  0.00     0.037 A 
ATOM     59  C   UNL A   1      41.569  32.187  37.157  1.00  0.00     0.049 A 
ATOM     60  C   UNL A   1      42.507  29.669  32.258  1.00  0.00     0.074 A 
ATOM     61  C   UNL A   1      42.528  31.968  38.165  1.00  0.00     0.029 A 
ATOM     62  N   UNL A   1      41.970  31.497  36.034  1.00  0.00    -0.354 N 
ATOM     63  N   UNL A   1      42.492  30.163  33.497  1.00  0.00    -0.248 NA
ATOM     64  C   UNL A   1      43.749  28.905  32.078  1.00  0.00     0.031 C 
ATOM     65  C   UNL A   1      43.500  31.165  37.653  1.00  0.00     0.029 A 
ATOM     66  C   UNL A   1      43.164  30.871  36.318  1.00  0.00     0.049 A 
ATOM     67  H   UNL A   1      41.488  31.459  35.177  1.00  0.00     0.167 HD
ATOM     68  C   UNL A   1      43.590  29.787  34.155  1.00  0.00     0.074 A 
ATOM     69  C   UNL A   1      44.419  28.978  33.250  1.00  0.00     0.031 C 
ATOM     70  C   UNL A   1      43.932  30.082  35.476  1.00  0.00     0.037 A 
BRANCH  57  71
ATOM     71  C   UNL A   1      40.211  33.648  38.653  1.00  0.00     0.058 A 
ATOM     72  C   UNL A   1      40.904  34.810  38.952  1.00  0.00     0.135 A 
ATOM     73  C   UNL A   1      39.354  33.116  39.517  1.00  0.00     0.135 A 
ATOM     74  F   UNL A   1      41.571  35.511  38.040  1.00  0.00    -0.206 F 
ATOM     75  C   UNL A   1      40.838  35.182  40.316  1.00  0.00     0.059 A 
ATOM     76  C   UNL A   1      39.244  33.617  40.792  1.00  0.00     0.059 A 
ATOM     77  F   UNL A   1      38.594  32.089  39.144  1.00  0.00    -0.206 F 
ATOM     78  C   UNL A   1      39.944  34.727  41.174  1.00  0.00     0.060 A 
BRANCH  78  79
ATOM     79  S   UNL A   1      39.660  35.531  42.770  1.00  0.00     0.124 S 
ATOM     80  O   UNL A   1      39.627  37.050  42.579  1.00  0.00    -0.237 OA
ATOM     81  O   UNL A   1      38.324  35.060  43.350  1.00  0.00    -0.237 OA
ATOM     82  O   UNL A   1      40.924  35.122  43.847  1.00  0.00    -0.744 OA
ENDBRANCH  78  79
ENDBRANCH  57  71
BRANCH  58  83
ATOM     83  C   UNL A   1      41.747  29.130  29.935  1.00  0.00     0.058 A 
ATOM     84  C   UNL A   1      42.508  29.755  28.961  1.00  0.00     0.135 A 
ATOM     85  C   UNL A   1      41.202  27.938  29.724  1.00  0.00     0.135 A 
ATOM     86  F   UNL A   1      43.275  30.814  29.208  1.00  0.00    -0.206 F 
ATOM     87  C   UNL A   1      42.398  29.164  27.680  1.00  0.00     0.059 A 
ATOM     88  C   UNL A   1      41.249  27.357  28.478  1.00  0.00     0.059 A 
ATOM     89  F   UNL A   1      40.605  27.299  30.726  1.00  0.00    -0.206 F 
ATOM     90  C   UNL A   1      41.934  27.948  27.453  1.00  0.00     0.060 A 
BRANCH  90  91
ATOM     91  S   UNL A   1      42.192  27.109  25.870  1.00  0.00     0.124 S 
ATOM     92  O   UNL A   1      43.433  26.218  25.961  1.00  0.00    -0.237 OA
ATOM     93  O   UNL A   1      40.968  26.249  25.543  1.00  0.00    -0.237 OA
ATOM     94  O   UNL A   1      42.416  28.274  24.638  1.00  0.00    -0.744 OA
ENDBRANCH  90  91
ENDBRANCH  58  83
BRANCH  70  95
ATOM     95  C   UNL A   1      45.228  29.504  36.024  1.00  0.00     0.058 A 
ATOM     96  C   UNL A   1      46.400  30.232  35.895  1.00  0.00     0.135 A 
ATOM     97  C   UNL A   1      45.217  28.314  36.611  1.00  0.00     0.135 A 
ATOM     98  F   UNL A   1      46.421  31.516  35.550  1.00  0.00    -0.206 F 
ATOM     99  C   UNL A   1      47.571  29.485  36.165  1.00  0.00     0.059 A 
ATOM    100  C   UNL A   1      46.392  27.702  36.973  1.00  0.00     0.059 A 
ATOM    101  F   UNL A   1      44.057  27.709  36.854  1.00  0.00    -0.206 F 
ATOM    102  C   UNL A   1      47.593  28.338  36.820  1.00  0.00     0.060 A 
BRANCH 102 103
ATOM    103  S   UNL A   1      49.130  27.646  37.479  1.00  0.00     0.124 S 
ATOM    104  O   UNL A   1      49.701  28.590  38.541  1.00  0.00    -0.237 OA
ATOM    105  O   UNL A   1      48.845  26.281  38.110  1.00  0.00    -0.237 OA
ATOM    106  O   UNL A   1      50.262  27.463  36.211  1.00  0.00    -0.744 OA
ENDBRANCH 102 103
ENDBRANCH  70  95
ENDBRANCH  44  45
ENDBRANCH  36  39
ENDBRANCH  34  35
ENDBRANCH  33  34
ENDBRANCH  32  33
ENDBRANCH   1  32
TORSDOF 21
ENDMDL
