MODEL 1
REMARK VINA RESULT:     -10.9      0.000      0.000
REMARK SMILES Cc1cc(C(=O)NC2(CC(=O)NCCCCCCNC(=O)c3ccc(-c4c5nc(c(-c6c(F)cc(S(=O)(=O)[O-])cc6F)c6ccc([nH]6)c(-c6c(F)cc(S(=O)(=O)[O-])cc6F)c6nc(c(-c7c(F)cc(S(=O)(=O)[O-])cc7F)c7ccc4[nH]7)C=C6)C=C5)cc3)CCC2)sc1C
REMARK SMILES IDX 15 1 14 2 13 3 12 4 10 5 11 6 9 8 8 9 88 10 90 11 89 12 7 13
REMARK SMILES IDX 5 14 6 15 4 17 1 18 2 19 3 20 92 21 91 22 93 23 16 24 17 25
REMARK SMILES IDX 18 26 19 27 20 28 21 30 22 31 23 32 87 33 24 34 86 35 25 36
REMARK SMILES IDX 26 37 27 38 80 39 28 40 85 41 79 42 81 43 29 44 84 45 78 46
REMARK SMILES IDX 77 47 30 49 64 50 43 51 63 52 44 53 47 54 62 55 82 56 45 57
REMARK SMILES IDX 46 58 61 60 83 61 48 62 31 63 32 64 41 65 33 66 34 67 40 68
REMARK SMILES IDX 42 69 35 70 36 71 37 72 38 73 39 74 65 75 66 76 75 77 67 78
REMARK SMILES IDX 68 79 74 80 76 81 69 82 70 83 71 84 72 85 73 86 49 87 50 88
REMARK SMILES IDX 59 89 51 90 52 91 58 92 60 93 53 94 54 95 55 96 56 97 57 98
REMARK H PARENT 12 7 7 16 19 29 81 48 47 59
REMARK Flexibility Score: inf
ROOT
ATOM      1  C   UNL A   1      40.177  21.756  26.810  1.00  0.00     0.002 C 
ENDROOT
BRANCH   1   2
ATOM      2  C   UNL A   1      39.203  22.889  26.478  1.00  0.00     0.021 C 
BRANCH   2   3
ATOM      3  C   UNL A   1      37.850  22.406  25.947  1.00  0.00     0.116 C 
BRANCH   3   4
ATOM      4  N   UNL A   1      37.636  22.910  24.607  1.00  0.00    -0.356 N 
ATOM      5  C   UNL A   1      36.581  22.704  23.777  1.00  0.00     0.222 C 
ATOM      6  O   UNL A   1      36.711  22.972  22.581  1.00  0.00    -0.275 OA
ATOM      7  H   UNL A   1      38.354  23.481  24.247  1.00  0.00     0.163 HD
BRANCH   5   8
ATOM      8  C   UNL A   1      35.272  22.157  24.298  1.00  0.00     0.128 C 
BRANCH   8   9
ATOM      9  C   UNL A   1      34.145  23.186  24.559  1.00  0.00     0.049 C 
ATOM     10  C   UNL A   1      34.294  23.735  26.003  1.00  0.00     0.029 C 
ATOM     11  C   UNL A   1      32.796  22.554  24.978  1.00  0.00     0.029 C 
ATOM     12  C   UNL A   1      33.170  22.781  26.451  1.00  0.00     0.005 C 
BRANCH   9  13
ATOM     13  N   UNL A   1      34.088  24.173  23.452  1.00  0.00    -0.345 N 
ATOM     14  C   UNL A   1      33.780  25.508  23.267  1.00  0.00     0.261 C 
ATOM     15  O   UNL A   1      33.994  25.908  22.114  1.00  0.00    -0.268 OA
ATOM     16  H   UNL A   1      34.346  23.754  22.599  1.00  0.00     0.164 HD
BRANCH  14  17
ATOM     17  C   UNL A   1      33.315  26.441  24.284  1.00  0.00     0.092 A 
ATOM     18  C   UNL A   1      33.840  29.617  26.266  1.00  0.00     0.045 C 
ATOM     19  C   UNL A   1      33.327  28.333  25.708  1.00  0.00    -0.037 A 
ATOM     20  C   UNL A   1      33.961  27.619  24.636  1.00  0.00     0.029 A 
ATOM     21  C   UNL A   1      32.212  27.644  26.146  1.00  0.00     0.005 A 
ATOM     22  S   UNL A   1      31.812  26.390  25.070  1.00  0.00    -0.135 S 
ATOM     23  C   UNL A   1      31.340  27.893  27.330  1.00  0.00     0.056 C 
ENDBRANCH  14  17
ENDBRANCH   9  13
ENDBRANCH   8   9
ENDBRANCH   5   8
ENDBRANCH   3   4
ENDBRANCH   2   3
ENDBRANCH   1   2
BRANCH   1  24
ATOM     24  C   UNL A   1      41.071  22.021  28.025  1.00  0.00     0.002 C 
BRANCH  24  25
ATOM     25  C   UNL A   1      42.577  21.972  27.746  1.00  0.00     0.021 C 
BRANCH  25  26
ATOM     26  C   UNL A   1      43.242  23.340  27.619  1.00  0.00     0.116 C 
BRANCH  26  27
ATOM     27  N   UNL A   1      42.905  23.982  26.359  1.00  0.00    -0.352 N 
ATOM     28  C   UNL A   1      42.203  25.138  26.130  1.00  0.00     0.251 C 
ATOM     29  H   UNL A   1      43.229  23.519  25.552  1.00  0.00     0.163 HD
ATOM     30  O   UNL A   1      41.791  25.388  25.002  1.00  0.00    -0.269 OA
BRANCH  28  31
ATOM     31  C   UNL A   1      41.939  26.073  27.244  1.00  0.00     0.039 A 
ATOM     32  C   UNL A   1      40.876  25.811  28.110  1.00  0.00     0.014 A 
ATOM     33  C   UNL A   1      42.718  27.223  27.413  1.00  0.00     0.014 A 
ATOM     34  C   UNL A   1      40.624  26.675  29.177  1.00  0.00     0.010 A 
ATOM     35  C   UNL A   1      42.508  28.047  28.517  1.00  0.00     0.010 A 
ATOM     36  C   UNL A   1      41.455  27.786  29.404  1.00  0.00    -0.014 A 
BRANCH  36  37
ATOM     37  C   UNL A   1      41.232  28.681  30.569  1.00  0.00     0.031 A 
ATOM     38  C   UNL A   1      42.084  28.550  31.802  1.00  0.00     0.074 A 
ATOM     39  C   UNL A   1      40.224  29.575  30.532  1.00  0.00     0.049 A 
ATOM     40  N   UNL A   1      42.013  29.215  32.927  1.00  0.00    -0.248 NA
ATOM     41  C   UNL A   1      43.135  27.521  31.779  1.00  0.00     0.031 C 
ATOM     42  C   UNL A   1      39.296  29.757  29.413  1.00  0.00     0.029 A 
ATOM     43  N   UNL A   1      39.807  30.495  31.461  1.00  0.00    -0.354 N 
ATOM     44  C   UNL A   1      43.000  28.680  33.747  1.00  0.00     0.074 A 
ATOM     45  C   UNL A   1      43.620  27.600  33.010  1.00  0.00     0.031 C 
ATOM     46  C   UNL A   1      38.435  30.743  29.712  1.00  0.00     0.029 A 
ATOM     47  C   UNL A   1      38.728  31.241  31.052  1.00  0.00     0.049 A 
ATOM     48  H   UNL A   1      40.240  30.609  32.337  1.00  0.00     0.167 HD
ATOM     49  C   UNL A   1      43.371  29.068  34.991  1.00  0.00     0.037 A 
ATOM     50  C   UNL A   1      38.047  32.216  31.686  1.00  0.00     0.037 A 
ATOM     51  C   UNL A   1      42.764  30.161  35.707  1.00  0.00     0.049 A 
ATOM     52  C   UNL A   1      38.487  32.640  33.061  1.00  0.00     0.074 A 
ATOM     53  C   UNL A   1      43.107  30.671  36.947  1.00  0.00     0.029 A 
ATOM     54  N   UNL A   1      41.691  30.910  35.249  1.00  0.00    -0.354 N 
ATOM     55  N   UNL A   1      39.466  32.167  33.794  1.00  0.00    -0.248 NA
ATOM     56  C   UNL A   1      37.736  33.735  33.690  1.00  0.00     0.031 C 
ATOM     57  C   UNL A   1      42.215  31.703  37.256  1.00  0.00     0.029 A 
ATOM     58  C   UNL A   1      41.346  31.867  36.189  1.00  0.00     0.049 A 
ATOM     59  H   UNL A   1      41.240  30.781  34.384  1.00  0.00     0.167 HD
ATOM     60  C   UNL A   1      39.467  32.925  34.961  1.00  0.00     0.074 A 
ATOM     61  C   UNL A   1      38.397  33.893  34.830  1.00  0.00     0.031 C 
ATOM     62  C   UNL A   1      40.281  32.829  36.041  1.00  0.00     0.037 A 
BRANCH  49  63
ATOM     63  C   UNL A   1      44.488  28.310  35.654  1.00  0.00     0.058 A 
ATOM     64  C   UNL A   1      44.239  27.184  36.457  1.00  0.00     0.135 A 
ATOM     65  C   UNL A   1      45.826  28.690  35.459  1.00  0.00     0.135 A 
ATOM     66  F   UNL A   1      42.979  26.784  36.688  1.00  0.00    -0.206 F 
ATOM     67  C   UNL A   1      45.274  26.482  37.068  1.00  0.00     0.059 A 
ATOM     68  C   UNL A   1      46.878  27.986  36.038  1.00  0.00     0.059 A 
ATOM     69  F   UNL A   1      46.121  29.758  34.702  1.00  0.00    -0.206 F 
ATOM     70  C   UNL A   1      46.590  26.893  36.855  1.00  0.00     0.060 A 
BRANCH  70  71
ATOM     71  S   UNL A   1      47.921  25.972  37.653  1.00  0.00     0.124 S 
ATOM     72  O   UNL A   1      47.744  26.359  39.050  1.00  0.00    -0.237 OA
ATOM     73  O   UNL A   1      47.581  24.590  37.333  1.00  0.00    -0.237 OA
ATOM     74  O   UNL A   1      49.125  26.484  37.008  1.00  0.00    -0.744 OA
ENDBRANCH  70  71
ENDBRANCH  49  63
BRANCH  50  75
ATOM     75  C   UNL A   1      36.900  32.877  31.011  1.00  0.00     0.058 A 
ATOM     76  C   UNL A   1      37.103  33.742  29.926  1.00  0.00     0.135 A 
ATOM     77  C   UNL A   1      35.579  32.639  31.419  1.00  0.00     0.135 A 
ATOM     78  F   UNL A   1      38.348  34.005  29.501  1.00  0.00    -0.206 F 
ATOM     79  C   UNL A   1      36.039  34.360  29.277  1.00  0.00     0.059 A 
ATOM     80  C   UNL A   1      34.496  33.226  30.771  1.00  0.00     0.059 A 
ATOM     81  F   UNL A   1      35.330  31.803  32.440  1.00  0.00    -0.206 F 
ATOM     82  C   UNL A   1      34.737  34.094  29.706  1.00  0.00     0.060 A 
BRANCH  82  83
ATOM     83  S   UNL A   1      33.359  34.857  28.824  1.00  0.00     0.124 S 
ATOM     84  O   UNL A   1      32.914  33.760  27.972  1.00  0.00    -0.237 OA
ATOM     85  O   UNL A   1      32.462  35.225  29.914  1.00  0.00    -0.237 OA
ATOM     86  O   UNL A   1      33.986  35.981  28.133  1.00  0.00    -0.744 OA
ENDBRANCH  82  83
ENDBRANCH  50  75
BRANCH  62  87
ATOM     87  C   UNL A   1      40.070  33.815  37.155  1.00  0.00     0.058 A 
ATOM     88  C   UNL A   1      40.795  35.015  37.225  1.00  0.00     0.135 A 
ATOM     89  C   UNL A   1      39.095  33.578  38.137  1.00  0.00     0.135 A 
ATOM     90  F   UNL A   1      41.743  35.287  36.315  1.00  0.00    -0.206 F 
ATOM     91  C   UNL A   1      40.576  35.936  38.245  1.00  0.00     0.059 A 
ATOM     92  C   UNL A   1      38.840  34.498  39.150  1.00  0.00     0.059 A 
ATOM     93  F   UNL A   1      38.367  32.450  38.109  1.00  0.00    -0.206 F 
ATOM     94  C   UNL A   1      39.595  35.669  39.202  1.00  0.00     0.060 A 
BRANCH  94  95
ATOM     95  S   UNL A   1      39.296  36.887  40.500  1.00  0.00     0.124 S 
ATOM     96  O   UNL A   1      38.655  37.962  39.751  1.00  0.00    -0.237 OA
ATOM     97  O   UNL A   1      38.435  36.156  41.424  1.00  0.00    -0.237 OA
ATOM     98  O   UNL A   1      40.635  37.182  41.002  1.00  0.00    -0.744 OA
ENDBRANCH  94  95
ENDBRANCH  62  87
ENDBRANCH  36  37
ENDBRANCH  28  31
ENDBRANCH  26  27
ENDBRANCH  25  26
ENDBRANCH  24  25
ENDBRANCH   1  24
TORSDOF 19
ENDMDL
MODEL 2
REMARK VINA RESULT:     -10.6      1.005      2.030
REMARK SMILES Cc1cc(C(=O)NC2(CC(=O)NCCCCCCNC(=O)c3ccc(-c4c5nc(c(-c6c(F)cc(S(=O)(=O)[O-])cc6F)c6ccc([nH]6)c(-c6c(F)cc(S(=O)(=O)[O-])cc6F)c6nc(c(-c7c(F)cc(S(=O)(=O)[O-])cc7F)c7ccc4[nH]7)C=C6)C=C5)cc3)CCC2)sc1C
REMARK SMILES IDX 15 1 14 2 13 3 12 4 10 5 11 6 9 8 8 9 88 10 90 11 89 12 7 13
REMARK SMILES IDX 5 14 6 15 4 17 1 18 2 19 3 20 92 21 91 22 93 23 16 24 17 25
REMARK SMILES IDX 18 26 19 27 20 28 21 30 22 31 23 32 87 33 24 34 86 35 25 36
REMARK SMILES IDX 26 37 27 38 80 39 28 40 85 41 79 42 81 43 29 44 84 45 78 46
REMARK SMILES IDX 77 47 30 49 64 50 43 51 63 52 44 53 47 54 62 55 82 56 45 57
REMARK SMILES IDX 46 58 61 60 83 61 48 62 31 63 32 64 41 65 33 66 34 67 40 68
REMARK SMILES IDX 42 69 35 70 36 71 37 72 38 73 39 74 65 75 66 76 75 77 67 78
REMARK SMILES IDX 68 79 74 80 76 81 69 82 70 83 71 84 72 85 73 86 49 87 50 88
REMARK SMILES IDX 59 89 51 90 52 91 58 92 60 93 53 94 54 95 55 96 56 97 57 98
REMARK H PARENT 12 7 7 16 19 29 81 48 47 59
REMARK Flexibility Score: inf
ROOT
ATOM      1  C   UNL A   1      41.272  22.058  27.194  1.00  0.00     0.002 C 
ENDROOT
BRANCH   1   2
ATOM      2  C   UNL A   1      39.855  22.593  26.974  1.00  0.00     0.021 C 
BRANCH   2   3
ATOM      3  C   UNL A   1      38.950  21.640  26.186  1.00  0.00     0.116 C 
BRANCH   3   4
ATOM      4  N   UNL A   1      38.370  22.332  25.054  1.00  0.00    -0.356 N 
ATOM      5  C   UNL A   1      37.140  22.177  24.500  1.00  0.00     0.222 C 
ATOM      6  O   UNL A   1      36.937  22.641  23.376  1.00  0.00    -0.275 OA
ATOM      7  H   UNL A   1      38.946  23.008  24.628  1.00  0.00     0.163 HD
BRANCH   5   8
ATOM      8  C   UNL A   1      36.037  21.452  25.236  1.00  0.00     0.128 C 
BRANCH   8   9
ATOM      9  C   UNL A   1      34.661  22.160  25.293  1.00  0.00     0.049 C 
ATOM     10  C   UNL A   1      34.782  23.419  26.190  1.00  0.00     0.029 C 
ATOM     11  C   UNL A   1      33.684  21.559  26.333  1.00  0.00     0.029 C 
ATOM     12  C   UNL A   1      34.132  22.628  27.342  1.00  0.00     0.005 C 
BRANCH   9  13
ATOM     13  N   UNL A   1      34.123  22.342  23.922  1.00  0.00    -0.345 N 
ATOM     14  C   UNL A   1      33.278  23.202  23.245  1.00  0.00     0.261 C 
ATOM     15  O   UNL A   1      33.226  22.985  22.026  1.00  0.00    -0.268 OA
ATOM     16  H   UNL A   1      34.470  21.648  23.316  1.00  0.00     0.164 HD
BRANCH  14  17
ATOM     17  C   UNL A   1      32.541  24.322  23.814  1.00  0.00     0.092 A 
ATOM     18  C   UNL A   1      29.759  25.587  26.039  1.00  0.00     0.045 C 
ATOM     19  C   UNL A   1      30.899  25.459  25.087  1.00  0.00    -0.037 A 
ATOM     20  C   UNL A   1      31.498  24.205  24.724  1.00  0.00     0.029 A 
ATOM     21  C   UNL A   1      31.513  26.495  24.409  1.00  0.00     0.005 A 
ATOM     22  S   UNL A   1      32.939  25.963  23.651  1.00  0.00    -0.135 S 
ATOM     23  C   UNL A   1      31.137  27.936  24.324  1.00  0.00     0.056 C 
ENDBRANCH  14  17
ENDBRANCH   9  13
ENDBRANCH   8   9
ENDBRANCH   5   8
ENDBRANCH   3   4
ENDBRANCH   2   3
ENDBRANCH   1   2
BRANCH   1  24
ATOM     24  C   UNL A   1      42.166  22.959  28.052  1.00  0.00     0.002 C 
BRANCH  24  25
ATOM     25  C   UNL A   1      43.661  22.893  27.722  1.00  0.00     0.021 C 
BRANCH  25  26
ATOM     26  C   UNL A   1      44.284  24.233  27.338  1.00  0.00     0.116 C 
BRANCH  26  27
ATOM     27  N   UNL A   1      43.695  24.765  26.120  1.00  0.00    -0.352 N 
ATOM     28  C   UNL A   1      42.733  25.731  25.968  1.00  0.00     0.251 C 
ATOM     29  H   UNL A   1      44.037  24.375  25.283  1.00  0.00     0.163 HD
ATOM     30  O   UNL A   1      42.172  25.867  24.886  1.00  0.00    -0.269 OA
BRANCH  28  31
ATOM     31  C   UNL A   1      42.372  26.599  27.108  1.00  0.00     0.039 A 
ATOM     32  C   UNL A   1      41.401  26.162  28.011  1.00  0.00     0.014 A 
ATOM     33  C   UNL A   1      42.967  27.855  27.269  1.00  0.00     0.014 A 
ATOM     34  C   UNL A   1      41.062  26.962  29.103  1.00  0.00     0.010 A 
ATOM     35  C   UNL A   1      42.677  28.622  28.395  1.00  0.00     0.010 A 
ATOM     36  C   UNL A   1      41.716  28.187  29.318  1.00  0.00    -0.014 A 
BRANCH  36  37
ATOM     37  C   UNL A   1      41.404  29.021  30.508  1.00  0.00     0.031 A 
ATOM     38  C   UNL A   1      42.216  28.883  31.767  1.00  0.00     0.074 A 
ATOM     39  C   UNL A   1      40.353  29.863  30.467  1.00  0.00     0.049 A 
ATOM     40  N   UNL A   1      42.070  29.497  32.913  1.00  0.00    -0.248 NA
ATOM     41  C   UNL A   1      43.320  27.910  31.744  1.00  0.00     0.031 C 
ATOM     42  C   UNL A   1      39.458  30.044  29.321  1.00  0.00     0.029 A 
ATOM     43  N   UNL A   1      39.855  30.722  31.415  1.00  0.00    -0.354 N 
ATOM     44  C   UNL A   1      43.053  28.979  33.749  1.00  0.00     0.074 A 
ATOM     45  C   UNL A   1      43.755  27.964  32.995  1.00  0.00     0.031 C 
ATOM     46  C   UNL A   1      38.537  30.971  29.625  1.00  0.00     0.029 A 
ATOM     47  C   UNL A   1      38.753  31.428  30.994  1.00  0.00     0.049 A 
ATOM     48  H   UNL A   1      40.249  30.822  32.310  1.00  0.00     0.167 HD
ATOM     49  C   UNL A   1      43.357  29.335  35.021  1.00  0.00     0.037 A 
ATOM     50  C   UNL A   1      38.000  32.341  31.638  1.00  0.00     0.037 A 
ATOM     51  C   UNL A   1      42.669  30.365  35.755  1.00  0.00     0.049 A 
ATOM     52  C   UNL A   1      38.367  32.730  33.045  1.00  0.00     0.074 A 
ATOM     53  C   UNL A   1      42.939  30.841  37.026  1.00  0.00     0.029 A 
ATOM     54  N   UNL A   1      41.574  31.077  35.286  1.00  0.00    -0.354 N 
ATOM     55  N   UNL A   1      39.342  32.278  33.796  1.00  0.00    -0.248 NA
ATOM     56  C   UNL A   1      37.537  33.759  33.687  1.00  0.00     0.031 C 
ATOM     57  C   UNL A   1      41.983  31.813  37.341  1.00  0.00     0.029 A 
ATOM     58  C   UNL A   1      41.146  31.976  36.249  1.00  0.00     0.049 A 
ATOM     59  H   UNL A   1      41.163  30.960  34.399  1.00  0.00     0.167 HD
ATOM     60  C   UNL A   1      39.260  32.986  34.991  1.00  0.00     0.074 A 
ATOM     61  C   UNL A   1      38.147  33.903  34.856  1.00  0.00     0.031 C 
ATOM     62  C   UNL A   1      40.039  32.887  36.096  1.00  0.00     0.037 A 
BRANCH  49  63
ATOM     63  C   UNL A   1      44.487  28.607  35.696  1.00  0.00     0.058 A 
ATOM     64  C   UNL A   1      45.815  29.056  35.598  1.00  0.00     0.135 A 
ATOM     65  C   UNL A   1      44.239  27.467  36.478  1.00  0.00     0.135 A 
ATOM     66  F   UNL A   1      46.111  30.132  34.852  1.00  0.00    -0.206 F 
ATOM     67  C   UNL A   1      46.859  28.383  36.225  1.00  0.00     0.059 A 
ATOM     68  C   UNL A   1      45.265  26.795  37.136  1.00  0.00     0.059 A 
ATOM     69  F   UNL A   1      42.990  26.995  36.607  1.00  0.00    -0.206 F 
ATOM     70  C   UNL A   1      46.575  27.252  36.990  1.00  0.00     0.060 A 
BRANCH  70  71
ATOM     71  S   UNL A   1      47.940  26.390  37.797  1.00  0.00     0.124 S 
ATOM     72  O   UNL A   1      47.700  25.011  37.380  1.00  0.00    -0.237 OA
ATOM     73  O   UNL A   1      49.109  27.035  37.209  1.00  0.00    -0.237 OA
ATOM     74  O   UNL A   1      47.725  26.663  39.215  1.00  0.00    -0.744 OA
ENDBRANCH  70  71
ENDBRANCH  49  63
BRANCH  50  75
ATOM     75  C   UNL A   1      36.845  32.970  30.946  1.00  0.00     0.058 A 
ATOM     76  C   UNL A   1      35.531  32.571  31.229  1.00  0.00     0.135 A 
ATOM     77  C   UNL A   1      37.030  33.996  30.007  1.00  0.00     0.135 A 
ATOM     78  F   UNL A   1      35.303  31.591  32.116  1.00  0.00    -0.206 F 
ATOM     79  C   UNL A   1      34.440  33.158  30.596  1.00  0.00     0.059 A 
ATOM     80  C   UNL A   1      35.953  34.615  29.379  1.00  0.00     0.059 A 
ATOM     81  F   UNL A   1      38.267  34.428  29.716  1.00  0.00    -0.206 F 
ATOM     82  C   UNL A   1      34.661  34.181  29.673  1.00  0.00     0.060 A 
BRANCH  82  83
ATOM     83  S   UNL A   1      33.236  34.974  28.898  1.00  0.00     0.124 S 
ATOM     84  O   UNL A   1      32.809  33.949  27.952  1.00  0.00    -0.237 OA
ATOM     85  O   UNL A   1      32.353  35.200  30.037  1.00  0.00    -0.237 OA
ATOM     86  O   UNL A   1      33.806  36.182  28.307  1.00  0.00    -0.744 OA
ENDBRANCH  82  83
ENDBRANCH  50  75
BRANCH  62  87
ATOM     87  C   UNL A   1      39.736  33.815  37.240  1.00  0.00     0.058 A 
ATOM     88  C   UNL A   1      38.889  33.436  38.293  1.00  0.00     0.135 A 
ATOM     89  C   UNL A   1      40.341  35.081  37.306  1.00  0.00     0.135 A 
ATOM     90  F   UNL A   1      38.280  32.240  38.274  1.00  0.00    -0.206 F 
ATOM     91  C   UNL A   1      38.634  34.290  39.362  1.00  0.00     0.059 A 
ATOM     92  C   UNL A   1      40.122  35.940  38.378  1.00  0.00     0.059 A 
ATOM     93  F   UNL A   1      41.168  35.487  36.329  1.00  0.00    -0.206 F 
ATOM     94  C   UNL A   1      39.256  35.540  39.395  1.00  0.00     0.060 A 
BRANCH  94  95
ATOM     95  S   UNL A   1      38.944  36.625  40.804  1.00  0.00     0.124 S 
ATOM     96  O   UNL A   1      40.272  36.717  41.402  1.00  0.00    -0.237 OA
ATOM     97  O   UNL A   1      38.453  37.840  40.161  1.00  0.00    -0.237 OA
ATOM     98  O   UNL A   1      37.952  35.891  41.584  1.00  0.00    -0.744 OA
ENDBRANCH  94  95
ENDBRANCH  62  87
ENDBRANCH  36  37
ENDBRANCH  28  31
ENDBRANCH  26  27
ENDBRANCH  25  26
ENDBRANCH  24  25
ENDBRANCH   1  24
TORSDOF 19
ENDMDL
MODEL 3
REMARK VINA RESULT:     -10.5      1.432      8.392
REMARK SMILES Cc1cc(C(=O)NC2(CC(=O)NCCCCCCNC(=O)c3ccc(-c4c5nc(c(-c6c(F)cc(S(=O)(=O)[O-])cc6F)c6ccc([nH]6)c(-c6c(F)cc(S(=O)(=O)[O-])cc6F)c6nc(c(-c7c(F)cc(S(=O)(=O)[O-])cc7F)c7ccc4[nH]7)C=C6)C=C5)cc3)CCC2)sc1C
REMARK SMILES IDX 15 1 14 2 13 3 12 4 10 5 11 6 9 8 8 9 88 10 90 11 89 12 7 13
REMARK SMILES IDX 5 14 6 15 4 17 1 18 2 19 3 20 92 21 91 22 93 23 16 24 17 25
REMARK SMILES IDX 18 26 19 27 20 28 21 30 22 31 23 32 87 33 24 34 86 35 25 36
REMARK SMILES IDX 26 37 27 38 80 39 28 40 85 41 79 42 81 43 29 44 84 45 78 46
REMARK SMILES IDX 77 47 30 49 64 50 43 51 63 52 44 53 47 54 62 55 82 56 45 57
REMARK SMILES IDX 46 58 61 60 83 61 48 62 31 63 32 64 41 65 33 66 34 67 40 68
REMARK SMILES IDX 42 69 35 70 36 71 37 72 38 73 39 74 65 75 66 76 75 77 67 78
REMARK SMILES IDX 68 79 74 80 76 81 69 82 70 83 71 84 72 85 73 86 49 87 50 88
REMARK SMILES IDX 59 89 51 90 52 91 58 92 60 93 53 94 54 95 55 96 56 97 57 98
REMARK H PARENT 12 7 7 16 19 29 81 48 47 59
REMARK Flexibility Score: inf
ROOT
ATOM      1  C   UNL A   1      39.051  22.266  26.227  1.00  0.00     0.002 C 
ENDROOT
BRANCH   1   2
ATOM      2  C   UNL A   1      38.165  21.330  25.402  1.00  0.00     0.021 C 
BRANCH   2   3
ATOM      3  C   UNL A   1      36.802  21.929  25.040  1.00  0.00     0.116 C 
BRANCH   3   4
ATOM      4  N   UNL A   1      35.897  21.812  26.164  1.00  0.00    -0.356 N 
ATOM      5  C   UNL A   1      34.660  22.349  26.320  1.00  0.00     0.222 C 
ATOM      6  O   UNL A   1      34.169  22.381  27.451  1.00  0.00    -0.275 OA
ATOM      7  H   UNL A   1      36.222  21.268  26.917  1.00  0.00     0.163 HD
BRANCH   5   8
ATOM      8  C   UNL A   1      33.892  22.901  25.141  1.00  0.00     0.128 C 
BRANCH   8   9
ATOM      9  C   UNL A   1      32.489  22.300  24.885  1.00  0.00     0.049 C 
ATOM     10  C   UNL A   1      32.640  20.785  24.588  1.00  0.00     0.029 C 
ATOM     11  C   UNL A   1      31.973  22.494  23.438  1.00  0.00     0.029 C 
ATOM     12  C   UNL A   1      32.497  21.093  23.085  1.00  0.00     0.005 C 
BRANCH   9  13
ATOM     13  N   UNL A   1      31.556  22.699  25.969  1.00  0.00    -0.345 N 
ATOM     14  C   UNL A   1      30.866  23.823  26.382  1.00  0.00     0.261 C 
ATOM     15  O   UNL A   1      30.102  23.610  27.334  1.00  0.00    -0.268 OA
ATOM     16  H   UNL A   1      31.376  21.940  26.569  1.00  0.00     0.164 HD
BRANCH  14  17
ATOM     17  C   UNL A   1      30.917  25.146  25.775  1.00  0.00     0.092 A 
ATOM     18  C   UNL A   1      30.184  27.401  22.830  1.00  0.00     0.045 C 
ATOM     19  C   UNL A   1      30.633  26.827  24.131  1.00  0.00    -0.037 A 
ATOM     20  C   UNL A   1      30.403  25.465  24.524  1.00  0.00     0.029 A 
ATOM     21  C   UNL A   1      31.341  27.494  25.113  1.00  0.00     0.005 A 
ATOM     22  S   UNL A   1      31.406  26.577  26.543  1.00  0.00    -0.135 S 
ATOM     23  C   UNL A   1      31.956  28.853  25.090  1.00  0.00     0.056 C 
ENDBRANCH  14  17
ENDBRANCH   9  13
ENDBRANCH   8   9
ENDBRANCH   5   8
ENDBRANCH   3   4
ENDBRANCH   2   3
ENDBRANCH   1   2
BRANCH   1  24
ATOM     24  C   UNL A   1      40.425  21.688  26.587  1.00  0.00     0.002 C 
BRANCH  24  25
ATOM     25  C   UNL A   1      41.049  22.248  27.869  1.00  0.00     0.021 C 
BRANCH  25  26
ATOM     26  C   UNL A   1      42.278  23.124  27.644  1.00  0.00     0.116 C 
BRANCH  26  27
ATOM     27  N   UNL A   1      42.186  23.862  26.395  1.00  0.00    -0.352 N 
ATOM     28  C   UNL A   1      41.716  25.130  26.165  1.00  0.00     0.251 C 
ATOM     29  H   UNL A   1      42.508  23.381  25.598  1.00  0.00     0.163 HD
ATOM     30  O   UNL A   1      41.470  25.492  25.019  1.00  0.00    -0.269 OA
BRANCH  28  31
ATOM     31  C   UNL A   1      41.501  26.054  27.299  1.00  0.00     0.039 A 
ATOM     32  C   UNL A   1      40.380  25.878  28.113  1.00  0.00     0.014 A 
ATOM     33  C   UNL A   1      42.386  27.111  27.539  1.00  0.00     0.014 A 
ATOM     34  C   UNL A   1      40.172  26.730  29.198  1.00  0.00     0.010 A 
ATOM     35  C   UNL A   1      42.214  27.918  28.661  1.00  0.00     0.010 A 
ATOM     36  C   UNL A   1      41.102  27.741  29.497  1.00  0.00    -0.014 A 
BRANCH  36  37
ATOM     37  C   UNL A   1      40.922  28.619  30.682  1.00  0.00     0.031 A 
ATOM     38  C   UNL A   1      39.852  29.677  30.688  1.00  0.00     0.074 A 
ATOM     39  C   UNL A   1      41.759  28.493  31.730  1.00  0.00     0.049 A 
ATOM     40  N   UNL A   1      39.570  30.557  31.615  1.00  0.00    -0.248 NA
ATOM     41  C   UNL A   1      39.007  29.777  29.488  1.00  0.00     0.031 C 
ATOM     42  C   UNL A   1      42.868  27.541  31.817  1.00  0.00     0.029 A 
ATOM     43  N   UNL A   1      41.813  29.174  32.921  1.00  0.00    -0.354 N 
ATOM     44  C   UNL A   1      38.524  31.320  31.107  1.00  0.00     0.074 A 
ATOM     45  C   UNL A   1      38.258  30.834  29.770  1.00  0.00     0.031 C 
ATOM     46  C   UNL A   1      43.477  27.682  33.005  1.00  0.00     0.029 A 
ATOM     47  C   UNL A   1      42.824  28.753  33.751  1.00  0.00     0.049 A 
ATOM     48  H   UNL A   1      41.186  29.895  33.158  1.00  0.00     0.167 HD
ATOM     49  C   UNL A   1      37.834  32.319  31.708  1.00  0.00     0.037 A 
ATOM     50  C   UNL A   1      43.188  29.183  34.976  1.00  0.00     0.037 A 
ATOM     51  C   UNL A   1      38.090  32.780  33.048  1.00  0.00     0.049 A 
ATOM     52  C   UNL A   1      42.397  30.284  35.629  1.00  0.00     0.074 A 
ATOM     53  C   UNL A   1      37.408  33.745  33.770  1.00  0.00     0.029 A 
ATOM     54  N   UNL A   1      39.106  32.312  33.868  1.00  0.00    -0.354 N 
ATOM     55  N   UNL A   1      41.368  30.948  35.160  1.00  0.00    -0.248 NA
ATOM     56  C   UNL A   1      42.810  30.686  36.980  1.00  0.00     0.031 C 
ATOM     57  C   UNL A   1      38.037  33.888  35.011  1.00  0.00     0.029 A 
ATOM     58  C   UNL A   1      39.081  32.979  35.081  1.00  0.00     0.049 A 
ATOM     59  H   UNL A   1      39.749  31.608  33.623  1.00  0.00     0.167 HD
ATOM     60  C   UNL A   1      40.993  31.829  36.169  1.00  0.00     0.074 A 
ATOM     61  C   UNL A   1      41.899  31.604  37.277  1.00  0.00     0.031 C 
ATOM     62  C   UNL A   1      39.988  32.739  36.177  1.00  0.00     0.037 A 
BRANCH  49  63
ATOM     63  C   UNL A   1      36.733  32.977  30.922  1.00  0.00     0.058 A 
ATOM     64  C   UNL A   1      37.006  33.931  29.928  1.00  0.00     0.135 A 
ATOM     65  C   UNL A   1      35.391  32.627  31.140  1.00  0.00     0.135 A 
ATOM     66  F   UNL A   1      38.271  34.314  29.688  1.00  0.00    -0.206 F 
ATOM     67  C   UNL A   1      35.987  34.538  29.201  1.00  0.00     0.059 A 
ATOM     68  C   UNL A   1      34.357  33.200  30.404  1.00  0.00     0.059 A 
ATOM     69  F   UNL A   1      35.072  31.721  32.076  1.00  0.00    -0.206 F 
ATOM     70  C   UNL A   1      34.665  34.167  29.448  1.00  0.00     0.060 A 
BRANCH  70  71
ATOM     71  S   UNL A   1      33.354  34.962  28.495  1.00  0.00     0.124 S 
ATOM     72  O   UNL A   1      32.819  33.833  27.739  1.00  0.00    -0.237 OA
ATOM     73  O   UNL A   1      32.484  35.491  29.541  1.00  0.00    -0.237 OA
ATOM     74  O   UNL A   1      34.063  35.965  27.708  1.00  0.00    -0.744 OA
ENDBRANCH  70  71
ENDBRANCH  49  63
BRANCH  50  75
ATOM     75  C   UNL A   1      44.336  28.546  35.673  1.00  0.00     0.058 A 
ATOM     76  C   UNL A   1      44.140  27.465  36.544  1.00  0.00     0.135 A 
ATOM     77  C   UNL A   1      45.650  28.990  35.464  1.00  0.00     0.135 A 
ATOM     78  F   UNL A   1      42.901  27.008  36.779  1.00  0.00    -0.206 F 
ATOM     79  C   UNL A   1      45.206  26.853  37.196  1.00  0.00     0.059 A 
ATOM     80  C   UNL A   1      46.735  28.378  36.085  1.00  0.00     0.059 A 
ATOM     81  F   UNL A   1      45.892  30.008  34.624  1.00  0.00    -0.206 F 
ATOM     82  C   UNL A   1      46.501  27.315  36.958  1.00  0.00     0.060 A 
BRANCH  82  83
ATOM     83  S   UNL A   1      47.883  26.480  37.766  1.00  0.00     0.124 S 
ATOM     84  O   UNL A   1      47.332  26.214  39.090  1.00  0.00    -0.237 OA
ATOM     85  O   UNL A   1      48.080  25.314  36.909  1.00  0.00    -0.237 OA
ATOM     86  O   UNL A   1      48.952  27.473  37.712  1.00  0.00    -0.744 OA
ENDBRANCH  82  83
ENDBRANCH  50  75
BRANCH  62  87
ATOM     87  C   UNL A   1      39.792  33.540  37.434  1.00  0.00     0.058 A 
ATOM     88  C   UNL A   1      40.465  34.753  37.648  1.00  0.00     0.135 A 
ATOM     89  C   UNL A   1      38.881  33.112  38.414  1.00  0.00     0.135 A 
ATOM     90  F   UNL A   1      41.351  35.203  36.746  1.00  0.00    -0.206 F 
ATOM     91  C   UNL A   1      40.259  35.503  38.801  1.00  0.00     0.059 A 
ATOM     92  C   UNL A   1      38.640  33.860  39.562  1.00  0.00     0.059 A 
ATOM     93  F   UNL A   1      38.204  31.964  38.252  1.00  0.00    -0.206 F 
ATOM     94  C   UNL A   1      39.343  35.049  39.752  1.00  0.00     0.060 A 
BRANCH  94  95
ATOM     95  S   UNL A   1      39.059  36.048  41.229  1.00  0.00     0.124 S 
ATOM     96  O   UNL A   1      38.944  37.386  40.660  1.00  0.00    -0.237 OA
ATOM     97  O   UNL A   1      37.826  35.477  41.762  1.00  0.00    -0.237 OA
ATOM     98  O   UNL A   1      40.253  35.808  42.035  1.00  0.00    -0.744 OA
ENDBRANCH  94  95
ENDBRANCH  62  87
ENDBRANCH  36  37
ENDBRANCH  28  31
ENDBRANCH  26  27
ENDBRANCH  25  26
ENDBRANCH  24  25
ENDBRANCH   1  24
TORSDOF 19
ENDMDL
