MODEL 1
REMARK VINA RESULT:     -11.6      0.000      0.000
REMARK SMILES CCc1ccc(C[N@H+]2CC[C@@H](C(=O)NCCCCCCNC(=O)c3ccc(-c4c5nc(c(-c6c(F)cc(S(=O)(=O)[O-])cc6F)c6ccc([nH]6)c(-c6c(F)cc(S(=O)(=O)[O-])cc6F)c6nc(c(-c7c(F)cc(S(=O)(=O)[O-])cc7F)c7ccc4[nH]7)C=C6)C=C5)cc3)[C@@H]2C)cc1
REMARK SMILES IDX 17 1 16 2 15 3 14 4 12 5 13 6 11 8 8 9 9 10 90 11 10 13
REMARK SMILES IDX 91 14 7 15 6 16 3 17 4 18 93 19 5 20 92 21 2 22 1 23 18 24
REMARK SMILES IDX 19 25 20 26 21 27 22 28 23 30 24 31 25 32 89 33 26 34 88 35
REMARK SMILES IDX 27 36 28 37 29 38 82 39 30 40 87 41 81 42 83 43 31 44 86 45
REMARK SMILES IDX 80 46 79 47 32 49 66 50 45 51 65 52 46 53 49 54 64 55 84 56
REMARK SMILES IDX 47 57 48 58 63 60 85 61 50 62 33 63 34 64 43 65 35 66 36 67
REMARK SMILES IDX 42 68 44 69 37 70 38 71 39 72 40 73 41 74 67 75 68 76 77 77
REMARK SMILES IDX 69 78 70 79 76 80 78 81 71 82 72 83 73 84 74 85 75 86 51 87
REMARK SMILES IDX 52 88 61 89 53 90 54 91 60 92 62 93 55 94 56 95 57 96 58 97
REMARK SMILES IDX 59 98
REMARK H PARENT 14 7 8 12 21 29 83 48 49 59
REMARK Flexibility Score: inf
ROOT
ATOM      1  C   UNL A   1      33.376  26.960  25.949  1.00  0.00     0.002 C 
ENDROOT
BRANCH   1   2
ATOM      2  C   UNL A   1      31.946  26.988  26.525  1.00  0.00     0.021 C 
BRANCH   2   3
ATOM      3  C   UNL A   1      30.919  26.121  25.778  1.00  0.00     0.116 C 
BRANCH   3   4
ATOM      4  N   UNL A   1      30.386  25.067  26.619  1.00  0.00    -0.356 N 
ATOM      5  C   UNL A   1      30.447  23.716  26.543  1.00  0.00     0.229 C 
ATOM      6  O   UNL A   1      29.912  23.104  27.478  1.00  0.00    -0.275 OA
ATOM      7  H   UNL A   1      29.880  25.398  27.397  1.00  0.00     0.163 HD
BRANCH   5   8
ATOM      8  C   UNL A   1      31.134  22.917  25.440  1.00  0.00     0.142 C 
ATOM      9  N   UNL A   1      32.666  22.737  23.607  1.00  0.00    -0.328 N 
ATOM     10  C   UNL A   1      32.826  21.591  24.508  1.00  0.00     0.263 C 
ATOM     11  C   UNL A   1      31.649  23.646  24.192  1.00  0.00     0.193 C 
ATOM     12  H   UNL A   1      32.309  22.419  22.706  1.00  0.00     0.348 HD
ATOM     13  C   UNL A   1      32.315  22.063  25.861  1.00  0.00     0.081 C 
ATOM     14  C   UNL A   1      30.519  23.850  23.181  1.00  0.00     0.076 C 
BRANCH   9  15
ATOM     15  C   UNL A   1      33.927  23.354  23.152  1.00  0.00     0.299 C 
BRANCH  15  16
ATOM     16  C   UNL A   1      35.098  23.281  24.112  1.00  0.00     0.006 A 
ATOM     17  C   UNL A   1      37.460  23.465  25.657  1.00  0.00    -0.048 A 
ATOM     18  C   UNL A   1      37.366  22.599  24.570  1.00  0.00     0.004 A 
ATOM     19  C   UNL A   1      36.316  24.160  26.042  1.00  0.00     0.004 A 
ATOM     20  C   UNL A   1      36.196  22.481  23.820  1.00  0.00     0.010 A 
ATOM     21  C   UNL A   1      35.145  24.062  25.280  1.00  0.00     0.010 A 
BRANCH  17  22
ATOM     22  C   UNL A   1      38.785  23.634  26.355  1.00  0.00     0.032 C 
ATOM     23  C   UNL A   1      39.490  22.297  26.570  1.00  0.00     0.009 C 
ENDBRANCH  17  22
ENDBRANCH  15  16
ENDBRANCH   9  15
ENDBRANCH   5   8
ENDBRANCH   3   4
ENDBRANCH   2   3
ENDBRANCH   1   2
BRANCH   1  24
ATOM     24  C   UNL A   1      34.175  28.271  26.026  1.00  0.00     0.002 C 
BRANCH  24  25
ATOM     25  C   UNL A   1      34.024  29.066  27.330  1.00  0.00     0.021 C 
BRANCH  25  26
ATOM     26  C   UNL A   1      35.123  30.076  27.632  1.00  0.00     0.116 C 
BRANCH  26  27
ATOM     27  N   UNL A   1      35.248  30.363  29.050  1.00  0.00    -0.352 N 
ATOM     28  C   UNL A   1      36.276  30.215  29.951  1.00  0.00     0.251 C 
ATOM     29  H   UNL A   1      34.430  30.739  29.448  1.00  0.00     0.163 HD
ATOM     30  O   UNL A   1      36.014  30.388  31.142  1.00  0.00    -0.269 OA
BRANCH  28  31
ATOM     31  C   UNL A   1      37.666  29.834  29.570  1.00  0.00     0.039 A 
ATOM     32  C   UNL A   1      38.554  29.482  30.598  1.00  0.00     0.014 A 
ATOM     33  C   UNL A   1      38.157  29.907  28.266  1.00  0.00     0.014 A 
ATOM     34  C   UNL A   1      39.890  29.161  30.317  1.00  0.00     0.010 A 
ATOM     35  C   UNL A   1      39.466  29.503  27.974  1.00  0.00     0.010 A 
ATOM     36  C   UNL A   1      40.355  29.133  28.995  1.00  0.00    -0.014 A 
BRANCH  36  37
ATOM     37  C   UNL A   1      41.756  28.740  28.659  1.00  0.00     0.031 A 
ATOM     38  C   UNL A   1      42.850  29.779  28.608  1.00  0.00     0.074 A 
ATOM     39  C   UNL A   1      42.038  27.464  28.330  1.00  0.00     0.049 A 
ATOM     40  N   UNL A   1      44.089  29.658  28.202  1.00  0.00    -0.248 NA
ATOM     41  C   UNL A   1      42.497  31.139  29.046  1.00  0.00     0.031 C 
ATOM     42  C   UNL A   1      41.075  26.361  28.308  1.00  0.00     0.029 A 
ATOM     43  N   UNL A   1      43.217  26.878  27.930  1.00  0.00    -0.354 N 
ATOM     44  C   UNL A   1      44.652  30.927  28.303  1.00  0.00     0.074 A 
ATOM     45  C   UNL A   1      43.607  31.810  28.777  1.00  0.00     0.031 C 
ATOM     46  C   UNL A   1      41.701  25.236  27.928  1.00  0.00     0.029 A 
ATOM     47  C   UNL A   1      43.096  25.540  27.631  1.00  0.00     0.049 A 
ATOM     48  H   UNL A   1      44.067  27.370  27.865  1.00  0.00     0.167 HD
ATOM     49  C   UNL A   1      45.923  31.318  28.044  1.00  0.00     0.037 A 
ATOM     50  C   UNL A   1      43.997  24.660  27.149  1.00  0.00     0.037 A 
ATOM     51  C   UNL A   1      46.976  30.430  27.618  1.00  0.00     0.049 A 
ATOM     52  C   UNL A   1      45.401  25.118  26.863  1.00  0.00     0.074 A 
ATOM     53  C   UNL A   1      48.312  30.721  27.404  1.00  0.00     0.029 A 
ATOM     54  N   UNL A   1      46.812  29.081  27.342  1.00  0.00    -0.354 N 
ATOM     55  N   UNL A   1      45.924  26.311  27.010  1.00  0.00    -0.248 NA
ATOM     56  C   UNL A   1      46.337  24.112  26.342  1.00  0.00     0.031 C 
ATOM     57  C   UNL A   1      48.949  29.557  26.960  1.00  0.00     0.029 A 
ATOM     58  C   UNL A   1      48.018  28.531  26.937  1.00  0.00     0.049 A 
ATOM     59  H   UNL A   1      45.965  28.586  27.423  1.00  0.00     0.167 HD
ATOM     60  C   UNL A   1      47.252  26.197  26.613  1.00  0.00     0.074 A 
ATOM     61  C   UNL A   1      47.458  24.814  26.237  1.00  0.00     0.031 C 
ATOM     62  C   UNL A   1      48.212  27.153  26.562  1.00  0.00     0.037 A 
BRANCH  49  63
ATOM     63  C   UNL A   1      46.258  32.776  28.215  1.00  0.00     0.058 A 
ATOM     64  C   UNL A   1      46.849  33.265  29.391  1.00  0.00     0.135 A 
ATOM     65  C   UNL A   1      46.024  33.688  27.174  1.00  0.00     0.135 A 
ATOM     66  F   UNL A   1      47.084  32.439  30.423  1.00  0.00    -0.206 F 
ATOM     67  C   UNL A   1      47.166  34.611  29.541  1.00  0.00     0.059 A 
ATOM     68  C   UNL A   1      46.359  35.035  27.291  1.00  0.00     0.059 A 
ATOM     69  F   UNL A   1      45.466  33.275  26.026  1.00  0.00    -0.206 F 
ATOM     70  C   UNL A   1      46.916  35.490  28.486  1.00  0.00     0.060 A 
BRANCH  70  71
ATOM     71  S   UNL A   1      47.334  37.232  28.696  1.00  0.00     0.124 S 
ATOM     72  O   UNL A   1      46.602  37.562  29.915  1.00  0.00    -0.237 OA
ATOM     73  O   UNL A   1      48.788  37.194  28.821  1.00  0.00    -0.237 OA
ATOM     74  O   UNL A   1      46.830  37.854  27.474  1.00  0.00    -0.744 OA
ENDBRANCH  70  71
ENDBRANCH  49  63
BRANCH  50  75
ATOM     75  C   UNL A   1      43.592  23.251  26.897  1.00  0.00     0.058 A 
ATOM     76  C   UNL A   1      43.374  22.363  27.961  1.00  0.00     0.135 A 
ATOM     77  C   UNL A   1      43.401  22.769  25.593  1.00  0.00     0.135 A 
ATOM     78  F   UNL A   1      43.557  22.774  29.225  1.00  0.00    -0.206 F 
ATOM     79  C   UNL A   1      42.990  21.044  27.742  1.00  0.00     0.059 A 
ATOM     80  C   UNL A   1      42.992  21.462  25.350  1.00  0.00     0.059 A 
ATOM     81  F   UNL A   1      43.585  23.583  24.541  1.00  0.00    -0.206 F 
ATOM     82  C   UNL A   1      42.796  20.604  26.431  1.00  0.00     0.060 A 
BRANCH  82  83
ATOM     83  S   UNL A   1      42.237  18.908  26.159  1.00  0.00     0.124 S 
ATOM     84  O   UNL A   1      42.401  18.328  27.486  1.00  0.00    -0.237 OA
ATOM     85  O   UNL A   1      40.862  19.105  25.713  1.00  0.00    -0.237 OA
ATOM     86  O   UNL A   1      43.154  18.414  25.134  1.00  0.00    -0.744 OA
ENDBRANCH  82  83
ENDBRANCH  50  75
BRANCH  62  87
ATOM     87  C   UNL A   1      49.579  26.739  26.096  1.00  0.00     0.058 A 
ATOM     88  C   UNL A   1      50.009  26.980  24.782  1.00  0.00     0.135 A 
ATOM     89  C   UNL A   1      50.491  26.148  26.986  1.00  0.00     0.135 A 
ATOM     90  F   UNL A   1      49.173  27.533  23.888  1.00  0.00    -0.206 F 
ATOM     91  C   UNL A   1      51.290  26.637  24.361  1.00  0.00     0.059 A 
ATOM     92  C   UNL A   1      51.785  25.820  26.594  1.00  0.00     0.059 A 
ATOM     93  F   UNL A   1      50.132  25.903  28.257  1.00  0.00    -0.206 F 
ATOM     94  C   UNL A   1      52.172  26.060  25.277  1.00  0.00     0.060 A 
BRANCH  94  95
ATOM     95  S   UNL A   1      53.848  25.663  24.733  1.00  0.00     0.124 S 
ATOM     96  O   UNL A   1      53.905  24.226  24.984  1.00  0.00    -0.237 OA
ATOM     97  O   UNL A   1      53.824  26.060  23.328  1.00  0.00    -0.237 OA
ATOM     98  O   UNL A   1      54.690  26.486  25.596  1.00  0.00    -0.744 OA
ENDBRANCH  94  95
ENDBRANCH  62  87
ENDBRANCH  36  37
ENDBRANCH  28  31
ENDBRANCH  26  27
ENDBRANCH  25  26
ENDBRANCH  24  25
ENDBRANCH   1  24
TORSDOF 19
ENDMDL
MODEL 2
REMARK VINA RESULT:     -11.2      2.980      4.673
REMARK SMILES CCc1ccc(C[N@H+]2CC[C@@H](C(=O)NCCCCCCNC(=O)c3ccc(-c4c5nc(c(-c6c(F)cc(S(=O)(=O)[O-])cc6F)c6ccc([nH]6)c(-c6c(F)cc(S(=O)(=O)[O-])cc6F)c6nc(c(-c7c(F)cc(S(=O)(=O)[O-])cc7F)c7ccc4[nH]7)C=C6)C=C5)cc3)[C@@H]2C)cc1
REMARK SMILES IDX 17 1 16 2 15 3 14 4 12 5 13 6 11 8 8 9 9 10 90 11 10 13
REMARK SMILES IDX 91 14 7 15 6 16 3 17 4 18 93 19 5 20 92 21 2 22 1 23 18 24
REMARK SMILES IDX 19 25 20 26 21 27 22 28 23 30 24 31 25 32 89 33 26 34 88 35
REMARK SMILES IDX 27 36 28 37 29 38 82 39 30 40 87 41 81 42 83 43 31 44 86 45
REMARK SMILES IDX 80 46 79 47 32 49 66 50 45 51 65 52 46 53 49 54 64 55 84 56
REMARK SMILES IDX 47 57 48 58 63 60 85 61 50 62 33 63 34 64 43 65 35 66 36 67
REMARK SMILES IDX 42 68 44 69 37 70 38 71 39 72 40 73 41 74 67 75 68 76 77 77
REMARK SMILES IDX 69 78 70 79 76 80 78 81 71 82 72 83 73 84 74 85 75 86 51 87
REMARK SMILES IDX 52 88 61 89 53 90 54 91 60 92 62 93 55 94 56 95 57 96 58 97
REMARK SMILES IDX 59 98
REMARK H PARENT 14 7 8 12 21 29 83 48 49 59
REMARK Flexibility Score: inf
ROOT
ATOM      1  C   UNL A   1      35.041  25.098  25.744  1.00  0.00     0.002 C 
ENDROOT
BRANCH   1   2
ATOM      2  C   UNL A   1      34.810  23.593  25.505  1.00  0.00     0.021 C 
BRANCH   2   3
ATOM      3  C   UNL A   1      34.121  22.843  26.657  1.00  0.00     0.116 C 
BRANCH   3   4
ATOM      4  N   UNL A   1      33.608  21.554  26.234  1.00  0.00    -0.356 N 
ATOM      5  C   UNL A   1      32.510  21.192  25.528  1.00  0.00     0.229 C 
ATOM      6  O   UNL A   1      32.399  19.980  25.296  1.00  0.00    -0.275 OA
ATOM      7  H   UNL A   1      34.166  20.793  26.516  1.00  0.00     0.163 HD
BRANCH   5   8
ATOM      8  C   UNL A   1      31.448  22.144  24.984  1.00  0.00     0.142 C 
ATOM      9  N   UNL A   1      30.294  24.243  24.992  1.00  0.00    -0.328 N 
ATOM     10  C   UNL A   1      30.623  23.857  23.615  1.00  0.00     0.263 C 
ATOM     11  C   UNL A   1      30.859  23.219  25.905  1.00  0.00     0.193 C 
ATOM     12  H   UNL A   1      29.282  24.238  25.117  1.00  0.00     0.348 HD
ATOM     13  C   UNL A   1      31.813  22.916  23.730  1.00  0.00     0.081 C 
ATOM     14  C   UNL A   1      29.733  22.637  26.763  1.00  0.00     0.076 C 
BRANCH   9  15
ATOM     15  C   UNL A   1      30.563  25.655  25.325  1.00  0.00     0.299 C 
BRANCH  15  16
ATOM     16  C   UNL A   1      29.964  26.692  24.397  1.00  0.00     0.006 A 
ATOM     17  C   UNL A   1      28.738  28.846  23.034  1.00  0.00    -0.048 A 
ATOM     18  C   UNL A   1      28.012  27.721  23.420  1.00  0.00     0.004 A 
ATOM     19  C   UNL A   1      30.116  28.837  23.232  1.00  0.00     0.004 A 
ATOM     20  C   UNL A   1      28.615  26.642  24.067  1.00  0.00     0.010 A 
ATOM     21  C   UNL A   1      30.723  27.766  23.901  1.00  0.00     0.010 A 
BRANCH  17  22
ATOM     22  C   UNL A   1      28.011  30.026  22.444  1.00  0.00     0.032 C 
ATOM     23  C   UNL A   1      27.678  31.078  23.500  1.00  0.00     0.009 C 
ENDBRANCH  17  22
ENDBRANCH  15  16
ENDBRANCH   9  15
ENDBRANCH   5   8
ENDBRANCH   3   4
ENDBRANCH   2   3
ENDBRANCH   1   2
BRANCH   1  24
ATOM     24  C   UNL A   1      33.925  26.049  25.278  1.00  0.00     0.002 C 
BRANCH  24  25
ATOM     25  C   UNL A   1      33.687  27.279  26.164  1.00  0.00     0.021 C 
BRANCH  25  26
ATOM     26  C   UNL A   1      34.036  28.627  25.549  1.00  0.00     0.116 C 
BRANCH  26  27
ATOM     27  N   UNL A   1      33.727  29.742  26.427  1.00  0.00    -0.352 N 
ATOM     28  C   UNL A   1      34.384  30.307  27.494  1.00  0.00     0.251 C 
ATOM     29  H   UNL A   1      32.873  30.183  26.215  1.00  0.00     0.163 HD
ATOM     30  O   UNL A   1      33.772  31.148  28.155  1.00  0.00    -0.269 OA
BRANCH  28  31
ATOM     31  C   UNL A   1      35.770  29.941  27.904  1.00  0.00     0.039 A 
ATOM     32  C   UNL A   1      36.793  30.078  26.952  1.00  0.00     0.014 A 
ATOM     33  C   UNL A   1      36.087  29.378  29.140  1.00  0.00     0.014 A 
ATOM     34  C   UNL A   1      38.111  29.706  27.253  1.00  0.00     0.010 A 
ATOM     35  C   UNL A   1      37.417  29.088  29.471  1.00  0.00     0.010 A 
ATOM     36  C   UNL A   1      38.447  29.238  28.530  1.00  0.00    -0.014 A 
BRANCH  36  37
ATOM     37  C   UNL A   1      39.851  28.888  28.898  1.00  0.00     0.031 A 
ATOM     38  C   UNL A   1      40.763  29.922  29.511  1.00  0.00     0.074 A 
ATOM     39  C   UNL A   1      40.335  27.660  28.619  1.00  0.00     0.049 A 
ATOM     40  N   UNL A   1      42.045  29.849  29.767  1.00  0.00    -0.248 NA
ATOM     41  C   UNL A   1      40.160  31.219  29.858  1.00  0.00     0.031 C 
ATOM     42  C   UNL A   1      39.577  26.570  28.001  1.00  0.00     0.029 A 
ATOM     43  N   UNL A   1      41.589  27.126  28.800  1.00  0.00    -0.354 N 
ATOM     44  C   UNL A   1      42.408  31.095  30.271  1.00  0.00     0.074 A 
ATOM     45  C   UNL A   1      41.215  31.916  30.252  1.00  0.00     0.031 C 
ATOM     46  C   UNL A   1      40.374  25.499  27.866  1.00  0.00     0.029 A 
ATOM     47  C   UNL A   1      41.712  25.835  28.339  1.00  0.00     0.049 A 
ATOM     48  H   UNL A   1      42.330  27.621  29.220  1.00  0.00     0.167 HD
ATOM     49  C   UNL A   1      43.614  31.513  30.724  1.00  0.00     0.037 A 
ATOM     50  C   UNL A   1      42.784  25.019  28.278  1.00  0.00     0.037 A 
ATOM     51  C   UNL A   1      44.790  30.682  30.787  1.00  0.00     0.049 A 
ATOM     52  C   UNL A   1      44.115  25.506  28.782  1.00  0.00     0.074 A 
ATOM     53  C   UNL A   1      46.037  30.994  31.301  1.00  0.00     0.029 A 
ATOM     54  N   UNL A   1      44.865  29.377  30.323  1.00  0.00    -0.354 N 
ATOM     55  N   UNL A   1      44.425  26.671  29.298  1.00  0.00    -0.248 NA
ATOM     56  C   UNL A   1      45.245  24.569  28.693  1.00  0.00     0.031 C 
ATOM     57  C   UNL A   1      46.879  29.892  31.111  1.00  0.00     0.029 A 
ATOM     58  C   UNL A   1      46.144  28.878  30.517  1.00  0.00     0.049 A 
ATOM     59  H   UNL A   1      44.121  28.878  29.917  1.00  0.00     0.167 HD
ATOM     60  C   UNL A   1      45.779  26.604  29.606  1.00  0.00     0.074 A 
ATOM     61  C   UNL A   1      46.226  25.277  29.237  1.00  0.00     0.031 C 
ATOM     62  C   UNL A   1      46.580  27.557  30.144  1.00  0.00     0.037 A 
BRANCH  49  63
ATOM     63  C   UNL A   1      43.733  32.938  31.195  1.00  0.00     0.058 A 
ATOM     64  C   UNL A   1      43.616  33.280  32.551  1.00  0.00     0.135 A 
ATOM     65  C   UNL A   1      44.010  33.969  30.282  1.00  0.00     0.135 A 
ATOM     66  F   UNL A   1      43.341  32.336  33.465  1.00  0.00    -0.206 F 
ATOM     67  C   UNL A   1      43.738  34.597  32.983  1.00  0.00     0.059 A 
ATOM     68  C   UNL A   1      44.163  35.291  30.696  1.00  0.00     0.059 A 
ATOM     69  F   UNL A   1      44.136  33.699  28.974  1.00  0.00    -0.206 F 
ATOM     70  C   UNL A   1      44.009  35.597  32.047  1.00  0.00     0.060 A 
BRANCH  70  71
ATOM     71  S   UNL A   1      44.163  37.299  32.624  1.00  0.00     0.124 S 
ATOM     72  O   UNL A   1      45.458  37.263  33.296  1.00  0.00    -0.237 OA
ATOM     73  O   UNL A   1      44.117  38.059  31.379  1.00  0.00    -0.237 OA
ATOM     74  O   UNL A   1      43.007  37.468  33.501  1.00  0.00    -0.744 OA
ENDBRANCH  70  71
ENDBRANCH  49  63
BRANCH  50  75
ATOM     75  C   UNL A   1      42.642  23.652  27.709  1.00  0.00     0.058 A 
ATOM     76  C   UNL A   1      42.428  22.544  28.541  1.00  0.00     0.135 A 
ATOM     77  C   UNL A   1      42.701  23.429  26.324  1.00  0.00     0.135 A 
ATOM     78  F   UNL A   1      42.376  22.705  29.873  1.00  0.00    -0.206 F 
ATOM     79  C   UNL A   1      42.287  21.260  28.024  1.00  0.00     0.059 A 
ATOM     80  C   UNL A   1      42.537  22.159  25.782  1.00  0.00     0.059 A 
ATOM     81  F   UNL A   1      42.891  24.459  25.485  1.00  0.00    -0.206 F 
ATOM     82  C   UNL A   1      42.338  21.079  26.640  1.00  0.00     0.060 A 
BRANCH  82  83
ATOM     83  S   UNL A   1      42.092  19.418  25.974  1.00  0.00     0.124 S 
ATOM     84  O   UNL A   1      42.934  19.451  24.784  1.00  0.00    -0.237 OA
ATOM     85  O   UNL A   1      42.563  18.574  27.067  1.00  0.00    -0.237 OA
ATOM     86  O   UNL A   1      40.653  19.366  25.730  1.00  0.00    -0.744 OA
ENDBRANCH  82  83
ENDBRANCH  50  75
BRANCH  62  87
ATOM     87  C   UNL A   1      48.020  27.200  30.379  1.00  0.00     0.058 A 
ATOM     88  C   UNL A   1      49.027  27.584  29.481  1.00  0.00     0.135 A 
ATOM     89  C   UNL A   1      48.407  26.518  31.545  1.00  0.00     0.135 A 
ATOM     90  F   UNL A   1      48.709  28.230  28.346  1.00  0.00    -0.206 F 
ATOM     91  C   UNL A   1      50.366  27.294  29.721  1.00  0.00     0.059 A 
ATOM     92  C   UNL A   1      49.742  26.239  31.818  1.00  0.00     0.059 A 
ATOM     93  F   UNL A   1      47.484  26.135  32.441  1.00  0.00    -0.206 F 
ATOM     94  C   UNL A   1      50.714  26.623  30.895  1.00  0.00     0.060 A 
BRANCH  94  95
ATOM     95  S   UNL A   1      52.460  26.293  31.218  1.00  0.00     0.124 S 
ATOM     96  O   UNL A   1      52.977  26.097  29.867  1.00  0.00    -0.237 OA
ATOM     97  O   UNL A   1      52.892  27.514  31.891  1.00  0.00    -0.237 OA
ATOM     98  O   UNL A   1      52.430  25.099  32.058  1.00  0.00    -0.744 OA
ENDBRANCH  94  95
ENDBRANCH  62  87
ENDBRANCH  36  37
ENDBRANCH  28  31
ENDBRANCH  26  27
ENDBRANCH  25  26
ENDBRANCH  24  25
ENDBRANCH   1  24
TORSDOF 19
ENDMDL
MODEL 3
REMARK VINA RESULT:     -11.1      1.603      2.516
REMARK SMILES CCc1ccc(C[N@H+]2CC[C@@H](C(=O)NCCCCCCNC(=O)c3ccc(-c4c5nc(c(-c6c(F)cc(S(=O)(=O)[O-])cc6F)c6ccc([nH]6)c(-c6c(F)cc(S(=O)(=O)[O-])cc6F)c6nc(c(-c7c(F)cc(S(=O)(=O)[O-])cc7F)c7ccc4[nH]7)C=C6)C=C5)cc3)[C@@H]2C)cc1
REMARK SMILES IDX 17 1 16 2 15 3 14 4 12 5 13 6 11 8 8 9 9 10 90 11 10 13
REMARK SMILES IDX 91 14 7 15 6 16 3 17 4 18 93 19 5 20 92 21 2 22 1 23 18 24
REMARK SMILES IDX 19 25 20 26 21 27 22 28 23 30 24 31 25 32 89 33 26 34 88 35
REMARK SMILES IDX 27 36 28 37 29 38 82 39 30 40 87 41 81 42 83 43 31 44 86 45
REMARK SMILES IDX 80 46 79 47 32 49 66 50 45 51 65 52 46 53 49 54 64 55 84 56
REMARK SMILES IDX 47 57 48 58 63 60 85 61 50 62 33 63 34 64 43 65 35 66 36 67
REMARK SMILES IDX 42 68 44 69 37 70 38 71 39 72 40 73 41 74 67 75 68 76 77 77
REMARK SMILES IDX 69 78 70 79 76 80 78 81 71 82 72 83 73 84 74 85 75 86 51 87
REMARK SMILES IDX 52 88 61 89 53 90 54 91 60 92 62 93 55 94 56 95 57 96 58 97
REMARK SMILES IDX 59 98
REMARK H PARENT 14 7 8 12 21 29 83 48 49 59
REMARK Flexibility Score: inf
ROOT
ATOM      1  C   UNL A   1      31.731  29.862  26.498  1.00  0.00     0.002 C 
ENDROOT
BRANCH   1   2
ATOM      2  C   UNL A   1      31.118  30.463  25.217  1.00  0.00     0.021 C 
BRANCH   2   3
ATOM      3  C   UNL A   1      30.938  29.478  24.050  1.00  0.00     0.116 C 
BRANCH   3   4
ATOM      4  N   UNL A   1      32.172  29.278  23.315  1.00  0.00    -0.356 N 
ATOM      5  C   UNL A   1      33.046  28.245  23.257  1.00  0.00     0.229 C 
ATOM      6  O   UNL A   1      33.992  28.389  22.470  1.00  0.00    -0.275 OA
ATOM      7  H   UNL A   1      32.425  30.043  22.748  1.00  0.00     0.163 HD
BRANCH   5   8
ATOM      8  C   UNL A   1      32.937  26.941  24.043  1.00  0.00     0.142 C 
ATOM      9  N   UNL A   1      33.555  24.662  24.444  1.00  0.00    -0.328 N 
ATOM     10  C   UNL A   1      33.522  25.402  25.710  1.00  0.00     0.263 C 
ATOM     11  C   UNL A   1      33.257  25.613  23.345  1.00  0.00     0.193 C 
ATOM     12  H   UNL A   1      32.821  23.954  24.441  1.00  0.00     0.348 HD
ATOM     13  C   UNL A   1      33.731  26.862  25.332  1.00  0.00     0.081 C 
ATOM     14  C   UNL A   1      32.043  25.109  22.561  1.00  0.00     0.076 C 
BRANCH   9  15
ATOM     15  C   UNL A   1      34.727  23.783  24.265  1.00  0.00     0.299 C 
BRANCH  15  16
ATOM     16  C   UNL A   1      34.508  22.307  24.528  1.00  0.00     0.006 A 
ATOM     17  C   UNL A   1      34.206  19.495  24.592  1.00  0.00    -0.048 A 
ATOM     18  C   UNL A   1      33.142  20.335  24.271  1.00  0.00     0.004 A 
ATOM     19  C   UNL A   1      35.403  20.080  24.997  1.00  0.00     0.004 A 
ATOM     20  C   UNL A   1      33.274  21.723  24.265  1.00  0.00     0.010 A 
ATOM     21  C   UNL A   1      35.549  21.473  24.972  1.00  0.00     0.010 A 
BRANCH  17  22
ATOM     22  C   UNL A   1      34.033  18.003  24.468  1.00  0.00     0.032 C 
ATOM     23  C   UNL A   1      32.844  17.498  25.281  1.00  0.00     0.009 C 
ENDBRANCH  17  22
ENDBRANCH  15  16
ENDBRANCH   9  15
ENDBRANCH   5   8
ENDBRANCH   3   4
ENDBRANCH   2   3
ENDBRANCH   1   2
BRANCH   1  24
ATOM     24  C   UNL A   1      32.853  30.672  27.169  1.00  0.00     0.002 C 
BRANCH  24  25
ATOM     25  C   UNL A   1      34.284  30.262  26.796  1.00  0.00     0.021 C 
BRANCH  25  26
ATOM     26  C   UNL A   1      35.061  29.496  27.857  1.00  0.00     0.116 C 
BRANCH  26  27
ATOM     27  N   UNL A   1      35.239  30.257  29.082  1.00  0.00    -0.352 N 
ATOM     28  C   UNL A   1      36.319  30.475  29.904  1.00  0.00     0.251 C 
ATOM     29  H   UNL A   1      34.418  30.708  29.385  1.00  0.00     0.163 HD
ATOM     30  O   UNL A   1      36.106  31.034  30.981  1.00  0.00    -0.269 OA
BRANCH  28  31
ATOM     31  C   UNL A   1      37.710  30.053  29.576  1.00  0.00     0.039 A 
ATOM     32  C   UNL A   1      38.594  29.822  30.642  1.00  0.00     0.014 A 
ATOM     33  C   UNL A   1      38.208  29.974  28.275  1.00  0.00     0.014 A 
ATOM     34  C   UNL A   1      39.931  29.470  30.407  1.00  0.00     0.010 A 
ATOM     35  C   UNL A   1      39.519  29.539  28.039  1.00  0.00     0.010 A 
ATOM     36  C   UNL A   1      40.402  29.289  29.100  1.00  0.00    -0.014 A 
BRANCH  36  37
ATOM     37  C   UNL A   1      41.804  28.861  28.819  1.00  0.00     0.031 A 
ATOM     38  C   UNL A   1      42.929  29.867  28.830  1.00  0.00     0.074 A 
ATOM     39  C   UNL A   1      42.064  27.581  28.483  1.00  0.00     0.049 A 
ATOM     40  N   UNL A   1      44.181  29.715  28.476  1.00  0.00    -0.248 NA
ATOM     41  C   UNL A   1      42.597  31.230  29.272  1.00  0.00     0.031 C 
ATOM     42  C   UNL A   1      41.072  26.507  28.404  1.00  0.00     0.029 A 
ATOM     43  N   UNL A   1      43.242  26.966  28.126  1.00  0.00    -0.354 N 
ATOM     44  C   UNL A   1      44.775  30.965  28.620  1.00  0.00     0.074 A 
ATOM     45  C   UNL A   1      43.737  31.873  29.062  1.00  0.00     0.031 C 
ATOM     46  C   UNL A   1      41.680  25.369  28.034  1.00  0.00     0.029 A 
ATOM     47  C   UNL A   1      43.096  25.637  27.802  1.00  0.00     0.049 A 
ATOM     48  H   UNL A   1      44.108  27.434  28.104  1.00  0.00     0.167 HD
ATOM     49  C   UNL A   1      46.067  31.323  28.422  1.00  0.00     0.037 A 
ATOM     50  C   UNL A   1      43.990  24.737  27.345  1.00  0.00     0.037 A 
ATOM     51  C   UNL A   1      47.111  30.410  28.028  1.00  0.00     0.049 A 
ATOM     52  C   UNL A   1      45.418  25.157  27.127  1.00  0.00     0.074 A 
ATOM     53  C   UNL A   1      48.463  30.664  27.876  1.00  0.00     0.029 A 
ATOM     54  N   UNL A   1      46.921  29.070  27.726  1.00  0.00    -0.354 N 
ATOM     55  N   UNL A   1      45.968  26.333  27.315  1.00  0.00    -0.248 NA
ATOM     56  C   UNL A   1      46.347  24.131  26.632  1.00  0.00     0.031 C 
ATOM     57  C   UNL A   1      49.085  29.489  27.442  1.00  0.00     0.029 A 
ATOM     58  C   UNL A   1      48.127  28.491  27.364  1.00  0.00     0.049 A 
ATOM     59  H   UNL A   1      46.057  28.600  27.762  1.00  0.00     0.167 HD
ATOM     60  C   UNL A   1      47.308  26.185  26.973  1.00  0.00     0.074 A 
ATOM     61  C   UNL A   1      47.491  24.802  26.585  1.00  0.00     0.031 C 
ATOM     62  C   UNL A   1      48.297  27.113  26.978  1.00  0.00     0.037 A 
BRANCH  49  63
ATOM     63  C   UNL A   1      46.436  32.768  28.629  1.00  0.00     0.058 A 
ATOM     64  C   UNL A   1      46.802  33.263  29.890  1.00  0.00     0.135 A 
ATOM     65  C   UNL A   1      46.464  33.659  27.544  1.00  0.00     0.135 A 
ATOM     66  F   UNL A   1      46.782  32.458  30.964  1.00  0.00    -0.206 F 
ATOM     67  C   UNL A   1      47.153  34.597  30.075  1.00  0.00     0.059 A 
ATOM     68  C   UNL A   1      46.839  34.991  27.700  1.00  0.00     0.059 A 
ATOM     69  F   UNL A   1      46.128  33.239  26.314  1.00  0.00    -0.206 F 
ATOM     70  C   UNL A   1      47.166  35.454  28.974  1.00  0.00     0.060 A 
BRANCH  70  71
ATOM     71  S   UNL A   1      47.624  37.181  29.231  1.00  0.00     0.124 S 
ATOM     72  O   UNL A   1      47.417  37.326  30.668  1.00  0.00    -0.237 OA
ATOM     73  O   UNL A   1      49.013  37.208  28.785  1.00  0.00    -0.237 OA
ATOM     74  O   UNL A   1      46.683  37.912  28.385  1.00  0.00    -0.744 OA
ENDBRANCH  70  71
ENDBRANCH  49  63
BRANCH  50  75
ATOM     75  C   UNL A   1      43.557  23.344  27.055  1.00  0.00     0.058 A 
ATOM     76  C   UNL A   1      43.285  22.443  28.095  1.00  0.00     0.135 A 
ATOM     77  C   UNL A   1      43.391  22.891  25.737  1.00  0.00     0.135 A 
ATOM     78  F   UNL A   1      43.441  22.826  29.373  1.00  0.00    -0.206 F 
ATOM     79  C   UNL A   1      42.872  21.139  27.841  1.00  0.00     0.059 A 
ATOM     80  C   UNL A   1      42.955  21.600  25.458  1.00  0.00     0.059 A 
ATOM     81  F   UNL A   1      43.627  23.718  24.707  1.00  0.00    -0.206 F 
ATOM     82  C   UNL A   1      42.706  20.728  26.517  1.00  0.00     0.060 A 
BRANCH  82  83
ATOM     83  S   UNL A   1      42.111  19.053  26.197  1.00  0.00     0.124 S 
ATOM     84  O   UNL A   1      42.328  18.413  27.488  1.00  0.00    -0.237 OA
ATOM     85  O   UNL A   1      40.720  19.286  25.824  1.00  0.00    -0.237 OA
ATOM     86  O   UNL A   1      42.973  18.594  25.110  1.00  0.00    -0.744 OA
ENDBRANCH  82  83
ENDBRANCH  50  75
BRANCH  62  87
ATOM     87  C   UNL A   1      49.670  26.665  26.564  1.00  0.00     0.058 A 
ATOM     88  C   UNL A   1      50.548  26.058  27.475  1.00  0.00     0.135 A 
ATOM     89  C   UNL A   1      50.092  26.789  25.230  1.00  0.00     0.135 A 
ATOM     90  F   UNL A   1      50.198  25.923  28.764  1.00  0.00    -0.206 F 
ATOM     91  C   UNL A   1      51.803  25.602  27.082  1.00  0.00     0.059 A 
ATOM     92  C   UNL A   1      51.332  26.319  24.810  1.00  0.00     0.059 A 
ATOM     93  F   UNL A   1      49.287  27.356  24.317  1.00  0.00    -0.206 F 
ATOM     94  C   UNL A   1      52.184  25.735  25.745  1.00  0.00     0.060 A 
BRANCH  94  95
ATOM     95  S   UNL A   1      53.796  25.097  25.238  1.00  0.00     0.124 S 
ATOM     96  O   UNL A   1      53.941  25.689  23.912  1.00  0.00    -0.237 OA
ATOM     97  O   UNL A   1      54.682  25.628  26.269  1.00  0.00    -0.237 OA
ATOM     98  O   UNL A   1      53.613  23.649  25.264  1.00  0.00    -0.744 OA
ENDBRANCH  94  95
ENDBRANCH  62  87
ENDBRANCH  36  37
ENDBRANCH  28  31
ENDBRANCH  26  27
ENDBRANCH  25  26
ENDBRANCH  24  25
ENDBRANCH   1  24
TORSDOF 19
ENDMDL
