MODEL 1
REMARK VINA RESULT:     -11.7      0.000      0.000
REMARK SMILES NC(=O)[C@@H]1CCCCN1c1cncc(C(=O)NCCCCCCNC(=O)c2ccc(-c3c4nc(c(-c5c(F)cc(S(=O)(=O)[O-])cc5F)c5ccc([nH]5)c(-c5c(F)cc(S(=O)(=O)[O-])cc5F)c5nc(c(-c6c(F)cc(S(=O)(=O)[O-])cc6F)c6ccc3[nH]6)C=C5)C=C4)cc2)n1
REMARK SMILES IDX 21 1 20 2 19 3 18 4 17 5 15 6 16 7 14 9 10 10 11 11 93 12
REMARK SMILES IDX 12 13 13 14 9 15 4 16 5 17 6 18 8 19 7 20 2 21 1 22 3 25
REMARK SMILES IDX 22 26 23 27 24 28 25 29 26 31 27 32 28 33 92 34 29 35 91 36
REMARK SMILES IDX 30 37 31 38 32 39 85 40 33 41 90 42 84 43 86 44 34 45 89 46
REMARK SMILES IDX 83 47 82 48 35 50 69 51 48 52 68 53 49 54 52 55 67 56 87 57
REMARK SMILES IDX 50 58 51 59 66 61 88 62 53 63 36 64 37 65 46 66 38 67 39 68
REMARK SMILES IDX 45 69 47 70 40 71 41 72 42 73 43 74 44 75 70 76 71 77 80 78
REMARK SMILES IDX 72 79 73 80 79 81 81 82 74 83 75 84 76 85 77 86 78 87 54 88
REMARK SMILES IDX 55 89 64 90 56 91 57 92 63 93 65 94 58 95 59 96 60 97 61 98
REMARK SMILES IDX 62 99
REMARK H PARENT 17 8 1 23 1 24 24 30 86 49 52 60
REMARK Flexibility Score: inf
ROOT
ATOM      1  C   UNL A   1      32.687  29.965  27.271  1.00  0.00     0.002 C 
ENDROOT
BRANCH   1   2
ATOM      2  C   UNL A   1      31.808  28.709  27.304  1.00  0.00     0.002 C 
BRANCH   2   3
ATOM      3  C   UNL A   1      32.181  27.640  26.271  1.00  0.00     0.021 C 
BRANCH   3   4
ATOM      4  C   UNL A   1      30.986  26.815  25.799  1.00  0.00     0.116 C 
BRANCH   4   5
ATOM      5  N   UNL A   1      30.794  25.657  26.652  1.00  0.00    -0.351 N 
ATOM      6  C   UNL A   1      31.013  24.319  26.420  1.00  0.00     0.271 C 
ATOM      7  O   UNL A   1      30.707  23.532  27.321  1.00  0.00    -0.267 OA
ATOM      8  H   UNL A   1      30.447  25.865  27.550  1.00  0.00     0.163 HD
BRANCH   6   9
ATOM      9  C   UNL A   1      31.609  23.790  25.158  1.00  0.00     0.148 A 
ATOM     10  C   UNL A   1      33.347  22.800  24.012  1.00  0.00     0.148 A 
ATOM     11  C   UNL A   1      32.490  22.679  22.909  1.00  0.00     0.157 A 
ATOM     12  N   UNL A   1      32.916  23.423  25.121  1.00  0.00    -0.222 NA
ATOM     13  N   UNL A   1      31.203  23.106  22.886  1.00  0.00    -0.258 NA
ATOM     14  C   UNL A   1      30.777  23.638  24.056  1.00  0.00     0.145 A 
BRANCH  10  15
ATOM     15  N   UNL A   1      34.616  22.261  23.978  1.00  0.00    -0.343 N 
ATOM     16  C   UNL A   1      35.017  21.092  24.792  1.00  0.00     0.172 C 
ATOM     17  C   UNL A   1      35.930  21.518  25.949  1.00  0.00     0.035 C 
ATOM     18  C   UNL A   1      37.103  22.350  25.435  1.00  0.00     0.004 C 
ATOM     19  C   UNL A   1      35.686  23.131  23.495  1.00  0.00     0.119 C 
ATOM     20  C   UNL A   1      36.598  23.557  24.647  1.00  0.00     0.022 C 
BRANCH  16  21
ATOM     21  C   UNL A   1      33.912  20.118  25.284  1.00  0.00     0.240 C 
ATOM     22  N   UNL A   1      33.493  20.338  26.574  1.00  0.00    -0.368 N 
ATOM     23  H   UNL A   1      32.794  19.768  26.968  1.00  0.00     0.159 HD
ATOM     24  H   UNL A   1      33.892  21.065  27.104  1.00  0.00     0.159 HD
ATOM     25  O   UNL A   1      33.389  19.197  24.666  1.00  0.00    -0.273 OA
ENDBRANCH  16  21
ENDBRANCH  10  15
ENDBRANCH   6   9
ENDBRANCH   4   5
ENDBRANCH   3   4
ENDBRANCH   2   3
ENDBRANCH   1   2
BRANCH   1  26
ATOM     26  C   UNL A   1      34.074  29.766  26.654  1.00  0.00     0.021 C 
BRANCH  26  27
ATOM     27  C   UNL A   1      35.144  29.330  27.648  1.00  0.00     0.116 C 
BRANCH  27  28
ATOM     28  N   UNL A   1      35.212  30.226  28.793  1.00  0.00    -0.352 N 
ATOM     29  C   UNL A   1      36.257  30.459  29.649  1.00  0.00     0.251 C 
ATOM     30  H   UNL A   1      34.391  30.735  28.979  1.00  0.00     0.163 HD
ATOM     31  O   UNL A   1      36.067  31.078  30.695  1.00  0.00    -0.269 OA
BRANCH  29  32
ATOM     32  C   UNL A   1      37.604  29.954  29.317  1.00  0.00     0.039 A 
ATOM     33  C   UNL A   1      38.005  29.917  27.980  1.00  0.00     0.014 A 
ATOM     34  C   UNL A   1      38.469  29.516  30.324  1.00  0.00     0.014 A 
ATOM     35  C   UNL A   1      39.295  29.491  27.658  1.00  0.00     0.010 A 
ATOM     36  C   UNL A   1      39.779  29.168  30.008  1.00  0.00     0.010 A 
ATOM     37  C   UNL A   1      40.203  29.144  28.671  1.00  0.00    -0.014 A 
BRANCH  37  38
ATOM     38  C   UNL A   1      41.602  28.756  28.353  1.00  0.00     0.031 A 
ATOM     39  C   UNL A   1      42.693  29.791  28.354  1.00  0.00     0.074 A 
ATOM     40  C   UNL A   1      41.874  27.484  28.003  1.00  0.00     0.049 A 
ATOM     41  N   UNL A   1      43.961  29.654  28.059  1.00  0.00    -0.248 NA
ATOM     42  C   UNL A   1      42.305  31.166  28.706  1.00  0.00     0.031 C 
ATOM     43  C   UNL A   1      40.893  26.399  27.925  1.00  0.00     0.029 A 
ATOM     44  N   UNL A   1      43.057  26.887  27.642  1.00  0.00    -0.354 N 
ATOM     45  C   UNL A   1      44.515  30.925  28.170  1.00  0.00     0.074 A 
ATOM     46  C   UNL A   1      43.436  31.827  28.507  1.00  0.00     0.031 C 
ATOM     47  C   UNL A   1      41.520  25.263  27.579  1.00  0.00     0.029 A 
ATOM     48  C   UNL A   1      42.936  25.545  27.365  1.00  0.00     0.049 A 
ATOM     49  H   UNL A   1      43.910  27.373  27.587  1.00  0.00     0.167 HD
ATOM     50  C   UNL A   1      45.808  31.301  28.021  1.00  0.00     0.037 A 
ATOM     51  C   UNL A   1      43.861  24.644  26.980  1.00  0.00     0.037 A 
ATOM     52  C   UNL A   1      46.879  30.390  27.708  1.00  0.00     0.049 A 
ATOM     53  C   UNL A   1      45.289  25.089  26.807  1.00  0.00     0.074 A 
ATOM     54  C   UNL A   1      48.233  30.655  27.610  1.00  0.00     0.029 A 
ATOM     55  N   UNL A   1      46.716  29.040  27.428  1.00  0.00    -0.354 N 
ATOM     56  N   UNL A   1      45.809  26.279  26.989  1.00  0.00    -0.248 NA
ATOM     57  C   UNL A   1      46.254  24.068  26.379  1.00  0.00     0.031 C 
ATOM     58  C   UNL A   1      48.881  29.482  27.210  1.00  0.00     0.029 A 
ATOM     59  C   UNL A   1      47.941  28.468  27.121  1.00  0.00     0.049 A 
ATOM     60  H   UNL A   1      45.858  28.559  27.445  1.00  0.00     0.167 HD
ATOM     61  C   UNL A   1      47.169  26.142  26.731  1.00  0.00     0.074 A 
ATOM     62  C   UNL A   1      47.389  24.752  26.386  1.00  0.00     0.031 C 
ATOM     63  C   UNL A   1      48.146  27.081  26.780  1.00  0.00     0.037 A 
BRANCH  50  64
ATOM     64  C   UNL A   1      46.133  32.763  28.179  1.00  0.00     0.058 A 
ATOM     65  C   UNL A   1      46.538  33.309  29.409  1.00  0.00     0.135 A 
ATOM     66  C   UNL A   1      46.053  33.630  27.076  1.00  0.00     0.135 A 
ATOM     67  F   UNL A   1      46.620  32.532  30.500  1.00  0.00    -0.206 F 
ATOM     68  C   UNL A   1      46.808  34.667  29.548  1.00  0.00     0.059 A 
ATOM     69  C   UNL A   1      46.352  34.985  27.185  1.00  0.00     0.059 A 
ATOM     70  F   UNL A   1      45.675  33.164  25.875  1.00  0.00    -0.206 F 
ATOM     71  C   UNL A   1      46.708  35.498  28.432  1.00  0.00     0.060 A 
BRANCH  71  72
ATOM     72  S   UNL A   1      47.043  37.260  28.634  1.00  0.00     0.124 S 
ATOM     73  O   UNL A   1      46.954  37.408  30.083  1.00  0.00    -0.237 OA
ATOM     74  O   UNL A   1      48.381  37.390  28.066  1.00  0.00    -0.237 OA
ATOM     75  O   UNL A   1      45.977  37.899  27.871  1.00  0.00    -0.744 OA
ENDBRANCH  71  72
ENDBRANCH  50  64
BRANCH  51  76
ATOM     76  C   UNL A   1      43.472  23.224  26.771  1.00  0.00     0.058 A 
ATOM     77  C   UNL A   1      43.187  22.392  27.864  1.00  0.00     0.135 A 
ATOM     78  C   UNL A   1      43.351  22.678  25.484  1.00  0.00     0.135 A 
ATOM     79  F   UNL A   1      43.297  22.865  29.114  1.00  0.00    -0.206 F 
ATOM     80  C   UNL A   1      42.806  21.065  27.691  1.00  0.00     0.059 A 
ATOM     81  C   UNL A   1      42.946  21.361  25.284  1.00  0.00     0.059 A 
ATOM     82  F   UNL A   1      43.595  23.436  24.404  1.00  0.00    -0.206 F 
ATOM     83  C   UNL A   1      42.682  20.561  26.394  1.00  0.00     0.060 A 
BRANCH  83  84
ATOM     84  S   UNL A   1      42.129  18.855  26.180  1.00  0.00     0.124 S 
ATOM     85  O   UNL A   1      43.065  18.366  25.176  1.00  0.00    -0.237 OA
ATOM     86  O   UNL A   1      42.289  18.312  27.525  1.00  0.00    -0.237 OA
ATOM     87  O   UNL A   1      40.746  19.007  25.735  1.00  0.00    -0.744 OA
ENDBRANCH  83  84
ENDBRANCH  51  76
BRANCH  63  88
ATOM     88  C   UNL A   1      49.554  26.635  26.490  1.00  0.00     0.058 A 
ATOM     89  C   UNL A   1      50.355  26.022  27.466  1.00  0.00     0.135 A 
ATOM     90  C   UNL A   1      50.090  26.775  25.199  1.00  0.00     0.135 A 
ATOM     91  F   UNL A   1      49.896  25.870  28.719  1.00  0.00    -0.206 F 
ATOM     92  C   UNL A   1      51.646  25.587  27.180  1.00  0.00     0.059 A 
ATOM     93  C   UNL A   1      51.365  26.319  24.882  1.00  0.00     0.059 A 
ATOM     94  F   UNL A   1      49.364  27.345  24.223  1.00  0.00    -0.206 F 
ATOM     95  C   UNL A   1      52.141  25.737  25.883  1.00  0.00     0.060 A 
BRANCH  95  96
ATOM     96  S   UNL A   1      53.802  25.135  25.517  1.00  0.00     0.124 S 
ATOM     97  O   UNL A   1      54.087  25.808  24.253  1.00  0.00    -0.237 OA
ATOM     98  O   UNL A   1      54.564  25.603  26.670  1.00  0.00    -0.237 OA
ATOM     99  O   UNL A   1      53.629  23.688  25.432  1.00  0.00    -0.744 OA
ENDBRANCH  95  96
ENDBRANCH  63  88
ENDBRANCH  37  38
ENDBRANCH  29  32
ENDBRANCH  27  28
ENDBRANCH  26  27
ENDBRANCH   1  26
TORSDOF 18
ENDMDL
MODEL 2
REMARK VINA RESULT:     -11.4      0.593      8.250
REMARK SMILES NC(=O)[C@@H]1CCCCN1c1cncc(C(=O)NCCCCCCNC(=O)c2ccc(-c3c4nc(c(-c5c(F)cc(S(=O)(=O)[O-])cc5F)c5ccc([nH]5)c(-c5c(F)cc(S(=O)(=O)[O-])cc5F)c5nc(c(-c6c(F)cc(S(=O)(=O)[O-])cc6F)c6ccc3[nH]6)C=C5)C=C4)cc2)n1
REMARK SMILES IDX 21 1 20 2 19 3 18 4 17 5 15 6 16 7 14 9 10 10 11 11 93 12
REMARK SMILES IDX 12 13 13 14 9 15 4 16 5 17 6 18 8 19 7 20 2 21 1 22 3 25
REMARK SMILES IDX 22 26 23 27 24 28 25 29 26 31 27 32 28 33 92 34 29 35 91 36
REMARK SMILES IDX 30 37 31 38 32 39 85 40 33 41 90 42 84 43 86 44 34 45 89 46
REMARK SMILES IDX 83 47 82 48 35 50 69 51 48 52 68 53 49 54 52 55 67 56 87 57
REMARK SMILES IDX 50 58 51 59 66 61 88 62 53 63 36 64 37 65 46 66 38 67 39 68
REMARK SMILES IDX 45 69 47 70 40 71 41 72 42 73 43 74 44 75 70 76 71 77 80 78
REMARK SMILES IDX 72 79 73 80 79 81 81 82 74 83 75 84 76 85 77 86 78 87 54 88
REMARK SMILES IDX 55 89 64 90 56 91 57 92 63 93 65 94 58 95 59 96 60 97 61 98
REMARK SMILES IDX 62 99
REMARK H PARENT 17 8 1 23 1 24 24 30 86 49 52 60
REMARK Flexibility Score: inf
ROOT
ATOM      1  C   UNL A   1      32.962  29.311  27.273  1.00  0.00     0.002 C 
ENDROOT
BRANCH   1   2
ATOM      2  C   UNL A   1      31.814  28.294  27.329  1.00  0.00     0.002 C 
BRANCH   2   3
ATOM      3  C   UNL A   1      31.996  27.074  26.420  1.00  0.00     0.021 C 
BRANCH   3   4
ATOM      4  C   UNL A   1      30.677  26.412  26.029  1.00  0.00     0.116 C 
BRANCH   4   5
ATOM      5  N   UNL A   1      30.513  25.148  26.721  1.00  0.00    -0.351 N 
ATOM      6  C   UNL A   1      30.854  23.866  26.353  1.00  0.00     0.271 C 
ATOM      7  O   UNL A   1      30.544  22.955  27.127  1.00  0.00    -0.267 OA
ATOM      8  H   UNL A   1      30.083  25.219  27.603  1.00  0.00     0.163 HD
BRANCH   6   9
ATOM      9  C   UNL A   1      31.585  23.539  25.094  1.00  0.00     0.148 A 
ATOM     10  C   UNL A   1      33.472  22.801  23.994  1.00  0.00     0.148 A 
ATOM     11  C   UNL A   1      32.719  22.780  22.812  1.00  0.00     0.157 A 
ATOM     12  N   UNL A   1      32.911  23.250  25.129  1.00  0.00    -0.222 NA
ATOM     13  N   UNL A   1      31.413  23.137  22.727  1.00  0.00    -0.258 NA
ATOM     14  C   UNL A   1      30.859  23.489  23.911  1.00  0.00     0.145 A 
BRANCH  10  15
ATOM     15  N   UNL A   1      34.771  22.339  24.007  1.00  0.00    -0.343 N 
ATOM     16  C   UNL A   1      35.186  21.119  24.735  1.00  0.00     0.172 C 
ATOM     17  C   UNL A   1      35.985  21.478  25.995  1.00  0.00     0.035 C 
ATOM     18  C   UNL A   1      37.138  22.421  25.654  1.00  0.00     0.004 C 
ATOM     19  C   UNL A   1      35.817  23.310  23.692  1.00  0.00     0.119 C 
ATOM     20  C   UNL A   1      36.616  23.669  24.947  1.00  0.00     0.022 C 
BRANCH  16  21
ATOM     21  C   UNL A   1      34.111  20.042  25.047  1.00  0.00     0.240 C 
ATOM     22  N   UNL A   1      33.426  20.244  26.220  1.00  0.00    -0.368 N 
ATOM     23  H   UNL A   1      32.725  19.610  26.497  1.00  0.00     0.159 HD
ATOM     24  H   UNL A   1      33.636  21.022  26.785  1.00  0.00     0.159 HD
ATOM     25  O   UNL A   1      33.817  19.055  24.380  1.00  0.00    -0.273 OA
ENDBRANCH  16  21
ENDBRANCH  10  15
ENDBRANCH   6   9
ENDBRANCH   4   5
ENDBRANCH   3   4
ENDBRANCH   2   3
ENDBRANCH   1   2
BRANCH   1  26
ATOM     26  C   UNL A   1      34.338  28.714  26.971  1.00  0.00     0.021 C 
BRANCH  26  27
ATOM     27  C   UNL A   1      35.507  29.545  27.487  1.00  0.00     0.116 C 
BRANCH  27  28
ATOM     28  N   UNL A   1      35.411  29.779  28.919  1.00  0.00    -0.352 N 
ATOM     29  C   UNL A   1      36.374  29.648  29.885  1.00  0.00     0.251 C 
ATOM     30  H   UNL A   1      34.527  30.072  29.240  1.00  0.00     0.163 HD
ATOM     31  O   UNL A   1      36.059  29.670  31.075  1.00  0.00    -0.269 OA
BRANCH  29  32
ATOM     32  C   UNL A   1      37.786  29.469  29.494  1.00  0.00     0.039 A 
ATOM     33  C   UNL A   1      38.683  28.929  30.419  1.00  0.00     0.014 A 
ATOM     34  C   UNL A   1      38.225  29.835  28.218  1.00  0.00     0.014 A 
ATOM     35  C   UNL A   1      40.011  28.707  30.043  1.00  0.00     0.010 A 
ATOM     36  C   UNL A   1      39.526  29.539  27.822  1.00  0.00     0.010 A 
ATOM     37  C   UNL A   1      40.434  28.980  28.732  1.00  0.00    -0.014 A 
BRANCH  37  38
ATOM     38  C   UNL A   1      41.822  28.684  28.294  1.00  0.00     0.031 A 
ATOM     39  C   UNL A   1      42.203  27.291  27.872  1.00  0.00     0.074 A 
ATOM     40  C   UNL A   1      42.754  29.657  28.337  1.00  0.00     0.049 A 
ATOM     41  N   UNL A   1      43.370  26.830  27.503  1.00  0.00    -0.248 NA
ATOM     42  C   UNL A   1      41.137  26.276  27.895  1.00  0.00     0.031 C 
ATOM     43  C   UNL A   1      42.516  31.037  28.767  1.00  0.00     0.029 A 
ATOM     44  N   UNL A   1      44.089  29.635  28.019  1.00  0.00    -0.354 N 
ATOM     45  C   UNL A   1      43.185  25.472  27.269  1.00  0.00     0.074 A 
ATOM     46  C   UNL A   1      41.807  25.174  27.589  1.00  0.00     0.031 C 
ATOM     47  C   UNL A   1      43.656  31.737  28.650  1.00  0.00     0.029 A 
ATOM     48  C   UNL A   1      44.715  30.849  28.181  1.00  0.00     0.049 A 
ATOM     49  H   UNL A   1      44.554  28.827  27.705  1.00  0.00     0.167 HD
ATOM     50  C   UNL A   1      44.078  24.561  26.812  1.00  0.00     0.037 A 
ATOM     51  C   UNL A   1      45.999  31.205  27.977  1.00  0.00     0.037 A 
ATOM     52  C   UNL A   1      45.443  24.874  26.475  1.00  0.00     0.049 A 
ATOM     53  C   UNL A   1      46.976  30.172  27.483  1.00  0.00     0.074 A 
ATOM     54  C   UNL A   1      46.407  24.043  25.933  1.00  0.00     0.029 A 
ATOM     55  N   UNL A   1      46.042  26.113  26.658  1.00  0.00    -0.354 N 
ATOM     56  N   UNL A   1      46.767  28.910  27.195  1.00  0.00    -0.248 NA
ATOM     57  C   UNL A   1      48.363  30.614  27.285  1.00  0.00     0.031 C 
ATOM     58  C   UNL A   1      47.605  24.760  25.848  1.00  0.00     0.029 A 
ATOM     59  C   UNL A   1      47.373  26.058  26.276  1.00  0.00     0.049 A 
ATOM     60  H   UNL A   1      45.589  26.913  27.009  1.00  0.00     0.167 HD
ATOM     61  C   UNL A   1      47.987  28.415  26.749  1.00  0.00     0.074 A 
ATOM     62  C   UNL A   1      48.926  29.516  26.801  1.00  0.00     0.031 C 
ATOM     63  C   UNL A   1      48.299  27.163  26.331  1.00  0.00     0.037 A 
BRANCH  50  64
ATOM     64  C   UNL A   1      43.611  23.137  26.668  1.00  0.00     0.058 A 
ATOM     65  C   UNL A   1      43.359  22.318  27.782  1.00  0.00     0.135 A 
ATOM     66  C   UNL A   1      43.398  22.587  25.393  1.00  0.00     0.135 A 
ATOM     67  F   UNL A   1      43.556  22.786  29.024  1.00  0.00    -0.206 F 
ATOM     68  C   UNL A   1      42.955  20.994  27.635  1.00  0.00     0.059 A 
ATOM     69  C   UNL A   1      42.961  21.276  25.225  1.00  0.00     0.059 A 
ATOM     70  F   UNL A   1      43.621  23.322  24.293  1.00  0.00    -0.206 F 
ATOM     71  C   UNL A   1      42.763  20.481  26.352  1.00  0.00     0.060 A 
BRANCH  71  72
ATOM     72  S   UNL A   1      42.257  18.757  26.179  1.00  0.00     0.124 S 
ATOM     73  O   UNL A   1      43.195  18.280  25.167  1.00  0.00    -0.237 OA
ATOM     74  O   UNL A   1      42.461  18.235  27.526  1.00  0.00    -0.237 OA
ATOM     75  O   UNL A   1      40.867  18.851  25.750  1.00  0.00    -0.744 OA
ENDBRANCH  71  72
ENDBRANCH  50  64
BRANCH  51  76
ATOM     76  C   UNL A   1      46.421  32.613  28.201  1.00  0.00     0.058 A 
ATOM     77  C   UNL A   1      46.289  33.571  27.185  1.00  0.00     0.135 A 
ATOM     78  C   UNL A   1      46.940  33.036  29.435  1.00  0.00     0.135 A 
ATOM     79  F   UNL A   1      45.807  33.214  25.986  1.00  0.00    -0.206 F 
ATOM     80  C   UNL A   1      46.664  34.897  27.379  1.00  0.00     0.059 A 
ATOM     81  C   UNL A   1      47.298  34.362  29.662  1.00  0.00     0.059 A 
ATOM     82  F   UNL A   1      47.071  32.163  30.446  1.00  0.00    -0.206 F 
ATOM     83  C   UNL A   1      47.162  35.284  28.625  1.00  0.00     0.060 A 
BRANCH  83  84
ATOM     84  S   UNL A   1      47.589  37.019  28.883  1.00  0.00     0.124 S 
ATOM     85  O   UNL A   1      48.544  37.251  27.807  1.00  0.00    -0.237 OA
ATOM     86  O   UNL A   1      46.293  37.676  28.743  1.00  0.00    -0.237 OA
ATOM     87  O   UNL A   1      48.144  37.029  30.234  1.00  0.00    -0.744 OA
ENDBRANCH  83  84
ENDBRANCH  51  76
BRANCH  63  88
ATOM     88  C   UNL A   1      49.707  26.919  25.858  1.00  0.00     0.058 A 
ATOM     89  C   UNL A   1      50.101  27.174  24.535  1.00  0.00     0.135 A 
ATOM     90  C   UNL A   1      50.690  26.473  26.758  1.00  0.00     0.135 A 
ATOM     91  F   UNL A   1      49.200  27.594  23.631  1.00  0.00    -0.206 F 
ATOM     92  C   UNL A   1      51.412  26.972  24.114  1.00  0.00     0.059 A 
ATOM     93  C   UNL A   1      52.012  26.296  26.368  1.00  0.00     0.059 A 
ATOM     94  F   UNL A   1      50.371  26.223  28.038  1.00  0.00    -0.206 F 
ATOM     95  C   UNL A   1      52.362  26.536  25.040  1.00  0.00     0.060 A 
BRANCH  95  96
ATOM     96  S   UNL A   1      54.066  26.314  24.490  1.00  0.00     0.124 S 
ATOM     97  O   UNL A   1      53.907  26.300  23.039  1.00  0.00    -0.237 OA
ATOM     98  O   UNL A   1      54.728  27.491  25.043  1.00  0.00    -0.237 OA
ATOM     99  O   UNL A   1      54.455  25.042  25.091  1.00  0.00    -0.744 OA
ENDBRANCH  95  96
ENDBRANCH  63  88
ENDBRANCH  37  38
ENDBRANCH  29  32
ENDBRANCH  27  28
ENDBRANCH  26  27
ENDBRANCH   1  26
TORSDOF 18
ENDMDL
MODEL 3
REMARK VINA RESULT:     -11.4      0.708      1.480
REMARK SMILES NC(=O)[C@@H]1CCCCN1c1cncc(C(=O)NCCCCCCNC(=O)c2ccc(-c3c4nc(c(-c5c(F)cc(S(=O)(=O)[O-])cc5F)c5ccc([nH]5)c(-c5c(F)cc(S(=O)(=O)[O-])cc5F)c5nc(c(-c6c(F)cc(S(=O)(=O)[O-])cc6F)c6ccc3[nH]6)C=C5)C=C4)cc2)n1
REMARK SMILES IDX 21 1 20 2 19 3 18 4 17 5 15 6 16 7 14 9 10 10 11 11 93 12
REMARK SMILES IDX 12 13 13 14 9 15 4 16 5 17 6 18 8 19 7 20 2 21 1 22 3 25
REMARK SMILES IDX 22 26 23 27 24 28 25 29 26 31 27 32 28 33 92 34 29 35 91 36
REMARK SMILES IDX 30 37 31 38 32 39 85 40 33 41 90 42 84 43 86 44 34 45 89 46
REMARK SMILES IDX 83 47 82 48 35 50 69 51 48 52 68 53 49 54 52 55 67 56 87 57
REMARK SMILES IDX 50 58 51 59 66 61 88 62 53 63 36 64 37 65 46 66 38 67 39 68
REMARK SMILES IDX 45 69 47 70 40 71 41 72 42 73 43 74 44 75 70 76 71 77 80 78
REMARK SMILES IDX 72 79 73 80 79 81 81 82 74 83 75 84 76 85 77 86 78 87 54 88
REMARK SMILES IDX 55 89 64 90 56 91 57 92 63 93 65 94 58 95 59 96 60 97 61 98
REMARK SMILES IDX 62 99
REMARK H PARENT 17 8 1 23 1 24 24 30 86 49 52 60
REMARK Flexibility Score: inf
ROOT
ATOM      1  C   UNL A   1      34.872  28.905  26.852  1.00  0.00     0.002 C 
ENDROOT
BRANCH   1   2
ATOM      2  C   UNL A   1      33.788  27.876  26.506  1.00  0.00     0.002 C 
BRANCH   2   3
ATOM      3  C   UNL A   1      32.351  28.366  26.713  1.00  0.00     0.021 C 
BRANCH   3   4
ATOM      4  C   UNL A   1      31.310  27.487  26.025  1.00  0.00     0.116 C 
BRANCH   4   5
ATOM      5  N   UNL A   1      31.081  26.273  26.785  1.00  0.00    -0.351 N 
ATOM      6  C   UNL A   1      31.270  24.951  26.454  1.00  0.00     0.271 C 
ATOM      7  O   UNL A   1      30.935  24.106  27.290  1.00  0.00    -0.267 OA
ATOM      8  H   UNL A   1      30.729  26.421  27.693  1.00  0.00     0.163 HD
BRANCH   6   9
ATOM      9  C   UNL A   1      31.867  24.505  25.161  1.00  0.00     0.148 A 
ATOM     10  C   UNL A   1      33.458  23.329  23.977  1.00  0.00     0.148 A 
ATOM     11  C   UNL A   1      32.719  23.591  22.814  1.00  0.00     0.157 A 
ATOM     12  N   UNL A   1      33.058  23.851  25.148  1.00  0.00    -0.222 NA
ATOM     13  N   UNL A   1      31.567  24.306  22.781  1.00  0.00    -0.258 NA
ATOM     14  C   UNL A   1      31.146  24.730  23.996  1.00  0.00     0.145 A 
BRANCH  10  15
ATOM     15  N   UNL A   1      34.573  22.519  23.933  1.00  0.00    -0.343 N 
ATOM     16  C   UNL A   1      34.688  21.262  24.706  1.00  0.00     0.172 C 
ATOM     17  C   UNL A   1      35.654  21.431  25.886  1.00  0.00     0.035 C 
ATOM     18  C   UNL A   1      36.993  21.995  25.413  1.00  0.00     0.004 C 
ATOM     19  C   UNL A   1      35.820  23.141  23.491  1.00  0.00     0.119 C 
ATOM     20  C   UNL A   1      36.785  23.310  24.666  1.00  0.00     0.022 C 
BRANCH  16  21
ATOM     21  C   UNL A   1      33.383  20.547  25.153  1.00  0.00     0.240 C 
ATOM     22  N   UNL A   1      33.434  20.006  26.415  1.00  0.00    -0.368 N 
ATOM     23  H   UNL A   1      32.651  19.535  26.780  1.00  0.00     0.159 HD
ATOM     24  H   UNL A   1      34.253  20.091  26.954  1.00  0.00     0.159 HD
ATOM     25  O   UNL A   1      32.343  20.411  24.518  1.00  0.00    -0.273 OA
ENDBRANCH  16  21
ENDBRANCH  10  15
ENDBRANCH   6   9
ENDBRANCH   4   5
ENDBRANCH   3   4
ENDBRANCH   2   3
ENDBRANCH   1   2
BRANCH   1  26
ATOM     26  C   UNL A   1      34.382  30.113  27.653  1.00  0.00     0.021 C 
BRANCH  26  27
ATOM     27  C   UNL A   1      35.495  30.929  28.298  1.00  0.00     0.116 C 
BRANCH  27  28
ATOM     28  N   UNL A   1      35.398  30.921  29.750  1.00  0.00    -0.352 N 
ATOM     29  C   UNL A   1      36.314  30.499  30.677  1.00  0.00     0.251 C 
ATOM     30  H   UNL A   1      34.552  31.265  30.117  1.00  0.00     0.163 HD
ATOM     31  O   UNL A   1      35.978  30.354  31.852  1.00  0.00    -0.269 OA
BRANCH  29  32
ATOM     32  C   UNL A   1      37.700  30.209  30.260  1.00  0.00     0.039 A 
ATOM     33  C   UNL A   1      38.607  29.726  31.206  1.00  0.00     0.014 A 
ATOM     34  C   UNL A   1      38.105  30.415  28.938  1.00  0.00     0.014 A 
ATOM     35  C   UNL A   1      39.907  29.398  30.813  1.00  0.00     0.010 A 
ATOM     36  C   UNL A   1      39.375  30.014  28.532  1.00  0.00     0.010 A 
ATOM     37  C   UNL A   1      40.291  29.510  29.466  1.00  0.00    -0.014 A 
BRANCH  37  38
ATOM     38  C   UNL A   1      41.646  29.099  29.016  1.00  0.00     0.031 A 
ATOM     39  C   UNL A   1      42.766  30.103  28.972  1.00  0.00     0.074 A 
ATOM     40  C   UNL A   1      41.849  27.838  28.587  1.00  0.00     0.049 A 
ATOM     41  N   UNL A   1      44.000  29.945  28.566  1.00  0.00    -0.248 NA
ATOM     42  C   UNL A   1      42.450  31.470  29.416  1.00  0.00     0.031 C 
ATOM     43  C   UNL A   1      40.832  26.785  28.543  1.00  0.00     0.029 A 
ATOM     44  N   UNL A   1      42.979  27.226  28.102  1.00  0.00    -0.354 N 
ATOM     45  C   UNL A   1      44.601  31.194  28.687  1.00  0.00     0.074 A 
ATOM     46  C   UNL A   1      43.582  32.108  29.153  1.00  0.00     0.031 C 
ATOM     47  C   UNL A   1      41.392  25.650  28.095  1.00  0.00     0.029 A 
ATOM     48  C   UNL A   1      42.794  25.903  27.777  1.00  0.00     0.049 A 
ATOM     49  H   UNL A   1      43.839  27.691  27.998  1.00  0.00     0.167 HD
ATOM     50  C   UNL A   1      45.888  31.541  28.448  1.00  0.00     0.037 A 
ATOM     51  C   UNL A   1      43.656  24.996  27.276  1.00  0.00     0.037 A 
ATOM     52  C   UNL A   1      46.900  30.617  28.006  1.00  0.00     0.049 A 
ATOM     53  C   UNL A   1      45.078  25.409  27.005  1.00  0.00     0.074 A 
ATOM     54  C   UNL A   1      48.250  30.849  27.808  1.00  0.00     0.029 A 
ATOM     55  N   UNL A   1      46.674  29.286  27.681  1.00  0.00    -0.354 N 
ATOM     56  N   UNL A   1      45.648  26.575  27.196  1.00  0.00    -0.248 NA
ATOM     57  C   UNL A   1      45.972  24.383  26.453  1.00  0.00     0.031 C 
ATOM     58  C   UNL A   1      48.826  29.679  27.304  1.00  0.00     0.029 A 
ATOM     59  C   UNL A   1      47.850  28.696  27.248  1.00  0.00     0.049 A 
ATOM     60  H   UNL A   1      45.805  28.828  27.748  1.00  0.00     0.167 HD
ATOM     61  C   UNL A   1      46.977  26.413  26.820  1.00  0.00     0.074 A 
ATOM     62  C   UNL A   1      47.125  25.036  26.396  1.00  0.00     0.031 C 
ATOM     63  C   UNL A   1      47.984  27.322  26.829  1.00  0.00     0.037 A 
BRANCH  50  64
ATOM     64  C   UNL A   1      46.270  32.985  28.643  1.00  0.00     0.058 A 
ATOM     65  C   UNL A   1      46.722  33.476  29.880  1.00  0.00     0.135 A 
ATOM     66  C   UNL A   1      46.198  33.888  27.570  1.00  0.00     0.135 A 
ATOM     67  F   UNL A   1      46.800  32.662  30.944  1.00  0.00    -0.206 F 
ATOM     68  C   UNL A   1      47.045  34.818  30.055  1.00  0.00     0.059 A 
ATOM     69  C   UNL A   1      46.550  35.227  27.714  1.00  0.00     0.059 A 
ATOM     70  F   UNL A   1      45.777  33.475  26.365  1.00  0.00    -0.206 F 
ATOM     71  C   UNL A   1      46.952  35.687  28.967  1.00  0.00     0.060 A 
BRANCH  71  72
ATOM     72  S   UNL A   1      47.356  37.429  29.216  1.00  0.00     0.124 S 
ATOM     73  O   UNL A   1      48.543  37.572  28.379  1.00  0.00    -0.237 OA
ATOM     74  O   UNL A   1      46.155  38.100  28.730  1.00  0.00    -0.237 OA
ATOM     75  O   UNL A   1      47.587  37.524  30.653  1.00  0.00    -0.744 OA
ENDBRANCH  71  72
ENDBRANCH  50  64
BRANCH  51  76
ATOM     76  C   UNL A   1      43.206  23.599  27.038  1.00  0.00     0.058 A 
ATOM     77  C   UNL A   1      42.960  23.139  25.736  1.00  0.00     0.135 A 
ATOM     78  C   UNL A   1      43.038  22.692  28.095  1.00  0.00     0.135 A 
ATOM     79  F   UNL A   1      43.098  23.971  24.693  1.00  0.00    -0.206 F 
ATOM     80  C   UNL A   1      42.553  21.832  25.489  1.00  0.00     0.059 A 
ATOM     81  C   UNL A   1      42.658  21.371  27.872  1.00  0.00     0.059 A 
ATOM     82  F   UNL A   1      43.277  23.076  29.358  1.00  0.00    -0.206 F 
ATOM     83  C   UNL A   1      42.411  20.953  26.565  1.00  0.00     0.060 A 
BRANCH  83  84
ATOM     84  S   UNL A   1      41.942  19.242  26.227  1.00  0.00     0.124 S 
ATOM     85  O   UNL A   1      42.341  18.578  27.462  1.00  0.00    -0.237 OA
ATOM     86  O   UNL A   1      40.505  19.360  25.998  1.00  0.00    -0.237 OA
ATOM     87  O   UNL A   1      42.732  18.906  25.046  1.00  0.00    -0.744 OA
ENDBRANCH  83  84
ENDBRANCH  51  76
BRANCH  63  88
ATOM     88  C   UNL A   1      49.349  26.851  26.403  1.00  0.00     0.058 A 
ATOM     89  C   UNL A   1      50.200  26.154  27.274  1.00  0.00     0.135 A 
ATOM     90  C   UNL A   1      49.789  27.056  25.084  1.00  0.00     0.135 A 
ATOM     91  F   UNL A   1      49.833  25.938  28.548  1.00  0.00    -0.206 F 
ATOM     92  C   UNL A   1      51.448  25.698  26.863  1.00  0.00     0.059 A 
ATOM     93  C   UNL A   1      51.019  26.581  24.641  1.00  0.00     0.059 A 
ATOM     94  F   UNL A   1      49.011  27.708  24.205  1.00  0.00    -0.206 F 
ATOM     95  C   UNL A   1      51.848  25.914  25.542  1.00  0.00     0.060 A 
BRANCH  95  96
ATOM     96  S   UNL A   1      53.454  25.284  25.011  1.00  0.00     0.124 S 
ATOM     97  O   UNL A   1      53.345  23.871  25.360  1.00  0.00    -0.237 OA
ATOM     98  O   UNL A   1      53.450  25.586  23.583  1.00  0.00    -0.237 OA
ATOM     99  O   UNL A   1      54.403  26.057  25.807  1.00  0.00    -0.744 OA
ENDBRANCH  95  96
ENDBRANCH  63  88
ENDBRANCH  37  38
ENDBRANCH  29  32
ENDBRANCH  27  28
ENDBRANCH  26  27
ENDBRANCH   1  26
TORSDOF 18
ENDMDL
