MODEL 1
REMARK VINA RESULT:     -12.3      0.000      0.000
REMARK SMILES Cc1nc(-c2ccc(S(=O)(=O)N3CC[NH2+][C@H](C(=O)NCCCCCCNC(=O)c4ccc(-c5c6nc(c(-c7c(F)cc(S(=O)(=O)[O-])cc7F)c7ccc([nH]7)c(-c7c(F)cc(S(=O)(=O)[O-])cc7F)c7nc(c(-c8c(F)cc(S(=O)(=O)[O-])cc8F)c8ccc5[nH]8)C=C7)C=C6)cc4)C3)s2)cs1
REMARK SMILES IDX 22 1 21 2 20 3 19 4 17 5 18 6 16 8 12 9 13 10 95 11 14 12
REMARK SMILES IDX 15 13 9 16 10 17 11 18 8 19 5 20 6 21 96 22 7 23 4 24 1 25
REMARK SMILES IDX 2 26 3 27 98 28 97 29 23 30 24 31 25 32 26 33 27 34 28 36
REMARK SMILES IDX 29 37 30 38 94 39 31 40 93 41 32 42 33 43 34 44 87 45 35 46
REMARK SMILES IDX 92 47 86 48 88 49 36 50 91 51 85 52 84 53 37 55 71 56 50 57
REMARK SMILES IDX 70 58 51 59 54 60 69 61 89 62 52 63 53 64 68 66 90 67 55 68
REMARK SMILES IDX 38 69 39 70 48 71 40 72 41 73 47 74 49 75 42 76 43 77 44 78
REMARK SMILES IDX 45 79 46 80 72 81 73 82 82 83 74 84 75 85 81 86 83 87 76 88
REMARK SMILES IDX 77 89 78 90 79 91 80 92 56 93 57 94 66 95 58 96 59 97 65 98
REMARK SMILES IDX 67 99 60 100 61 101 62 102 63 103 64 104
REMARK H PARENT 19 7 15 14 15 15 26 35 88 54 54 65
REMARK Flexibility Score: inf
ROOT
ATOM      1  C   UNL A   1      38.940  22.682  26.261  1.00  0.00     0.002 C 
ENDROOT
BRANCH   1   2
ATOM      2  C   UNL A   1      37.783  21.854  25.679  1.00  0.00     0.021 C 
BRANCH   2   3
ATOM      3  C   UNL A   1      36.444  22.590  25.770  1.00  0.00     0.116 C 
BRANCH   3   4
ATOM      4  N   UNL A   1      35.425  21.659  26.209  1.00  0.00    -0.351 N 
ATOM      5  C   UNL A   1      34.110  21.887  26.474  1.00  0.00     0.279 C 
ATOM      6  O   UNL A   1      33.628  21.225  27.403  1.00  0.00    -0.268 OA
ATOM      7  H   UNL A   1      35.727  20.730  26.333  1.00  0.00     0.163 HD
BRANCH   5   8
ATOM      8  C   UNL A   1      33.209  22.762  25.558  1.00  0.00     0.287 C 
ATOM      9  N   UNL A   1      31.144  23.953  24.971  1.00  0.00    -0.185 NA
ATOM     10  C   UNL A   1      31.049  23.384  23.618  1.00  0.00     0.164 C 
ATOM     11  C   UNL A   1      31.747  22.988  25.926  1.00  0.00     0.178 C 
ATOM     12  C   UNL A   1      32.383  22.772  23.156  1.00  0.00     0.278 C 
ATOM     13  N   UNL A   1      33.330  22.244  24.153  1.00  0.00    -0.334 N 
ATOM     14  H   UNL A   1      34.272  22.458  23.826  1.00  0.00     0.347 HD
ATOM     15  H   UNL A   1      33.111  21.249  24.220  1.00  0.00     0.347 HD
BRANCH   9  16
ATOM     16  S   UNL A   1      31.378  25.618  25.199  1.00  0.00     0.253 S 
ATOM     17  O   UNL A   1      32.664  25.942  24.606  1.00  0.00    -0.206 OA
ATOM     18  O   UNL A   1      31.087  25.906  26.585  1.00  0.00    -0.206 OA
BRANCH  16  19
ATOM     19  C   UNL A   1      30.208  26.642  24.300  1.00  0.00     0.135 A 
ATOM     20  C   UNL A   1      29.284  28.653  23.175  1.00  0.00     0.055 A 
ATOM     21  C   UNL A   1      28.348  27.659  23.311  1.00  0.00     0.023 A 
ATOM     22  S   UNL A   1      30.814  28.170  23.748  1.00  0.00    -0.121 S 
ATOM     23  C   UNL A   1      28.882  26.512  23.940  1.00  0.00     0.034 A 
BRANCH  20  24
ATOM     24  C   UNL A   1      28.885  29.980  22.618  1.00  0.00     0.091 A 
ATOM     25  C   UNL A   1      29.052  33.567  23.211  1.00  0.00     0.079 C 
ATOM     26  C   UNL A   1      28.799  32.190  22.709  1.00  0.00     0.090 A 
ATOM     27  N   UNL A   1      29.109  31.112  23.387  1.00  0.00    -0.241 NA
ATOM     28  S   UNL A   1      28.081  31.907  21.176  1.00  0.00    -0.127 S 
ATOM     29  C   UNL A   1      28.313  30.214  21.387  1.00  0.00     0.096 A 
ENDBRANCH  20  24
ENDBRANCH  16  19
ENDBRANCH   9  16
ENDBRANCH   5   8
ENDBRANCH   3   4
ENDBRANCH   2   3
ENDBRANCH   1   2
BRANCH   1  30
ATOM     30  C   UNL A   1      40.209  21.871  26.546  1.00  0.00     0.002 C 
BRANCH  30  31
ATOM     31  C   UNL A   1      40.881  22.193  27.883  1.00  0.00     0.021 C 
BRANCH  31  32
ATOM     32  C   UNL A   1      42.163  23.006  27.753  1.00  0.00     0.116 C 
BRANCH  32  33
ATOM     33  N   UNL A   1      42.204  23.727  26.491  1.00  0.00    -0.352 N 
ATOM     34  C   UNL A   1      41.847  25.025  26.234  1.00  0.00     0.251 C 
ATOM     35  H   UNL A   1      42.533  23.214  25.717  1.00  0.00     0.163 HD
ATOM     36  O   UNL A   1      41.699  25.405  25.077  1.00  0.00    -0.269 OA
BRANCH  34  37
ATOM     37  C   UNL A   1      41.638  25.958  27.360  1.00  0.00     0.039 A 
ATOM     38  C   UNL A   1      42.598  26.938  27.617  1.00  0.00     0.014 A 
ATOM     39  C   UNL A   1      40.503  25.847  28.172  1.00  0.00     0.014 A 
ATOM     40  C   UNL A   1      42.405  27.829  28.673  1.00  0.00     0.010 A 
ATOM     41  C   UNL A   1      40.282  26.777  29.181  1.00  0.00     0.010 A 
ATOM     42  C   UNL A   1      41.239  27.765  29.454  1.00  0.00    -0.014 A 
BRANCH  42  43
ATOM     43  C   UNL A   1      41.022  28.703  30.582  1.00  0.00     0.031 A 
ATOM     44  C   UNL A   1      41.879  28.603  31.815  1.00  0.00     0.074 A 
ATOM     45  C   UNL A   1      40.026  29.606  30.517  1.00  0.00     0.049 A 
ATOM     46  N   UNL A   1      41.814  29.292  32.925  1.00  0.00    -0.248 NA
ATOM     47  C   UNL A   1      42.930  27.571  31.811  1.00  0.00     0.031 C 
ATOM     48  C   UNL A   1      39.098  29.763  29.395  1.00  0.00     0.029 A 
ATOM     49  N   UNL A   1      39.622  30.559  31.417  1.00  0.00    -0.354 N 
ATOM     50  C   UNL A   1      42.800  28.769  33.754  1.00  0.00     0.074 A 
ATOM     51  C   UNL A   1      43.414  27.671  33.040  1.00  0.00     0.031 C 
ATOM     52  C   UNL A   1      38.246  30.766  29.665  1.00  0.00     0.029 A 
ATOM     53  C   UNL A   1      38.550  31.303  30.988  1.00  0.00     0.049 A 
ATOM     54  H   UNL A   1      40.058  30.696  32.289  1.00  0.00     0.167 HD
ATOM     55  C   UNL A   1      43.176  29.182  34.988  1.00  0.00     0.037 A 
ATOM     56  C   UNL A   1      37.886  32.306  31.595  1.00  0.00     0.037 A 
ATOM     57  C   UNL A   1      42.582  30.297  35.678  1.00  0.00     0.049 A 
ATOM     58  C   UNL A   1      38.337  32.764  32.955  1.00  0.00     0.074 A 
ATOM     59  C   UNL A   1      42.928  30.835  36.905  1.00  0.00     0.029 A 
ATOM     60  N   UNL A   1      41.519  31.049  35.196  1.00  0.00    -0.354 N 
ATOM     61  N   UNL A   1      39.312  32.298  33.700  1.00  0.00    -0.248 NA
ATOM     62  C   UNL A   1      37.609  33.891  33.552  1.00  0.00     0.031 C 
ATOM     63  C   UNL A   1      42.052  31.891  37.181  1.00  0.00     0.029 A 
ATOM     64  C   UNL A   1      41.188  32.038  36.107  1.00  0.00     0.049 A 
ATOM     65  H   UNL A   1      41.067  30.901  34.335  1.00  0.00     0.167 HD
ATOM     66  C   UNL A   1      39.327  33.090  34.843  1.00  0.00     0.074 A 
ATOM     67  C   UNL A   1      38.275  34.073  34.684  1.00  0.00     0.031 C 
ATOM     68  C   UNL A   1      40.139  33.010  35.927  1.00  0.00     0.037 A 
BRANCH  55  69
ATOM     69  C   UNL A   1      44.288  28.429  35.663  1.00  0.00     0.058 A 
ATOM     70  C   UNL A   1      45.635  28.778  35.475  1.00  0.00     0.135 A 
ATOM     71  C   UNL A   1      44.006  27.357  36.527  1.00  0.00     0.135 A 
ATOM     72  F   UNL A   1      45.963  29.784  34.647  1.00  0.00    -0.206 F 
ATOM     73  C   UNL A   1      46.664  28.072  36.089  1.00  0.00     0.059 A 
ATOM     74  C   UNL A   1      45.017  26.654  37.174  1.00  0.00     0.059 A 
ATOM     75  F   UNL A   1      42.735  26.980  36.743  1.00  0.00    -0.206 F 
ATOM     76  C   UNL A   1      46.345  27.009  36.935  1.00  0.00     0.060 A 
BRANCH  76  77
ATOM     77  S   UNL A   1      47.690  26.100  37.725  1.00  0.00     0.124 S 
ATOM     78  O   UNL A   1      46.964  25.007  38.367  1.00  0.00    -0.237 OA
ATOM     79  O   UNL A   1      48.524  25.722  36.587  1.00  0.00    -0.237 OA
ATOM     80  O   UNL A   1      48.277  27.080  38.631  1.00  0.00    -0.744 OA
ENDBRANCH  76  77
ENDBRANCH  55  69
BRANCH  56  81
ATOM     81  C   UNL A   1      36.746  32.966  30.905  1.00  0.00     0.058 A 
ATOM     82  C   UNL A   1      35.425  32.734  31.315  1.00  0.00     0.135 A 
ATOM     83  C   UNL A   1      36.956  33.851  29.837  1.00  0.00     0.135 A 
ATOM     84  F   UNL A   1      35.175  31.892  32.329  1.00  0.00    -0.206 F 
ATOM     85  C   UNL A   1      34.348  33.343  30.680  1.00  0.00     0.059 A 
ATOM     86  C   UNL A   1      35.895  34.491  29.201  1.00  0.00     0.059 A 
ATOM     87  F   UNL A   1      38.202  34.121  29.421  1.00  0.00    -0.206 F 
ATOM     88  C   UNL A   1      34.595  34.221  29.623  1.00  0.00     0.060 A 
BRANCH  88  89
ATOM     89  S   UNL A   1      33.192  35.046  28.837  1.00  0.00     0.124 S 
ATOM     90  O   UNL A   1      32.387  35.420  29.993  1.00  0.00    -0.237 OA
ATOM     91  O   UNL A   1      33.840  36.144  28.126  1.00  0.00    -0.237 OA
ATOM     92  O   UNL A   1      32.629  34.005  27.983  1.00  0.00    -0.744 OA
ENDBRANCH  88  89
ENDBRANCH  56  81
BRANCH  68  93
ATOM     93  C   UNL A   1      39.940  34.034  37.009  1.00  0.00     0.058 A 
ATOM     94  C   UNL A   1      40.589  35.277  36.976  1.00  0.00     0.135 A 
ATOM     95  C   UNL A   1      39.059  33.780  38.073  1.00  0.00     0.135 A 
ATOM     96  F   UNL A   1      41.445  35.566  35.983  1.00  0.00    -0.206 F 
ATOM     97  C   UNL A   1      40.394  36.224  37.976  1.00  0.00     0.059 A 
ATOM     98  C   UNL A   1      38.829  34.723  39.070  1.00  0.00     0.059 A 
ATOM     99  F   UNL A   1      38.403  32.610  38.145  1.00  0.00    -0.206 F 
ATOM    100  C   UNL A   1      39.514  35.937  39.020  1.00  0.00     0.060 A 
BRANCH 100 101
ATOM    101  S   UNL A   1      39.253  37.180  40.303  1.00  0.00     0.124 S 
ATOM    102  O   UNL A   1      38.486  38.189  39.582  1.00  0.00    -0.237 OA
ATOM    103  O   UNL A   1      38.519  36.432  41.320  1.00  0.00    -0.237 OA
ATOM    104  O   UNL A   1      40.609  37.569  40.678  1.00  0.00    -0.744 OA
ENDBRANCH 100 101
ENDBRANCH  68  93
ENDBRANCH  42  43
ENDBRANCH  34  37
ENDBRANCH  32  33
ENDBRANCH  31  32
ENDBRANCH  30  31
ENDBRANCH   1  30
TORSDOF 19
ENDMDL
MODEL 2
REMARK VINA RESULT:     -12.1      5.989      9.065
REMARK SMILES Cc1nc(-c2ccc(S(=O)(=O)N3CC[NH2+][C@H](C(=O)NCCCCCCNC(=O)c4ccc(-c5c6nc(c(-c7c(F)cc(S(=O)(=O)[O-])cc7F)c7ccc([nH]7)c(-c7c(F)cc(S(=O)(=O)[O-])cc7F)c7nc(c(-c8c(F)cc(S(=O)(=O)[O-])cc8F)c8ccc5[nH]8)C=C7)C=C6)cc4)C3)s2)cs1
REMARK SMILES IDX 22 1 21 2 20 3 19 4 17 5 18 6 16 8 12 9 13 10 95 11 14 12
REMARK SMILES IDX 15 13 9 16 10 17 11 18 8 19 5 20 6 21 96 22 7 23 4 24 1 25
REMARK SMILES IDX 2 26 3 27 98 28 97 29 23 30 24 31 25 32 26 33 27 34 28 36
REMARK SMILES IDX 29 37 30 38 94 39 31 40 93 41 32 42 33 43 34 44 87 45 35 46
REMARK SMILES IDX 92 47 86 48 88 49 36 50 91 51 85 52 84 53 37 55 71 56 50 57
REMARK SMILES IDX 70 58 51 59 54 60 69 61 89 62 52 63 53 64 68 66 90 67 55 68
REMARK SMILES IDX 38 69 39 70 48 71 40 72 41 73 47 74 49 75 42 76 43 77 44 78
REMARK SMILES IDX 45 79 46 80 72 81 73 82 82 83 74 84 75 85 81 86 83 87 76 88
REMARK SMILES IDX 77 89 78 90 79 91 80 92 56 93 57 94 66 95 58 96 59 97 65 98
REMARK SMILES IDX 67 99 60 100 61 101 62 102 63 103 64 104
REMARK H PARENT 19 7 15 14 15 15 26 35 88 54 54 65
REMARK Flexibility Score: inf
ROOT
ATOM      1  C   UNL A   1      37.342  22.234  24.590  1.00  0.00     0.002 C 
ENDROOT
BRANCH   1   2
ATOM      2  C   UNL A   1      36.539  22.763  23.391  1.00  0.00     0.021 C 
BRANCH   2   3
ATOM      3  C   UNL A   1      35.185  23.338  23.813  1.00  0.00     0.116 C 
BRANCH   3   4
ATOM      4  N   UNL A   1      34.905  24.515  23.015  1.00  0.00    -0.351 N 
ATOM      5  C   UNL A   1      33.711  25.110  22.752  1.00  0.00     0.279 C 
ATOM      6  O   UNL A   1      33.596  25.606  21.623  1.00  0.00    -0.268 OA
ATOM      7  H   UNL A   1      35.691  24.944  22.607  1.00  0.00     0.163 HD
BRANCH   5   8
ATOM      8  C   UNL A   1      32.629  25.339  23.844  1.00  0.00     0.287 C 
ATOM      9  N   UNL A   1      30.569  24.799  25.066  1.00  0.00    -0.185 NA
ATOM     10  C   UNL A   1      30.013  26.158  24.988  1.00  0.00     0.164 C 
ATOM     11  C   UNL A   1      31.376  24.470  23.863  1.00  0.00     0.178 C 
ATOM     12  C   UNL A   1      31.090  27.200  24.633  1.00  0.00     0.278 C 
ATOM     13  N   UNL A   1      32.265  26.797  23.842  1.00  0.00    -0.334 N 
ATOM     14  H   UNL A   1      33.068  27.314  24.198  1.00  0.00     0.347 HD
ATOM     15  H   UNL A   1      32.012  27.002  22.875  1.00  0.00     0.347 HD
BRANCH   9  16
ATOM     16  S   UNL A   1      30.975  24.109  26.563  1.00  0.00     0.253 S 
ATOM     17  O   UNL A   1      29.755  23.533  27.099  1.00  0.00    -0.206 OA
ATOM     18  O   UNL A   1      31.736  25.094  27.297  1.00  0.00    -0.206 OA
BRANCH  16  19
ATOM     19  C   UNL A   1      32.101  22.715  26.435  1.00  0.00     0.135 A 
ATOM     20  C   UNL A   1      32.947  20.482  25.756  1.00  0.00     0.055 A 
ATOM     21  C   UNL A   1      33.754  21.081  26.692  1.00  0.00     0.023 A 
ATOM     22  S   UNL A   1      31.657  21.492  25.290  1.00  0.00    -0.121 S 
ATOM     23  C   UNL A   1      33.275  22.357  27.065  1.00  0.00     0.034 A 
BRANCH  20  24
ATOM     24  C   UNL A   1      33.236  19.088  25.307  1.00  0.00     0.091 A 
ATOM     25  C   UNL A   1      32.273  15.609  25.772  1.00  0.00     0.079 C 
ATOM     26  C   UNL A   1      32.895  16.902  25.380  1.00  0.00     0.090 A 
ATOM     27  N   UNL A   1      32.613  18.040  25.967  1.00  0.00    -0.241 NA
ATOM     28  S   UNL A   1      34.039  17.002  24.105  1.00  0.00    -0.127 S 
ATOM     29  C   UNL A   1      34.067  18.716  24.273  1.00  0.00     0.096 A 
ENDBRANCH  20  24
ENDBRANCH  16  19
ENDBRANCH   9  16
ENDBRANCH   5   8
ENDBRANCH   3   4
ENDBRANCH   2   3
ENDBRANCH   1   2
BRANCH   1  30
ATOM     30  C   UNL A   1      37.030  20.780  24.961  1.00  0.00     0.002 C 
BRANCH  30  31
ATOM     31  C   UNL A   1      38.257  19.870  25.049  1.00  0.00     0.021 C 
BRANCH  31  32
ATOM     32  C   UNL A   1      39.376  20.421  25.926  1.00  0.00     0.116 C 
BRANCH  32  33
ATOM     33  N   UNL A   1      40.438  19.442  26.102  1.00  0.00    -0.352 N 
ATOM     34  C   UNL A   1      41.787  19.655  26.217  1.00  0.00     0.251 C 
ATOM     35  H   UNL A   1      40.148  18.502  26.145  1.00  0.00     0.163 HD
ATOM     36  O   UNL A   1      42.569  18.716  26.104  1.00  0.00    -0.269 OA
BRANCH  34  37
ATOM     37  C   UNL A   1      42.289  21.020  26.471  1.00  0.00     0.039 A 
ATOM     38  C   UNL A   1      42.573  21.852  25.386  1.00  0.00     0.014 A 
ATOM     39  C   UNL A   1      42.501  21.467  27.780  1.00  0.00     0.014 A 
ATOM     40  C   UNL A   1      43.040  23.147  25.616  1.00  0.00     0.010 A 
ATOM     41  C   UNL A   1      42.904  22.777  28.007  1.00  0.00     0.010 A 
ATOM     42  C   UNL A   1      43.195  23.624  26.928  1.00  0.00    -0.014 A 
BRANCH  42  43
ATOM     43  C   UNL A   1      43.695  24.996  27.188  1.00  0.00     0.031 A 
ATOM     44  C   UNL A   1      45.148  25.319  26.963  1.00  0.00     0.074 A 
ATOM     45  C   UNL A   1      42.857  25.931  27.671  1.00  0.00     0.049 A 
ATOM     46  N   UNL A   1      45.788  26.439  27.179  1.00  0.00    -0.248 NA
ATOM     47  C   UNL A   1      45.999  24.231  26.453  1.00  0.00     0.031 C 
ATOM     48  C   UNL A   1      41.440  25.721  27.978  1.00  0.00     0.029 A 
ATOM     49  N   UNL A   1      43.075  27.245  27.999  1.00  0.00    -0.354 N 
ATOM     50  C   UNL A   1      47.115  26.186  26.850  1.00  0.00     0.074 A 
ATOM     51  C   UNL A   1      47.199  24.793  26.469  1.00  0.00     0.031 C 
ATOM     52  C   UNL A   1      40.912  26.871  28.428  1.00  0.00     0.029 A 
ATOM     53  C   UNL A   1      41.957  27.890  28.470  1.00  0.00     0.049 A 
ATOM     54  H   UNL A   1      43.951  27.685  27.906  1.00  0.00     0.167 HD
ATOM     55  C   UNL A   1      48.164  27.043  26.842  1.00  0.00     0.037 A 
ATOM     56  C   UNL A   1      41.793  29.160  28.888  1.00  0.00     0.037 A 
ATOM     57  C   UNL A   1      48.066  28.436  27.191  1.00  0.00     0.049 A 
ATOM     58  C   UNL A   1      42.967  30.100  28.847  1.00  0.00     0.074 A 
ATOM     59  C   UNL A   1      49.055  29.404  27.159  1.00  0.00     0.029 A 
ATOM     60  N   UNL A   1      46.908  29.061  27.631  1.00  0.00    -0.354 N 
ATOM     61  N   UNL A   1      44.202  29.860  28.475  1.00  0.00    -0.248 NA
ATOM     62  C   UNL A   1      42.723  31.485  29.269  1.00  0.00     0.031 C 
ATOM     63  C   UNL A   1      48.502  30.607  27.613  1.00  0.00     0.029 A 
ATOM     64  C   UNL A   1      47.160  30.399  27.887  1.00  0.00     0.049 A 
ATOM     65  H   UNL A   1      46.036  28.619  27.745  1.00  0.00     0.167 HD
ATOM     66  C   UNL A   1      44.877  31.070  28.597  1.00  0.00     0.074 A 
ATOM     67  C   UNL A   1      43.909  32.042  29.063  1.00  0.00     0.031 C 
ATOM     68  C   UNL A   1      46.180  31.351  28.346  1.00  0.00     0.037 A 
BRANCH  55  69
ATOM     69  C   UNL A   1      49.504  26.496  26.434  1.00  0.00     0.058 A 
ATOM     70  C   UNL A   1      50.309  25.776  27.331  1.00  0.00     0.135 A 
ATOM     71  C   UNL A   1      49.983  26.676  25.126  1.00  0.00     0.135 A 
ATOM     72  F   UNL A   1      49.908  25.588  28.599  1.00  0.00    -0.206 F 
ATOM     73  C   UNL A   1      51.555  25.282  26.957  1.00  0.00     0.059 A 
ATOM     74  C   UNL A   1      51.214  26.167  24.722  1.00  0.00     0.059 A 
ATOM     75  F   UNL A   1      49.255  27.359  24.228  1.00  0.00    -0.206 F 
ATOM     76  C   UNL A   1      52.000  25.486  25.650  1.00  0.00     0.060 A 
BRANCH  76  77
ATOM     77  S   UNL A   1      53.620  24.842  25.179  1.00  0.00     0.124 S 
ATOM     78  O   UNL A   1      53.335  23.417  25.038  1.00  0.00    -0.237 OA
ATOM     79  O   UNL A   1      53.893  25.558  23.937  1.00  0.00    -0.237 OA
ATOM     80  O   UNL A   1      54.470  25.203  26.308  1.00  0.00    -0.744 OA
ENDBRANCH  76  77
ENDBRANCH  55  69
BRANCH  56  81
ATOM     81  C   UNL A   1      40.458  29.623  29.349  1.00  0.00     0.058 A 
ATOM     82  C   UNL A   1      39.411  29.820  28.436  1.00  0.00     0.135 A 
ATOM     83  C   UNL A   1      40.198  29.863  30.707  1.00  0.00     0.135 A 
ATOM     84  F   UNL A   1      39.614  29.609  27.127  1.00  0.00    -0.206 F 
ATOM     85  C   UNL A   1      38.156  30.254  28.850  1.00  0.00     0.059 A 
ATOM     86  C   UNL A   1      38.944  30.275  31.148  1.00  0.00     0.059 A 
ATOM     87  F   UNL A   1      41.161  29.670  31.620  1.00  0.00    -0.206 F 
ATOM     88  C   UNL A   1      37.933  30.478  30.210  1.00  0.00     0.060 A 
BRANCH  88  89
ATOM     89  S   UNL A   1      36.285  30.994  30.744  1.00  0.00     0.124 S 
ATOM     90  O   UNL A   1      35.553  30.984  29.483  1.00  0.00    -0.237 OA
ATOM     91  O   UNL A   1      35.930  29.948  31.698  1.00  0.00    -0.237 OA
ATOM     92  O   UNL A   1      36.521  32.310  31.328  1.00  0.00    -0.744 OA
ENDBRANCH  88  89
ENDBRANCH  56  81
BRANCH  68  93
ATOM     93  C   UNL A   1      46.624  32.773  28.542  1.00  0.00     0.058 A 
ATOM     94  C   UNL A   1      47.150  33.219  29.764  1.00  0.00     0.135 A 
ATOM     95  C   UNL A   1      46.557  33.691  27.480  1.00  0.00     0.135 A 
ATOM     96  F   UNL A   1      47.230  32.383  30.810  1.00  0.00    -0.206 F 
ATOM     97  C   UNL A   1      47.567  34.535  29.937  1.00  0.00     0.059 A 
ATOM     98  C   UNL A   1      46.993  35.004  27.624  1.00  0.00     0.059 A 
ATOM     99  F   UNL A   1      46.074  33.310  26.286  1.00  0.00    -0.206 F 
ATOM    100  C   UNL A   1      47.483  35.420  28.861  1.00  0.00     0.060 A 
BRANCH 100 101
ATOM    101  S   UNL A   1      48.045  37.121  29.090  1.00  0.00     0.124 S 
ATOM    102  O   UNL A   1      48.683  37.046  30.399  1.00  0.00    -0.237 OA
ATOM    103  O   UNL A   1      48.944  37.309  27.955  1.00  0.00    -0.237 OA
ATOM    104  O   UNL A   1      46.809  37.896  29.035  1.00  0.00    -0.744 OA
ENDBRANCH 100 101
ENDBRANCH  68  93
ENDBRANCH  42  43
ENDBRANCH  34  37
ENDBRANCH  32  33
ENDBRANCH  31  32
ENDBRANCH  30  31
ENDBRANCH   1  30
TORSDOF 19
ENDMDL
MODEL 3
REMARK VINA RESULT:     -11.8      2.753      9.408
REMARK SMILES Cc1nc(-c2ccc(S(=O)(=O)N3CC[NH2+][C@H](C(=O)NCCCCCCNC(=O)c4ccc(-c5c6nc(c(-c7c(F)cc(S(=O)(=O)[O-])cc7F)c7ccc([nH]7)c(-c7c(F)cc(S(=O)(=O)[O-])cc7F)c7nc(c(-c8c(F)cc(S(=O)(=O)[O-])cc8F)c8ccc5[nH]8)C=C7)C=C6)cc4)C3)s2)cs1
REMARK SMILES IDX 22 1 21 2 20 3 19 4 17 5 18 6 16 8 12 9 13 10 95 11 14 12
REMARK SMILES IDX 15 13 9 16 10 17 11 18 8 19 5 20 6 21 96 22 7 23 4 24 1 25
REMARK SMILES IDX 2 26 3 27 98 28 97 29 23 30 24 31 25 32 26 33 27 34 28 36
REMARK SMILES IDX 29 37 30 38 94 39 31 40 93 41 32 42 33 43 34 44 87 45 35 46
REMARK SMILES IDX 92 47 86 48 88 49 36 50 91 51 85 52 84 53 37 55 71 56 50 57
REMARK SMILES IDX 70 58 51 59 54 60 69 61 89 62 52 63 53 64 68 66 90 67 55 68
REMARK SMILES IDX 38 69 39 70 48 71 40 72 41 73 47 74 49 75 42 76 43 77 44 78
REMARK SMILES IDX 45 79 46 80 72 81 73 82 82 83 74 84 75 85 81 86 83 87 76 88
REMARK SMILES IDX 77 89 78 90 79 91 80 92 56 93 57 94 66 95 58 96 59 97 65 98
REMARK SMILES IDX 67 99 60 100 61 101 62 102 63 103 64 104
REMARK H PARENT 19 7 15 14 15 15 26 35 88 54 54 65
REMARK Flexibility Score: inf
ROOT
ATOM      1  C   UNL A   1      35.026  32.077  28.527  1.00  0.00     0.002 C 
ENDROOT
BRANCH   1   2
ATOM      2  C   UNL A   1      35.581  30.860  27.771  1.00  0.00     0.021 C 
BRANCH   2   3
ATOM      3  C   UNL A   1      34.503  29.807  27.503  1.00  0.00     0.116 C 
BRANCH   3   4
ATOM      4  N   UNL A   1      33.200  30.428  27.623  1.00  0.00    -0.351 N 
ATOM      5  C   UNL A   1      32.203  30.521  26.702  1.00  0.00     0.279 C 
ATOM      6  O   UNL A   1      31.542  31.567  26.730  1.00  0.00    -0.268 OA
ATOM      7  H   UNL A   1      33.008  30.841  28.496  1.00  0.00     0.163 HD
BRANCH   5   8
ATOM      8  C   UNL A   1      31.781  29.326  25.801  1.00  0.00     0.287 C 
ATOM      9  N   UNL A   1      32.031  27.078  24.846  1.00  0.00    -0.185 NA
ATOM     10  C   UNL A   1      31.829  27.507  23.454  1.00  0.00     0.164 C 
ATOM     11  C   UNL A   1      32.712  28.128  25.647  1.00  0.00     0.178 C 
ATOM     12  C   UNL A   1      31.179  28.900  23.370  1.00  0.00     0.278 C 
ATOM     13  N   UNL A   1      31.388  29.872  24.458  1.00  0.00    -0.334 N 
ATOM     14  H   UNL A   1      30.518  30.390  24.579  1.00  0.00     0.347 HD
ATOM     15  H   UNL A   1      32.187  30.431  24.158  1.00  0.00     0.347 HD
BRANCH   9  16
ATOM     16  S   UNL A   1      30.933  26.028  25.602  1.00  0.00     0.253 S 
ATOM     17  O   UNL A   1      29.802  25.893  24.701  1.00  0.00    -0.206 OA
ATOM     18  O   UNL A   1      30.770  26.484  26.963  1.00  0.00    -0.206 OA
BRANCH  16  19
ATOM     19  C   UNL A   1      31.549  24.351  25.789  1.00  0.00     0.135 A 
ATOM     20  C   UNL A   1      32.118  22.014  25.172  1.00  0.00     0.055 A 
ATOM     21  C   UNL A   1      32.265  22.246  26.517  1.00  0.00     0.023 A 
ATOM     22  S   UNL A   1      31.668  23.425  24.329  1.00  0.00    -0.121 S 
ATOM     23  C   UNL A   1      31.952  23.581  26.861  1.00  0.00     0.034 A 
BRANCH  20  24
ATOM     24  C   UNL A   1      32.311  20.637  24.629  1.00  0.00     0.091 A 
ATOM     25  C   UNL A   1      32.633  17.139  25.582  1.00  0.00     0.079 C 
ATOM     26  C   UNL A   1      32.558  18.453  24.888  1.00  0.00     0.090 A 
ATOM     27  N   UNL A   1      32.514  19.598  25.524  1.00  0.00    -0.241 NA
ATOM     28  S   UNL A   1      32.514  18.566  23.177  1.00  0.00    -0.127 S 
ATOM     29  C   UNL A   1      32.298  20.270  23.302  1.00  0.00     0.096 A 
ENDBRANCH  20  24
ENDBRANCH  16  19
ENDBRANCH   9  16
ENDBRANCH   5   8
ENDBRANCH   3   4
ENDBRANCH   2   3
ENDBRANCH   1   2
BRANCH   1  30
ATOM     30  C   UNL A   1      35.564  33.423  28.027  1.00  0.00     0.002 C 
BRANCH  30  31
ATOM     31  C   UNL A   1      34.538  34.559  28.035  1.00  0.00     0.021 C 
BRANCH  31  32
ATOM     32  C   UNL A   1      33.178  34.162  28.597  1.00  0.00     0.116 C 
BRANCH  32  33
ATOM     33  N   UNL A   1      32.700  35.141  29.561  1.00  0.00    -0.352 N 
ATOM     34  C   UNL A   1      33.047  35.285  30.878  1.00  0.00     0.251 C 
ATOM     35  H   UNL A   1      32.039  35.787  29.220  1.00  0.00     0.163 HD
ATOM     36  O   UNL A   1      32.371  35.991  31.619  1.00  0.00    -0.269 OA
BRANCH  34  37
ATOM     37  C   UNL A   1      34.236  34.579  31.399  1.00  0.00     0.039 A 
ATOM     38  C   UNL A   1      34.076  33.323  31.989  1.00  0.00     0.014 A 
ATOM     39  C   UNL A   1      35.502  35.169  31.322  1.00  0.00     0.014 A 
ATOM     40  C   UNL A   1      35.194  32.645  32.476  1.00  0.00     0.010 A 
ATOM     41  C   UNL A   1      36.621  34.464  31.748  1.00  0.00     0.010 A 
ATOM     42  C   UNL A   1      36.477  33.203  32.346  1.00  0.00    -0.014 A 
BRANCH  42  43
ATOM     43  C   UNL A   1      37.674  32.496  32.863  1.00  0.00     0.031 A 
ATOM     44  C   UNL A   1      38.272  32.902  34.182  1.00  0.00     0.074 A 
ATOM     45  C   UNL A   1      38.247  31.528  32.124  1.00  0.00     0.049 A 
ATOM     46  N   UNL A   1      39.342  32.446  34.780  1.00  0.00    -0.248 NA
ATOM     47  C   UNL A   1      37.594  33.986  34.913  1.00  0.00     0.031 C 
ATOM     48  C   UNL A   1      37.787  31.083  30.807  1.00  0.00     0.029 A 
ATOM     49  N   UNL A   1      39.348  30.747  32.372  1.00  0.00    -0.354 N 
ATOM     50  C   UNL A   1      39.475  33.194  35.944  1.00  0.00     0.074 A 
ATOM     51  C   UNL A   1      38.407  34.170  35.944  1.00  0.00     0.031 C 
ATOM     52  C   UNL A   1      38.586  30.094  30.372  1.00  0.00     0.029 A 
ATOM     53  C   UNL A   1      39.630  29.856  31.365  1.00  0.00     0.049 A 
ATOM     54  H   UNL A   1      39.885  30.819  33.193  1.00  0.00     0.167 HD
ATOM     55  C   UNL A   1      40.389  33.064  36.935  1.00  0.00     0.037 A 
ATOM     56  C   UNL A   1      40.620  28.949  31.255  1.00  0.00     0.037 A 
ATOM     57  C   UNL A   1      41.429  32.069  36.944  1.00  0.00     0.049 A 
ATOM     58  C   UNL A   1      41.608  28.806  32.379  1.00  0.00     0.074 A 
ATOM     59  C   UNL A   1      42.369  31.814  37.926  1.00  0.00     0.029 A 
ATOM     60  N   UNL A   1      41.663  31.161  35.921  1.00  0.00    -0.354 N 
ATOM     61  N   UNL A   1      41.683  29.481  33.502  1.00  0.00    -0.248 NA
ATOM     62  C   UNL A   1      42.639  27.771  32.230  1.00  0.00     0.031 C 
ATOM     63  C   UNL A   1      43.193  30.773  37.482  1.00  0.00     0.029 A 
ATOM     64  C   UNL A   1      42.740  30.352  36.242  1.00  0.00     0.049 A 
ATOM     65  H   UNL A   1      41.140  31.101  35.089  1.00  0.00     0.167 HD
ATOM     66  C   UNL A   1      42.754  28.937  34.202  1.00  0.00     0.074 A 
ATOM     67  C   UNL A   1      43.287  27.868  33.382  1.00  0.00     0.031 C 
ATOM     68  C   UNL A   1      43.252  29.290  35.413  1.00  0.00     0.037 A 
BRANCH  55  69
ATOM     69  C   UNL A   1      40.295  34.016  38.095  1.00  0.00     0.058 A 
ATOM     70  C   UNL A   1      39.501  33.734  39.218  1.00  0.00     0.135 A 
ATOM     71  C   UNL A   1      41.023  35.218  38.096  1.00  0.00     0.135 A 
ATOM     72  F   UNL A   1      38.771  32.606  39.263  1.00  0.00    -0.206 F 
ATOM     73  C   UNL A   1      39.405  34.621  40.285  1.00  0.00     0.059 A 
ATOM     74  C   UNL A   1      40.964  36.108  39.165  1.00  0.00     0.059 A 
ATOM     75  F   UNL A   1      41.798  35.539  37.047  1.00  0.00    -0.206 F 
ATOM     76  C   UNL A   1      40.137  35.808  40.247  1.00  0.00     0.060 A 
BRANCH  76  77
ATOM     77  S   UNL A   1      40.001  36.952  41.637  1.00  0.00     0.124 S 
ATOM     78  O   UNL A   1      39.623  38.189  40.958  1.00  0.00    -0.237 OA
ATOM     79  O   UNL A   1      38.959  36.333  42.451  1.00  0.00    -0.237 OA
ATOM     80  O   UNL A   1      41.338  36.939  42.220  1.00  0.00    -0.744 OA
ENDBRANCH  76  77
ENDBRANCH  55  69
BRANCH  56  81
ATOM     81  C   UNL A   1      40.702  28.083  30.049  1.00  0.00     0.058 A 
ATOM     82  C   UNL A   1      39.782  27.044  29.846  1.00  0.00     0.135 A 
ATOM     83  C   UNL A   1      41.689  28.286  29.072  1.00  0.00     0.135 A 
ATOM     84  F   UNL A   1      38.824  26.809  30.755  1.00  0.00    -0.206 F 
ATOM     85  C   UNL A   1      39.845  26.225  28.724  1.00  0.00     0.059 A 
ATOM     86  C   UNL A   1      41.758  27.494  27.930  1.00  0.00     0.059 A 
ATOM     87  F   UNL A   1      42.580  29.279  29.212  1.00  0.00    -0.206 F 
ATOM     88  C   UNL A   1      40.838  26.459  27.770  1.00  0.00     0.060 A 
BRANCH  88  89
ATOM     89  S   UNL A   1      40.882  25.420  26.292  1.00  0.00     0.124 S 
ATOM     90  O   UNL A   1      41.217  26.395  25.260  1.00  0.00    -0.237 OA
ATOM     91  O   UNL A   1      41.927  24.457  26.625  1.00  0.00    -0.237 OA
ATOM     92  O   UNL A   1      39.532  24.870  26.230  1.00  0.00    -0.744 OA
ENDBRANCH  88  89
ENDBRANCH  56  81
BRANCH  68  93
ATOM     93  C   UNL A   1      44.412  28.491  35.937  1.00  0.00     0.058 A 
ATOM     94  C   UNL A   1      45.740  28.875  35.694  1.00  0.00     0.135 A 
ATOM     95  C   UNL A   1      44.191  27.348  36.723  1.00  0.00     0.135 A 
ATOM     96  F   UNL A   1      46.004  29.956  34.944  1.00  0.00    -0.206 F 
ATOM     97  C   UNL A   1      46.810  28.136  36.188  1.00  0.00     0.059 A 
ATOM     98  C   UNL A   1      45.246  26.610  37.248  1.00  0.00     0.059 A 
ATOM     99  F   UNL A   1      42.939  26.946  36.995  1.00  0.00    -0.206 F 
ATOM    100  C   UNL A   1      46.553  27.004  36.962  1.00  0.00     0.060 A 
BRANCH 100 101
ATOM    101  S   UNL A   1      47.948  26.063  37.615  1.00  0.00     0.124 S 
ATOM    102  O   UNL A   1      47.279  25.130  38.514  1.00  0.00    -0.237 OA
ATOM    103  O   UNL A   1      48.524  25.478  36.408  1.00  0.00    -0.237 OA
ATOM    104  O   UNL A   1      48.770  27.081  38.262  1.00  0.00    -0.744 OA
ENDBRANCH 100 101
ENDBRANCH  68  93
ENDBRANCH  42  43
ENDBRANCH  34  37
ENDBRANCH  32  33
ENDBRANCH  31  32
ENDBRANCH  30  31
ENDBRANCH   1  30
TORSDOF 19
ENDMDL
