MODEL 1
REMARK VINA RESULT:     -12.0      0.000      0.000
REMARK SMILES O=C(NCCCCCCNC(=O)[C@H]1[C@@H](C(=O)Nc2cc(F)ccc2F)[C@@H]2C=C[C@H]1O2)c1ccc(-c2c3nc(c(-c4c(F)cc(S(=O)(=O)[O-])cc4F)c4ccc([nH]4)c(-c4c(F)cc(S(=O)(=O)[O-])cc4F)c4nc(c(-c5c(F)cc(S(=O)(=O)[O-])cc5F)c5ccc2[nH]5)C=C4)C=C3)cc1
REMARK SMILES IDX 6 1 5 2 4 3 3 4 1 5 2 6 31 8 32 9 96 10 33 11 95 12 34 13
REMARK SMILES IDX 35 14 36 15 89 16 37 17 94 18 88 19 90 20 38 21 93 22 87 23
REMARK SMILES IDX 86 24 39 26 73 27 52 28 72 29 53 30 56 31 71 32 91 33 54 34
REMARK SMILES IDX 55 35 70 37 92 38 57 39 40 40 41 41 50 42 42 43 43 44 49 45
REMARK SMILES IDX 51 46 44 47 45 48 46 49 47 50 48 51 74 52 75 53 84 54 76 55
REMARK SMILES IDX 77 56 83 57 85 58 78 59 79 60 80 61 81 62 82 63 58 64 59 65
REMARK SMILES IDX 68 66 60 67 61 68 67 69 69 70 62 71 63 72 64 73 65 74 66 75
REMARK SMILES IDX 7 76 8 77 9 78 10 79 11 80 12 82 13 83 14 84 29 85 26 86
REMARK SMILES IDX 28 87 30 88 27 89 15 90 16 91 17 92 18 94 19 95 24 96 20 97
REMARK SMILES IDX 23 98 25 99 21 100 22 101
REMARK H PARENT 3 7 90 25 56 36 10 81 17 93
REMARK Flexibility Score: inf
ROOT
ATOM      1  C   UNL A   1      40.224  21.435  26.254  1.00  0.00     0.002 C 
ENDROOT
BRANCH   1   2
ATOM      2  C   UNL A   1      40.528  22.037  27.624  1.00  0.00     0.021 C 
BRANCH   2   3
ATOM      3  C   UNL A   1      41.547  23.163  27.613  1.00  0.00     0.116 C 
BRANCH   3   4
ATOM      4  N   UNL A   1      41.567  23.888  26.355  1.00  0.00    -0.352 N 
ATOM      5  O   UNL A   1      41.246  25.670  25.007  1.00  0.00    -0.269 OA
ATOM      6  C   UNL A   1      41.345  25.230  26.143  1.00  0.00     0.251 C 
ATOM      7  H   UNL A   1      41.762  23.352  25.553  1.00  0.00     0.163 HD
BRANCH   6   8
ATOM      8  C   UNL A   1      41.205  26.126  27.315  1.00  0.00     0.039 A 
ATOM      9  C   UNL A   1      42.132  27.146  27.537  1.00  0.00     0.014 A 
ATOM     10  C   UNL A   1      40.144  25.929  28.202  1.00  0.00     0.014 A 
ATOM     11  C   UNL A   1      42.071  27.890  28.709  1.00  0.00     0.010 A 
ATOM     12  C   UNL A   1      40.033  26.739  29.336  1.00  0.00     0.010 A 
ATOM     13  C   UNL A   1      41.005  27.715  29.607  1.00  0.00    -0.014 A 
BRANCH  13  14
ATOM     14  C   UNL A   1      40.871  28.645  30.755  1.00  0.00     0.031 A 
ATOM     15  C   UNL A   1      41.757  28.538  31.964  1.00  0.00     0.074 A 
ATOM     16  C   UNL A   1      39.929  29.608  30.681  1.00  0.00     0.049 A 
ATOM     17  N   UNL A   1      41.760  29.274  33.045  1.00  0.00    -0.248 NA
ATOM     18  C   UNL A   1      42.766  27.466  31.969  1.00  0.00     0.031 C 
ATOM     19  C   UNL A   1      38.998  29.789  29.561  1.00  0.00     0.029 A 
ATOM     20  N   UNL A   1      39.601  30.619  31.546  1.00  0.00    -0.354 N 
ATOM     21  C   UNL A   1      42.750  28.749  33.866  1.00  0.00     0.074 A 
ATOM     22  C   UNL A   1      43.320  27.619  33.165  1.00  0.00     0.031 C 
ATOM     23  C   UNL A   1      38.233  30.863  29.791  1.00  0.00     0.029 A 
ATOM     24  C   UNL A   1      38.568  31.409  31.100  1.00  0.00     0.049 A 
ATOM     25  H   UNL A   1      40.062  30.765  32.404  1.00  0.00     0.167 HD
ATOM     26  C   UNL A   1      43.141  29.178  35.090  1.00  0.00     0.037 A 
ATOM     27  C   UNL A   1      37.938  32.440  31.689  1.00  0.00     0.037 A 
ATOM     28  C   UNL A   1      42.575  30.318  35.768  1.00  0.00     0.049 A 
ATOM     29  C   UNL A   1      38.387  32.880  33.052  1.00  0.00     0.074 A 
ATOM     30  C   UNL A   1      42.943  30.863  36.987  1.00  0.00     0.029 A 
ATOM     31  N   UNL A   1      41.519  31.083  35.293  1.00  0.00    -0.354 N 
ATOM     32  N   UNL A   1      39.360  32.401  33.790  1.00  0.00    -0.248 NA
ATOM     33  C   UNL A   1      37.654  33.995  33.665  1.00  0.00     0.031 C 
ATOM     34  C   UNL A   1      42.080  31.927  37.270  1.00  0.00     0.029 A 
ATOM     35  C   UNL A   1      41.206  32.077  36.207  1.00  0.00     0.049 A 
ATOM     36  H   UNL A   1      41.061  30.941  34.434  1.00  0.00     0.167 HD
ATOM     37  C   UNL A   1      39.362  33.164  34.951  1.00  0.00     0.074 A 
ATOM     38  C   UNL A   1      38.312  34.151  34.805  1.00  0.00     0.031 C 
ATOM     39  C   UNL A   1      40.157  33.052  36.043  1.00  0.00     0.037 A 
BRANCH  26  40
ATOM     40  C   UNL A   1      44.230  28.417  35.800  1.00  0.00     0.058 A 
ATOM     41  C   UNL A   1      45.583  28.754  35.653  1.00  0.00     0.135 A 
ATOM     42  C   UNL A   1      43.903  27.404  36.717  1.00  0.00     0.135 A 
ATOM     43  F   UNL A   1      45.951  29.705  34.780  1.00  0.00    -0.206 F 
ATOM     44  C   UNL A   1      46.575  28.114  36.389  1.00  0.00     0.059 A 
ATOM     45  C   UNL A   1      44.877  26.764  37.480  1.00  0.00     0.059 A 
ATOM     46  F   UNL A   1      42.623  27.040  36.896  1.00  0.00    -0.206 F 
ATOM     47  C   UNL A   1      46.212  27.125  37.305  1.00  0.00     0.060 A 
BRANCH  47  48
ATOM     48  S   UNL A   1      47.510  26.339  38.286  1.00  0.00     0.124 S 
ATOM     49  O   UNL A   1      48.681  26.550  37.440  1.00  0.00    -0.237 OA
ATOM     50  O   UNL A   1      47.475  27.110  39.524  1.00  0.00    -0.237 OA
ATOM     51  O   UNL A   1      47.059  24.955  38.400  1.00  0.00    -0.744 OA
ENDBRANCH  47  48
ENDBRANCH  26  40
BRANCH  27  52
ATOM     52  C   UNL A   1      36.797  33.103  31.005  1.00  0.00     0.058 A 
ATOM     53  C   UNL A   1      37.007  34.039  29.983  1.00  0.00     0.135 A 
ATOM     54  C   UNL A   1      35.471  32.810  31.362  1.00  0.00     0.135 A 
ATOM     55  F   UNL A   1      38.256  34.353  29.606  1.00  0.00    -0.206 F 
ATOM     56  C   UNL A   1      35.944  34.681  29.356  1.00  0.00     0.059 A 
ATOM     57  C   UNL A   1      34.392  33.416  30.730  1.00  0.00     0.059 A 
ATOM     58  F   UNL A   1      35.217  31.905  32.320  1.00  0.00    -0.206 F 
ATOM     59  C   UNL A   1      34.639  34.365  29.740  1.00  0.00     0.060 A 
BRANCH  59  60
ATOM     60  S   UNL A   1      33.265  35.189  28.910  1.00  0.00     0.124 S 
ATOM     61  O   UNL A   1      32.693  34.092  28.138  1.00  0.00    -0.237 OA
ATOM     62  O   UNL A   1      32.465  35.665  30.034  1.00  0.00    -0.237 OA
ATOM     63  O   UNL A   1      33.923  36.234  28.132  1.00  0.00    -0.744 OA
ENDBRANCH  59  60
ENDBRANCH  27  52
BRANCH  39  64
ATOM     64  C   UNL A   1      39.934  34.040  37.153  1.00  0.00     0.058 A 
ATOM     65  C   UNL A   1      40.640  35.250  37.212  1.00  0.00     0.135 A 
ATOM     66  C   UNL A   1      38.983  33.782  38.154  1.00  0.00     0.135 A 
ATOM     67  F   UNL A   1      41.567  35.537  36.284  1.00  0.00    -0.206 F 
ATOM     68  C   UNL A   1      40.430  36.164  38.238  1.00  0.00     0.059 A 
ATOM     69  C   UNL A   1      38.738  34.694  39.176  1.00  0.00     0.059 A 
ATOM     70  F   UNL A   1      38.276  32.642  38.139  1.00  0.00    -0.206 F 
ATOM     71  C   UNL A   1      39.476  35.875  39.216  1.00  0.00     0.060 A 
BRANCH  71  72
ATOM     72  S   UNL A   1      39.195  37.080  40.532  1.00  0.00     0.124 S 
ATOM     73  O   UNL A   1      40.534  37.629  40.717  1.00  0.00    -0.237 OA
ATOM     74  O   UNL A   1      38.218  37.980  39.929  1.00  0.00    -0.237 OA
ATOM     75  O   UNL A   1      38.692  36.266  41.635  1.00  0.00    -0.744 OA
ENDBRANCH  71  72
ENDBRANCH  39  64
ENDBRANCH  13  14
ENDBRANCH   6   8
ENDBRANCH   3   4
ENDBRANCH   2   3
ENDBRANCH   1   2
BRANCH   1  76
ATOM     76  C   UNL A   1      38.776  21.591  25.773  1.00  0.00     0.002 C 
BRANCH  76  77
ATOM     77  C   UNL A   1      38.137  20.335  25.163  1.00  0.00     0.021 C 
BRANCH  77  78
ATOM     78  C   UNL A   1      36.613  20.371  25.064  1.00  0.00     0.116 C 
BRANCH  78  79
ATOM     79  N   UNL A   1      36.032  21.229  26.077  1.00  0.00    -0.356 N 
ATOM     80  C   UNL A   1      34.967  22.065  26.003  1.00  0.00     0.227 C 
ATOM     81  H   UNL A   1      36.481  21.202  26.954  1.00  0.00     0.163 HD
ATOM     82  O   UNL A   1      34.368  22.263  27.060  1.00  0.00    -0.275 OA
BRANCH  80  83
ATOM     83  C   UNL A   1      34.454  22.564  24.671  1.00  0.00     0.127 C 
ATOM     84  C   UNL A   1      33.020  22.109  24.248  1.00  0.00     0.127 C 
ATOM     85  C   UNL A   1      34.339  24.090  24.487  1.00  0.00     0.155 C 
ATOM     86  C   UNL A   1      32.411  23.411  23.736  1.00  0.00     0.155 C 
ATOM     87  C   UNL A   1      34.345  24.383  23.013  1.00  0.00     0.004 C 
ATOM     88  O   UNL A   1      32.937  24.332  24.718  1.00  0.00    -0.365 OA
ATOM     89  C   UNL A   1      33.168  23.937  22.545  1.00  0.00     0.004 C 
BRANCH  84  90
ATOM     90  C   UNL A   1      32.128  21.328  25.225  1.00  0.00     0.231 C 
ATOM     91  O   UNL A   1      31.452  21.984  26.032  1.00  0.00    -0.274 OA
ATOM     92  N   UNL A   1      31.927  19.978  25.229  1.00  0.00    -0.323 N 
ATOM     93  H   UNL A   1      31.123  19.697  25.723  1.00  0.00     0.170 HD
BRANCH  92  94
ATOM     94  C   UNL A   1      32.645  18.914  24.666  1.00  0.00     0.080 A 
ATOM     95  C   UNL A   1      33.328  17.990  25.449  1.00  0.00     0.068 A 
ATOM     96  C   UNL A   1      32.589  18.707  23.281  1.00  0.00     0.146 A 
ATOM     97  C   UNL A   1      34.077  16.987  24.837  1.00  0.00     0.125 A 
ATOM     98  C   UNL A   1      33.348  17.712  22.667  1.00  0.00     0.044 A 
ATOM     99  F   UNL A   1      31.835  19.502  22.510  1.00  0.00    -0.205 F 
ATOM    100  F   UNL A   1      34.776  16.132  25.595  1.00  0.00    -0.207 F 
ATOM    101  C   UNL A   1      34.119  16.860  23.453  1.00  0.00     0.042 A 
ENDBRANCH  92  94
ENDBRANCH  84  90
ENDBRANCH  80  83
ENDBRANCH  78  79
ENDBRANCH  77  78
ENDBRANCH  76  77
ENDBRANCH   1  76
TORSDOF 18
ENDMDL
MODEL 2
REMARK VINA RESULT:     -11.9      0.446      8.051
REMARK SMILES O=C(NCCCCCCNC(=O)[C@H]1[C@@H](C(=O)Nc2cc(F)ccc2F)[C@@H]2C=C[C@H]1O2)c1ccc(-c2c3nc(c(-c4c(F)cc(S(=O)(=O)[O-])cc4F)c4ccc([nH]4)c(-c4c(F)cc(S(=O)(=O)[O-])cc4F)c4nc(c(-c5c(F)cc(S(=O)(=O)[O-])cc5F)c5ccc2[nH]5)C=C4)C=C3)cc1
REMARK SMILES IDX 6 1 5 2 4 3 3 4 1 5 2 6 31 8 32 9 96 10 33 11 95 12 34 13
REMARK SMILES IDX 35 14 36 15 89 16 37 17 94 18 88 19 90 20 38 21 93 22 87 23
REMARK SMILES IDX 86 24 39 26 73 27 52 28 72 29 53 30 56 31 71 32 91 33 54 34
REMARK SMILES IDX 55 35 70 37 92 38 57 39 40 40 41 41 50 42 42 43 43 44 49 45
REMARK SMILES IDX 51 46 44 47 45 48 46 49 47 50 48 51 74 52 75 53 84 54 76 55
REMARK SMILES IDX 77 56 83 57 85 58 78 59 79 60 80 61 81 62 82 63 58 64 59 65
REMARK SMILES IDX 68 66 60 67 61 68 67 69 69 70 62 71 63 72 64 73 65 74 66 75
REMARK SMILES IDX 7 76 8 77 9 78 10 79 11 80 12 82 13 83 14 84 29 85 26 86
REMARK SMILES IDX 28 87 30 88 27 89 15 90 16 91 17 92 18 94 19 95 24 96 20 97
REMARK SMILES IDX 23 98 25 99 21 100 22 101
REMARK H PARENT 3 7 90 25 56 36 10 81 17 93
REMARK Flexibility Score: inf
ROOT
ATOM      1  C   UNL A   1      40.061  21.908  26.153  1.00  0.00     0.002 C 
ENDROOT
BRANCH   1   2
ATOM      2  C   UNL A   1      40.593  22.233  27.547  1.00  0.00     0.021 C 
BRANCH   2   3
ATOM      3  C   UNL A   1      41.540  23.420  27.607  1.00  0.00     0.116 C 
BRANCH   3   4
ATOM      4  N   UNL A   1      41.599  24.152  26.354  1.00  0.00    -0.352 N 
ATOM      5  O   UNL A   1      41.308  25.936  25.003  1.00  0.00    -0.269 OA
ATOM      6  C   UNL A   1      41.368  25.492  26.140  1.00  0.00     0.251 C 
ATOM      7  H   UNL A   1      41.834  23.623  25.558  1.00  0.00     0.163 HD
BRANCH   6   8
ATOM      8  C   UNL A   1      41.169  26.379  27.309  1.00  0.00     0.039 A 
ATOM      9  C   UNL A   1      42.048  27.438  27.548  1.00  0.00     0.014 A 
ATOM     10  C   UNL A   1      40.102  26.137  28.178  1.00  0.00     0.014 A 
ATOM     11  C   UNL A   1      41.934  28.178  28.719  1.00  0.00     0.010 A 
ATOM     12  C   UNL A   1      39.937  26.939  29.311  1.00  0.00     0.010 A 
ATOM     13  C   UNL A   1      40.861  27.956  29.598  1.00  0.00    -0.014 A 
BRANCH  13  14
ATOM     14  C   UNL A   1      40.667  28.878  30.745  1.00  0.00     0.031 A 
ATOM     15  C   UNL A   1      39.584  29.919  30.743  1.00  0.00     0.074 A 
ATOM     16  C   UNL A   1      41.491  28.749  31.805  1.00  0.00     0.049 A 
ATOM     17  N   UNL A   1      39.291  30.797  31.668  1.00  0.00    -0.248 NA
ATOM     18  C   UNL A   1      38.719  29.994  29.554  1.00  0.00     0.031 C 
ATOM     19  C   UNL A   1      42.593  27.785  31.900  1.00  0.00     0.029 A 
ATOM     20  N   UNL A   1      41.532  29.413  33.002  1.00  0.00    -0.354 N 
ATOM     21  C   UNL A   1      38.227  31.541  31.171  1.00  0.00     0.074 A 
ATOM     22  C   UNL A   1      37.933  31.020  29.853  1.00  0.00     0.031 C 
ATOM     23  C   UNL A   1      43.175  27.896  33.101  1.00  0.00     0.029 A 
ATOM     24  C   UNL A   1      42.535  28.980  33.836  1.00  0.00     0.049 A 
ATOM     25  H   UNL A   1      40.902  30.131  33.242  1.00  0.00     0.167 HD
ATOM     26  C   UNL A   1      37.563  32.560  31.767  1.00  0.00     0.037 A 
ATOM     27  C   UNL A   1      42.921  29.424  35.046  1.00  0.00     0.037 A 
ATOM     28  C   UNL A   1      37.858  33.054  33.090  1.00  0.00     0.049 A 
ATOM     29  C   UNL A   1      42.172  30.564  35.671  1.00  0.00     0.074 A 
ATOM     30  C   UNL A   1      37.203  34.046  33.801  1.00  0.00     0.029 A 
ATOM     31  N   UNL A   1      38.891  32.602  33.897  1.00  0.00    -0.354 N 
ATOM     32  N   UNL A   1      41.137  31.221  35.204  1.00  0.00    -0.248 NA
ATOM     33  C   UNL A   1      42.645  31.029  36.981  1.00  0.00     0.031 C 
ATOM     34  C   UNL A   1      37.871  34.227  35.017  1.00  0.00     0.029 A 
ATOM     35  C   UNL A   1      38.910  33.314  35.086  1.00  0.00     0.049 A 
ATOM     36  H   UNL A   1      39.519  31.882  33.660  1.00  0.00     0.167 HD
ATOM     37  C   UNL A   1      40.827  32.169  36.170  1.00  0.00     0.074 A 
ATOM     38  C   UNL A   1      41.767  31.984  37.257  1.00  0.00     0.031 C 
ATOM     39  C   UNL A   1      39.855  33.114  36.156  1.00  0.00     0.037 A 
BRANCH  26  40
ATOM     40  C   UNL A   1      36.452  33.231  31.005  1.00  0.00     0.058 A 
ATOM     41  C   UNL A   1      35.106  33.062  31.360  1.00  0.00     0.135 A 
ATOM     42  C   UNL A   1      36.747  34.135  29.970  1.00  0.00     0.135 A 
ATOM     43  F   UNL A   1      34.766  32.201  32.332  1.00  0.00    -0.206 F 
ATOM     44  C   UNL A   1      34.091  33.765  30.717  1.00  0.00     0.059 A 
ATOM     45  C   UNL A   1      35.750  34.864  29.327  1.00  0.00     0.059 A 
ATOM     46  F   UNL A   1      38.020  34.333  29.589  1.00  0.00    -0.206 F 
ATOM     47  C   UNL A   1      34.424  34.669  29.707  1.00  0.00     0.060 A 
BRANCH  47  48
ATOM     48  S   UNL A   1      33.097  35.606  28.916  1.00  0.00     0.124 S 
ATOM     49  O   UNL A   1      33.854  36.575  28.129  1.00  0.00    -0.237 OA
ATOM     50  O   UNL A   1      32.401  34.575  28.152  1.00  0.00    -0.237 OA
ATOM     51  O   UNL A   1      32.351  36.158  30.042  1.00  0.00    -0.744 OA
ENDBRANCH  47  48
ENDBRANCH  26  40
BRANCH  27  52
ATOM     52  C   UNL A   1      44.090  28.807  35.726  1.00  0.00     0.058 A 
ATOM     53  C   UNL A   1      45.395  29.251  35.474  1.00  0.00     0.135 A 
ATOM     54  C   UNL A   1      43.920  27.760  36.646  1.00  0.00     0.135 A 
ATOM     55  F   UNL A   1      45.609  30.249  34.602  1.00  0.00    -0.206 F 
ATOM     56  C   UNL A   1      46.495  28.661  36.088  1.00  0.00     0.059 A 
ATOM     57  C   UNL A   1      45.000  27.175  37.295  1.00  0.00     0.059 A 
ATOM     58  F   UNL A   1      42.688  27.314  36.938  1.00  0.00    -0.206 F 
ATOM     59  C   UNL A   1      46.287  27.620  36.995  1.00  0.00     0.060 A 
BRANCH  59  60
ATOM     60  S   UNL A   1      47.716  26.872  37.803  1.00  0.00     0.124 S 
ATOM     61  O   UNL A   1      47.124  25.680  38.398  1.00  0.00    -0.237 OA
ATOM     62  O   UNL A   1      48.622  26.644  36.681  1.00  0.00    -0.237 OA
ATOM     63  O   UNL A   1      48.145  27.903  38.744  1.00  0.00    -0.744 OA
ENDBRANCH  59  60
ENDBRANCH  27  52
BRANCH  39  64
ATOM     64  C   UNL A   1      39.748  34.002  37.364  1.00  0.00     0.058 A 
ATOM     65  C   UNL A   1      40.462  35.205  37.455  1.00  0.00     0.135 A 
ATOM     66  C   UNL A   1      38.901  33.656  38.428  1.00  0.00     0.135 A 
ATOM     67  F   UNL A   1      41.294  35.574  36.468  1.00  0.00    -0.206 F 
ATOM     68  C   UNL A   1      40.361  36.026  38.573  1.00  0.00     0.059 A 
ATOM     69  C   UNL A   1      38.763  34.475  39.545  1.00  0.00     0.059 A 
ATOM     70  F   UNL A   1      38.190  32.518  38.387  1.00  0.00    -0.206 F 
ATOM     71  C   UNL A   1      39.508  35.651  39.613  1.00  0.00     0.060 A 
BRANCH  71  72
ATOM     72  S   UNL A   1      39.364  36.737  41.048  1.00  0.00     0.124 S 
ATOM     73  O   UNL A   1      40.764  36.908  41.426  1.00  0.00    -0.237 OA
ATOM     74  O   UNL A   1      38.710  37.914  40.487  1.00  0.00    -0.237 OA
ATOM     75  O   UNL A   1      38.553  35.960  41.981  1.00  0.00    -0.744 OA
ENDBRANCH  71  72
ENDBRANCH  39  64
ENDBRANCH  13  14
ENDBRANCH   6   8
ENDBRANCH   3   4
ENDBRANCH   2   3
ENDBRANCH   1   2
BRANCH   1  76
ATOM     76  C   UNL A   1      38.559  22.139  25.952  1.00  0.00     0.002 C 
BRANCH  76  77
ATOM     77  C   UNL A   1      37.851  21.151  25.013  1.00  0.00     0.021 C 
BRANCH  77  78
ATOM     78  C   UNL A   1      36.458  20.717  25.464  1.00  0.00     0.116 C 
BRANCH  78  79
ATOM     79  N   UNL A   1      35.830  21.722  26.298  1.00  0.00    -0.356 N 
ATOM     80  C   UNL A   1      34.766  22.524  26.042  1.00  0.00     0.227 C 
ATOM     81  H   UNL A   1      36.239  21.842  27.186  1.00  0.00     0.163 HD
ATOM     82  O   UNL A   1      34.119  22.884  27.026  1.00  0.00    -0.275 OA
BRANCH  80  83
ATOM     83  C   UNL A   1      34.312  22.794  24.626  1.00  0.00     0.127 C 
ATOM     84  C   UNL A   1      32.977  22.122  24.169  1.00  0.00     0.127 C 
ATOM     85  C   UNL A   1      34.043  24.262  24.240  1.00  0.00     0.155 C 
ATOM     86  C   UNL A   1      32.271  23.270  23.454  1.00  0.00     0.155 C 
ATOM     87  C   UNL A   1      34.137  24.375  22.744  1.00  0.00     0.004 C 
ATOM     88  O   UNL A   1      32.608  24.358  24.343  1.00  0.00    -0.365 OA
ATOM     89  C   UNL A   1      33.059  23.737  22.260  1.00  0.00     0.004 C 
BRANCH  84  90
ATOM     90  C   UNL A   1      32.100  21.361  25.176  1.00  0.00     0.231 C 
ATOM     91  O   UNL A   1      31.434  22.034  25.978  1.00  0.00    -0.274 OA
ATOM     92  N   UNL A   1      31.902  20.011  25.212  1.00  0.00    -0.323 N 
ATOM     93  H   UNL A   1      31.106  19.740  25.724  1.00  0.00     0.170 HD
BRANCH  92  94
ATOM     94  C   UNL A   1      32.614  18.936  24.663  1.00  0.00     0.080 A 
ATOM     95  C   UNL A   1      33.268  18.002  25.459  1.00  0.00     0.068 A 
ATOM     96  C   UNL A   1      32.581  18.729  23.277  1.00  0.00     0.146 A 
ATOM     97  C   UNL A   1      34.014  16.988  24.861  1.00  0.00     0.125 A 
ATOM     98  C   UNL A   1      33.336  17.723  22.677  1.00  0.00     0.044 A 
ATOM     99  F   UNL A   1      31.854  19.536  22.492  1.00  0.00    -0.205 F 
ATOM    100  F   UNL A   1      34.685  16.122  25.631  1.00  0.00    -0.207 F 
ATOM    101  C   UNL A   1      34.080  16.859  23.477  1.00  0.00     0.042 A 
ENDBRANCH  92  94
ENDBRANCH  84  90
ENDBRANCH  80  83
ENDBRANCH  78  79
ENDBRANCH  77  78
ENDBRANCH  76  77
ENDBRANCH   1  76
TORSDOF 18
ENDMDL
MODEL 3
REMARK VINA RESULT:     -11.8      6.546     11.820
REMARK SMILES O=C(NCCCCCCNC(=O)[C@H]1[C@@H](C(=O)Nc2cc(F)ccc2F)[C@@H]2C=C[C@H]1O2)c1ccc(-c2c3nc(c(-c4c(F)cc(S(=O)(=O)[O-])cc4F)c4ccc([nH]4)c(-c4c(F)cc(S(=O)(=O)[O-])cc4F)c4nc(c(-c5c(F)cc(S(=O)(=O)[O-])cc5F)c5ccc2[nH]5)C=C4)C=C3)cc1
REMARK SMILES IDX 6 1 5 2 4 3 3 4 1 5 2 6 31 8 32 9 96 10 33 11 95 12 34 13
REMARK SMILES IDX 35 14 36 15 89 16 37 17 94 18 88 19 90 20 38 21 93 22 87 23
REMARK SMILES IDX 86 24 39 26 73 27 52 28 72 29 53 30 56 31 71 32 91 33 54 34
REMARK SMILES IDX 55 35 70 37 92 38 57 39 40 40 41 41 50 42 42 43 43 44 49 45
REMARK SMILES IDX 51 46 44 47 45 48 46 49 47 50 48 51 74 52 75 53 84 54 76 55
REMARK SMILES IDX 77 56 83 57 85 58 78 59 79 60 80 61 81 62 82 63 58 64 59 65
REMARK SMILES IDX 68 66 60 67 61 68 67 69 69 70 62 71 63 72 64 73 65 74 66 75
REMARK SMILES IDX 7 76 8 77 9 78 10 79 11 80 12 82 13 83 14 84 29 85 26 86
REMARK SMILES IDX 28 87 30 88 27 89 15 90 16 91 17 92 18 94 19 95 24 96 20 97
REMARK SMILES IDX 23 98 25 99 21 100 22 101
REMARK H PARENT 3 7 90 25 56 36 10 81 17 93
REMARK Flexibility Score: inf
ROOT
ATOM      1  C   UNL A   1      33.929  28.494  26.032  1.00  0.00     0.002 C 
ENDROOT
BRANCH   1   2
ATOM      2  C   UNL A   1      34.045  29.610  27.068  1.00  0.00     0.021 C 
BRANCH   2   3
ATOM      3  C   UNL A   1      35.380  29.673  27.790  1.00  0.00     0.116 C 
BRANCH   3   4
ATOM      4  N   UNL A   1      35.290  30.341  29.077  1.00  0.00    -0.352 N 
ATOM      5  O   UNL A   1      36.018  30.972  31.118  1.00  0.00    -0.269 OA
ATOM      6  C   UNL A   1      36.283  30.521  30.013  1.00  0.00     0.251 C 
ATOM      7  H   UNL A   1      34.408  30.711  29.308  1.00  0.00     0.163 HD
BRANCH   6   8
ATOM      8  C   UNL A   1      37.671  30.135  29.668  1.00  0.00     0.039 A 
ATOM      9  C   UNL A   1      38.111  30.199  28.344  1.00  0.00     0.014 A 
ATOM     10  C   UNL A   1      38.528  29.692  30.678  1.00  0.00     0.014 A 
ATOM     11  C   UNL A   1      39.367  29.706  28.011  1.00  0.00     0.010 A 
ATOM     12  C   UNL A   1      39.824  29.279  30.352  1.00  0.00     0.010 A 
ATOM     13  C   UNL A   1      40.248  29.268  29.014  1.00  0.00    -0.014 A 
BRANCH  13  14
ATOM     14  C   UNL A   1      41.642  28.917  28.645  1.00  0.00     0.031 A 
ATOM     15  C   UNL A   1      42.743  29.939  28.664  1.00  0.00     0.074 A 
ATOM     16  C   UNL A   1      41.900  27.639  28.298  1.00  0.00     0.049 A 
ATOM     17  N   UNL A   1      44.007  29.785  28.367  1.00  0.00    -0.248 NA
ATOM     18  C   UNL A   1      42.385  31.311  29.061  1.00  0.00     0.031 C 
ATOM     19  C   UNL A   1      40.898  26.570  28.224  1.00  0.00     0.029 A 
ATOM     20  N   UNL A   1      43.070  27.016  27.955  1.00  0.00    -0.354 N 
ATOM     21  C   UNL A   1      44.594  31.036  28.519  1.00  0.00     0.074 A 
ATOM     22  C   UNL A   1      43.543  31.945  28.922  1.00  0.00     0.031 C 
ATOM     23  C   UNL A   1      41.501  25.420  27.895  1.00  0.00     0.029 A 
ATOM     24  C   UNL A   1      42.917  25.680  27.669  1.00  0.00     0.049 A 
ATOM     25  H   UNL A   1      43.938  27.481  27.918  1.00  0.00     0.167 HD
ATOM     26  C   UNL A   1      45.891  31.383  28.339  1.00  0.00     0.037 A 
ATOM     27  C   UNL A   1      43.809  24.768  27.243  1.00  0.00     0.037 A 
ATOM     28  C   UNL A   1      46.931  30.460  27.954  1.00  0.00     0.049 A 
ATOM     29  C   UNL A   1      45.235  25.191  27.039  1.00  0.00     0.074 A 
ATOM     30  C   UNL A   1      48.285  30.707  27.801  1.00  0.00     0.029 A 
ATOM     31  N   UNL A   1      46.735  29.119  27.657  1.00  0.00    -0.354 N 
ATOM     32  N   UNL A   1      45.779  26.368  27.237  1.00  0.00    -0.248 NA
ATOM     33  C   UNL A   1      46.167  24.167  26.550  1.00  0.00     0.031 C 
ATOM     34  C   UNL A   1      48.899  29.528  27.365  1.00  0.00     0.029 A 
ATOM     35  C   UNL A   1      47.938  28.534  27.294  1.00  0.00     0.049 A 
ATOM     36  H   UNL A   1      45.869  28.652  27.698  1.00  0.00     0.167 HD
ATOM     37  C   UNL A   1      47.120  26.223  26.907  1.00  0.00     0.074 A 
ATOM     38  C   UNL A   1      47.310  24.839  26.523  1.00  0.00     0.031 C 
ATOM     39  C   UNL A   1      48.106  27.153  26.915  1.00  0.00     0.037 A 
BRANCH  26  40
ATOM     40  C   UNL A   1      46.279  32.824  28.541  1.00  0.00     0.058 A 
ATOM     41  C   UNL A   1      46.243  33.753  27.491  1.00  0.00     0.135 A 
ATOM     42  C   UNL A   1      46.593  33.299  29.825  1.00  0.00     0.135 A 
ATOM     43  F   UNL A   1      45.962  33.350  26.242  1.00  0.00    -0.206 F 
ATOM     44  C   UNL A   1      46.504  35.103  27.706  1.00  0.00     0.059 A 
ATOM     45  C   UNL A   1      46.838  34.648  30.067  1.00  0.00     0.059 A 
ATOM     46  F   UNL A   1      46.644  32.452  30.866  1.00  0.00    -0.206 F 
ATOM     47  C   UNL A   1      46.794  35.542  28.999  1.00  0.00     0.060 A 
BRANCH  47  48
ATOM     48  S   UNL A   1      47.085  37.305  29.266  1.00  0.00     0.124 S 
ATOM     49  O   UNL A   1      47.241  37.785  27.896  1.00  0.00    -0.237 OA
ATOM     50  O   UNL A   1      45.864  37.721  29.948  1.00  0.00    -0.237 OA
ATOM     51  O   UNL A   1      48.295  37.331  30.082  1.00  0.00    -0.744 OA
ENDBRANCH  47  48
ENDBRANCH  26  40
BRANCH  27  52
ATOM     52  C   UNL A   1      43.371  23.379  26.952  1.00  0.00     0.058 A 
ATOM     53  C   UNL A   1      43.183  22.936  25.635  1.00  0.00     0.135 A 
ATOM     54  C   UNL A   1      43.133  22.463  27.990  1.00  0.00     0.135 A 
ATOM     55  F   UNL A   1      43.397  23.773  24.608  1.00  0.00    -0.206 F 
ATOM     56  C   UNL A   1      42.748  21.645  25.358  1.00  0.00     0.059 A 
ATOM     57  C   UNL A   1      42.728  21.159  27.737  1.00  0.00     0.059 A 
ATOM     58  F   UNL A   1      43.320  22.832  29.267  1.00  0.00    -0.206 F 
ATOM     59  C   UNL A   1      42.520  20.764  26.417  1.00  0.00     0.060 A 
BRANCH  59  60
ATOM     60  S   UNL A   1      41.974  19.083  26.048  1.00  0.00     0.124 S 
ATOM     61  O   UNL A   1      42.822  18.745  24.912  1.00  0.00    -0.237 OA
ATOM     62  O   UNL A   1      42.267  18.383  27.295  1.00  0.00    -0.237 OA
ATOM     63  O   UNL A   1      40.555  19.251  25.752  1.00  0.00    -0.744 OA
ENDBRANCH  59  60
ENDBRANCH  27  52
BRANCH  39  64
ATOM     64  C   UNL A   1      49.480  26.695  26.518  1.00  0.00     0.058 A 
ATOM     65  C   UNL A   1      50.337  26.063  27.432  1.00  0.00     0.135 A 
ATOM     66  C   UNL A   1      49.934  26.866  25.200  1.00  0.00     0.135 A 
ATOM     67  F   UNL A   1      49.952  25.887  28.706  1.00  0.00    -0.206 F 
ATOM     68  C   UNL A   1      51.607  25.638  27.061  1.00  0.00     0.059 A 
ATOM     69  C   UNL A   1      51.191  26.424  24.800  1.00  0.00     0.059 A 
ATOM     70  F   UNL A   1      49.151  27.458  24.285  1.00  0.00    -0.206 F 
ATOM     71  C   UNL A   1      52.025  25.823  25.742  1.00  0.00     0.060 A 
BRANCH  71  72
ATOM     72  S   UNL A   1      53.668  25.245  25.266  1.00  0.00     0.124 S 
ATOM     73  O   UNL A   1      54.517  25.975  26.202  1.00  0.00    -0.237 OA
ATOM     74  O   UNL A   1      53.570  23.807  25.487  1.00  0.00    -0.237 OA
ATOM     75  O   UNL A   1      53.779  25.653  23.868  1.00  0.00    -0.744 OA
ENDBRANCH  71  72
ENDBRANCH  39  64
ENDBRANCH  13  14
ENDBRANCH   6   8
ENDBRANCH   3   4
ENDBRANCH   2   3
ENDBRANCH   1   2
BRANCH   1  76
ATOM     76  C   UNL A   1      33.617  28.952  24.603  1.00  0.00     0.002 C 
BRANCH  76  77
ATOM     77  C   UNL A   1      33.569  27.844  23.542  1.00  0.00     0.021 C 
BRANCH  77  78
ATOM     78  C   UNL A   1      33.662  26.421  24.090  1.00  0.00     0.116 C 
BRANCH  78  79
ATOM     79  N   UNL A   1      33.866  25.453  23.032  1.00  0.00    -0.356 N 
ATOM     80  C   UNL A   1      34.374  24.197  23.086  1.00  0.00     0.227 C 
ATOM     81  H   UNL A   1      33.594  25.754  22.134  1.00  0.00     0.163 HD
ATOM     82  O   UNL A   1      33.974  23.419  22.221  1.00  0.00    -0.275 OA
BRANCH  80  83
ATOM     83  C   UNL A   1      35.231  23.750  24.249  1.00  0.00     0.127 C 
ATOM     84  C   UNL A   1      34.695  22.559  25.108  1.00  0.00     0.127 C 
ATOM     85  C   UNL A   1      36.655  23.255  23.927  1.00  0.00     0.155 C 
ATOM     86  C   UNL A   1      35.942  21.696  25.270  1.00  0.00     0.155 C 
ATOM     87  C   UNL A   1      37.484  23.376  25.174  1.00  0.00     0.004 C 
ATOM     88  O   UNL A   1      36.503  21.821  23.944  1.00  0.00    -0.365 OA
ATOM     89  C   UNL A   1      37.024  22.434  26.013  1.00  0.00     0.004 C 
BRANCH  84  90
ATOM     90  C   UNL A   1      33.437  21.788  24.677  1.00  0.00     0.231 C 
ATOM     91  O   UNL A   1      33.596  20.651  24.206  1.00  0.00    -0.274 OA
ATOM     92  N   UNL A   1      32.145  22.191  24.853  1.00  0.00    -0.323 N 
ATOM     93  H   UNL A   1      31.488  21.462  24.782  1.00  0.00     0.170 HD
BRANCH  92  94
ATOM     94  C   UNL A   1      31.574  23.445  25.115  1.00  0.00     0.080 A 
ATOM     95  C   UNL A   1      30.763  24.092  24.188  1.00  0.00     0.068 A 
ATOM     96  C   UNL A   1      31.732  24.018  26.384  1.00  0.00     0.146 A 
ATOM     97  C   UNL A   1      30.271  25.364  24.473  1.00  0.00     0.125 A 
ATOM     98  C   UNL A   1      31.250  25.295  26.666  1.00  0.00     0.044 A 
ATOM     99  F   UNL A   1      32.399  23.361  27.343  1.00  0.00    -0.205 F 
ATOM    100  F   UNL A   1      29.534  26.006  23.557  1.00  0.00    -0.207 F 
ATOM    101  C   UNL A   1      30.534  25.984  25.691  1.00  0.00     0.042 A 
ENDBRANCH  92  94
ENDBRANCH  84  90
ENDBRANCH  80  83
ENDBRANCH  78  79
ENDBRANCH  77  78
ENDBRANCH  76  77
ENDBRANCH   1  76
TORSDOF 18
ENDMDL
