MODEL 1
REMARK VINA RESULT:     -11.3      0.000      0.000
REMARK SMILES CC[NH2+][C@H](C)c1cccn1Cc1ccc(C(=O)NCCCCCCNC(=O)c2ccc(-c3c4nc(c(-c5c(F)cc(S(=O)(=O)[O-])cc5F)c5ccc([nH]5)c(-c5c(F)cc(S(=O)(=O)[O-])cc5F)c5nc(c(-c6c(F)cc(S(=O)(=O)[O-])cc6F)c6ccc3[nH]6)C=C5)C=C4)cc2)cc1
REMARK SMILES IDX 20 1 19 2 18 3 16 4 17 5 15 7 12 8 13 9 95 10 14 11 94 12
REMARK SMILES IDX 11 13 10 14 6 15 7 16 8 17 9 18 4 19 5 20 3 21 2 24 1 25
REMARK SMILES IDX 21 26 22 27 23 28 24 29 25 30 26 31 27 33 28 34 29 35 93 36
REMARK SMILES IDX 30 37 92 38 31 39 32 40 33 41 86 42 34 43 91 44 85 45 87 46
REMARK SMILES IDX 35 47 90 48 84 49 83 50 36 52 70 53 49 54 69 55 50 56 53 57
REMARK SMILES IDX 68 58 88 59 51 60 52 61 67 63 89 64 54 65 37 66 38 67 47 68
REMARK SMILES IDX 39 69 40 70 46 71 48 72 41 73 42 74 43 75 44 76 45 77 71 78
REMARK SMILES IDX 72 79 81 80 73 81 74 82 80 83 82 84 75 85 76 86 77 87 78 88
REMARK SMILES IDX 79 89 55 90 56 91 65 92 57 93 58 94 64 95 66 96 59 97 60 98
REMARK SMILES IDX 61 99 62 100 63 101
REMARK H PARENT 18 6 3 22 3 23 25 32 87 51 53 62
REMARK Flexibility Score: inf
ROOT
ATOM      1  C   UNL A   1      32.537  29.159  24.717  1.00  0.00     0.021 C 
ENDROOT
BRANCH   1   2
ATOM      2  C   UNL A   1      31.127  29.743  24.811  1.00  0.00     0.116 C 
BRANCH   2   3
ATOM      3  N   UNL A   1      30.597  29.975  23.481  1.00  0.00    -0.352 N 
ATOM      4  C   UNL A   1      30.281  29.099  22.474  1.00  0.00     0.251 C 
ATOM      5  O   UNL A   1      29.798  29.548  21.436  1.00  0.00    -0.269 OA
ATOM      6  H   UNL A   1      30.434  30.921  23.265  1.00  0.00     0.163 HD
BRANCH   4   7
ATOM      7  C   UNL A   1      30.413  27.627  22.648  1.00  0.00     0.039 A 
ATOM      8  C   UNL A   1      30.705  24.899  23.307  1.00  0.00    -0.028 A 
ATOM      9  C   UNL A   1      29.632  25.646  23.810  1.00  0.00     0.006 A 
ATOM     10  C   UNL A   1      31.576  25.516  22.400  1.00  0.00     0.006 A 
ATOM     11  C   UNL A   1      29.489  26.997  23.485  1.00  0.00     0.014 A 
ATOM     12  C   UNL A   1      31.408  26.856  22.046  1.00  0.00     0.014 A 
BRANCH   8  13
ATOM     13  C   UNL A   1      30.947  23.463  23.718  1.00  0.00     0.157 C 
BRANCH  13  14
ATOM     14  N   UNL A   1      31.771  23.360  24.924  1.00  0.00    -0.342 N 
ATOM     15  C   UNL A   1      33.115  23.035  25.101  1.00  0.00     0.076 A 
ATOM     16  C   UNL A   1      33.332  23.077  26.483  1.00  0.00     0.029 A 
ATOM     17  C   UNL A   1      32.162  23.502  27.134  1.00  0.00     0.020 A 
ATOM     18  C   UNL A   1      31.222  23.681  26.157  1.00  0.00     0.086 A 
BRANCH  15  19
ATOM     19  C   UNL A   1      34.176  22.633  24.077  1.00  0.00     0.227 C 
ATOM     20  C   UNL A   1      34.583  23.668  23.039  1.00  0.00     0.082 C 
BRANCH  19  21
ATOM     21  N   UNL A   1      35.401  22.220  24.793  1.00  0.00    -0.339 N 
ATOM     22  H   UNL A   1      35.210  22.227  25.794  1.00  0.00     0.346 HD
ATOM     23  H   UNL A   1      35.651  21.289  24.461  1.00  0.00     0.346 HD
BRANCH  21  24
ATOM     24  C   UNL A   1      36.538  23.101  24.529  1.00  0.00     0.257 C 
ATOM     25  C   UNL A   1      37.049  23.693  25.833  1.00  0.00     0.071 C 
ENDBRANCH  21  24
ENDBRANCH  19  21
ENDBRANCH  15  19
ENDBRANCH  13  14
ENDBRANCH   8  13
ENDBRANCH   4   7
ENDBRANCH   2   3
ENDBRANCH   1   2
BRANCH   1  26
ATOM     26  C   UNL A   1      32.626  27.727  25.253  1.00  0.00     0.002 C 
BRANCH  26  27
ATOM     27  C   UNL A   1      33.661  27.530  26.368  1.00  0.00     0.002 C 
BRANCH  27  28
ATOM     28  C   UNL A   1      33.941  28.781  27.212  1.00  0.00     0.021 C 
BRANCH  28  29
ATOM     29  C   UNL A   1      35.406  29.199  27.162  1.00  0.00     0.116 C 
BRANCH  29  30
ATOM     30  N   UNL A   1      35.578  30.455  27.876  1.00  0.00    -0.352 N 
ATOM     31  C   UNL A   1      36.387  30.750  28.932  1.00  0.00     0.251 C 
ATOM     32  H   UNL A   1      35.028  31.204  27.548  1.00  0.00     0.163 HD
ATOM     33  O   UNL A   1      36.112  31.719  29.649  1.00  0.00    -0.269 OA
BRANCH  31  34
ATOM     34  C   UNL A   1      37.581  29.944  29.217  1.00  0.00     0.039 A 
ATOM     35  C   UNL A   1      38.734  30.175  28.458  1.00  0.00     0.014 A 
ATOM     36  C   UNL A   1      37.532  28.897  30.146  1.00  0.00     0.014 A 
ATOM     37  C   UNL A   1      39.848  29.371  28.648  1.00  0.00     0.010 A 
ATOM     38  C   UNL A   1      38.653  28.121  30.370  1.00  0.00     0.010 A 
ATOM     39  C   UNL A   1      39.802  28.357  29.613  1.00  0.00    -0.014 A 
BRANCH  39  40
ATOM     40  C   UNL A   1      41.033  27.620  29.937  1.00  0.00     0.031 A 
ATOM     41  C   UNL A   1      41.141  26.349  29.039  1.00  0.00     0.074 A 
ATOM     42  C   UNL A   1      41.800  28.184  30.930  1.00  0.00     0.049 A 
ATOM     43  N   UNL A   1      41.733  25.215  29.251  1.00  0.00    -0.248 NA
ATOM     44  C   UNL A   1      40.412  26.302  27.731  1.00  0.00     0.031 C 
ATOM     45  C   UNL A   1      41.509  29.474  31.614  1.00  0.00     0.029 A 
ATOM     46  N   UNL A   1      42.968  27.828  31.570  1.00  0.00    -0.354 N 
ATOM     47  C   UNL A   1      41.669  24.449  28.056  1.00  0.00     0.074 A 
ATOM     48  C   UNL A   1      40.727  25.111  27.210  1.00  0.00     0.031 C 
ATOM     49  C   UNL A   1      42.394  29.723  32.609  1.00  0.00     0.029 A 
ATOM     50  C   UNL A   1      43.362  28.650  32.673  1.00  0.00     0.049 A 
ATOM     51  H   UNL A   1      43.502  27.052  31.283  1.00  0.00     0.167 HD
ATOM     52  C   UNL A   1      42.520  23.406  27.795  1.00  0.00     0.037 A 
ATOM     53  C   UNL A   1      44.370  28.435  33.586  1.00  0.00     0.037 A 
ATOM     54  C   UNL A   1      43.412  23.260  28.896  1.00  0.00     0.049 A 
ATOM     55  C   UNL A   1      45.086  27.281  33.033  1.00  0.00     0.074 A 
ATOM     56  C   UNL A   1      43.200  22.812  30.173  1.00  0.00     0.029 A 
ATOM     57  N   UNL A   1      44.559  24.018  28.854  1.00  0.00    -0.354 N 
ATOM     58  N   UNL A   1      45.832  27.321  31.972  1.00  0.00    -0.248 NA
ATOM     59  C   UNL A   1      44.851  25.962  33.629  1.00  0.00     0.031 C 
ATOM     60  C   UNL A   1      43.893  23.768  30.938  1.00  0.00     0.029 A 
ATOM     61  C   UNL A   1      44.753  24.511  30.117  1.00  0.00     0.049 A 
ATOM     62  H   UNL A   1      45.131  24.176  28.067  1.00  0.00     0.167 HD
ATOM     63  C   UNL A   1      45.851  26.008  31.583  1.00  0.00     0.074 A 
ATOM     64  C   UNL A   1      45.536  25.222  32.761  1.00  0.00     0.031 C 
ATOM     65  C   UNL A   1      45.567  25.690  30.293  1.00  0.00     0.037 A 
BRANCH  52  66
ATOM     66  C   UNL A   1      42.863  22.597  26.568  1.00  0.00     0.058 A 
ATOM     67  C   UNL A   1      42.496  21.224  26.562  1.00  0.00     0.135 A 
ATOM     68  C   UNL A   1      43.815  22.980  25.616  1.00  0.00     0.135 A 
ATOM     69  F   UNL A   1      41.536  20.765  27.385  1.00  0.00    -0.206 F 
ATOM     70  C   UNL A   1      43.142  20.272  25.781  1.00  0.00     0.059 A 
ATOM     71  C   UNL A   1      44.448  22.043  24.786  1.00  0.00     0.059 A 
ATOM     72  F   UNL A   1      44.213  24.256  25.517  1.00  0.00    -0.206 F 
ATOM     73  C   UNL A   1      44.145  20.688  24.918  1.00  0.00     0.060 A 
BRANCH  73  74
ATOM     74  S   UNL A   1      45.057  19.419  24.009  1.00  0.00     0.124 S 
ATOM     75  O   UNL A   1      46.441  19.806  24.262  1.00  0.00    -0.237 OA
ATOM     76  O   UNL A   1      44.615  18.193  24.666  1.00  0.00    -0.237 OA
ATOM     77  O   UNL A   1      44.592  19.588  22.637  1.00  0.00    -0.744 OA
ENDBRANCH  73  74
ENDBRANCH  52  66
BRANCH  53  78
ATOM     78  C   UNL A   1      44.864  28.908  34.947  1.00  0.00     0.058 A 
ATOM     79  C   UNL A   1      44.293  28.631  36.194  1.00  0.00     0.135 A 
ATOM     80  C   UNL A   1      46.135  29.561  35.032  1.00  0.00     0.135 A 
ATOM     81  F   UNL A   1      43.043  28.161  36.285  1.00  0.00    -0.206 F 
ATOM     82  C   UNL A   1      45.004  28.812  37.406  1.00  0.00     0.059 A 
ATOM     83  C   UNL A   1      46.880  29.687  36.201  1.00  0.00     0.059 A 
ATOM     84  F   UNL A   1      46.743  30.069  33.950  1.00  0.00    -0.206 F 
ATOM     85  C   UNL A   1      46.323  29.270  37.390  1.00  0.00     0.060 A 
BRANCH  85  86
ATOM     86  S   UNL A   1      47.366  29.191  38.868  1.00  0.00     0.124 S 
ATOM     87  O   UNL A   1      47.559  27.756  39.034  1.00  0.00    -0.237 OA
ATOM     88  O   UNL A   1      48.544  29.950  38.457  1.00  0.00    -0.237 OA
ATOM     89  O   UNL A   1      46.549  29.838  39.893  1.00  0.00    -0.744 OA
ENDBRANCH  85  86
ENDBRANCH  53  78
BRANCH  65  90
ATOM     90  C   UNL A   1      45.837  26.789  29.268  1.00  0.00     0.058 A 
ATOM     91  C   UNL A   1      44.775  27.300  28.499  1.00  0.00     0.135 A 
ATOM     92  C   UNL A   1      47.107  27.310  28.955  1.00  0.00     0.135 A 
ATOM     93  F   UNL A   1      43.521  26.881  28.733  1.00  0.00    -0.206 F 
ATOM     94  C   UNL A   1      44.960  28.253  27.491  1.00  0.00     0.059 A 
ATOM     95  C   UNL A   1      47.323  28.268  27.955  1.00  0.00     0.059 A 
ATOM     96  F   UNL A   1      48.189  26.908  29.620  1.00  0.00    -0.206 F 
ATOM     97  C   UNL A   1      46.239  28.738  27.226  1.00  0.00     0.060 A 
BRANCH  97  98
ATOM     98  S   UNL A   1      46.447  30.017  25.965  1.00  0.00     0.124 S 
ATOM     99  O   UNL A   1      47.737  30.603  26.318  1.00  0.00    -0.237 OA
ATOM    100  O   UNL A   1      46.425  29.237  24.731  1.00  0.00    -0.237 OA
ATOM    101  O   UNL A   1      45.295  30.893  26.165  1.00  0.00    -0.744 OA
ENDBRANCH  97  98
ENDBRANCH  65  90
ENDBRANCH  39  40
ENDBRANCH  31  34
ENDBRANCH  29  30
ENDBRANCH  28  29
ENDBRANCH  27  28
ENDBRANCH  26  27
ENDBRANCH   1  26
TORSDOF 21
ENDMDL
MODEL 2
REMARK VINA RESULT:     -11.0      1.347      2.080
REMARK SMILES CC[NH2+][C@H](C)c1cccn1Cc1ccc(C(=O)NCCCCCCNC(=O)c2ccc(-c3c4nc(c(-c5c(F)cc(S(=O)(=O)[O-])cc5F)c5ccc([nH]5)c(-c5c(F)cc(S(=O)(=O)[O-])cc5F)c5nc(c(-c6c(F)cc(S(=O)(=O)[O-])cc6F)c6ccc3[nH]6)C=C5)C=C4)cc2)cc1
REMARK SMILES IDX 20 1 19 2 18 3 16 4 17 5 15 7 12 8 13 9 95 10 14 11 94 12
REMARK SMILES IDX 11 13 10 14 6 15 7 16 8 17 9 18 4 19 5 20 3 21 2 24 1 25
REMARK SMILES IDX 21 26 22 27 23 28 24 29 25 30 26 31 27 33 28 34 29 35 93 36
REMARK SMILES IDX 30 37 92 38 31 39 32 40 33 41 86 42 34 43 91 44 85 45 87 46
REMARK SMILES IDX 35 47 90 48 84 49 83 50 36 52 70 53 49 54 69 55 50 56 53 57
REMARK SMILES IDX 68 58 88 59 51 60 52 61 67 63 89 64 54 65 37 66 38 67 47 68
REMARK SMILES IDX 39 69 40 70 46 71 48 72 41 73 42 74 43 75 44 76 45 77 71 78
REMARK SMILES IDX 72 79 81 80 73 81 74 82 80 83 82 84 75 85 76 86 77 87 78 88
REMARK SMILES IDX 79 89 55 90 56 91 65 92 57 93 58 94 64 95 66 96 59 97 60 98
REMARK SMILES IDX 61 99 62 100 63 101
REMARK H PARENT 18 6 3 22 3 23 25 32 87 51 53 62
REMARK Flexibility Score: inf
ROOT
ATOM      1  C   UNL A   1      31.357  28.982  24.495  1.00  0.00     0.021 C 
ENDROOT
BRANCH   1   2
ATOM      2  C   UNL A   1      30.184  28.322  23.769  1.00  0.00     0.116 C 
BRANCH   2   3
ATOM      3  N   UNL A   1      30.584  27.933  22.431  1.00  0.00    -0.352 N 
ATOM      4  C   UNL A   1      31.141  26.770  21.961  1.00  0.00     0.251 C 
ATOM      5  O   UNL A   1      31.354  26.667  20.754  1.00  0.00    -0.269 OA
ATOM      6  H   UNL A   1      30.429  28.619  21.742  1.00  0.00     0.163 HD
BRANCH   4   7
ATOM      7  C   UNL A   1      31.395  25.608  22.855  1.00  0.00     0.039 A 
ATOM      8  C   UNL A   1      31.777  23.211  24.293  1.00  0.00    -0.028 A 
ATOM      9  C   UNL A   1      32.527  23.482  23.141  1.00  0.00     0.006 A 
ATOM     10  C   UNL A   1      30.899  24.197  24.761  1.00  0.00     0.006 A 
ATOM     11  C   UNL A   1      32.337  24.669  22.429  1.00  0.00     0.014 A 
ATOM     12  C   UNL A   1      30.739  25.399  24.068  1.00  0.00     0.014 A 
BRANCH   8  13
ATOM     13  C   UNL A   1      31.885  21.894  25.031  1.00  0.00     0.157 C 
BRANCH  13  14
ATOM     14  N   UNL A   1      32.890  21.932  26.094  1.00  0.00    -0.342 N 
ATOM     15  C   UNL A   1      34.258  21.665  26.084  1.00  0.00     0.076 A 
ATOM     16  C   UNL A   1      34.686  21.846  27.404  1.00  0.00     0.029 A 
ATOM     17  C   UNL A   1      33.614  22.299  28.191  1.00  0.00     0.020 A 
ATOM     18  C   UNL A   1      32.526  22.354  27.365  1.00  0.00     0.086 A 
BRANCH  15  19
ATOM     19  C   UNL A   1      35.163  21.196  24.945  1.00  0.00     0.227 C 
ATOM     20  C   UNL A   1      35.523  22.208  23.867  1.00  0.00     0.082 C 
BRANCH  19  21
ATOM     21  N   UNL A   1      36.430  20.692  25.516  1.00  0.00    -0.339 N 
ATOM     22  H   UNL A   1      36.453  20.921  26.509  1.00  0.00     0.346 HD
ATOM     23  H   UNL A   1      36.457  19.685  25.358  1.00  0.00     0.346 HD
BRANCH  21  24
ATOM     24  C   UNL A   1      37.612  21.268  24.876  1.00  0.00     0.257 C 
ATOM     25  C   UNL A   1      38.507  21.912  25.924  1.00  0.00     0.071 C 
ENDBRANCH  21  24
ENDBRANCH  19  21
ENDBRANCH  15  19
ENDBRANCH  13  14
ENDBRANCH   8  13
ENDBRANCH   4   7
ENDBRANCH   2   3
ENDBRANCH   1   2
BRANCH   1  26
ATOM     26  C   UNL A   1      31.338  28.735  26.007  1.00  0.00     0.002 C 
BRANCH  26  27
ATOM     27  C   UNL A   1      32.493  29.393  26.771  1.00  0.00     0.002 C 
BRANCH  27  28
ATOM     28  C   UNL A   1      33.561  28.416  27.287  1.00  0.00     0.021 C 
BRANCH  28  29
ATOM     29  C   UNL A   1      34.936  28.691  26.690  1.00  0.00     0.116 C 
BRANCH  29  30
ATOM     30  N   UNL A   1      35.285  30.088  26.898  1.00  0.00    -0.352 N 
ATOM     31  C   UNL A   1      36.234  30.634  27.708  1.00  0.00     0.251 C 
ATOM     32  H   UNL A   1      34.758  30.736  26.375  1.00  0.00     0.163 HD
ATOM     33  O   UNL A   1      36.119  31.816  28.058  1.00  0.00    -0.269 OA
BRANCH  31  34
ATOM     34  C   UNL A   1      37.390  29.847  28.157  1.00  0.00     0.039 A 
ATOM     35  C   UNL A   1      38.538  29.841  27.356  1.00  0.00     0.014 A 
ATOM     36  C   UNL A   1      37.303  29.036  29.295  1.00  0.00     0.014 A 
ATOM     37  C   UNL A   1      39.612  29.038  27.713  1.00  0.00     0.010 A 
ATOM     38  C   UNL A   1      38.386  28.268  29.678  1.00  0.00     0.010 A 
ATOM     39  C   UNL A   1      39.531  28.266  28.879  1.00  0.00    -0.014 A 
BRANCH  39  40
ATOM     40  C   UNL A   1      40.729  27.553  29.350  1.00  0.00     0.031 A 
ATOM     41  C   UNL A   1      40.946  26.264  28.497  1.00  0.00     0.074 A 
ATOM     42  C   UNL A   1      41.379  28.148  30.406  1.00  0.00     0.049 A 
ATOM     43  N   UNL A   1      41.523  25.143  28.798  1.00  0.00    -0.248 NA
ATOM     44  C   UNL A   1      40.361  26.180  27.120  1.00  0.00     0.031 C 
ATOM     45  C   UNL A   1      41.002  29.449  31.025  1.00  0.00     0.029 A 
ATOM     46  N   UNL A   1      42.476  27.821  31.174  1.00  0.00    -0.354 N 
ATOM     47  C   UNL A   1      41.596  24.351  27.621  1.00  0.00     0.074 A 
ATOM     48  C   UNL A   1      40.743  24.982  26.664  1.00  0.00     0.031 C 
ATOM     49  C   UNL A   1      41.773  29.731  32.102  1.00  0.00     0.029 A 
ATOM     50  C   UNL A   1      42.741  28.672  32.294  1.00  0.00     0.049 A 
ATOM     51  H   UNL A   1      43.045  27.046  30.964  1.00  0.00     0.167 HD
ATOM     52  C   UNL A   1      42.481  23.313  27.477  1.00  0.00     0.037 A 
ATOM     53  C   UNL A   1      43.647  28.490  33.314  1.00  0.00     0.037 A 
ATOM     54  C   UNL A   1      43.251  23.202  28.669  1.00  0.00     0.049 A 
ATOM     55  C   UNL A   1      44.431  27.334  32.867  1.00  0.00     0.074 A 
ATOM     56  C   UNL A   1      42.908  22.780  29.926  1.00  0.00     0.029 A 
ATOM     57  N   UNL A   1      44.388  23.974  28.732  1.00  0.00    -0.354 N 
ATOM     58  N   UNL A   1      45.285  27.361  31.891  1.00  0.00    -0.248 NA
ATOM     59  C   UNL A   1      44.147  26.025  33.465  1.00  0.00     0.031 C 
ATOM     60  C   UNL A   1      43.506  23.760  30.739  1.00  0.00     0.029 A 
ATOM     61  C   UNL A   1      44.441  24.497  29.997  1.00  0.00     0.049 A 
ATOM     62  H   UNL A   1      45.039  24.122  28.008  1.00  0.00     0.167 HD
ATOM     63  C   UNL A   1      45.359  26.039  31.537  1.00  0.00     0.074 A 
ATOM     64  C   UNL A   1      44.928  25.275  32.693  1.00  0.00     0.031 C 
ATOM     65  C   UNL A   1      45.219  25.689  30.232  1.00  0.00     0.037 A 
BRANCH  52  66
ATOM     66  C   UNL A   1      42.961  22.482  26.312  1.00  0.00     0.058 A 
ATOM     67  C   UNL A   1      42.553  21.121  26.262  1.00  0.00     0.135 A 
ATOM     68  C   UNL A   1      44.047  22.825  25.498  1.00  0.00     0.135 A 
ATOM     69  F   UNL A   1      41.475  20.701  26.948  1.00  0.00    -0.206 F 
ATOM     70  C   UNL A   1      43.268  20.142  25.582  1.00  0.00     0.059 A 
ATOM     71  C   UNL A   1      44.756  21.860  24.766  1.00  0.00     0.059 A 
ATOM     72  F   UNL A   1      44.496  24.087  25.448  1.00  0.00    -0.206 F 
ATOM     73  C   UNL A   1      44.394  20.517  24.863  1.00  0.00     0.060 A 
BRANCH  73  74
ATOM     74  S   UNL A   1      45.379  19.211  24.093  1.00  0.00     0.124 S 
ATOM     75  O   UNL A   1      46.712  19.804  24.090  1.00  0.00    -0.237 OA
ATOM     76  O   UNL A   1      45.186  18.097  25.016  1.00  0.00    -0.237 OA
ATOM     77  O   UNL A   1      44.755  19.046  22.785  1.00  0.00    -0.744 OA
ENDBRANCH  73  74
ENDBRANCH  52  66
BRANCH  53  78
ATOM     78  C   UNL A   1      43.987  28.999  34.709  1.00  0.00     0.058 A 
ATOM     79  C   UNL A   1      45.059  29.823  35.068  1.00  0.00     0.135 A 
ATOM     80  C   UNL A   1      43.049  28.786  35.770  1.00  0.00     0.135 A 
ATOM     81  F   UNL A   1      46.095  29.998  34.238  1.00  0.00    -0.206 F 
ATOM     82  C   UNL A   1      45.095  30.521  36.300  1.00  0.00     0.059 A 
ATOM     83  C   UNL A   1      43.026  29.509  36.959  1.00  0.00     0.059 A 
ATOM     84  F   UNL A   1      42.064  27.881  35.671  1.00  0.00    -0.206 F 
ATOM     85  C   UNL A   1      44.035  30.414  37.204  1.00  0.00     0.060 A 
BRANCH  85  86
ATOM     86  S   UNL A   1      43.883  31.538  38.615  1.00  0.00     0.124 S 
ATOM     87  O   UNL A   1      44.601  30.821  39.661  1.00  0.00    -0.237 OA
ATOM     88  O   UNL A   1      44.525  32.751  38.116  1.00  0.00    -0.237 OA
ATOM     89  O   UNL A   1      42.438  31.646  38.806  1.00  0.00    -0.744 OA
ENDBRANCH  85  86
ENDBRANCH  53  78
BRANCH  65  90
ATOM     90  C   UNL A   1      45.585  26.769  29.217  1.00  0.00     0.058 A 
ATOM     91  C   UNL A   1      46.897  27.278  29.185  1.00  0.00     0.135 A 
ATOM     92  C   UNL A   1      44.685  27.380  28.323  1.00  0.00     0.135 A 
ATOM     93  F   UNL A   1      47.836  26.750  29.987  1.00  0.00    -0.206 F 
ATOM     94  C   UNL A   1      47.285  28.320  28.335  1.00  0.00     0.059 A 
ATOM     95  C   UNL A   1      45.046  28.421  27.456  1.00  0.00     0.059 A 
ATOM     96  F   UNL A   1      43.417  26.979  28.256  1.00  0.00    -0.206 F 
ATOM     97  C   UNL A   1      46.354  28.886  27.467  1.00  0.00     0.060 A 
BRANCH  97  98
ATOM     98  S   UNL A   1      46.892  30.184  26.329  1.00  0.00     0.124 S 
ATOM     99  O   UNL A   1      46.296  31.383  26.912  1.00  0.00    -0.237 OA
ATOM    100  O   UNL A   1      48.346  30.092  26.427  1.00  0.00    -0.237 OA
ATOM    101  O   UNL A   1      46.329  29.776  25.045  1.00  0.00    -0.744 OA
ENDBRANCH  97  98
ENDBRANCH  65  90
ENDBRANCH  39  40
ENDBRANCH  31  34
ENDBRANCH  29  30
ENDBRANCH  28  29
ENDBRANCH  27  28
ENDBRANCH  26  27
ENDBRANCH   1  26
TORSDOF 21
ENDMDL
MODEL 3
REMARK VINA RESULT:     -10.9      3.383      9.336
REMARK SMILES CC[NH2+][C@H](C)c1cccn1Cc1ccc(C(=O)NCCCCCCNC(=O)c2ccc(-c3c4nc(c(-c5c(F)cc(S(=O)(=O)[O-])cc5F)c5ccc([nH]5)c(-c5c(F)cc(S(=O)(=O)[O-])cc5F)c5nc(c(-c6c(F)cc(S(=O)(=O)[O-])cc6F)c6ccc3[nH]6)C=C5)C=C4)cc2)cc1
REMARK SMILES IDX 20 1 19 2 18 3 16 4 17 5 15 7 12 8 13 9 95 10 14 11 94 12
REMARK SMILES IDX 11 13 10 14 6 15 7 16 8 17 9 18 4 19 5 20 3 21 2 24 1 25
REMARK SMILES IDX 21 26 22 27 23 28 24 29 25 30 26 31 27 33 28 34 29 35 93 36
REMARK SMILES IDX 30 37 92 38 31 39 32 40 33 41 86 42 34 43 91 44 85 45 87 46
REMARK SMILES IDX 35 47 90 48 84 49 83 50 36 52 70 53 49 54 69 55 50 56 53 57
REMARK SMILES IDX 68 58 88 59 51 60 52 61 67 63 89 64 54 65 37 66 38 67 47 68
REMARK SMILES IDX 39 69 40 70 46 71 48 72 41 73 42 74 43 75 44 76 45 77 71 78
REMARK SMILES IDX 72 79 81 80 73 81 74 82 80 83 82 84 75 85 76 86 77 87 78 88
REMARK SMILES IDX 79 89 55 90 56 91 65 92 57 93 58 94 64 95 66 96 59 97 60 98
REMARK SMILES IDX 61 99 62 100 63 101
REMARK H PARENT 18 6 3 22 3 23 25 32 87 51 53 62
REMARK Flexibility Score: inf
ROOT
ATOM      1  C   UNL A   1      33.170  28.963  24.013  1.00  0.00     0.021 C 
ENDROOT
BRANCH   1   2
ATOM      2  C   UNL A   1      31.687  28.644  24.204  1.00  0.00     0.116 C 
BRANCH   2   3
ATOM      3  N   UNL A   1      31.269  27.633  23.253  1.00  0.00    -0.352 N 
ATOM      4  C   UNL A   1      31.594  26.304  23.155  1.00  0.00     0.251 C 
ATOM      5  O   UNL A   1      31.066  25.635  22.268  1.00  0.00    -0.269 OA
ATOM      6  H   UNL A   1      30.646  27.953  22.562  1.00  0.00     0.163 HD
BRANCH   4   7
ATOM      7  C   UNL A   1      32.481  25.640  24.148  1.00  0.00     0.039 A 
ATOM      8  C   UNL A   1      34.216  24.144  25.796  1.00  0.00    -0.028 A 
ATOM      9  C   UNL A   1      34.677  24.713  24.601  1.00  0.00     0.006 A 
ATOM     10  C   UNL A   1      32.900  24.412  26.194  1.00  0.00     0.006 A 
ATOM     11  C   UNL A   1      33.818  25.452  23.785  1.00  0.00     0.014 A 
ATOM     12  C   UNL A   1      32.054  25.183  25.395  1.00  0.00     0.014 A 
BRANCH   8  13
ATOM     13  C   UNL A   1      35.091  23.255  26.653  1.00  0.00     0.157 C 
BRANCH  13  14
ATOM     14  N   UNL A   1      35.469  22.018  25.966  1.00  0.00    -0.342 N 
ATOM     15  C   UNL A   1      34.719  20.910  25.577  1.00  0.00     0.076 A 
ATOM     16  C   UNL A   1      35.630  20.030  24.983  1.00  0.00     0.029 A 
ATOM     17  C   UNL A   1      36.901  20.626  24.934  1.00  0.00     0.020 A 
ATOM     18  C   UNL A   1      36.776  21.850  25.532  1.00  0.00     0.086 A 
BRANCH  15  19
ATOM     19  C   UNL A   1      33.236  20.601  25.782  1.00  0.00     0.227 C 
ATOM     20  C   UNL A   1      32.311  20.760  24.585  1.00  0.00     0.082 C 
BRANCH  19  21
ATOM     21  N   UNL A   1      33.098  19.211  26.264  1.00  0.00    -0.339 N 
ATOM     22  H   UNL A   1      34.004  18.895  26.608  1.00  0.00     0.346 HD
ATOM     23  H   UNL A   1      32.392  19.211  27.000  1.00  0.00     0.346 HD
BRANCH  21  24
ATOM     24  C   UNL A   1      32.646  18.289  25.222  1.00  0.00     0.257 C 
ATOM     25  C   UNL A   1      32.812  16.853  25.693  1.00  0.00     0.071 C 
ENDBRANCH  21  24
ENDBRANCH  19  21
ENDBRANCH  15  19
ENDBRANCH  13  14
ENDBRANCH   8  13
ENDBRANCH   4   7
ENDBRANCH   2   3
ENDBRANCH   1   2
BRANCH   1  26
ATOM     26  C   UNL A   1      33.967  28.902  25.319  1.00  0.00     0.002 C 
BRANCH  26  27
ATOM     27  C   UNL A   1      33.107  28.944  26.588  1.00  0.00     0.002 C 
BRANCH  27  28
ATOM     28  C   UNL A   1      33.028  30.320  27.266  1.00  0.00     0.021 C 
BRANCH  28  29
ATOM     29  C   UNL A   1      34.381  30.788  27.788  1.00  0.00     0.116 C 
BRANCH  29  30
ATOM     30  N   UNL A   1      34.182  31.770  28.843  1.00  0.00    -0.352 N 
ATOM     31  C   UNL A   1      34.905  31.985  29.977  1.00  0.00     0.251 C 
ATOM     32  H   UNL A   1      33.409  32.369  28.719  1.00  0.00     0.163 HD
ATOM     33  O   UNL A   1      34.372  32.567  30.930  1.00  0.00    -0.269 OA
BRANCH  31  34
ATOM     34  C   UNL A   1      36.304  31.550  30.076  1.00  0.00     0.039 A 
ATOM     35  C   UNL A   1      36.642  30.622  31.068  1.00  0.00     0.014 A 
ATOM     36  C   UNL A   1      37.292  32.133  29.273  1.00  0.00     0.014 A 
ATOM     37  C   UNL A   1      37.969  30.260  31.239  1.00  0.00     0.010 A 
ATOM     38  C   UNL A   1      38.611  31.743  29.410  1.00  0.00     0.010 A 
ATOM     39  C   UNL A   1      38.943  30.815  30.399  1.00  0.00    -0.014 A 
BRANCH  39  40
ATOM     40  C   UNL A   1      40.321  30.303  30.462  1.00  0.00     0.031 A 
ATOM     41  C   UNL A   1      41.251  31.368  31.123  1.00  0.00     0.074 A 
ATOM     42  C   UNL A   1      40.494  29.042  29.942  1.00  0.00     0.049 A 
ATOM     43  N   UNL A   1      42.522  31.580  30.981  1.00  0.00    -0.248 NA
ATOM     44  C   UNL A   1      40.661  32.408  32.026  1.00  0.00     0.031 C 
ATOM     45  C   UNL A   1      39.407  28.174  29.409  1.00  0.00     0.029 A 
ATOM     46  N   UNL A   1      41.580  28.213  29.754  1.00  0.00    -0.354 N 
ATOM     47  C   UNL A   1      42.916  32.567  31.924  1.00  0.00     0.074 A 
ATOM     48  C   UNL A   1      41.708  33.134  32.434  1.00  0.00     0.031 C 
ATOM     49  C   UNL A   1      39.896  27.026  28.884  1.00  0.00     0.029 A 
ATOM     50  C   UNL A   1      41.336  27.004  29.031  1.00  0.00     0.049 A 
ATOM     51  H   UNL A   1      42.474  28.442  30.099  1.00  0.00     0.167 HD
ATOM     52  C   UNL A   1      44.216  32.734  32.326  1.00  0.00     0.037 A 
ATOM     53  C   UNL A   1      42.249  26.091  28.554  1.00  0.00     0.037 A 
ATOM     54  C   UNL A   1      45.029  31.784  31.645  1.00  0.00     0.049 A 
ATOM     55  C   UNL A   1      43.513  26.532  29.153  1.00  0.00     0.074 A 
ATOM     56  C   UNL A   1      45.409  31.701  30.331  1.00  0.00     0.029 A 
ATOM     57  N   UNL A   1      45.153  30.551  32.243  1.00  0.00    -0.354 N 
ATOM     58  N   UNL A   1      43.807  26.417  30.411  1.00  0.00    -0.248 NA
ATOM     59  C   UNL A   1      44.462  27.271  28.314  1.00  0.00     0.031 C 
ATOM     60  C   UNL A   1      45.205  30.338  30.051  1.00  0.00     0.029 A 
ATOM     61  C   UNL A   1      45.060  29.616  31.245  1.00  0.00     0.049 A 
ATOM     62  H   UNL A   1      45.284  30.373  33.203  1.00  0.00     0.167 HD
ATOM     63  C   UNL A   1      44.781  27.368  30.567  1.00  0.00     0.074 A 
ATOM     64  C   UNL A   1      45.345  27.604  29.251  1.00  0.00     0.031 C 
ATOM     65  C   UNL A   1      44.680  28.265  31.582  1.00  0.00     0.037 A 
BRANCH  52  66
ATOM     66  C   UNL A   1      44.893  33.483  33.448  1.00  0.00     0.058 A 
ATOM     67  C   UNL A   1      44.561  33.113  34.780  1.00  0.00     0.135 A 
ATOM     68  C   UNL A   1      45.521  34.725  33.296  1.00  0.00     0.135 A 
ATOM     69  F   UNL A   1      44.023  31.910  35.045  1.00  0.00    -0.206 F 
ATOM     70  C   UNL A   1      44.693  33.979  35.860  1.00  0.00     0.059 A 
ATOM     71  C   UNL A   1      45.706  35.596  34.380  1.00  0.00     0.059 A 
ATOM     72  F   UNL A   1      45.902  35.159  32.086  1.00  0.00    -0.206 F 
ATOM     73  C   UNL A   1      45.236  35.237  35.643  1.00  0.00     0.060 A 
BRANCH  73  74
ATOM     74  S   UNL A   1      45.280  36.390  37.034  1.00  0.00     0.124 S 
ATOM     75  O   UNL A   1      43.863  36.685  37.224  1.00  0.00    -0.237 OA
ATOM     76  O   UNL A   1      45.902  35.584  38.081  1.00  0.00    -0.237 OA
ATOM     77  O   UNL A   1      46.095  37.491  36.534  1.00  0.00    -0.744 OA
ENDBRANCH  73  74
ENDBRANCH  52  66
BRANCH  53  78
ATOM     78  C   UNL A   1      42.370  24.925  27.579  1.00  0.00     0.058 A 
ATOM     79  C   UNL A   1      42.353  24.990  26.181  1.00  0.00     0.135 A 
ATOM     80  C   UNL A   1      42.713  23.632  28.088  1.00  0.00     0.135 A 
ATOM     81  F   UNL A   1      41.907  26.085  25.553  1.00  0.00    -0.206 F 
ATOM     82  C   UNL A   1      42.817  23.925  25.371  1.00  0.00     0.059 A 
ATOM     83  C   UNL A   1      43.235  22.596  27.319  1.00  0.00     0.059 A 
ATOM     84  F   UNL A   1      42.600  23.332  29.390  1.00  0.00    -0.206 F 
ATOM     85  C   UNL A   1      43.326  22.763  25.955  1.00  0.00     0.060 A 
BRANCH  85  86
ATOM     86  S   UNL A   1      44.232  21.537  24.978  1.00  0.00     0.124 S 
ATOM     87  O   UNL A   1      43.409  20.345  25.137  1.00  0.00    -0.237 OA
ATOM     88  O   UNL A   1      44.234  22.140  23.649  1.00  0.00    -0.237 OA
ATOM     89  O   UNL A   1      45.541  21.488  25.628  1.00  0.00    -0.744 OA
ENDBRANCH  85  86
ENDBRANCH  53  78
BRANCH  65  90
ATOM     90  C   UNL A   1      43.867  27.807  32.790  1.00  0.00     0.058 A 
ATOM     91  C   UNL A   1      44.285  26.682  33.524  1.00  0.00     0.135 A 
ATOM     92  C   UNL A   1      42.652  28.379  33.212  1.00  0.00     0.135 A 
ATOM     93  F   UNL A   1      45.441  26.074  33.212  1.00  0.00    -0.206 F 
ATOM     94  C   UNL A   1      43.550  26.160  34.594  1.00  0.00     0.059 A 
ATOM     95  C   UNL A   1      41.897  27.882  34.284  1.00  0.00     0.059 A 
ATOM     96  F   UNL A   1      42.157  29.453  32.599  1.00  0.00    -0.206 F 
ATOM     97  C   UNL A   1      42.356  26.768  34.974  1.00  0.00     0.060 A 
BRANCH  97  98
ATOM     98  S   UNL A   1      41.455  26.119  36.401  1.00  0.00     0.124 S 
ATOM     99  O   UNL A   1      42.503  25.433  37.151  1.00  0.00    -0.237 OA
ATOM    100  O   UNL A   1      40.936  27.338  37.015  1.00  0.00    -0.237 OA
ATOM    101  O   UNL A   1      40.446  25.245  35.808  1.00  0.00    -0.744 OA
ENDBRANCH  97  98
ENDBRANCH  65  90
ENDBRANCH  39  40
ENDBRANCH  31  34
ENDBRANCH  29  30
ENDBRANCH  28  29
ENDBRANCH  27  28
ENDBRANCH  26  27
ENDBRANCH   1  26
TORSDOF 21
ENDMDL
