MODEL 1
REMARK VINA RESULT:     -12.0      0.000      0.000
REMARK SMILES CN(C)S(=O)(=O)c1ccc(-n2c(CCC(=O)NCCCCCCNC(=O)c3ccc(-c4c5nc(c(-c6c(F)cc(S(=O)(=O)[O-])cc6F)c6ccc([nH]6)c(-c6c(F)cc(S(=O)(=O)[O-])cc6F)c6nc(c(-c7c(F)cc(S(=O)(=O)[O-])cc7F)c7ccc4[nH]7)C=C6)C=C5)cc3)ccc2-c2ccc(F)cc2)cc1
REMARK SMILES IDX 19 1 18 2 17 3 15 4 16 5 14 7 13 8 12 9 11 10 95 11 93 12
REMARK SMILES IDX 94 13 10 14 7 15 8 16 104 17 9 18 103 19 4 20 5 21 6 22 2 23
REMARK SMILES IDX 1 24 3 25 96 26 97 27 102 28 98 29 101 30 99 31 100 32 20 33
REMARK SMILES IDX 21 34 22 35 23 36 24 37 25 38 26 40 27 41 28 42 92 43 29 44
REMARK SMILES IDX 91 45 30 46 31 47 32 48 85 49 33 50 90 51 84 52 86 53 34 54
REMARK SMILES IDX 89 55 83 56 82 57 35 59 69 60 48 61 68 62 49 63 52 64 67 65
REMARK SMILES IDX 87 66 50 67 51 68 66 70 88 71 53 72 36 73 37 74 46 75 38 76
REMARK SMILES IDX 39 77 45 78 47 79 40 80 41 81 42 82 43 83 44 84 70 85 71 86
REMARK SMILES IDX 80 87 72 88 73 89 79 90 81 91 74 92 75 93 76 94 77 95 78 96
REMARK SMILES IDX 54 97 55 98 64 99 56 100 57 101 63 102 65 103 58 104 59 105
REMARK SMILES IDX 60 106 61 107 62 108
REMARK H PARENT 17 6 24 39 86 58 52 69
REMARK Flexibility Score: inf
ROOT
ATOM      1  C   UNL A   1      34.590  21.465  26.599  1.00  0.00     0.021 C 
ENDROOT
BRANCH   1   2
ATOM      2  C   UNL A   1      33.355  20.733  26.074  1.00  0.00     0.116 C 
BRANCH   2   3
ATOM      3  N   UNL A   1      32.156  21.559  26.109  1.00  0.00    -0.356 N 
ATOM      4  C   UNL A   1      31.518  22.233  25.108  1.00  0.00     0.220 C 
ATOM      5  O   UNL A   1      30.463  22.813  25.389  1.00  0.00    -0.275 OA
ATOM      6  H   UNL A   1      31.739  21.646  26.996  1.00  0.00     0.163 HD
BRANCH   4   7
ATOM      7  C   UNL A   1      32.091  22.310  23.704  1.00  0.00     0.106 C 
BRANCH   7   8
ATOM      8  C   UNL A   1      32.226  23.735  23.131  1.00  0.00     0.064 C 
BRANCH   8   9
ATOM      9  C   UNL A   1      32.878  24.722  24.074  1.00  0.00     0.024 A 
ATOM     10  N   UNL A   1      32.582  26.093  24.238  1.00  0.00    -0.314 N 
ATOM     11  C   UNL A   1      33.475  26.595  25.214  1.00  0.00     0.053 A 
ATOM     12  C   UNL A   1      33.991  24.432  24.849  1.00  0.00     0.024 A 
ATOM     13  C   UNL A   1      34.364  25.590  25.547  1.00  0.00     0.029 A 
BRANCH  10  14
ATOM     14  C   UNL A   1      31.483  26.846  23.672  1.00  0.00     0.046 A 
ATOM     15  C   UNL A   1      29.372  28.530  22.851  1.00  0.00     0.082 A 
ATOM     16  C   UNL A   1      30.643  28.708  22.315  1.00  0.00     0.024 A 
ATOM     17  C   UNL A   1      29.134  27.493  23.745  1.00  0.00     0.024 A 
ATOM     18  C   UNL A   1      31.686  27.851  22.711  1.00  0.00     0.028 A 
ATOM     19  C   UNL A   1      30.183  26.669  24.141  1.00  0.00     0.028 A 
BRANCH  15  20
ATOM     20  S   UNL A   1      28.000  29.571  22.454  1.00  0.00     0.242 S 
ATOM     21  O   UNL A   1      26.807  28.946  22.962  1.00  0.00    -0.207 OA
ATOM     22  O   UNL A   1      28.131  29.896  21.039  1.00  0.00    -0.207 OA
BRANCH  20  23
ATOM     23  N   UNL A   1      28.225  31.010  23.350  1.00  0.00    -0.204 NA
ATOM     24  C   UNL A   1      29.519  31.023  24.070  1.00  0.00     0.124 C 
ATOM     25  C   UNL A   1      28.025  32.262  22.580  1.00  0.00     0.124 C 
ENDBRANCH  20  23
ENDBRANCH  15  20
ENDBRANCH  10  14
BRANCH  11  26
ATOM     26  C   UNL A   1      33.302  27.868  25.926  1.00  0.00    -0.001 A 
ATOM     27  C   UNL A   1      32.123  28.218  26.585  1.00  0.00     0.013 A 
ATOM     28  C   UNL A   1      34.395  28.741  25.991  1.00  0.00     0.013 A 
ATOM     29  C   UNL A   1      32.086  29.388  27.360  1.00  0.00     0.040 A 
ATOM     30  C   UNL A   1      34.363  29.910  26.744  1.00  0.00     0.040 A 
ATOM     31  C   UNL A   1      33.205  30.216  27.438  1.00  0.00     0.123 A 
ATOM     32  F   UNL A   1      33.154  31.349  28.148  1.00  0.00    -0.207 F 
ENDBRANCH  11  26
ENDBRANCH   8   9
ENDBRANCH   7   8
ENDBRANCH   4   7
ENDBRANCH   2   3
ENDBRANCH   1   2
BRANCH   1  33
ATOM     33  C   UNL A   1      35.855  21.330  25.739  1.00  0.00     0.002 C 
BRANCH  33  34
ATOM     34  C   UNL A   1      36.097  20.037  24.922  1.00  0.00     0.002 C 
BRANCH  34  35
ATOM     35  C   UNL A   1      37.442  19.281  24.957  1.00  0.00     0.021 C 
BRANCH  35  36
ATOM     36  C   UNL A   1      38.703  20.069  25.378  1.00  0.00     0.116 C 
BRANCH  36  37
ATOM     37  N   UNL A   1      39.806  19.199  25.771  1.00  0.00    -0.352 N 
ATOM     38  C   UNL A   1      41.137  19.417  26.054  1.00  0.00     0.251 C 
ATOM     39  H   UNL A   1      39.543  18.254  25.851  1.00  0.00     0.163 HD
ATOM     40  O   UNL A   1      41.865  18.421  26.005  1.00  0.00    -0.269 OA
BRANCH  38  41
ATOM     41  C   UNL A   1      41.758  20.724  26.441  1.00  0.00     0.039 A 
ATOM     42  C   UNL A   1      42.266  21.543  25.413  1.00  0.00     0.014 A 
ATOM     43  C   UNL A   1      41.977  21.132  27.752  1.00  0.00     0.014 A 
ATOM     44  C   UNL A   1      42.952  22.737  25.692  1.00  0.00     0.010 A 
ATOM     45  C   UNL A   1      42.725  22.284  28.039  1.00  0.00     0.010 A 
ATOM     46  C   UNL A   1      43.182  23.120  27.015  1.00  0.00    -0.014 A 
BRANCH  46  47
ATOM     47  C   UNL A   1      43.648  24.504  27.337  1.00  0.00     0.031 A 
ATOM     48  C   UNL A   1      42.461  25.462  27.597  1.00  0.00     0.074 A 
ATOM     49  C   UNL A   1      44.992  24.776  27.346  1.00  0.00     0.049 A 
ATOM     50  N   UNL A   1      42.375  26.750  27.437  1.00  0.00    -0.248 NA
ATOM     51  C   UNL A   1      41.146  24.898  28.013  1.00  0.00     0.031 C 
ATOM     52  C   UNL A   1      46.046  23.771  27.105  1.00  0.00     0.029 A 
ATOM     53  N   UNL A   1      45.752  25.921  27.558  1.00  0.00    -0.354 N 
ATOM     54  C   UNL A   1      41.102  27.152  27.902  1.00  0.00     0.074 A 
ATOM     55  C   UNL A   1      40.352  25.960  28.131  1.00  0.00     0.031 C 
ATOM     56  C   UNL A   1      47.271  24.346  27.107  1.00  0.00     0.029 A 
ATOM     57  C   UNL A   1      47.156  25.770  27.368  1.00  0.00     0.049 A 
ATOM     58  H   UNL A   1      45.347  26.778  27.822  1.00  0.00     0.167 HD
ATOM     59  C   UNL A   1      40.767  28.440  28.199  1.00  0.00     0.037 A 
ATOM     60  C   UNL A   1      48.153  26.718  27.381  1.00  0.00     0.037 A 
ATOM     61  C   UNL A   1      41.868  29.304  27.951  1.00  0.00     0.049 A 
ATOM     62  C   UNL A   1      47.511  27.975  27.802  1.00  0.00     0.074 A 
ATOM     63  C   UNL A   1      42.445  29.777  26.806  1.00  0.00     0.029 A 
ATOM     64  N   UNL A   1      42.698  29.557  29.015  1.00  0.00    -0.354 N 
ATOM     65  N   UNL A   1      47.130  28.251  29.012  1.00  0.00    -0.248 NA
ATOM     66  C   UNL A   1      47.249  29.003  26.785  1.00  0.00     0.031 C 
ATOM     67  C   UNL A   1      43.801  29.941  27.151  1.00  0.00     0.029 A 
ATOM     68  C   UNL A   1      43.969  29.679  28.516  1.00  0.00     0.049 A 
ATOM     69  H   UNL A   1      42.430  29.637  29.960  1.00  0.00     0.167 HD
ATOM     70  C   UNL A   1      46.305  29.332  28.825  1.00  0.00     0.074 A 
ATOM     71  C   UNL A   1      46.668  29.919  27.554  1.00  0.00     0.031 C 
ATOM     72  C   UNL A   1      45.070  29.326  29.385  1.00  0.00     0.037 A 
BRANCH  59  73
ATOM     73  C   UNL A   1      39.598  29.033  28.941  1.00  0.00     0.058 A 
ATOM     74  C   UNL A   1      38.704  29.855  28.209  1.00  0.00     0.135 A 
ATOM     75  C   UNL A   1      39.534  29.141  30.337  1.00  0.00     0.135 A 
ATOM     76  F   UNL A   1      38.637  29.772  26.869  1.00  0.00    -0.206 F 
ATOM     77  C   UNL A   1      37.929  30.839  28.811  1.00  0.00     0.059 A 
ATOM     78  C   UNL A   1      38.724  30.091  30.967  1.00  0.00     0.059 A 
ATOM     79  F   UNL A   1      40.320  28.396  31.127  1.00  0.00    -0.206 F 
ATOM     80  C   UNL A   1      37.983  30.979  30.191  1.00  0.00     0.060 A 
BRANCH  80  81
ATOM     81  S   UNL A   1      37.122  32.374  30.948  1.00  0.00     0.124 S 
ATOM     82  O   UNL A   1      37.727  33.504  30.253  1.00  0.00    -0.237 OA
ATOM     83  O   UNL A   1      35.726  32.100  30.615  1.00  0.00    -0.237 OA
ATOM     84  O   UNL A   1      37.455  32.241  32.363  1.00  0.00    -0.744 OA
ENDBRANCH  80  81
ENDBRANCH  59  73
BRANCH  60  85
ATOM     85  C   UNL A   1      49.628  26.846  26.995  1.00  0.00     0.058 A 
ATOM     86  C   UNL A   1      50.711  26.986  27.873  1.00  0.00     0.135 A 
ATOM     87  C   UNL A   1      50.025  26.680  25.631  1.00  0.00     0.135 A 
ATOM     88  F   UNL A   1      50.524  27.310  29.158  1.00  0.00    -0.206 F 
ATOM     89  C   UNL A   1      52.048  26.794  27.469  1.00  0.00     0.059 A 
ATOM     90  C   UNL A   1      51.332  26.432  25.214  1.00  0.00     0.059 A 
ATOM     91  F   UNL A   1      49.140  26.718  24.625  1.00  0.00    -0.206 F 
ATOM     92  C   UNL A   1      52.343  26.453  26.151  1.00  0.00     0.060 A 
BRANCH  92  93
ATOM     93  S   UNL A   1      53.997  25.909  25.670  1.00  0.00     0.124 S 
ATOM     94  O   UNL A   1      54.400  25.103  26.817  1.00  0.00    -0.237 OA
ATOM     95  O   UNL A   1      53.745  25.175  24.434  1.00  0.00    -0.237 OA
ATOM     96  O   UNL A   1      54.720  27.167  25.498  1.00  0.00    -0.744 OA
ENDBRANCH  92  93
ENDBRANCH  60  85
BRANCH  72  97
ATOM     97  C   UNL A   1      44.980  28.529  30.670  1.00  0.00     0.058 A 
ATOM     98  C   UNL A   1      45.553  29.034  31.848  1.00  0.00     0.135 A 
ATOM     99  C   UNL A   1      44.441  27.233  30.750  1.00  0.00     0.135 A 
ATOM    100  F   UNL A   1      46.099  30.261  31.853  1.00  0.00    -0.206 F 
ATOM    101  C   UNL A   1      45.582  28.298  33.038  1.00  0.00     0.059 A 
ATOM    102  C   UNL A   1      44.442  26.481  31.927  1.00  0.00     0.059 A 
ATOM    103  F   UNL A   1      43.911  26.654  29.671  1.00  0.00    -0.206 F 
ATOM    104  C   UNL A   1      45.022  27.021  33.069  1.00  0.00     0.060 A 
BRANCH 104 105
ATOM    105  S   UNL A   1      45.064  26.080  34.612  1.00  0.00     0.124 S 
ATOM    106  O   UNL A   1      46.431  25.571  34.630  1.00  0.00    -0.237 OA
ATOM    107  O   UNL A   1      44.759  27.105  35.604  1.00  0.00    -0.237 OA
ATOM    108  O   UNL A   1      44.029  25.066  34.426  1.00  0.00    -0.744 OA
ENDBRANCH 104 105
ENDBRANCH  72  97
ENDBRANCH  46  47
ENDBRANCH  38  41
ENDBRANCH  36  37
ENDBRANCH  35  36
ENDBRANCH  34  35
ENDBRANCH  33  34
ENDBRANCH   1  33
TORSDOF 22
ENDMDL
MODEL 2
REMARK VINA RESULT:     -11.8      3.829      8.791
REMARK SMILES CN(C)S(=O)(=O)c1ccc(-n2c(CCC(=O)NCCCCCCNC(=O)c3ccc(-c4c5nc(c(-c6c(F)cc(S(=O)(=O)[O-])cc6F)c6ccc([nH]6)c(-c6c(F)cc(S(=O)(=O)[O-])cc6F)c6nc(c(-c7c(F)cc(S(=O)(=O)[O-])cc7F)c7ccc4[nH]7)C=C6)C=C5)cc3)ccc2-c2ccc(F)cc2)cc1
REMARK SMILES IDX 19 1 18 2 17 3 15 4 16 5 14 7 13 8 12 9 11 10 95 11 93 12
REMARK SMILES IDX 94 13 10 14 7 15 8 16 104 17 9 18 103 19 4 20 5 21 6 22 2 23
REMARK SMILES IDX 1 24 3 25 96 26 97 27 102 28 98 29 101 30 99 31 100 32 20 33
REMARK SMILES IDX 21 34 22 35 23 36 24 37 25 38 26 40 27 41 28 42 92 43 29 44
REMARK SMILES IDX 91 45 30 46 31 47 32 48 85 49 33 50 90 51 84 52 86 53 34 54
REMARK SMILES IDX 89 55 83 56 82 57 35 59 69 60 48 61 68 62 49 63 52 64 67 65
REMARK SMILES IDX 87 66 50 67 51 68 66 70 88 71 53 72 36 73 37 74 46 75 38 76
REMARK SMILES IDX 39 77 45 78 47 79 40 80 41 81 42 82 43 83 44 84 70 85 71 86
REMARK SMILES IDX 80 87 72 88 73 89 79 90 81 91 74 92 75 93 76 94 77 95 78 96
REMARK SMILES IDX 54 97 55 98 64 99 56 100 57 101 63 102 65 103 58 104 59 105
REMARK SMILES IDX 60 106 61 107 62 108
REMARK H PARENT 17 6 24 39 86 58 52 69
REMARK Flexibility Score: inf
ROOT
ATOM      1  C   UNL A   1      34.115  21.378  27.138  1.00  0.00     0.021 C 
ENDROOT
BRANCH   1   2
ATOM      2  C   UNL A   1      33.060  20.964  26.112  1.00  0.00     0.116 C 
BRANCH   2   3
ATOM      3  N   UNL A   1      31.916  21.864  26.089  1.00  0.00    -0.356 N 
ATOM      4  C   UNL A   1      31.362  22.562  25.055  1.00  0.00     0.220 C 
ATOM      5  O   UNL A   1      30.336  23.211  25.286  1.00  0.00    -0.275 OA
ATOM      6  H   UNL A   1      31.472  21.990  26.958  1.00  0.00     0.163 HD
BRANCH   4   7
ATOM      7  C   UNL A   1      31.992  22.581  23.674  1.00  0.00     0.106 C 
BRANCH   7   8
ATOM      8  C   UNL A   1      32.276  23.986  23.105  1.00  0.00     0.064 C 
BRANCH   8   9
ATOM      9  C   UNL A   1      32.931  24.930  24.089  1.00  0.00     0.024 A 
ATOM     10  N   UNL A   1      32.693  26.312  24.256  1.00  0.00    -0.314 N 
ATOM     11  C   UNL A   1      33.565  26.761  25.277  1.00  0.00     0.053 A 
ATOM     12  C   UNL A   1      33.994  24.580  24.908  1.00  0.00     0.024 A 
ATOM     13  C   UNL A   1      34.390  25.711  25.636  1.00  0.00     0.029 A 
BRANCH  10  14
ATOM     14  C   UNL A   1      31.657  27.123  23.652  1.00  0.00     0.046 A 
ATOM     15  C   UNL A   1      29.641  28.893  22.778  1.00  0.00     0.082 A 
ATOM     16  C   UNL A   1      30.960  29.104  22.388  1.00  0.00     0.024 A 
ATOM     17  C   UNL A   1      29.313  27.784  23.548  1.00  0.00     0.024 A 
ATOM     18  C   UNL A   1      31.956  28.206  22.809  1.00  0.00     0.028 A 
ATOM     19  C   UNL A   1      30.317  26.919  23.972  1.00  0.00     0.028 A 
BRANCH  15  20
ATOM     20  S   UNL A   1      28.317  29.978  22.339  1.00  0.00     0.242 S 
ATOM     21  O   UNL A   1      27.246  29.774  23.280  1.00  0.00    -0.207 OA
ATOM     22  O   UNL A   1      28.101  29.801  20.909  1.00  0.00    -0.207 OA
BRANCH  20  23
ATOM     23  N   UNL A   1      28.904  31.565  22.592  1.00  0.00    -0.204 NA
ATOM     24  C   UNL A   1      28.107  32.577  21.861  1.00  0.00     0.124 C 
ATOM     25  C   UNL A   1      29.084  31.945  24.013  1.00  0.00     0.124 C 
ENDBRANCH  20  23
ENDBRANCH  15  20
ENDBRANCH  10  14
BRANCH  11  26
ATOM     26  C   UNL A   1      33.421  28.033  25.996  1.00  0.00    -0.001 A 
ATOM     27  C   UNL A   1      34.499  28.871  26.286  1.00  0.00     0.013 A 
ATOM     28  C   UNL A   1      32.132  28.446  26.354  1.00  0.00     0.013 A 
ATOM     29  C   UNL A   1      34.261  30.133  26.851  1.00  0.00     0.040 A 
ATOM     30  C   UNL A   1      31.888  29.689  26.928  1.00  0.00     0.040 A 
ATOM     31  C   UNL A   1      32.961  30.532  27.158  1.00  0.00     0.123 A 
ATOM     32  F   UNL A   1      32.740  31.721  27.730  1.00  0.00    -0.207 F 
ENDBRANCH  11  26
ENDBRANCH   8   9
ENDBRANCH   7   8
ENDBRANCH   4   7
ENDBRANCH   2   3
ENDBRANCH   1   2
BRANCH   1  33
ATOM     33  C   UNL A   1      35.363  22.065  26.564  1.00  0.00     0.002 C 
BRANCH  33  34
ATOM     34  C   UNL A   1      36.019  21.517  25.271  1.00  0.00     0.002 C 
BRANCH  34  35
ATOM     35  C   UNL A   1      37.547  21.352  25.131  1.00  0.00     0.021 C 
BRANCH  35  36
ATOM     36  C   UNL A   1      38.454  22.314  25.930  1.00  0.00     0.116 C 
BRANCH  36  37
ATOM     37  N   UNL A   1      39.872  22.008  25.778  1.00  0.00    -0.352 N 
ATOM     38  C   UNL A   1      41.029  22.728  25.983  1.00  0.00     0.251 C 
ATOM     39  H   UNL A   1      40.038  21.092  25.459  1.00  0.00     0.163 HD
ATOM     40  O   UNL A   1      42.039  22.292  25.420  1.00  0.00    -0.269 OA
BRANCH  38  41
ATOM     41  C   UNL A   1      41.173  23.949  26.838  1.00  0.00     0.039 A 
ATOM     42  C   UNL A   1      41.739  25.101  26.255  1.00  0.00     0.014 A 
ATOM     43  C   UNL A   1      40.900  23.991  28.201  1.00  0.00     0.014 A 
ATOM     44  C   UNL A   1      42.002  26.257  27.008  1.00  0.00     0.010 A 
ATOM     45  C   UNL A   1      41.228  25.115  28.974  1.00  0.00     0.010 A 
ATOM     46  C   UNL A   1      41.740  26.272  28.380  1.00  0.00    -0.014 A 
BRANCH  46  47
ATOM     47  C   UNL A   1      41.740  27.560  29.140  1.00  0.00     0.031 A 
ATOM     48  C   UNL A   1      42.962  27.669  30.083  1.00  0.00     0.074 A 
ATOM     49  C   UNL A   1      40.712  28.449  28.958  1.00  0.00     0.049 A 
ATOM     50  N   UNL A   1      43.103  28.323  31.198  1.00  0.00    -0.248 NA
ATOM     51  C   UNL A   1      44.181  26.861  29.793  1.00  0.00     0.031 C 
ATOM     52  C   UNL A   1      39.601  28.253  28.007  1.00  0.00     0.029 A 
ATOM     53  N   UNL A   1      40.382  29.682  29.509  1.00  0.00    -0.354 N 
ATOM     54  C   UNL A   1      44.443  28.162  31.619  1.00  0.00     0.074 A 
ATOM     55  C   UNL A   1      45.020  27.161  30.782  1.00  0.00     0.031 C 
ATOM     56  C   UNL A   1      38.703  29.261  28.097  1.00  0.00     0.029 A 
ATOM     57  C   UNL A   1      39.134  30.228  29.092  1.00  0.00     0.049 A 
ATOM     58  H   UNL A   1      40.972  30.147  30.145  1.00  0.00     0.167 HD
ATOM     59  C   UNL A   1      45.053  28.949  32.552  1.00  0.00     0.037 A 
ATOM     60  C   UNL A   1      38.472  31.351  29.532  1.00  0.00     0.037 A 
ATOM     61  C   UNL A   1      44.143  29.924  33.042  1.00  0.00     0.049 A 
ATOM     62  C   UNL A   1      39.395  32.027  30.459  1.00  0.00     0.074 A 
ATOM     63  C   UNL A   1      43.068  29.859  33.883  1.00  0.00     0.029 A 
ATOM     64  N   UNL A   1      44.147  31.140  32.404  1.00  0.00    -0.354 N 
ATOM     65  N   UNL A   1      40.451  32.696  30.107  1.00  0.00    -0.248 NA
ATOM     66  C   UNL A   1      39.135  31.931  31.903  1.00  0.00     0.031 C 
ATOM     67  C   UNL A   1      42.215  30.883  33.425  1.00  0.00     0.029 A 
ATOM     68  C   UNL A   1      42.856  31.603  32.410  1.00  0.00     0.049 A 
ATOM     69  H   UNL A   1      44.929  31.595  32.016  1.00  0.00     0.167 HD
ATOM     70  C   UNL A   1      41.137  32.813  31.292  1.00  0.00     0.074 A 
ATOM     71  C   UNL A   1      40.172  32.632  32.353  1.00  0.00     0.031 C 
ATOM     72  C   UNL A   1      42.450  32.476  31.331  1.00  0.00     0.037 A 
BRANCH  59  73
ATOM     73  C   UNL A   1      46.499  29.122  32.936  1.00  0.00     0.058 A 
ATOM     74  C   UNL A   1      46.840  28.953  34.301  1.00  0.00     0.135 A 
ATOM     75  C   UNL A   1      47.444  29.786  32.140  1.00  0.00     0.135 A 
ATOM     76  F   UNL A   1      46.034  28.265  35.130  1.00  0.00    -0.206 F 
ATOM     77  C   UNL A   1      47.955  29.553  34.874  1.00  0.00     0.059 A 
ATOM     78  C   UNL A   1      48.598  30.355  32.686  1.00  0.00     0.059 A 
ATOM     79  F   UNL A   1      47.233  29.983  30.831  1.00  0.00    -0.206 F 
ATOM     80  C   UNL A   1      48.805  30.293  34.063  1.00  0.00     0.060 A 
BRANCH  80  81
ATOM     81  S   UNL A   1      50.144  31.221  34.841  1.00  0.00     0.124 S 
ATOM     82  O   UNL A   1      51.311  30.680  34.156  1.00  0.00    -0.237 OA
ATOM     83  O   UNL A   1      49.802  32.603  34.512  1.00  0.00    -0.237 OA
ATOM     84  O   UNL A   1      50.013  30.873  36.252  1.00  0.00    -0.744 OA
ENDBRANCH  80  81
ENDBRANCH  59  73
BRANCH  60  85
ATOM     85  C   UNL A   1      37.088  31.992  29.421  1.00  0.00     0.058 A 
ATOM     86  C   UNL A   1      35.925  31.588  30.090  1.00  0.00     0.135 A 
ATOM     87  C   UNL A   1      36.922  33.208  28.685  1.00  0.00     0.135 A 
ATOM     88  F   UNL A   1      35.852  30.396  30.693  1.00  0.00    -0.206 F 
ATOM     89  C   UNL A   1      34.775  32.399  30.175  1.00  0.00     0.059 A 
ATOM     90  C   UNL A   1      35.820  34.053  28.797  1.00  0.00     0.059 A 
ATOM     91  F   UNL A   1      37.857  33.655  27.835  1.00  0.00    -0.206 F 
ATOM     92  C   UNL A   1      34.755  33.658  29.579  1.00  0.00     0.060 A 
BRANCH  92  93
ATOM     93  S   UNL A   1      33.428  34.836  29.918  1.00  0.00     0.124 S 
ATOM     94  O   UNL A   1      32.373  34.374  29.024  1.00  0.00    -0.237 OA
ATOM     95  O   UNL A   1      33.185  34.641  31.344  1.00  0.00    -0.237 OA
ATOM     96  O   UNL A   1      34.033  36.120  29.570  1.00  0.00    -0.744 OA
ENDBRANCH  92  93
ENDBRANCH  60  85
BRANCH  72  97
ATOM     97  C   UNL A   1      43.179  32.683  30.019  1.00  0.00     0.058 A 
ATOM     98  C   UNL A   1      43.488  33.983  29.587  1.00  0.00     0.135 A 
ATOM     99  C   UNL A   1      43.486  31.644  29.124  1.00  0.00     0.135 A 
ATOM    100  F   UNL A   1      43.216  35.032  30.380  1.00  0.00    -0.206 F 
ATOM    101  C   UNL A   1      44.074  34.235  28.342  1.00  0.00     0.059 A 
ATOM    102  C   UNL A   1      44.084  31.865  27.881  1.00  0.00     0.059 A 
ATOM    103  F   UNL A   1      43.193  30.379  29.430  1.00  0.00    -0.206 F 
ATOM    104  C   UNL A   1      44.371  33.168  27.495  1.00  0.00     0.060 A 
BRANCH 104 105
ATOM    105  S   UNL A   1      45.130  33.506  25.889  1.00  0.00     0.124 S 
ATOM    106  O   UNL A   1      45.026  34.959  25.795  1.00  0.00    -0.237 OA
ATOM    107  O   UNL A   1      46.478  32.981  26.070  1.00  0.00    -0.237 OA
ATOM    108  O   UNL A   1      44.293  32.765  24.949  1.00  0.00    -0.744 OA
ENDBRANCH 104 105
ENDBRANCH  72  97
ENDBRANCH  46  47
ENDBRANCH  38  41
ENDBRANCH  36  37
ENDBRANCH  35  36
ENDBRANCH  34  35
ENDBRANCH  33  34
ENDBRANCH   1  33
TORSDOF 22
ENDMDL
MODEL 3
REMARK VINA RESULT:     -11.7      2.686      3.555
REMARK SMILES CN(C)S(=O)(=O)c1ccc(-n2c(CCC(=O)NCCCCCCNC(=O)c3ccc(-c4c5nc(c(-c6c(F)cc(S(=O)(=O)[O-])cc6F)c6ccc([nH]6)c(-c6c(F)cc(S(=O)(=O)[O-])cc6F)c6nc(c(-c7c(F)cc(S(=O)(=O)[O-])cc7F)c7ccc4[nH]7)C=C6)C=C5)cc3)ccc2-c2ccc(F)cc2)cc1
REMARK SMILES IDX 19 1 18 2 17 3 15 4 16 5 14 7 13 8 12 9 11 10 95 11 93 12
REMARK SMILES IDX 94 13 10 14 7 15 8 16 104 17 9 18 103 19 4 20 5 21 6 22 2 23
REMARK SMILES IDX 1 24 3 25 96 26 97 27 102 28 98 29 101 30 99 31 100 32 20 33
REMARK SMILES IDX 21 34 22 35 23 36 24 37 25 38 26 40 27 41 28 42 92 43 29 44
REMARK SMILES IDX 91 45 30 46 31 47 32 48 85 49 33 50 90 51 84 52 86 53 34 54
REMARK SMILES IDX 89 55 83 56 82 57 35 59 69 60 48 61 68 62 49 63 52 64 67 65
REMARK SMILES IDX 87 66 50 67 51 68 66 70 88 71 53 72 36 73 37 74 46 75 38 76
REMARK SMILES IDX 39 77 45 78 47 79 40 80 41 81 42 82 43 83 44 84 70 85 71 86
REMARK SMILES IDX 80 87 72 88 73 89 79 90 81 91 74 92 75 93 76 94 77 95 78 96
REMARK SMILES IDX 54 97 55 98 64 99 56 100 57 101 63 102 65 103 58 104 59 105
REMARK SMILES IDX 60 106 61 107 62 108
REMARK H PARENT 17 6 24 39 86 58 52 69
REMARK Flexibility Score: inf
ROOT
ATOM      1  C   UNL A   1      35.675  21.109  25.504  1.00  0.00     0.021 C 
ENDROOT
BRANCH   1   2
ATOM      2  C   UNL A   1      34.525  20.625  24.620  1.00  0.00     0.116 C 
BRANCH   2   3
ATOM      3  N   UNL A   1      33.220  20.834  25.232  1.00  0.00    -0.356 N 
ATOM      4  C   UNL A   1      32.130  21.516  24.775  1.00  0.00     0.220 C 
ATOM      5  O   UNL A   1      31.104  21.485  25.464  1.00  0.00    -0.275 OA
ATOM      6  H   UNL A   1      33.107  20.419  26.117  1.00  0.00     0.163 HD
BRANCH   4   7
ATOM      7  C   UNL A   1      32.170  22.319  23.487  1.00  0.00     0.106 C 
BRANCH   7   8
ATOM      8  C   UNL A   1      31.549  23.727  23.576  1.00  0.00     0.064 C 
BRANCH   8   9
ATOM      9  C   UNL A   1      32.299  24.678  24.483  1.00  0.00     0.024 A 
ATOM     10  N   UNL A   1      32.209  26.087  24.530  1.00  0.00    -0.314 N 
ATOM     11  C   UNL A   1      33.122  26.526  25.517  1.00  0.00     0.053 A 
ATOM     12  C   UNL A   1      33.318  24.289  25.340  1.00  0.00     0.024 A 
ATOM     13  C   UNL A   1      33.830  25.430  25.973  1.00  0.00     0.029 A 
BRANCH  10  14
ATOM     14  C   UNL A   1      31.266  26.947  23.848  1.00  0.00     0.046 A 
ATOM     15  C   UNL A   1      29.414  28.814  22.823  1.00  0.00     0.082 A 
ATOM     16  C   UNL A   1      30.769  28.966  22.549  1.00  0.00     0.024 A 
ATOM     17  C   UNL A   1      28.972  27.716  23.552  1.00  0.00     0.024 A 
ATOM     18  C   UNL A   1      31.684  28.021  23.044  1.00  0.00     0.028 A 
ATOM     19  C   UNL A   1      29.896  26.803  24.051  1.00  0.00     0.028 A 
BRANCH  15  20
ATOM     20  S   UNL A   1      28.182  29.961  22.285  1.00  0.00     0.242 S 
ATOM     21  O   UNL A   1      27.081  29.896  23.209  1.00  0.00    -0.207 OA
ATOM     22  O   UNL A   1      27.982  29.708  20.863  1.00  0.00    -0.207 OA
BRANCH  20  23
ATOM     23  N   UNL A   1      28.879  31.514  22.451  1.00  0.00    -0.204 NA
ATOM     24  C   UNL A   1      28.305  32.488  21.495  1.00  0.00     0.124 C 
ATOM     25  C   UNL A   1      28.881  32.052  23.833  1.00  0.00     0.124 C 
ENDBRANCH  20  23
ENDBRANCH  15  20
ENDBRANCH  10  14
BRANCH  11  26
ATOM     26  C   UNL A   1      33.113  27.864  26.125  1.00  0.00    -0.001 A 
ATOM     27  C   UNL A   1      34.189  28.748  26.037  1.00  0.00     0.013 A 
ATOM     28  C   UNL A   1      31.945  28.286  26.771  1.00  0.00     0.013 A 
ATOM     29  C   UNL A   1      34.049  30.057  26.522  1.00  0.00     0.040 A 
ATOM     30  C   UNL A   1      31.802  29.577  27.268  1.00  0.00     0.040 A 
ATOM     31  C   UNL A   1      32.858  30.461  27.124  1.00  0.00     0.123 A 
ATOM     32  F   UNL A   1      32.740  31.698  27.618  1.00  0.00    -0.207 F 
ENDBRANCH  11  26
ENDBRANCH   8   9
ENDBRANCH   7   8
ENDBRANCH   4   7
ENDBRANCH   2   3
ENDBRANCH   1   2
BRANCH   1  33
ATOM     33  C   UNL A   1      37.034  21.250  24.803  1.00  0.00     0.002 C 
BRANCH  33  34
ATOM     34  C   UNL A   1      38.022  20.057  24.790  1.00  0.00     0.002 C 
BRANCH  34  35
ATOM     35  C   UNL A   1      39.190  19.946  25.793  1.00  0.00     0.021 C 
BRANCH  35  36
ATOM     36  C   UNL A   1      39.964  21.236  26.146  1.00  0.00     0.116 C 
BRANCH  36  37
ATOM     37  N   UNL A   1      41.353  21.200  25.700  1.00  0.00    -0.352 N 
ATOM     38  C   UNL A   1      42.379  22.119  25.707  1.00  0.00     0.251 C 
ATOM     39  H   UNL A   1      41.611  20.334  25.309  1.00  0.00     0.163 HD
ATOM     40  O   UNL A   1      43.314  21.885  24.934  1.00  0.00    -0.269 OA
BRANCH  38  41
ATOM     41  C   UNL A   1      42.474  23.335  26.577  1.00  0.00     0.039 A 
ATOM     42  C   UNL A   1      42.360  23.161  27.970  1.00  0.00     0.014 A 
ATOM     43  C   UNL A   1      42.546  24.638  26.099  1.00  0.00     0.014 A 
ATOM     44  C   UNL A   1      42.338  24.254  28.852  1.00  0.00     0.010 A 
ATOM     45  C   UNL A   1      42.451  25.737  26.966  1.00  0.00     0.010 A 
ATOM     46  C   UNL A   1      42.390  25.557  28.352  1.00  0.00    -0.014 A 
BRANCH  46  47
ATOM     47  C   UNL A   1      42.654  26.712  29.264  1.00  0.00     0.031 A 
ATOM     48  C   UNL A   1      41.402  27.606  29.435  1.00  0.00     0.074 A 
ATOM     49  C   UNL A   1      43.904  26.870  29.804  1.00  0.00     0.049 A 
ATOM     50  N   UNL A   1      41.310  28.874  29.708  1.00  0.00    -0.248 NA
ATOM     51  C   UNL A   1      40.053  27.027  29.176  1.00  0.00     0.031 C 
ATOM     52  C   UNL A   1      45.028  25.937  29.592  1.00  0.00     0.029 A 
ATOM     53  N   UNL A   1      44.494  27.819  30.633  1.00  0.00    -0.354 N 
ATOM     54  C   UNL A   1      39.937  29.181  29.840  1.00  0.00     0.074 A 
ATOM     55  C   UNL A   1      39.213  28.039  29.386  1.00  0.00     0.031 C 
ATOM     56  C   UNL A   1      46.153  26.389  30.192  1.00  0.00     0.029 A 
ATOM     57  C   UNL A   1      45.888  27.644  30.873  1.00  0.00     0.049 A 
ATOM     58  H   UNL A   1      43.982  28.561  31.028  1.00  0.00     0.167 HD
ATOM     59  C   UNL A   1      39.458  30.312  30.434  1.00  0.00     0.037 A 
ATOM     60  C   UNL A   1      46.775  28.459  31.537  1.00  0.00     0.037 A 
ATOM     61  C   UNL A   1      40.535  31.129  30.873  1.00  0.00     0.049 A 
ATOM     62  C   UNL A   1      45.969  29.538  32.130  1.00  0.00     0.074 A 
ATOM     63  C   UNL A   1      41.434  31.922  30.217  1.00  0.00     0.029 A 
ATOM     64  N   UNL A   1      40.953  30.946  32.169  1.00  0.00    -0.354 N 
ATOM     65  N   UNL A   1      45.196  29.412  33.166  1.00  0.00    -0.248 NA
ATOM     66  C   UNL A   1      46.007  30.867  31.503  1.00  0.00     0.031 C 
ATOM     67  C   UNL A   1      42.590  31.863  31.021  1.00  0.00     0.029 A 
ATOM     68  C   UNL A   1      42.310  31.142  32.187  1.00  0.00     0.049 A 
ATOM     69  H   UNL A   1      40.385  30.719  32.940  1.00  0.00     0.167 HD
ATOM     70  C   UNL A   1      44.426  30.548  33.103  1.00  0.00     0.074 A 
ATOM     71  C   UNL A   1      45.160  31.505  32.305  1.00  0.00     0.031 C 
ATOM     72  C   UNL A   1      43.078  30.438  33.190  1.00  0.00     0.037 A 
BRANCH  59  73
ATOM     73  C   UNL A   1      38.082  30.697  30.909  1.00  0.00     0.058 A 
ATOM     74  C   UNL A   1      37.419  31.744  30.220  1.00  0.00     0.135 A 
ATOM     75  C   UNL A   1      37.574  30.371  32.175  1.00  0.00     0.135 A 
ATOM     76  F   UNL A   1      37.784  32.083  28.972  1.00  0.00    -0.206 F 
ATOM     77  C   UNL A   1      36.436  32.527  30.816  1.00  0.00     0.059 A 
ATOM     78  C   UNL A   1      36.551  31.113  32.773  1.00  0.00     0.059 A 
ATOM     79  F   UNL A   1      38.112  29.383  32.905  1.00  0.00    -0.206 F 
ATOM     80  C   UNL A   1      36.042  32.230  32.113  1.00  0.00     0.060 A 
BRANCH  80  81
ATOM     81  S   UNL A   1      34.905  33.358  32.946  1.00  0.00     0.124 S 
ATOM     82  O   UNL A   1      35.163  34.607  32.239  1.00  0.00    -0.237 OA
ATOM     83  O   UNL A   1      33.606  32.742  32.688  1.00  0.00    -0.237 OA
ATOM     84  O   UNL A   1      35.347  33.308  34.336  1.00  0.00    -0.744 OA
ENDBRANCH  80  81
ENDBRANCH  59  73
BRANCH  60  85
ATOM     85  C   UNL A   1      48.286  28.607  31.724  1.00  0.00     0.058 A 
ATOM     86  C   UNL A   1      49.015  28.322  32.886  1.00  0.00     0.135 A 
ATOM     87  C   UNL A   1      49.115  28.934  30.604  1.00  0.00     0.135 A 
ATOM     88  F   UNL A   1      48.404  28.154  34.064  1.00  0.00    -0.206 F 
ATOM     89  C   UNL A   1      50.420  28.192  32.891  1.00  0.00     0.059 A 
ATOM     90  C   UNL A   1      50.497  28.759  30.567  1.00  0.00     0.059 A 
ATOM     91  F   UNL A   1      48.605  29.415  29.461  1.00  0.00    -0.206 F 
ATOM     92  C   UNL A   1      51.146  28.349  31.712  1.00  0.00     0.060 A 
BRANCH  92  93
ATOM     93  S   UNL A   1      52.892  27.897  31.619  1.00  0.00     0.124 S 
ATOM     94  O   UNL A   1      53.363  28.721  30.512  1.00  0.00    -0.237 OA
ATOM     95  O   UNL A   1      53.388  28.266  32.942  1.00  0.00    -0.237 OA
ATOM     96  O   UNL A   1      52.846  26.459  31.362  1.00  0.00    -0.744 OA
ENDBRANCH  92  93
ENDBRANCH  60  85
BRANCH  72  97
ATOM     97  C   UNL A   1      42.607  29.259  34.018  1.00  0.00     0.058 A 
ATOM     98  C   UNL A   1      42.711  29.301  35.417  1.00  0.00     0.135 A 
ATOM     99  C   UNL A   1      42.159  28.046  33.466  1.00  0.00     0.135 A 
ATOM    100  F   UNL A   1      43.142  30.419  36.022  1.00  0.00    -0.206 F 
ATOM    101  C   UNL A   1      42.381  28.205  36.222  1.00  0.00     0.059 A 
ATOM    102  C   UNL A   1      41.808  26.941  34.246  1.00  0.00     0.059 A 
ATOM    103  F   UNL A   1      42.066  27.898  32.144  1.00  0.00    -0.206 F 
ATOM    104  C   UNL A   1      41.929  27.028  35.627  1.00  0.00     0.060 A 
BRANCH 104 105
ATOM    105  S   UNL A   1      41.503  25.619  36.678  1.00  0.00     0.124 S 
ATOM    106  O   UNL A   1      42.764  25.348  37.361  1.00  0.00    -0.237 OA
ATOM    107  O   UNL A   1      40.440  26.168  37.511  1.00  0.00    -0.237 OA
ATOM    108  O   UNL A   1      41.083  24.594  35.726  1.00  0.00    -0.744 OA
ENDBRANCH 104 105
ENDBRANCH  72  97
ENDBRANCH  46  47
ENDBRANCH  38  41
ENDBRANCH  36  37
ENDBRANCH  35  36
ENDBRANCH  34  35
ENDBRANCH  33  34
ENDBRANCH   1  33
TORSDOF 22
ENDMDL
