MODEL 1
REMARK VINA RESULT:     -11.3      0.000      0.000
REMARK SMILES COc1ccc(OC)c(/C=N/[NH+]=C2/NC(=O)[C@@H](CC(=O)NCCCCCCNC(=O)c3ccc(-c4c5nc(c(-c6c(F)cc(S(=O)(=O)[O-])cc6F)c6ccc([nH]6)c(-c6c(F)cc(S(=O)(=O)[O-])cc6F)c6nc(c(-c7c(F)cc(S(=O)(=O)[O-])cc7F)c7ccc4[nH]7)C=C6)C=C5)cc3)S2)c1
REMARK SMILES IDX 24 1 23 2 22 3 21 4 19 5 20 6 18 8 17 9 12 10 13 11 14 13
REMARK SMILES IDX 97 14 15 15 16 17 11 18 10 19 9 20 3 21 4 22 98 23 5 24 6 25
REMARK SMILES IDX 2 26 1 27 7 28 8 29 25 30 26 31 27 32 28 33 29 34 30 36
REMARK SMILES IDX 31 37 32 38 96 39 33 40 95 41 34 42 35 43 36 44 89 45 37 46
REMARK SMILES IDX 94 47 88 48 90 49 38 50 93 51 87 52 86 53 39 55 73 56 52 57
REMARK SMILES IDX 72 58 53 59 56 60 71 61 91 62 54 63 55 64 70 66 92 67 57 68
REMARK SMILES IDX 40 69 41 70 50 71 42 72 43 73 49 74 51 75 44 76 45 77 46 78
REMARK SMILES IDX 47 79 48 80 74 81 75 82 84 83 76 84 77 85 83 86 85 87 78 88
REMARK SMILES IDX 79 89 80 90 81 91 82 92 58 93 59 94 68 95 60 96 61 97 67 98
REMARK SMILES IDX 69 99 62 100 63 101 64 102 65 103 66 104
REMARK H PARENT 21 7 12 12 14 16 28 35 90 54 56 65
REMARK Flexibility Score: inf
ROOT
ATOM      1  C   UNL A   1      35.241  30.378  27.386  1.00  0.00     0.002 C 
ENDROOT
BRANCH   1   2
ATOM      2  C   UNL A   1      34.181  29.491  26.729  1.00  0.00     0.021 C 
BRANCH   2   3
ATOM      3  C   UNL A   1      32.779  29.631  27.326  1.00  0.00     0.116 C 
BRANCH   3   4
ATOM      4  N   UNL A   1      32.134  28.331  27.401  1.00  0.00    -0.356 N 
ATOM      5  C   UNL A   1      31.338  27.678  26.512  1.00  0.00     0.221 C 
ATOM      6  O   UNL A   1      30.846  26.605  26.864  1.00  0.00    -0.275 OA
ATOM      7  H   UNL A   1      32.301  27.839  28.237  1.00  0.00     0.163 HD
BRANCH   5   8
ATOM      8  C   UNL A   1      31.075  28.243  25.127  1.00  0.00     0.127 C 
BRANCH   8   9
ATOM      9  C   UNL A   1      32.135  27.960  24.063  1.00  0.00     0.183 C 
ATOM     10  N   UNL A   1      31.452  24.703  22.178  1.00  0.00    -0.142 N 
ATOM     11  C   UNL A   1      31.753  25.857  22.665  1.00  0.00     0.337 C 
ATOM     12  H   UNL A   1      30.716  24.565  21.540  1.00  0.00     0.343 HD
ATOM     13  N   UNL A   1      31.305  26.983  22.072  1.00  0.00    -0.202 N 
ATOM     14  S   UNL A   1      32.739  26.241  24.049  1.00  0.00    -0.020 SA
ATOM     15  C   UNL A   1      31.594  28.168  22.670  1.00  0.00     0.322 C 
ATOM     16  H   UNL A   1      30.789  26.946  21.234  1.00  0.00     0.316 HD
ATOM     17  O   UNL A   1      31.378  29.260  22.158  1.00  0.00    -0.246 OA
BRANCH  10  18
ATOM     18  N   UNL A   1      32.259  23.683  22.634  1.00  0.00    -0.093 NA
ATOM     19  C   UNL A   1      31.703  22.807  23.398  1.00  0.00     0.170 C 
BRANCH  19  20
ATOM     20  C   UNL A   1      32.507  21.648  23.818  1.00  0.00     0.042 A 
ATOM     21  C   UNL A   1      32.823  19.251  23.519  1.00  0.00     0.119 A 
ATOM     22  C   UNL A   1      33.653  19.244  24.636  1.00  0.00     0.050 A 
ATOM     23  C   UNL A   1      32.251  20.455  23.104  1.00  0.00     0.060 A 
ATOM     24  C   UNL A   1      33.934  20.428  25.314  1.00  0.00     0.051 A 
ATOM     25  C   UNL A   1      33.375  21.651  24.923  1.00  0.00     0.128 A 
BRANCH  21  26
ATOM     26  O   UNL A   1      32.606  18.017  22.977  1.00  0.00    -0.497 OA
ATOM     27  C   UNL A   1      33.195  16.909  23.643  1.00  0.00     0.278 C 
ENDBRANCH  21  26
BRANCH  25  28
ATOM     28  O   UNL A   1      33.816  22.651  25.742  1.00  0.00    -0.496 OA
ATOM     29  C   UNL A   1      33.100  23.088  26.884  1.00  0.00     0.278 C 
ENDBRANCH  25  28
ENDBRANCH  19  20
ENDBRANCH  10  18
ENDBRANCH   8   9
ENDBRANCH   5   8
ENDBRANCH   3   4
ENDBRANCH   2   3
ENDBRANCH   1   2
BRANCH   1  30
ATOM     30  C   UNL A   1      34.696  31.657  28.022  1.00  0.00     0.002 C 
BRANCH  30  31
ATOM     31  C   UNL A   1      35.660  32.846  28.010  1.00  0.00     0.021 C 
BRANCH  31  32
ATOM     32  C   UNL A   1      36.549  32.960  29.245  1.00  0.00     0.116 C 
BRANCH  32  33
ATOM     33  N   UNL A   1      36.113  32.069  30.309  1.00  0.00    -0.352 N 
ATOM     34  C   UNL A   1      36.679  30.896  30.737  1.00  0.00     0.251 C 
ATOM     35  H   UNL A   1      35.298  32.348  30.787  1.00  0.00     0.163 HD
ATOM     36  O   UNL A   1      36.055  30.145  31.480  1.00  0.00    -0.269 OA
BRANCH  34  37
ATOM     37  C   UNL A   1      38.041  30.537  30.287  1.00  0.00     0.039 A 
ATOM     38  C   UNL A   1      39.069  30.454  31.227  1.00  0.00     0.014 A 
ATOM     39  C   UNL A   1      38.299  30.289  28.935  1.00  0.00     0.014 A 
ATOM     40  C   UNL A   1      40.347  30.069  30.818  1.00  0.00     0.010 A 
ATOM     41  C   UNL A   1      39.552  29.831  28.543  1.00  0.00     0.010 A 
ATOM     42  C   UNL A   1      40.593  29.727  29.478  1.00  0.00    -0.014 A 
BRANCH  42  43
ATOM     43  C   UNL A   1      41.937  29.271  29.033  1.00  0.00     0.031 A 
ATOM     44  C   UNL A   1      43.078  30.249  28.959  1.00  0.00     0.074 A 
ATOM     45  C   UNL A   1      42.114  27.992  28.647  1.00  0.00     0.049 A 
ATOM     46  N   UNL A   1      44.305  30.058  28.545  1.00  0.00    -0.248 NA
ATOM     47  C   UNL A   1      42.798  31.632  29.381  1.00  0.00     0.031 C 
ATOM     48  C   UNL A   1      41.073  26.962  28.629  1.00  0.00     0.029 A 
ATOM     49  N   UNL A   1      43.230  27.341  28.184  1.00  0.00    -0.354 N 
ATOM     50  C   UNL A   1      44.937  31.293  28.646  1.00  0.00     0.074 A 
ATOM     51  C   UNL A   1      43.943  32.239  29.104  1.00  0.00     0.031 C 
ATOM     52  C   UNL A   1      41.606  25.805  28.204  1.00  0.00     0.029 A 
ATOM     53  C   UNL A   1      43.013  26.019  27.879  1.00  0.00     0.049 A 
ATOM     54  H   UNL A   1      44.105  27.781  28.081  1.00  0.00     0.167 HD
ATOM     55  C   UNL A   1      46.232  31.604  28.403  1.00  0.00     0.037 A 
ATOM     56  C   UNL A   1      43.849  25.085  27.383  1.00  0.00     0.037 A 
ATOM     57  C   UNL A   1      47.220  30.651  27.967  1.00  0.00     0.049 A 
ATOM     58  C   UNL A   1      45.282  25.457  27.113  1.00  0.00     0.074 A 
ATOM     59  C   UNL A   1      48.571  30.853  27.744  1.00  0.00     0.029 A 
ATOM     60  N   UNL A   1      46.963  29.316  27.684  1.00  0.00    -0.354 N 
ATOM     61  N   UNL A   1      45.878  26.614  27.274  1.00  0.00    -0.248 NA
ATOM     62  C   UNL A   1      46.158  24.396  26.600  1.00  0.00     0.031 C 
ATOM     63  C   UNL A   1      49.120  29.655  27.275  1.00  0.00     0.029 A 
ATOM     64  C   UNL A   1      48.126  28.690  27.266  1.00  0.00     0.049 A 
ATOM     65  H   UNL A   1      46.085  28.880  27.767  1.00  0.00     0.167 HD
ATOM     66  C   UNL A   1      47.207  26.412  26.916  1.00  0.00     0.074 A 
ATOM     67  C   UNL A   1      47.327  25.018  26.538  1.00  0.00     0.031 C 
ATOM     68  C   UNL A   1      48.234  27.298  26.902  1.00  0.00     0.037 A 
BRANCH  55  69
ATOM     69  C   UNL A   1      46.659  33.033  28.606  1.00  0.00     0.058 A 
ATOM     70  C   UNL A   1      46.623  33.971  27.561  1.00  0.00     0.135 A 
ATOM     71  C   UNL A   1      47.074  33.483  29.870  1.00  0.00     0.135 A 
ATOM     72  F   UNL A   1      46.250  33.595  26.327  1.00  0.00    -0.206 F 
ATOM     73  C   UNL A   1      47.012  35.293  27.753  1.00  0.00     0.059 A 
ATOM     74  C   UNL A   1      47.437  34.808  30.094  1.00  0.00     0.059 A 
ATOM     75  F   UNL A   1      47.128  32.631  30.906  1.00  0.00    -0.206 F 
ATOM     76  C   UNL A   1      47.417  35.702  29.024  1.00  0.00     0.060 A 
BRANCH  76  77
ATOM     77  S   UNL A   1      47.911  37.422  29.258  1.00  0.00     0.124 S 
ATOM     78  O   UNL A   1      49.085  37.507  28.393  1.00  0.00    -0.237 OA
ATOM     79  O   UNL A   1      46.733  38.150  28.797  1.00  0.00    -0.237 OA
ATOM     80  O   UNL A   1      48.179  37.509  30.689  1.00  0.00    -0.744 OA
ENDBRANCH  76  77
ENDBRANCH  55  69
BRANCH  56  81
ATOM     81  C   UNL A   1      43.357  23.702  27.134  1.00  0.00     0.058 A 
ATOM     82  C   UNL A   1      43.064  23.262  25.835  1.00  0.00     0.135 A 
ATOM     83  C   UNL A   1      43.179  22.791  28.187  1.00  0.00     0.135 A 
ATOM     84  F   UNL A   1      43.212  24.096  24.795  1.00  0.00    -0.206 F 
ATOM     85  C   UNL A   1      42.594  21.976  25.588  1.00  0.00     0.059 A 
ATOM     86  C   UNL A   1      42.737  21.490  27.963  1.00  0.00     0.059 A 
ATOM     87  F   UNL A   1      43.461  23.155  29.448  1.00  0.00    -0.206 F 
ATOM     88  C   UNL A   1      42.436  21.095  26.660  1.00  0.00     0.060 A 
BRANCH  88  89
ATOM     89  S   UNL A   1      41.868  19.415  26.324  1.00  0.00     0.124 S 
ATOM     90  O   UNL A   1      42.574  19.108  25.086  1.00  0.00    -0.237 OA
ATOM     91  O   UNL A   1      42.317  18.696  27.512  1.00  0.00    -0.237 OA
ATOM     92  O   UNL A   1      40.421  19.569  26.204  1.00  0.00    -0.744 OA
ENDBRANCH  88  89
ENDBRANCH  56  81
BRANCH  68  93
ATOM     93  C   UNL A   1      49.592  26.781  26.511  1.00  0.00     0.058 A 
ATOM     94  C   UNL A   1      50.490  26.261  27.455  1.00  0.00     0.135 A 
ATOM     95  C   UNL A   1      49.977  26.758  25.159  1.00  0.00     0.135 A 
ATOM     96  F   UNL A   1      50.175  26.263  28.760  1.00  0.00    -0.206 F 
ATOM     97  C   UNL A   1      51.733  25.761  27.078  1.00  0.00     0.059 A 
ATOM     98  C   UNL A   1      51.201  26.235  24.756  1.00  0.00     0.059 A 
ATOM     99  F   UNL A   1      49.152  27.233  24.213  1.00  0.00    -0.206 F 
ATOM    100  C   UNL A   1      52.078  25.750  25.725  1.00  0.00     0.060 A 
BRANCH 100 101
ATOM    101  S   UNL A   1      53.680  25.070  25.247  1.00  0.00     0.124 S 
ATOM    102  O   UNL A   1      53.879  25.679  23.935  1.00  0.00    -0.237 OA
ATOM    103  O   UNL A   1      54.554  25.555  26.311  1.00  0.00    -0.237 OA
ATOM    104  O   UNL A   1      53.451  23.628  25.241  1.00  0.00    -0.744 OA
ENDBRANCH 100 101
ENDBRANCH  68  93
ENDBRANCH  42  43
ENDBRANCH  34  37
ENDBRANCH  32  33
ENDBRANCH  31  32
ENDBRANCH  30  31
ENDBRANCH   1  30
TORSDOF 21
ENDMDL
MODEL 2
REMARK VINA RESULT:     -10.7      0.980      8.099
REMARK SMILES COc1ccc(OC)c(/C=N/[NH+]=C2/NC(=O)[C@@H](CC(=O)NCCCCCCNC(=O)c3ccc(-c4c5nc(c(-c6c(F)cc(S(=O)(=O)[O-])cc6F)c6ccc([nH]6)c(-c6c(F)cc(S(=O)(=O)[O-])cc6F)c6nc(c(-c7c(F)cc(S(=O)(=O)[O-])cc7F)c7ccc4[nH]7)C=C6)C=C5)cc3)S2)c1
REMARK SMILES IDX 24 1 23 2 22 3 21 4 19 5 20 6 18 8 17 9 12 10 13 11 14 13
REMARK SMILES IDX 97 14 15 15 16 17 11 18 10 19 9 20 3 21 4 22 98 23 5 24 6 25
REMARK SMILES IDX 2 26 1 27 7 28 8 29 25 30 26 31 27 32 28 33 29 34 30 36
REMARK SMILES IDX 31 37 32 38 96 39 33 40 95 41 34 42 35 43 36 44 89 45 37 46
REMARK SMILES IDX 94 47 88 48 90 49 38 50 93 51 87 52 86 53 39 55 73 56 52 57
REMARK SMILES IDX 72 58 53 59 56 60 71 61 91 62 54 63 55 64 70 66 92 67 57 68
REMARK SMILES IDX 40 69 41 70 50 71 42 72 43 73 49 74 51 75 44 76 45 77 46 78
REMARK SMILES IDX 47 79 48 80 74 81 75 82 84 83 76 84 77 85 83 86 85 87 78 88
REMARK SMILES IDX 79 89 80 90 81 91 82 92 58 93 59 94 68 95 60 96 61 97 67 98
REMARK SMILES IDX 69 99 62 100 63 101 64 102 65 103 66 104
REMARK H PARENT 21 7 12 12 14 16 28 35 90 54 56 65
REMARK Flexibility Score: inf
ROOT
ATOM      1  C   UNL A   1      35.804  30.014  27.799  1.00  0.00     0.002 C 
ENDROOT
BRANCH   1   2
ATOM      2  C   UNL A   1      34.683  29.576  26.855  1.00  0.00     0.021 C 
BRANCH   2   3
ATOM      3  C   UNL A   1      33.284  30.031  27.278  1.00  0.00     0.116 C 
BRANCH   3   4
ATOM      4  N   UNL A   1      32.470  28.882  27.636  1.00  0.00    -0.356 N 
ATOM      5  C   UNL A   1      31.568  28.168  26.912  1.00  0.00     0.221 C 
ATOM      6  O   UNL A   1      30.944  27.276  27.491  1.00  0.00    -0.275 OA
ATOM      7  H   UNL A   1      32.593  28.566  28.560  1.00  0.00     0.163 HD
BRANCH   5   8
ATOM      8  C   UNL A   1      31.344  28.447  25.435  1.00  0.00     0.127 C 
BRANCH   8   9
ATOM      9  C   UNL A   1      32.354  27.835  24.466  1.00  0.00     0.183 C 
ATOM     10  N   UNL A   1      30.996  24.690  22.764  1.00  0.00    -0.142 N 
ATOM     11  C   UNL A   1      31.543  25.775  23.191  1.00  0.00     0.337 C 
ATOM     12  H   UNL A   1      30.279  24.679  22.090  1.00  0.00     0.343 HD
ATOM     13  N   UNL A   1      31.409  26.923  22.494  1.00  0.00    -0.202 N 
ATOM     14  S   UNL A   1      32.524  26.026  24.608  1.00  0.00    -0.020 SA
ATOM     15  C   UNL A   1      31.946  28.050  23.029  1.00  0.00     0.322 C 
ATOM     16  H   UNL A   1      30.940  26.941  21.629  1.00  0.00     0.316 HD
ATOM     17  O   UNL A   1      32.025  29.117  22.431  1.00  0.00    -0.246 OA
BRANCH  10  18
ATOM     18  N   UNL A   1      31.509  23.549  23.341  1.00  0.00    -0.093 NA
ATOM     19  C   UNL A   1      32.635  23.126  22.880  1.00  0.00     0.170 C 
BRANCH  19  20
ATOM     20  C   UNL A   1      33.263  21.971  23.542  1.00  0.00     0.042 A 
ATOM     21  C   UNL A   1      32.859  19.732  24.410  1.00  0.00     0.119 A 
ATOM     22  C   UNL A   1      34.097  19.777  25.042  1.00  0.00     0.050 A 
ATOM     23  C   UNL A   1      32.440  20.828  23.654  1.00  0.00     0.060 A 
ATOM     24  C   UNL A   1      34.923  20.891  24.899  1.00  0.00     0.051 A 
ATOM     25  C   UNL A   1      34.531  22.006  24.148  1.00  0.00     0.128 A 
BRANCH  21  26
ATOM     26  O   UNL A   1      32.142  18.598  24.667  1.00  0.00    -0.497 OA
ATOM     27  C   UNL A   1      32.629  17.749  25.696  1.00  0.00     0.278 C 
ENDBRANCH  21  26
BRANCH  25  28
ATOM     28  O   UNL A   1      35.519  22.948  24.159  1.00  0.00    -0.496 OA
ATOM     29  C   UNL A   1      35.678  23.890  25.205  1.00  0.00     0.278 C 
ENDBRANCH  25  28
ENDBRANCH  19  20
ENDBRANCH  10  18
ENDBRANCH   8   9
ENDBRANCH   5   8
ENDBRANCH   3   4
ENDBRANCH   2   3
ENDBRANCH   1   2
BRANCH   1  30
ATOM     30  C   UNL A   1      35.337  30.823  29.010  1.00  0.00     0.002 C 
BRANCH  30  31
ATOM     31  C   UNL A   1      35.890  32.249  29.087  1.00  0.00     0.021 C 
BRANCH  31  32
ATOM     32  C   UNL A   1      36.788  32.520  30.291  1.00  0.00     0.116 C 
BRANCH  32  33
ATOM     33  N   UNL A   1      36.528  31.592  31.379  1.00  0.00    -0.352 N 
ATOM     34  C   UNL A   1      37.217  30.458  31.729  1.00  0.00     0.251 C 
ATOM     35  H   UNL A   1      35.750  31.807  31.943  1.00  0.00     0.163 HD
ATOM     36  O   UNL A   1      36.727  29.658  32.520  1.00  0.00    -0.269 OA
BRANCH  34  37
ATOM     37  C   UNL A   1      38.547  30.203  31.136  1.00  0.00     0.039 A 
ATOM     38  C   UNL A   1      39.574  29.719  31.949  1.00  0.00     0.014 A 
ATOM     39  C   UNL A   1      38.777  30.445  29.778  1.00  0.00     0.014 A 
ATOM     40  C   UNL A   1      40.819  29.430  31.388  1.00  0.00     0.010 A 
ATOM     41  C   UNL A   1      39.992  30.083  29.207  1.00  0.00     0.010 A 
ATOM     42  C   UNL A   1      41.030  29.582  30.007  1.00  0.00    -0.014 A 
BRANCH  42  43
ATOM     43  C   UNL A   1      42.335  29.234  29.385  1.00  0.00     0.031 A 
ATOM     44  C   UNL A   1      42.555  27.859  28.814  1.00  0.00     0.074 A 
ATOM     45  C   UNL A   1      43.335  30.137  29.382  1.00  0.00     0.049 A 
ATOM     46  N   UNL A   1      43.636  27.348  28.282  1.00  0.00    -0.248 NA
ATOM     47  C   UNL A   1      41.418  26.924  28.872  1.00  0.00     0.031 C 
ATOM     48  C   UNL A   1      43.259  31.486  29.947  1.00  0.00     0.029 A 
ATOM     49  N   UNL A   1      44.617  30.054  28.898  1.00  0.00    -0.354 N 
ATOM     50  C   UNL A   1      43.314  26.035  27.954  1.00  0.00     0.074 A 
ATOM     51  C   UNL A   1      41.957  25.810  28.401  1.00  0.00     0.031 C 
ATOM     52  C   UNL A   1      44.431  32.112  29.754  1.00  0.00     0.029 A 
ATOM     53  C   UNL A   1      45.356  31.197  29.091  1.00  0.00     0.049 A 
ATOM     54  H   UNL A   1      44.973  29.251  28.454  1.00  0.00     0.167 HD
ATOM     55  C   UNL A   1      44.072  25.111  27.318  1.00  0.00     0.037 A 
ATOM     56  C   UNL A   1      46.638  31.475  28.779  1.00  0.00     0.037 A 
ATOM     57  C   UNL A   1      45.415  25.351  26.859  1.00  0.00     0.049 A 
ATOM     58  C   UNL A   1      47.463  30.428  28.080  1.00  0.00     0.074 A 
ATOM     59  C   UNL A   1      46.250  24.499  26.157  1.00  0.00     0.029 A 
ATOM     60  N   UNL A   1      46.124  26.527  27.060  1.00  0.00    -0.354 N 
ATOM     61  N   UNL A   1      47.122  29.214  27.720  1.00  0.00    -0.248 NA
ATOM     62  C   UNL A   1      48.844  30.791  27.737  1.00  0.00     0.031 C 
ATOM     63  C   UNL A   1      47.480  25.139  25.980  1.00  0.00     0.029 A 
ATOM     64  C   UNL A   1      47.393  26.414  26.515  1.00  0.00     0.049 A 
ATOM     65  H   UNL A   1      45.777  27.324  27.521  1.00  0.00     0.167 HD
ATOM     66  C   UNL A   1      48.234  28.680  27.079  1.00  0.00     0.074 A 
ATOM     67  C   UNL A   1      49.255  29.708  27.092  1.00  0.00     0.031 C 
ATOM     68  C   UNL A   1      48.397  27.451  26.527  1.00  0.00     0.037 A 
BRANCH  55  69
ATOM     69  C   UNL A   1      43.466  23.754  27.077  1.00  0.00     0.058 A 
ATOM     70  C   UNL A   1      43.542  22.729  28.034  1.00  0.00     0.135 A 
ATOM     71  C   UNL A   1      42.767  23.485  25.888  1.00  0.00     0.135 A 
ATOM     72  F   UNL A   1      44.211  22.924  29.182  1.00  0.00    -0.206 F 
ATOM     73  C   UNL A   1      42.975  21.478  27.810  1.00  0.00     0.059 A 
ATOM     74  C   UNL A   1      42.164  22.252  25.656  1.00  0.00     0.059 A 
ATOM     75  F   UNL A   1      42.662  24.426  24.937  1.00  0.00    -0.206 F 
ATOM     76  C   UNL A   1      42.287  21.250  26.618  1.00  0.00     0.060 A 
BRANCH  76  77
ATOM     77  S   UNL A   1      41.551  19.624  26.347  1.00  0.00     0.124 S 
ATOM     78  O   UNL A   1      41.748  18.995  27.650  1.00  0.00    -0.237 OA
ATOM     79  O   UNL A   1      40.171  19.959  26.008  1.00  0.00    -0.237 OA
ATOM     80  O   UNL A   1      42.344  19.067  25.257  1.00  0.00    -0.744 OA
ENDBRANCH  76  77
ENDBRANCH  55  69
BRANCH  56  81
ATOM     81  C   UNL A   1      47.211  32.810  29.104  1.00  0.00     0.058 A 
ATOM     82  C   UNL A   1      47.863  33.039  30.325  1.00  0.00     0.135 A 
ATOM     83  C   UNL A   1      47.126  33.880  28.198  1.00  0.00     0.135 A 
ATOM     84  F   UNL A   1      47.964  32.051  31.226  1.00  0.00    -0.206 F 
ATOM     85  C   UNL A   1      48.393  34.284  30.647  1.00  0.00     0.059 A 
ATOM     86  C   UNL A   1      47.675  35.126  28.485  1.00  0.00     0.059 A 
ATOM     87  F   UNL A   1      46.528  33.709  27.009  1.00  0.00    -0.206 F 
ATOM     88  C   UNL A   1      48.297  35.322  29.717  1.00  0.00     0.060 A 
BRANCH  88  89
ATOM     89  S   UNL A   1      49.028  36.921  30.126  1.00  0.00     0.124 S 
ATOM     90  O   UNL A   1      47.997  37.843  29.666  1.00  0.00    -0.237 OA
ATOM     91  O   UNL A   1      49.196  36.820  31.573  1.00  0.00    -0.237 OA
ATOM     92  O   UNL A   1      50.270  36.928  29.358  1.00  0.00    -0.744 OA
ENDBRANCH  88  89
ENDBRANCH  56  81
BRANCH  68  93
ATOM     93  C   UNL A   1      49.708  27.161  25.848  1.00  0.00     0.058 A 
ATOM     94  C   UNL A   1      49.887  27.343  24.468  1.00  0.00     0.135 A 
ATOM     95  C   UNL A   1      50.818  26.746  26.603  1.00  0.00     0.135 A 
ATOM     96  F   UNL A   1      48.858  27.734  23.699  1.00  0.00    -0.206 F 
ATOM     97  C   UNL A   1      51.112  27.098  23.856  1.00  0.00     0.059 A 
ATOM     98  C   UNL A   1      52.059  26.525  26.017  1.00  0.00     0.059 A 
ATOM     99  F   UNL A   1      50.706  26.567  27.929  1.00  0.00    -0.206 F 
ATOM    100  C   UNL A   1      52.194  26.692  24.640  1.00  0.00     0.060 A 
BRANCH 100 101
ATOM    101  S   UNL A   1      53.785  26.408  23.837  1.00  0.00     0.124 S 
ATOM    102  O   UNL A   1      53.373  26.066  22.479  1.00  0.00    -0.237 OA
ATOM    103  O   UNL A   1      54.448  27.699  23.993  1.00  0.00    -0.237 OA
ATOM    104  O   UNL A   1      54.367  25.314  24.610  1.00  0.00    -0.744 OA
ENDBRANCH 100 101
ENDBRANCH  68  93
ENDBRANCH  42  43
ENDBRANCH  34  37
ENDBRANCH  32  33
ENDBRANCH  31  32
ENDBRANCH  30  31
ENDBRANCH   1  30
TORSDOF 21
ENDMDL
MODEL 3
REMARK VINA RESULT:     -10.6      4.645     11.100
REMARK SMILES COc1ccc(OC)c(/C=N/[NH+]=C2/NC(=O)[C@@H](CC(=O)NCCCCCCNC(=O)c3ccc(-c4c5nc(c(-c6c(F)cc(S(=O)(=O)[O-])cc6F)c6ccc([nH]6)c(-c6c(F)cc(S(=O)(=O)[O-])cc6F)c6nc(c(-c7c(F)cc(S(=O)(=O)[O-])cc7F)c7ccc4[nH]7)C=C6)C=C5)cc3)S2)c1
REMARK SMILES IDX 24 1 23 2 22 3 21 4 19 5 20 6 18 8 17 9 12 10 13 11 14 13
REMARK SMILES IDX 97 14 15 15 16 17 11 18 10 19 9 20 3 21 4 22 98 23 5 24 6 25
REMARK SMILES IDX 2 26 1 27 7 28 8 29 25 30 26 31 27 32 28 33 29 34 30 36
REMARK SMILES IDX 31 37 32 38 96 39 33 40 95 41 34 42 35 43 36 44 89 45 37 46
REMARK SMILES IDX 94 47 88 48 90 49 38 50 93 51 87 52 86 53 39 55 73 56 52 57
REMARK SMILES IDX 72 58 53 59 56 60 71 61 91 62 54 63 55 64 70 66 92 67 57 68
REMARK SMILES IDX 40 69 41 70 50 71 42 72 43 73 49 74 51 75 44 76 45 77 46 78
REMARK SMILES IDX 47 79 48 80 74 81 75 82 84 83 76 84 77 85 83 86 85 87 78 88
REMARK SMILES IDX 79 89 80 90 81 91 82 92 58 93 59 94 68 95 60 96 61 97 67 98
REMARK SMILES IDX 69 99 62 100 63 101 64 102 65 103 66 104
REMARK H PARENT 21 7 12 12 14 16 28 35 90 54 56 65
REMARK Flexibility Score: inf
ROOT
ATOM      1  C   UNL A   1      39.632  33.185  29.800  1.00  0.00     0.002 C 
ENDROOT
BRANCH   1   2
ATOM      2  C   UNL A   1      40.835  33.409  30.718  1.00  0.00     0.021 C 
BRANCH   2   3
ATOM      3  C   UNL A   1      40.554  33.163  32.202  1.00  0.00     0.116 C 
BRANCH   3   4
ATOM      4  N   UNL A   1      40.613  31.742  32.495  1.00  0.00    -0.356 N 
ATOM      5  C   UNL A   1      40.742  31.079  33.676  1.00  0.00     0.221 C 
ATOM      6  O   UNL A   1      40.850  29.852  33.636  1.00  0.00    -0.275 OA
ATOM      7  H   UNL A   1      40.547  31.158  31.705  1.00  0.00     0.163 HD
BRANCH   5   8
ATOM      8  C   UNL A   1      40.738  31.822  35.001  1.00  0.00     0.127 C 
BRANCH   8   9
ATOM      9  C   UNL A   1      39.369  32.112  35.615  1.00  0.00     0.183 C 
ATOM     10  N   UNL A   1      36.540  31.749  33.068  1.00  0.00    -0.142 N 
ATOM     11  C   UNL A   1      37.377  31.820  34.044  1.00  0.00     0.337 C 
ATOM     12  H   UNL A   1      36.233  30.897  32.683  1.00  0.00     0.343 HD
ATOM     13  N   UNL A   1      37.613  30.738  34.815  1.00  0.00    -0.202 N 
ATOM     14  S   UNL A   1      38.305  33.185  34.597  1.00  0.00    -0.020 SA
ATOM     15  C   UNL A   1      38.558  30.850  35.784  1.00  0.00     0.322 C 
ATOM     16  H   UNL A   1      37.117  29.899  34.680  1.00  0.00     0.316 HD
ATOM     17  O   UNL A   1      38.759  29.998  36.642  1.00  0.00    -0.246 OA
BRANCH  10  18
ATOM     18  N   UNL A   1      36.115  32.980  32.614  1.00  0.00    -0.093 NA
ATOM     19  C   UNL A   1      34.952  33.021  32.062  1.00  0.00     0.170 C 
BRANCH  19  20
ATOM     20  C   UNL A   1      34.423  34.335  31.662  1.00  0.00     0.042 A 
ATOM     21  C   UNL A   1      33.983  36.604  32.430  1.00  0.00     0.119 A 
ATOM     22  C   UNL A   1      33.222  36.819  31.285  1.00  0.00     0.050 A 
ATOM     23  C   UNL A   1      34.590  35.361  32.619  1.00  0.00     0.060 A 
ATOM     24  C   UNL A   1      33.091  35.818  30.325  1.00  0.00     0.051 A 
ATOM     25  C   UNL A   1      33.687  34.562  30.486  1.00  0.00     0.128 A 
BRANCH  21  26
ATOM     26  O   UNL A   1      33.993  37.656  33.301  1.00  0.00    -0.497 OA
ATOM     27  C   UNL A   1      33.671  38.933  32.769  1.00  0.00     0.278 C 
ENDBRANCH  21  26
BRANCH  25  28
ATOM     28  O   UNL A   1      33.416  33.773  29.405  1.00  0.00    -0.496 OA
ATOM     29  C   UNL A   1      33.550  34.221  28.068  1.00  0.00     0.278 C 
ENDBRANCH  25  28
ENDBRANCH  19  20
ENDBRANCH  10  18
ENDBRANCH   8   9
ENDBRANCH   5   8
ENDBRANCH   3   4
ENDBRANCH   2   3
ENDBRANCH   1   2
BRANCH   1  30
ATOM     30  C   UNL A   1      38.326  33.801  30.300  1.00  0.00     0.002 C 
BRANCH  30  31
ATOM     31  C   UNL A   1      37.210  33.889  29.255  1.00  0.00     0.021 C 
BRANCH  31  32
ATOM     32  C   UNL A   1      36.844  32.560  28.599  1.00  0.00     0.116 C 
BRANCH  32  33
ATOM     33  N   UNL A   1      36.280  31.622  29.557  1.00  0.00    -0.352 N 
ATOM     34  C   UNL A   1      36.729  30.375  29.910  1.00  0.00     0.251 C 
ATOM     35  H   UNL A   1      35.462  31.925  30.014  1.00  0.00     0.163 HD
ATOM     36  O   UNL A   1      36.007  29.618  30.551  1.00  0.00    -0.269 OA
BRANCH  34  37
ATOM     37  C   UNL A   1      38.084  29.947  29.503  1.00  0.00     0.039 A 
ATOM     38  C   UNL A   1      38.403  29.899  28.144  1.00  0.00     0.014 A 
ATOM     39  C   UNL A   1      39.036  29.591  30.463  1.00  0.00     0.014 A 
ATOM     40  C   UNL A   1      39.694  29.543  27.752  1.00  0.00     0.010 A 
ATOM     41  C   UNL A   1      40.341  29.312  30.075  1.00  0.00     0.010 A 
ATOM     42  C   UNL A   1      40.683  29.274  28.714  1.00  0.00    -0.014 A 
BRANCH  42  43
ATOM     43  C   UNL A   1      42.075  28.938  28.315  1.00  0.00     0.031 A 
ATOM     44  C   UNL A   1      42.429  27.527  27.932  1.00  0.00     0.074 A 
ATOM     45  C   UNL A   1      43.028  29.890  28.351  1.00  0.00     0.049 A 
ATOM     46  N   UNL A   1      43.594  27.026  27.609  1.00  0.00    -0.248 NA
ATOM     47  C   UNL A   1      41.335  26.541  27.936  1.00  0.00     0.031 C 
ATOM     48  C   UNL A   1      42.817  31.284  28.752  1.00  0.00     0.029 A 
ATOM     49  N   UNL A   1      44.367  29.831  28.057  1.00  0.00    -0.354 N 
ATOM     50  C   UNL A   1      43.376  25.671  27.384  1.00  0.00     0.074 A 
ATOM     51  C   UNL A   1      41.980  25.416  27.664  1.00  0.00     0.031 C 
ATOM     52  C   UNL A   1      43.978  31.951  28.653  1.00  0.00     0.029 A 
ATOM     53  C   UNL A   1      45.024  31.027  28.223  1.00  0.00     0.049 A 
ATOM     54  H   UNL A   1      44.815  29.008  27.753  1.00  0.00     0.167 HD
ATOM     55  C   UNL A   1      44.254  24.731  26.959  1.00  0.00     0.037 A 
ATOM     56  C   UNL A   1      46.324  31.343  28.059  1.00  0.00     0.037 A 
ATOM     57  C   UNL A   1      45.637  24.998  26.663  1.00  0.00     0.049 A 
ATOM     58  C   UNL A   1      47.281  30.279  27.595  1.00  0.00     0.074 A 
ATOM     59  C   UNL A   1      46.596  24.127  26.175  1.00  0.00     0.029 A 
ATOM     60  N   UNL A   1      46.261  26.226  26.830  1.00  0.00    -0.354 N 
ATOM     61  N   UNL A   1      47.045  29.017  27.325  1.00  0.00    -0.248 NA
ATOM     62  C   UNL A   1      48.681  30.682  27.405  1.00  0.00     0.031 C 
ATOM     63  C   UNL A   1      47.812  24.814  26.099  1.00  0.00     0.029 A 
ATOM     64  C   UNL A   1      47.598  26.130  26.477  1.00  0.00     0.049 A 
ATOM     65  H   UNL A   1      45.820  27.045  27.151  1.00  0.00     0.167 HD
ATOM     66  C   UNL A   1      48.257  28.484  26.902  1.00  0.00     0.074 A 
ATOM     67  C   UNL A   1      49.223  29.563  26.941  1.00  0.00     0.031 C 
ATOM     68  C   UNL A   1      48.546  27.216  26.512  1.00  0.00     0.037 A 
BRANCH  55  69
ATOM     69  C   UNL A   1      43.744  23.325  26.786  1.00  0.00     0.058 A 
ATOM     70  C   UNL A   1      43.462  22.500  27.886  1.00  0.00     0.135 A 
ATOM     71  C   UNL A   1      43.498  22.807  25.503  1.00  0.00     0.135 A 
ATOM     72  F   UNL A   1      43.691  22.936  29.136  1.00  0.00    -0.206 F 
ATOM     73  C   UNL A   1      42.985  21.203  27.723  1.00  0.00     0.059 A 
ATOM     74  C   UNL A   1      42.990  21.524  25.316  1.00  0.00     0.059 A 
ATOM     75  F   UNL A   1      43.750  23.550  24.414  1.00  0.00    -0.206 F 
ATOM     76  C   UNL A   1      42.751  20.724  26.433  1.00  0.00     0.060 A 
BRANCH  76  77
ATOM     77  S   UNL A   1      42.125  19.043  26.239  1.00  0.00     0.124 S 
ATOM     78  O   UNL A   1      43.062  18.495  25.261  1.00  0.00    -0.237 OA
ATOM     79  O   UNL A   1      42.240  18.509  27.593  1.00  0.00    -0.237 OA
ATOM     80  O   UNL A   1      40.762  19.239  25.758  1.00  0.00    -0.744 OA
ENDBRANCH  76  77
ENDBRANCH  55  69
BRANCH  56  81
ATOM     81  C   UNL A   1      46.790  32.734  28.313  1.00  0.00     0.058 A 
ATOM     82  C   UNL A   1      46.779  33.698  27.295  1.00  0.00     0.135 A 
ATOM     83  C   UNL A   1      47.248  33.128  29.581  1.00  0.00     0.135 A 
ATOM     84  F   UNL A   1      46.357  33.369  26.065  1.00  0.00    -0.206 F 
ATOM     85  C   UNL A   1      47.223  34.998  27.516  1.00  0.00     0.059 A 
ATOM     86  C   UNL A   1      47.669  34.430  29.834  1.00  0.00     0.059 A 
ATOM     87  F   UNL A   1      47.263  32.249  30.595  1.00  0.00    -0.206 F 
ATOM     88  C   UNL A   1      47.664  35.356  28.792  1.00  0.00     0.060 A 
BRANCH  88  89
ATOM     89  S   UNL A   1      48.194  37.058  29.078  1.00  0.00     0.124 S 
ATOM     90  O   UNL A   1      47.084  37.584  29.863  1.00  0.00    -0.237 OA
ATOM     91  O   UNL A   1      49.452  36.869  29.794  1.00  0.00    -0.237 OA
ATOM     92  O   UNL A   1      48.326  37.599  27.729  1.00  0.00    -0.744 OA
ENDBRANCH  88  89
ENDBRANCH  56  81
BRANCH  68  93
ATOM     93  C   UNL A   1      49.950  26.933  26.052  1.00  0.00     0.058 A 
ATOM     94  C   UNL A   1      50.933  26.443  26.924  1.00  0.00     0.135 A 
ATOM     95  C   UNL A   1      50.300  27.107  24.702  1.00  0.00     0.135 A 
ATOM     96  F   UNL A   1      50.654  26.264  28.225  1.00  0.00    -0.206 F 
ATOM     97  C   UNL A   1      52.222  26.158  26.482  1.00  0.00     0.059 A 
ATOM     98  C   UNL A   1      51.572  26.800  24.231  1.00  0.00     0.059 A 
ATOM     99  F   UNL A   1      49.396  27.563  23.822  1.00  0.00    -0.206 F 
ATOM    100  C   UNL A   1      52.531  26.338  25.131  1.00  0.00     0.060 A 
BRANCH 100 101
ATOM    101  S   UNL A   1      54.196  25.936  24.565  1.00  0.00     0.124 S 
ATOM    102  O   UNL A   1      54.106  26.248  23.142  1.00  0.00    -0.237 OA
ATOM    103  O   UNL A   1      55.023  26.840  25.360  1.00  0.00    -0.237 OA
ATOM    104  O   UNL A   1      54.335  24.520  24.889  1.00  0.00    -0.744 OA
ENDBRANCH 100 101
ENDBRANCH  68  93
ENDBRANCH  42  43
ENDBRANCH  34  37
ENDBRANCH  32  33
ENDBRANCH  31  32
ENDBRANCH  30  31
ENDBRANCH   1  30
TORSDOF 21
ENDMDL
