MODEL 1
REMARK VINA RESULT:     -13.0      0.000      0.000
REMARK SMILES COc1ccc(-c2nc3cc(N4C[C@@H](C(=O)NCCCCCCNC(=O)c5ccc(-c6c7nc(c(-c8c(F)cc(S(=O)(=O)[O-])cc8F)c8ccc([nH]8)c(-c8c(F)cc(S(=O)(=O)[O-])cc8F)c8nc(c(-c9c(F)cc(S(=O)(=O)[O-])cc9F)c9ccc6[nH]9)C=C8)C=C7)cc5)CC4=O)ccc3o2)cc1
REMARK SMILES IDX 20 1 19 2 18 3 17 4 15 5 16 6 14 8 12 9 13 10 94 11 93 12
REMARK SMILES IDX 95 13 11 14 7 15 8 16 99 17 9 18 98 19 10 20 97 21 96 22
REMARK SMILES IDX 6 23 3 24 4 25 101 26 5 27 100 28 2 29 1 30 21 31 22 32
REMARK SMILES IDX 23 33 24 34 25 35 26 37 27 38 28 39 92 40 29 41 91 42 30 43
REMARK SMILES IDX 31 44 32 45 85 46 33 47 90 48 84 49 86 50 34 51 89 52 83 53
REMARK SMILES IDX 82 54 35 56 69 57 48 58 68 59 49 60 52 61 67 62 87 63 50 64
REMARK SMILES IDX 51 65 66 67 88 68 53 69 36 70 37 71 46 72 38 73 39 74 45 75
REMARK SMILES IDX 47 76 40 77 41 78 42 79 43 80 44 81 70 82 71 83 80 84 72 85
REMARK SMILES IDX 73 86 79 87 81 88 74 89 75 90 76 91 77 92 78 93 54 94 55 95
REMARK SMILES IDX 64 96 56 97 57 98 63 99 65 100 58 101 59 102 60 103 61 104
REMARK SMILES IDX 62 105
REMARK H PARENT 17 7 24 36 86 55 52 66
REMARK Flexibility Score: inf
ROOT
ATOM      1  C   UNL A   1      38.774  22.097  26.154  1.00  0.00     0.002 C 
ENDROOT
BRANCH   1   2
ATOM      2  C   UNL A   1      37.998  21.184  25.198  1.00  0.00     0.021 C 
BRANCH   2   3
ATOM      3  C   UNL A   1      36.482  21.265  25.364  1.00  0.00     0.116 C 
BRANCH   3   4
ATOM      4  N   UNL A   1      35.862  19.996  25.027  1.00  0.00    -0.356 N 
ATOM      5  C   UNL A   1      34.560  19.624  24.962  1.00  0.00     0.225 C 
ATOM      6  O   UNL A   1      34.312  18.444  24.704  1.00  0.00    -0.275 OA
ATOM      7  H   UNL A   1      36.499  19.279  24.808  1.00  0.00     0.163 HD
BRANCH   5   8
ATOM      8  C   UNL A   1      33.429  20.615  25.112  1.00  0.00     0.107 C 
ATOM      9  N   UNL A   1      32.987  22.808  24.378  1.00  0.00    -0.312 N 
ATOM     10  C   UNL A   1      33.338  21.499  23.888  1.00  0.00     0.139 C 
ATOM     11  C   UNL A   1      33.157  22.920  25.759  1.00  0.00     0.227 C 
ATOM     12  C   UNL A   1      33.471  21.545  26.312  1.00  0.00     0.116 C 
ATOM     13  O   UNL A   1      33.018  23.902  26.462  1.00  0.00    -0.274 OA
BRANCH   9  14
ATOM     14  C   UNL A   1      32.488  23.821  23.525  1.00  0.00     0.046 A 
ATOM     15  C   UNL A   1      29.982  27.358  22.548  1.00  0.00     0.227 A 
ATOM     16  N   UNL A   1      29.828  26.393  23.431  1.00  0.00    -0.209 NA
ATOM     17  O   UNL A   1      31.000  27.170  21.645  1.00  0.00    -0.436 OA
ATOM     18  C   UNL A   1      30.861  25.556  23.161  1.00  0.00     0.112 A 
ATOM     19  C   UNL A   1      31.593  26.009  22.081  1.00  0.00     0.155 A 
ATOM     20  C   UNL A   1      31.272  24.427  23.866  1.00  0.00     0.058 A 
ATOM     21  C   UNL A   1      32.748  25.385  21.626  1.00  0.00     0.051 A 
ATOM     22  C   UNL A   1      33.201  24.296  22.407  1.00  0.00     0.030 A 
BRANCH  15  23
ATOM     23  C   UNL A   1      29.332  28.654  22.613  1.00  0.00     0.037 A 
ATOM     24  C   UNL A   1      28.350  31.272  22.889  1.00  0.00     0.118 A 
ATOM     25  C   UNL A   1      27.617  30.176  23.365  1.00  0.00     0.047 A 
ATOM     26  C   UNL A   1      29.574  31.055  22.263  1.00  0.00     0.047 A 
ATOM     27  C   UNL A   1      28.094  28.867  23.215  1.00  0.00     0.017 A 
ATOM     28  C   UNL A   1      30.058  29.756  22.131  1.00  0.00     0.017 A 
BRANCH  24  29
ATOM     29  O   UNL A   1      27.798  32.501  23.127  1.00  0.00    -0.497 OA
ATOM     30  C   UNL A   1      28.690  33.607  23.050  1.00  0.00     0.278 C 
ENDBRANCH  24  29
ENDBRANCH  15  23
ENDBRANCH   9  14
ENDBRANCH   5   8
ENDBRANCH   3   4
ENDBRANCH   2   3
ENDBRANCH   1   2
BRANCH   1  31
ATOM     31  C   UNL A   1      40.228  21.683  26.404  1.00  0.00     0.002 C 
BRANCH  31  32
ATOM     32  C   UNL A   1      40.752  21.977  27.812  1.00  0.00     0.021 C 
BRANCH  32  33
ATOM     33  C   UNL A   1      41.657  23.201  27.914  1.00  0.00     0.116 C 
BRANCH  33  34
ATOM     34  N   UNL A   1      41.824  23.863  26.633  1.00  0.00    -0.352 N 
ATOM     35  C   UNL A   1      41.622  25.180  26.301  1.00  0.00     0.251 C 
ATOM     36  H   UNL A   1      42.126  23.285  25.895  1.00  0.00     0.163 HD
ATOM     37  O   UNL A   1      41.629  25.518  25.120  1.00  0.00    -0.269 OA
BRANCH  35  38
ATOM     38  C   UNL A   1      41.378  26.182  27.360  1.00  0.00     0.039 A 
ATOM     39  C   UNL A   1      40.274  26.016  28.200  1.00  0.00     0.014 A 
ATOM     40  C   UNL A   1      42.221  27.286  27.521  1.00  0.00     0.014 A 
ATOM     41  C   UNL A   1      40.048  26.927  29.233  1.00  0.00     0.010 A 
ATOM     42  C   UNL A   1      42.035  28.152  28.596  1.00  0.00     0.010 A 
ATOM     43  C   UNL A   1      40.943  27.985  29.460  1.00  0.00    -0.014 A 
BRANCH  43  44
ATOM     44  C   UNL A   1      40.756  28.910  30.608  1.00  0.00     0.031 A 
ATOM     45  C   UNL A   1      41.586  28.761  31.853  1.00  0.00     0.074 A 
ATOM     46  C   UNL A   1      39.790  29.848  30.548  1.00  0.00     0.049 A 
ATOM     47  N   UNL A   1      41.545  29.458  32.960  1.00  0.00    -0.248 NA
ATOM     48  C   UNL A   1      42.571  27.669  31.871  1.00  0.00     0.031 C 
ATOM     49  C   UNL A   1      38.874  30.045  29.424  1.00  0.00     0.029 A 
ATOM     50  N   UNL A   1      39.410  30.803  31.457  1.00  0.00    -0.354 N 
ATOM     51  C   UNL A   1      42.481  28.881  33.810  1.00  0.00     0.074 A 
ATOM     52  C   UNL A   1      43.040  27.746  33.107  1.00  0.00     0.031 C 
ATOM     53  C   UNL A   1      38.050  31.068  29.702  1.00  0.00     0.029 A 
ATOM     54  C   UNL A   1      38.356  31.578  31.035  1.00  0.00     0.049 A 
ATOM     55  H   UNL A   1      39.850  30.921  32.330  1.00  0.00     0.167 HD
ATOM     56  C   UNL A   1      42.854  29.272  35.052  1.00  0.00     0.037 A 
ATOM     57  C   UNL A   1      37.704  32.583  31.651  1.00  0.00     0.037 A 
ATOM     58  C   UNL A   1      42.309  30.417  35.734  1.00  0.00     0.049 A 
ATOM     59  C   UNL A   1      38.155  33.023  33.016  1.00  0.00     0.074 A 
ATOM     60  C   UNL A   1      42.682  30.950  36.955  1.00  0.00     0.029 A 
ATOM     61  N   UNL A   1      41.265  31.201  35.260  1.00  0.00    -0.354 N 
ATOM     62  N   UNL A   1      39.110  32.525  33.766  1.00  0.00    -0.248 NA
ATOM     63  C   UNL A   1      37.452  34.164  33.614  1.00  0.00     0.031 C 
ATOM     64  C   UNL A   1      41.830  32.022  37.244  1.00  0.00     0.029 A 
ATOM     65  C   UNL A   1      40.960  32.193  36.178  1.00  0.00     0.049 A 
ATOM     66  H   UNL A   1      40.808  31.070  34.398  1.00  0.00     0.167 HD
ATOM     67  C   UNL A   1      39.132  33.303  34.919  1.00  0.00     0.074 A 
ATOM     68  C   UNL A   1      38.108  34.315  34.756  1.00  0.00     0.031 C 
ATOM     69  C   UNL A   1      39.929  33.188  36.011  1.00  0.00     0.037 A 
BRANCH  56  70
ATOM     70  C   UNL A   1      43.898  28.447  35.757  1.00  0.00     0.058 A 
ATOM     71  C   UNL A   1      45.272  28.670  35.569  1.00  0.00     0.135 A 
ATOM     72  C   UNL A   1      43.519  27.430  36.649  1.00  0.00     0.135 A 
ATOM     73  F   UNL A   1      45.692  29.622  34.719  1.00  0.00    -0.206 F 
ATOM     74  C   UNL A   1      46.231  27.887  36.205  1.00  0.00     0.059 A 
ATOM     75  C   UNL A   1      44.461  26.656  37.320  1.00  0.00     0.059 A 
ATOM     76  F   UNL A   1      42.220  27.175  36.871  1.00  0.00    -0.206 F 
ATOM     77  C   UNL A   1      45.816  26.879  37.075  1.00  0.00     0.060 A 
BRANCH  77  78
ATOM     78  S   UNL A   1      47.071  25.862  37.880  1.00  0.00     0.124 S 
ATOM     79  O   UNL A   1      47.516  26.744  38.954  1.00  0.00    -0.237 OA
ATOM     80  O   UNL A   1      46.304  24.693  38.299  1.00  0.00    -0.237 OA
ATOM     81  O   UNL A   1      48.045  25.621  36.820  1.00  0.00    -0.744 OA
ENDBRANCH  77  78
ENDBRANCH  56  70
BRANCH  57  82
ATOM     82  C   UNL A   1      36.570  33.250  30.959  1.00  0.00     0.058 A 
ATOM     83  C   UNL A   1      35.252  33.097  31.414  1.00  0.00     0.135 A 
ATOM     84  C   UNL A   1      36.790  34.097  29.861  1.00  0.00     0.135 A 
ATOM     85  F   UNL A   1      34.992  32.293  32.456  1.00  0.00    -0.206 F 
ATOM     86  C   UNL A   1      34.191  33.760  30.806  1.00  0.00     0.059 A 
ATOM     87  C   UNL A   1      35.749  34.789  29.253  1.00  0.00     0.059 A 
ATOM     88  F   UNL A   1      38.035  34.290  29.400  1.00  0.00    -0.206 F 
ATOM     89  C   UNL A   1      34.450  34.612  29.731  1.00  0.00     0.060 A 
BRANCH  89  90
ATOM     90  S   UNL A   1      33.078  35.535  29.005  1.00  0.00     0.124 S 
ATOM     91  O   UNL A   1      33.781  36.607  28.310  1.00  0.00    -0.237 OA
ATOM     92  O   UNL A   1      32.447  34.529  28.158  1.00  0.00    -0.237 OA
ATOM     93  O   UNL A   1      32.297  35.943  30.168  1.00  0.00    -0.744 OA
ENDBRANCH  89  90
ENDBRANCH  57  82
BRANCH  69  94
ATOM     94  C   UNL A   1      39.734  34.191  37.114  1.00  0.00     0.058 A 
ATOM     95  C   UNL A   1      38.862  33.946  38.188  1.00  0.00     0.135 A 
ATOM     96  C   UNL A   1      40.456  35.395  37.120  1.00  0.00     0.135 A 
ATOM     97  F   UNL A   1      38.142  32.814  38.229  1.00  0.00    -0.206 F 
ATOM     98  C   UNL A   1      38.693  34.872  39.213  1.00  0.00     0.059 A 
ATOM     99  C   UNL A   1      40.325  36.322  38.150  1.00  0.00     0.059 A 
ATOM    100  F   UNL A   1      41.312  35.675  36.124  1.00  0.00    -0.206 F 
ATOM    101  C   UNL A   1      39.429  36.057  39.185  1.00  0.00     0.060 A 
BRANCH 101 102
ATOM    102  S   UNL A   1      39.217  37.241  40.531  1.00  0.00     0.124 S 
ATOM    103  O   UNL A   1      38.258  38.176  39.951  1.00  0.00    -0.237 OA
ATOM    104  O   UNL A   1      38.710  36.400  41.610  1.00  0.00    -0.237 OA
ATOM    105  O   UNL A   1      40.564  37.769  40.735  1.00  0.00    -0.744 OA
ENDBRANCH 101 102
ENDBRANCH  69  94
ENDBRANCH  43  44
ENDBRANCH  35  38
ENDBRANCH  33  34
ENDBRANCH  32  33
ENDBRANCH  31  32
ENDBRANCH   1  31
TORSDOF 19
ENDMDL
MODEL 2
REMARK VINA RESULT:     -11.7      5.811     10.248
REMARK SMILES COc1ccc(-c2nc3cc(N4C[C@@H](C(=O)NCCCCCCNC(=O)c5ccc(-c6c7nc(c(-c8c(F)cc(S(=O)(=O)[O-])cc8F)c8ccc([nH]8)c(-c8c(F)cc(S(=O)(=O)[O-])cc8F)c8nc(c(-c9c(F)cc(S(=O)(=O)[O-])cc9F)c9ccc6[nH]9)C=C8)C=C7)cc5)CC4=O)ccc3o2)cc1
REMARK SMILES IDX 20 1 19 2 18 3 17 4 15 5 16 6 14 8 12 9 13 10 94 11 93 12
REMARK SMILES IDX 95 13 11 14 7 15 8 16 99 17 9 18 98 19 10 20 97 21 96 22
REMARK SMILES IDX 6 23 3 24 4 25 101 26 5 27 100 28 2 29 1 30 21 31 22 32
REMARK SMILES IDX 23 33 24 34 25 35 26 37 27 38 28 39 92 40 29 41 91 42 30 43
REMARK SMILES IDX 31 44 32 45 85 46 33 47 90 48 84 49 86 50 34 51 89 52 83 53
REMARK SMILES IDX 82 54 35 56 69 57 48 58 68 59 49 60 52 61 67 62 87 63 50 64
REMARK SMILES IDX 51 65 66 67 88 68 53 69 36 70 37 71 46 72 38 73 39 74 45 75
REMARK SMILES IDX 47 76 40 77 41 78 42 79 43 80 44 81 70 82 71 83 80 84 72 85
REMARK SMILES IDX 73 86 79 87 81 88 74 89 75 90 76 91 77 92 78 93 54 94 55 95
REMARK SMILES IDX 64 96 56 97 57 98 63 99 65 100 58 101 59 102 60 103 61 104
REMARK SMILES IDX 62 105
REMARK H PARENT 17 7 24 36 86 55 52 66
REMARK Flexibility Score: inf
ROOT
ATOM      1  C   UNL A   1      47.843  25.866  27.518  1.00  0.00     0.002 C 
ENDROOT
BRANCH   1   2
ATOM      2  C   UNL A   1      47.173  24.637  28.145  1.00  0.00     0.021 C 
BRANCH   2   3
ATOM      3  C   UNL A   1      45.729  24.427  27.696  1.00  0.00     0.116 C 
BRANCH   3   4
ATOM      4  N   UNL A   1      44.976  23.714  28.712  1.00  0.00    -0.356 N 
ATOM      5  C   UNL A   1      43.648  23.674  28.980  1.00  0.00     0.225 C 
ATOM      6  O   UNL A   1      43.279  23.021  29.959  1.00  0.00    -0.275 OA
ATOM      7  H   UNL A   1      45.527  23.162  29.312  1.00  0.00     0.163 HD
BRANCH   5   8
ATOM      8  C   UNL A   1      42.624  24.327  28.082  1.00  0.00     0.107 C 
ATOM      9  N   UNL A   1      40.768  25.745  28.377  1.00  0.00    -0.312 N 
ATOM     10  C   UNL A   1      42.177  25.648  28.667  1.00  0.00     0.139 C 
ATOM     11  C   UNL A   1      40.225  24.526  27.969  1.00  0.00     0.227 C 
ATOM     12  C   UNL A   1      41.359  23.541  27.778  1.00  0.00     0.116 C 
ATOM     13  O   UNL A   1      39.065  24.258  27.722  1.00  0.00    -0.274 OA
BRANCH   9  14
ATOM     14  C   UNL A   1      40.065  26.971  28.465  1.00  0.00     0.046 A 
ATOM     15  C   UNL A   1      38.121  30.325  30.636  1.00  0.00     0.227 A 
ATOM     16  N   UNL A   1      38.321  29.067  30.968  1.00  0.00    -0.209 NA
ATOM     17  O   UNL A   1      38.401  30.638  29.327  1.00  0.00    -0.436 OA
ATOM     18  C   UNL A   1      38.855  28.528  29.843  1.00  0.00     0.112 A 
ATOM     19  C   UNL A   1      38.918  29.466  28.830  1.00  0.00     0.155 A 
ATOM     20  C   UNL A   1      39.382  27.253  29.655  1.00  0.00     0.058 A 
ATOM     21  C   UNL A   1      39.484  29.210  27.588  1.00  0.00     0.051 A 
ATOM     22  C   UNL A   1      40.095  27.942  27.445  1.00  0.00     0.030 A 
BRANCH  15  23
ATOM     23  C   UNL A   1      37.863  31.401  31.574  1.00  0.00     0.037 A 
ATOM     24  C   UNL A   1      37.051  33.483  33.278  1.00  0.00     0.118 A 
ATOM     25  C   UNL A   1      38.156  33.639  32.430  1.00  0.00     0.047 A 
ATOM     26  C   UNL A   1      36.357  32.277  33.281  1.00  0.00     0.047 A 
ATOM     27  C   UNL A   1      38.575  32.599  31.590  1.00  0.00     0.017 A 
ATOM     28  C   UNL A   1      36.761  31.249  32.433  1.00  0.00     0.017 A 
BRANCH  24  29
ATOM     29  O   UNL A   1      36.717  34.581  34.022  1.00  0.00    -0.497 OA
ATOM     30  C   UNL A   1      35.323  34.817  34.190  1.00  0.00     0.278 C 
ENDBRANCH  24  29
ENDBRANCH  15  23
ENDBRANCH   9  14
ENDBRANCH   5   8
ENDBRANCH   3   4
ENDBRANCH   2   3
ENDBRANCH   1   2
BRANCH   1  31
ATOM     31  C   UNL A   1      49.242  25.615  26.945  1.00  0.00     0.002 C 
BRANCH  31  32
ATOM     32  C   UNL A   1      49.401  25.944  25.458  1.00  0.00     0.021 C 
BRANCH  32  33
ATOM     33  C   UNL A   1      48.176  25.640  24.602  1.00  0.00     0.116 C 
BRANCH  33  34
ATOM     34  N   UNL A   1      47.917  26.688  23.630  1.00  0.00    -0.352 N 
ATOM     35  C   UNL A   1      47.133  27.809  23.745  1.00  0.00     0.251 C 
ATOM     36  H   UNL A   1      48.369  26.579  22.762  1.00  0.00     0.163 HD
ATOM     37  O   UNL A   1      46.881  28.481  22.749  1.00  0.00    -0.269 OA
BRANCH  35  38
ATOM     38  C   UNL A   1      46.579  28.193  25.062  1.00  0.00     0.039 A 
ATOM     39  C   UNL A   1      47.347  29.003  25.903  1.00  0.00     0.014 A 
ATOM     40  C   UNL A   1      45.318  27.751  25.473  1.00  0.00     0.014 A 
ATOM     41  C   UNL A   1      46.826  29.411  27.132  1.00  0.00     0.010 A 
ATOM     42  C   UNL A   1      44.773  28.218  26.667  1.00  0.00     0.010 A 
ATOM     43  C   UNL A   1      45.524  29.048  27.512  1.00  0.00    -0.014 A 
BRANCH  43  44
ATOM     44  C   UNL A   1      44.933  29.547  28.780  1.00  0.00     0.031 A 
ATOM     45  C   UNL A   1      44.404  30.952  28.877  1.00  0.00     0.074 A 
ATOM     46  C   UNL A   1      44.930  28.749  29.866  1.00  0.00     0.049 A 
ATOM     47  N   UNL A   1      43.878  31.566  29.906  1.00  0.00    -0.248 NA
ATOM     48  C   UNL A   1      44.507  31.787  27.671  1.00  0.00     0.031 C 
ATOM     49  C   UNL A   1      45.478  27.392  29.917  1.00  0.00     0.029 A 
ATOM     50  N   UNL A   1      44.462  28.965  31.138  1.00  0.00    -0.354 N 
ATOM     51  C   UNL A   1      43.603  32.860  29.479  1.00  0.00     0.074 A 
ATOM     52  C   UNL A   1      44.066  32.956  28.111  1.00  0.00     0.031 C 
ATOM     53  C   UNL A   1      45.299  26.891  31.150  1.00  0.00     0.029 A 
ATOM     54  C   UNL A   1      44.655  27.900  31.985  1.00  0.00     0.049 A 
ATOM     55  H   UNL A   1      44.030  29.804  31.417  1.00  0.00     0.167 HD
ATOM     56  C   UNL A   1      43.003  33.868  30.156  1.00  0.00     0.037 A 
ATOM     57  C   UNL A   1      44.355  27.751  33.290  1.00  0.00     0.037 A 
ATOM     58  C   UNL A   1      42.524  33.755  31.510  1.00  0.00     0.049 A 
ATOM     59  C   UNL A   1      43.659  28.870  34.014  1.00  0.00     0.074 A 
ATOM     60  C   UNL A   1      41.823  34.687  32.255  1.00  0.00     0.029 A 
ATOM     61  N   UNL A   1      42.706  32.647  32.327  1.00  0.00    -0.354 N 
ATOM     62  N   UNL A   1      43.319  30.055  33.565  1.00  0.00    -0.248 NA
ATOM     63  C   UNL A   1      43.297  28.630  35.417  1.00  0.00     0.031 C 
ATOM     64  C   UNL A   1      41.628  34.164  33.539  1.00  0.00     0.029 A 
ATOM     65  C   UNL A   1      42.159  32.884  33.578  1.00  0.00     0.049 A 
ATOM     66  H   UNL A   1      43.160  31.816  32.057  1.00  0.00     0.167 HD
ATOM     67  C   UNL A   1      42.689  30.697  34.625  1.00  0.00     0.074 A 
ATOM     68  C   UNL A   1      42.678  29.761  35.731  1.00  0.00     0.031 C 
ATOM     69  C   UNL A   1      42.167  31.949  34.676  1.00  0.00     0.037 A 
BRANCH  56  70
ATOM     70  C   UNL A   1      42.839  35.184  29.445  1.00  0.00     0.058 A 
ATOM     71  C   UNL A   1      41.667  35.506  28.740  1.00  0.00     0.135 A 
ATOM     72  C   UNL A   1      43.861  36.147  29.483  1.00  0.00     0.135 A 
ATOM     73  F   UNL A   1      40.662  34.620  28.660  1.00  0.00    -0.206 F 
ATOM     74  C   UNL A   1      41.533  36.715  28.063  1.00  0.00     0.059 A 
ATOM     75  C   UNL A   1      43.736  37.375  28.840  1.00  0.00     0.059 A 
ATOM     76  F   UNL A   1      45.001  35.895  30.145  1.00  0.00    -0.206 F 
ATOM     77  C   UNL A   1      42.574  37.641  28.115  1.00  0.00     0.060 A 
BRANCH  77  78
ATOM     78  S   UNL A   1      42.392  39.197  27.219  1.00  0.00     0.124 S 
ATOM     79  O   UNL A   1      42.193  40.142  28.315  1.00  0.00    -0.237 OA
ATOM     80  O   UNL A   1      43.666  39.305  26.516  1.00  0.00    -0.237 OA
ATOM     81  O   UNL A   1      41.228  38.967  26.370  1.00  0.00    -0.744 OA
ENDBRANCH  77  78
ENDBRANCH  56  70
BRANCH  57  82
ATOM     82  C   UNL A   1      44.694  26.478  33.977  1.00  0.00     0.058 A 
ATOM     83  C   UNL A   1      43.704  25.538  34.293  1.00  0.00     0.135 A 
ATOM     84  C   UNL A   1      46.026  26.154  34.282  1.00  0.00     0.135 A 
ATOM     85  F   UNL A   1      42.416  25.805  34.027  1.00  0.00    -0.206 F 
ATOM     86  C   UNL A   1      44.018  24.320  34.888  1.00  0.00     0.059 A 
ATOM     87  C   UNL A   1      46.368  24.933  34.854  1.00  0.00     0.059 A 
ATOM     88  F   UNL A   1      47.013  27.013  33.983  1.00  0.00    -0.206 F 
ATOM     89  C   UNL A   1      45.356  24.023  35.156  1.00  0.00     0.060 A 
BRANCH  89  90
ATOM     90  S   UNL A   1      45.763  22.404  35.846  1.00  0.00     0.124 S 
ATOM     91  O   UNL A   1      45.255  22.529  37.207  1.00  0.00    -0.237 OA
ATOM     92  O   UNL A   1      45.024  21.503  34.968  1.00  0.00    -0.237 OA
ATOM     93  O   UNL A   1      47.215  22.340  35.717  1.00  0.00    -0.744 OA
ENDBRANCH  89  90
ENDBRANCH  57  82
BRANCH  69  94
ATOM     94  C   UNL A   1      41.527  32.375  35.969  1.00  0.00     0.058 A 
ATOM     95  C   UNL A   1      40.144  32.248  36.184  1.00  0.00     0.135 A 
ATOM     96  C   UNL A   1      42.309  32.880  37.020  1.00  0.00     0.135 A 
ATOM     97  F   UNL A   1      39.349  31.777  35.210  1.00  0.00    -0.206 F 
ATOM     98  C   UNL A   1      39.558  32.633  37.386  1.00  0.00     0.059 A 
ATOM     99  C   UNL A   1      41.748  33.244  38.240  1.00  0.00     0.059 A 
ATOM    100  F   UNL A   1      43.637  33.013  36.872  1.00  0.00    -0.206 F 
ATOM    101  C   UNL A   1      40.368  33.130  38.408  1.00  0.00     0.060 A 
BRANCH 101 102
ATOM    102  S   UNL A   1      39.598  33.606  39.970  1.00  0.00     0.124 S 
ATOM    103  O   UNL A   1      38.875  32.388  40.323  1.00  0.00    -0.237 OA
ATOM    104  O   UNL A   1      40.753  33.924  40.804  1.00  0.00    -0.237 OA
ATOM    105  O   UNL A   1      38.764  34.747  39.603  1.00  0.00    -0.744 OA
ENDBRANCH 101 102
ENDBRANCH  69  94
ENDBRANCH  43  44
ENDBRANCH  35  38
ENDBRANCH  33  34
ENDBRANCH  32  33
ENDBRANCH  31  32
ENDBRANCH   1  31
TORSDOF 19
ENDMDL
MODEL 3
REMARK VINA RESULT:     -11.6      5.169      9.800
REMARK SMILES COc1ccc(-c2nc3cc(N4C[C@@H](C(=O)NCCCCCCNC(=O)c5ccc(-c6c7nc(c(-c8c(F)cc(S(=O)(=O)[O-])cc8F)c8ccc([nH]8)c(-c8c(F)cc(S(=O)(=O)[O-])cc8F)c8nc(c(-c9c(F)cc(S(=O)(=O)[O-])cc9F)c9ccc6[nH]9)C=C8)C=C7)cc5)CC4=O)ccc3o2)cc1
REMARK SMILES IDX 20 1 19 2 18 3 17 4 15 5 16 6 14 8 12 9 13 10 94 11 93 12
REMARK SMILES IDX 95 13 11 14 7 15 8 16 99 17 9 18 98 19 10 20 97 21 96 22
REMARK SMILES IDX 6 23 3 24 4 25 101 26 5 27 100 28 2 29 1 30 21 31 22 32
REMARK SMILES IDX 23 33 24 34 25 35 26 37 27 38 28 39 92 40 29 41 91 42 30 43
REMARK SMILES IDX 31 44 32 45 85 46 33 47 90 48 84 49 86 50 34 51 89 52 83 53
REMARK SMILES IDX 82 54 35 56 69 57 48 58 68 59 49 60 52 61 67 62 87 63 50 64
REMARK SMILES IDX 51 65 66 67 88 68 53 69 36 70 37 71 46 72 38 73 39 74 45 75
REMARK SMILES IDX 47 76 40 77 41 78 42 79 43 80 44 81 70 82 71 83 80 84 72 85
REMARK SMILES IDX 73 86 79 87 81 88 74 89 75 90 76 91 77 92 78 93 54 94 55 95
REMARK SMILES IDX 64 96 56 97 57 98 63 99 65 100 58 101 59 102 60 103 61 104
REMARK SMILES IDX 62 105
REMARK H PARENT 17 7 24 36 86 55 52 66
REMARK Flexibility Score: inf
ROOT
ATOM      1  C   UNL A   1      44.190  23.430  27.575  1.00  0.00     0.002 C 
ENDROOT
BRANCH   1   2
ATOM      2  C   UNL A   1      44.450  24.856  27.076  1.00  0.00     0.021 C 
BRANCH   2   3
ATOM      3  C   UNL A   1      44.661  24.953  25.567  1.00  0.00     0.116 C 
BRANCH   3   4
ATOM      4  N   UNL A   1      43.757  25.930  24.986  1.00  0.00    -0.356 N 
ATOM      5  C   UNL A   1      43.541  27.235  25.279  1.00  0.00     0.225 C 
ATOM      6  O   UNL A   1      42.654  27.825  24.656  1.00  0.00    -0.275 OA
ATOM      7  H   UNL A   1      43.204  25.583  24.250  1.00  0.00     0.163 HD
BRANCH   5   8
ATOM      8  C   UNL A   1      44.395  27.993  26.269  1.00  0.00     0.107 C 
ATOM      9  N   UNL A   1      44.987  30.243  26.624  1.00  0.00    -0.312 N 
ATOM     10  C   UNL A   1      43.839  29.383  26.488  1.00  0.00     0.139 C 
ATOM     11  C   UNL A   1      46.167  29.624  26.208  1.00  0.00     0.227 C 
ATOM     12  C   UNL A   1      45.866  28.165  25.933  1.00  0.00     0.116 C 
ATOM     13  O   UNL A   1      47.284  30.097  26.130  1.00  0.00    -0.274 OA
BRANCH   9  14
ATOM     14  C   UNL A   1      44.889  31.547  27.166  1.00  0.00     0.046 A 
ATOM     15  C   UNL A   1      46.128  34.880  29.831  1.00  0.00     0.227 A 
ATOM     16  N   UNL A   1      46.258  33.574  29.944  1.00  0.00    -0.209 NA
ATOM     17  O   UNL A   1      45.323  35.302  28.801  1.00  0.00    -0.436 OA
ATOM     18  C   UNL A   1      45.577  33.099  28.871  1.00  0.00     0.112 A 
ATOM     19  C   UNL A   1      45.002  34.132  28.156  1.00  0.00     0.155 A 
ATOM     20  C   UNL A   1      45.484  31.788  28.411  1.00  0.00     0.058 A 
ATOM     21  C   UNL A   1      44.302  33.942  26.971  1.00  0.00     0.051 A 
ATOM     22  C   UNL A   1      44.296  32.619  26.471  1.00  0.00     0.030 A 
BRANCH  15  23
ATOM     23  C   UNL A   1      46.930  35.859  30.541  1.00  0.00     0.037 A 
ATOM     24  C   UNL A   1      48.274  37.712  32.171  1.00  0.00     0.118 A 
ATOM     25  C   UNL A   1      47.831  38.070  30.891  1.00  0.00     0.047 A 
ATOM     26  C   UNL A   1      48.052  36.418  32.633  1.00  0.00     0.047 A 
ATOM     27  C   UNL A   1      47.176  37.146  30.067  1.00  0.00     0.017 A 
ATOM     28  C   UNL A   1      47.383  35.504  31.823  1.00  0.00     0.017 A 
BRANCH  24  29
ATOM     29  O   UNL A   1      48.867  38.711  32.893  1.00  0.00    -0.497 OA
ATOM     30  C   UNL A   1      50.140  39.144  32.426  1.00  0.00     0.278 C 
ENDBRANCH  24  29
ENDBRANCH  15  23
ENDBRANCH   9  14
ENDBRANCH   5   8
ENDBRANCH   3   4
ENDBRANCH   2   3
ENDBRANCH   1   2
BRANCH   1  31
ATOM     31  C   UNL A   1      42.738  23.137  27.966  1.00  0.00     0.002 C 
BRANCH  31  32
ATOM     32  C   UNL A   1      41.955  22.287  26.961  1.00  0.00     0.021 C 
BRANCH  32  33
ATOM     33  C   UNL A   1      40.597  21.801  27.457  1.00  0.00     0.116 C 
BRANCH  33  34
ATOM     34  N   UNL A   1      39.541  22.057  26.493  1.00  0.00    -0.352 N 
ATOM     35  C   UNL A   1      38.809  23.199  26.287  1.00  0.00     0.251 C 
ATOM     36  H   UNL A   1      39.318  21.302  25.901  1.00  0.00     0.163 HD
ATOM     37  O   UNL A   1      37.824  23.167  25.554  1.00  0.00    -0.269 OA
BRANCH  35  38
ATOM     38  C   UNL A   1      39.194  24.458  26.961  1.00  0.00     0.039 A 
ATOM     39  C   UNL A   1      38.764  24.676  28.272  1.00  0.00     0.014 A 
ATOM     40  C   UNL A   1      39.964  25.424  26.305  1.00  0.00     0.014 A 
ATOM     41  C   UNL A   1      39.151  25.838  28.942  1.00  0.00     0.010 A 
ATOM     42  C   UNL A   1      40.407  26.547  26.999  1.00  0.00     0.010 A 
ATOM     43  C   UNL A   1      40.001  26.769  28.323  1.00  0.00    -0.014 A 
BRANCH  43  44
ATOM     44  C   UNL A   1      40.484  27.967  29.057  1.00  0.00     0.031 A 
ATOM     45  C   UNL A   1      41.868  27.996  29.646  1.00  0.00     0.074 A 
ATOM     46  C   UNL A   1      39.648  29.007  29.247  1.00  0.00     0.049 A 
ATOM     47  N   UNL A   1      42.450  28.943  30.338  1.00  0.00    -0.248 NA
ATOM     48  C   UNL A   1      42.697  26.796  29.459  1.00  0.00     0.031 C 
ATOM     49  C   UNL A   1      38.259  29.067  28.786  1.00  0.00     0.029 A 
ATOM     50  N   UNL A   1      39.837  30.206  29.886  1.00  0.00    -0.354 N 
ATOM     51  C   UNL A   1      43.702  28.448  30.683  1.00  0.00     0.074 A 
ATOM     52  C   UNL A   1      43.776  27.098  30.166  1.00  0.00     0.031 C 
ATOM     53  C   UNL A   1      37.729  30.248  29.142  1.00  0.00     0.029 A 
ATOM     54  C   UNL A   1      38.726  31.014  29.883  1.00  0.00     0.049 A 
ATOM     55  H   UNL A   1      40.689  30.462  30.308  1.00  0.00     0.167 HD
ATOM     56  C   UNL A   1      44.704  29.067  31.353  1.00  0.00     0.037 A 
ATOM     57  C   UNL A   1      38.526  32.234  30.421  1.00  0.00     0.037 A 
ATOM     58  C   UNL A   1      44.629  30.419  31.844  1.00  0.00     0.049 A 
ATOM     59  C   UNL A   1      39.661  32.917  31.131  1.00  0.00     0.074 A 
ATOM     60  C   UNL A   1      45.619  31.168  32.455  1.00  0.00     0.029 A 
ATOM     61  N   UNL A   1      43.497  31.221  31.792  1.00  0.00    -0.354 N 
ATOM     62  N   UNL A   1      40.873  32.470  31.364  1.00  0.00    -0.248 NA
ATOM     63  C   UNL A   1      39.409  34.270  31.641  1.00  0.00     0.031 C 
ATOM     64  C   UNL A   1      45.071  32.403  32.819  1.00  0.00     0.029 A 
ATOM     65  C   UNL A   1      43.755  32.446  32.387  1.00  0.00     0.049 A 
ATOM     66  H   UNL A   1      42.637  30.958  31.391  1.00  0.00     0.167 HD
ATOM     67  C   UNL A   1      41.533  33.495  32.035  1.00  0.00     0.074 A 
ATOM     68  C   UNL A   1      40.591  34.589  32.152  1.00  0.00     0.031 C 
ATOM     69  C   UNL A   1      42.804  33.524  32.510  1.00  0.00     0.037 A 
BRANCH  56  70
ATOM     70  C   UNL A   1      45.964  28.283  31.600  1.00  0.00     0.058 A 
ATOM     71  C   UNL A   1      47.003  28.231  30.656  1.00  0.00     0.135 A 
ATOM     72  C   UNL A   1      46.145  27.586  32.806  1.00  0.00     0.135 A 
ATOM     73  F   UNL A   1      46.881  28.868  29.480  1.00  0.00    -0.206 F 
ATOM     74  C   UNL A   1      48.156  27.483  30.881  1.00  0.00     0.059 A 
ATOM     75  C   UNL A   1      47.302  26.858  33.066  1.00  0.00     0.059 A 
ATOM     76  F   UNL A   1      45.187  27.604  33.746  1.00  0.00    -0.206 F 
ATOM     77  C   UNL A   1      48.294  26.796  32.087  1.00  0.00     0.060 A 
BRANCH  77  78
ATOM     78  S   UNL A   1      49.786  25.817  32.357  1.00  0.00     0.124 S 
ATOM     79  O   UNL A   1      50.818  26.849  32.338  1.00  0.00    -0.237 OA
ATOM     80  O   UNL A   1      49.529  25.205  33.657  1.00  0.00    -0.237 OA
ATOM     81  O   UNL A   1      49.799  24.896  31.226  1.00  0.00    -0.744 OA
ENDBRANCH  77  78
ENDBRANCH  56  70
BRANCH  57  82
ATOM     82  C   UNL A   1      37.198  32.886  30.280  1.00  0.00     0.058 A 
ATOM     83  C   UNL A   1      36.255  32.843  31.316  1.00  0.00     0.135 A 
ATOM     84  C   UNL A   1      36.868  33.611  29.124  1.00  0.00     0.135 A 
ATOM     85  F   UNL A   1      36.522  32.156  32.437  1.00  0.00    -0.206 F 
ATOM     86  C   UNL A   1      35.030  33.495  31.214  1.00  0.00     0.059 A 
ATOM     87  C   UNL A   1      35.661  34.291  29.008  1.00  0.00     0.059 A 
ATOM     88  F   UNL A   1      37.744  33.697  28.111  1.00  0.00    -0.206 F 
ATOM     89  C   UNL A   1      34.746  34.225  30.059  1.00  0.00     0.060 A 
BRANCH  89  90
ATOM     90  S   UNL A   1      33.192  35.141  29.973  1.00  0.00     0.124 S 
ATOM     91  O   UNL A   1      32.489  34.427  28.913  1.00  0.00    -0.237 OA
ATOM     92  O   UNL A   1      32.660  34.969  31.321  1.00  0.00    -0.237 OA
ATOM     93  O   UNL A   1      33.619  36.497  29.645  1.00  0.00    -0.744 OA
ENDBRANCH  89  90
ENDBRANCH  57  82
BRANCH  69  94
ATOM     94  C   UNL A   1      43.255  34.787  33.190  1.00  0.00     0.058 A 
ATOM     95  C   UNL A   1      43.360  34.874  34.588  1.00  0.00     0.135 A 
ATOM     96  C   UNL A   1      43.626  35.911  32.435  1.00  0.00     0.135 A 
ATOM     97  F   UNL A   1      43.013  33.831  35.358  1.00  0.00    -0.206 F 
ATOM     98  C   UNL A   1      43.790  36.041  35.213  1.00  0.00     0.059 A 
ATOM     99  C   UNL A   1      44.087  37.078  33.037  1.00  0.00     0.059 A 
ATOM    100  F   UNL A   1      43.556  35.878  31.094  1.00  0.00    -0.206 F 
ATOM    101  C   UNL A   1      44.151  37.137  34.429  1.00  0.00     0.060 A 
BRANCH 101 102
ATOM    102  S   UNL A   1      44.727  38.638  35.250  1.00  0.00     0.124 S 
ATOM    103  O   UNL A   1      44.671  38.243  36.655  1.00  0.00    -0.237 OA
ATOM    104  O   UNL A   1      46.065  38.807  34.692  1.00  0.00    -0.237 OA
ATOM    105  O   UNL A   1      43.751  39.645  34.842  1.00  0.00    -0.744 OA
ENDBRANCH 101 102
ENDBRANCH  69  94
ENDBRANCH  43  44
ENDBRANCH  35  38
ENDBRANCH  33  34
ENDBRANCH  32  33
ENDBRANCH  31  32
ENDBRANCH   1  31
TORSDOF 19
ENDMDL
