MODEL 1
REMARK VINA RESULT:     -11.9      0.000      0.000
REMARK SMILES C[NH+]1CCC2(CC1)OC[C@H](C(=O)NCCCCCCNC(=O)c1ccc(-c3c4nc(c(-c5c(F)cc(S(=O)(=O)[O-])cc5F)c5ccc([nH]5)c(-c5c(F)cc(S(=O)(=O)[O-])cc5F)c5nc(c(-c6c(F)cc(S(=O)(=O)[O-])cc6F)c6ccc3[nH]6)C=C5)C=C4)cc1)N2C(=O)c1cc(C(F)(F)F)cc(C(F)(F)F)c1
REMARK SMILES IDX 16 1 15 2 14 3 13 4 11 5 12 6 10 8 1 9 2 10 3 11 7 12 4 14
REMARK SMILES IDX 6 15 5 16 8 17 89 18 9 19 90 20 91 21 92 22 93 23 105 24
REMARK SMILES IDX 94 25 100 26 99 27 95 28 96 29 97 30 98 31 101 32 102 33
REMARK SMILES IDX 103 34 104 35 17 36 18 37 19 38 20 39 21 40 22 42 23 43
REMARK SMILES IDX 24 44 88 45 25 46 87 47 26 48 27 49 28 50 81 51 29 52 86 53
REMARK SMILES IDX 80 54 82 55 30 56 85 57 79 58 78 59 31 61 65 62 44 63 64 64
REMARK SMILES IDX 45 65 48 66 63 67 83 68 46 69 47 70 62 72 84 73 49 74 32 75
REMARK SMILES IDX 33 76 42 77 34 78 35 79 41 80 43 81 36 82 37 83 38 84 39 85
REMARK SMILES IDX 40 86 66 87 67 88 76 89 68 90 69 91 75 92 77 93 70 94 71 95
REMARK SMILES IDX 72 96 73 97 74 98 50 99 51 100 60 101 52 102 53 103 59 104
REMARK SMILES IDX 61 105 54 106 55 107 56 108 57 109 58 110
REMARK H PARENT 13 7 2 13 20 41 82 60 48 71
REMARK Flexibility Score: inf
ROOT
ATOM      1  C   UNL A   1      39.047  21.463  25.757  1.00  0.00     0.002 C 
ENDROOT
BRANCH   1   2
ATOM      2  C   UNL A   1      37.781  21.815  24.965  1.00  0.00     0.021 C 
BRANCH   2   3
ATOM      3  C   UNL A   1      36.555  20.994  25.357  1.00  0.00     0.116 C 
BRANCH   3   4
ATOM      4  N   UNL A   1      35.708  21.753  26.255  1.00  0.00    -0.354 N 
ATOM      5  C   UNL A   1      34.718  22.639  25.947  1.00  0.00     0.245 C 
ATOM      6  O   UNL A   1      34.352  23.412  26.836  1.00  0.00    -0.273 OA
ATOM      7  H   UNL A   1      35.868  21.610  27.217  1.00  0.00     0.163 HD
BRANCH   5   8
ATOM      8  C   UNL A   1      34.113  22.630  24.528  1.00  0.00     0.203 C 
ATOM      9  C   UNL A   1      28.551  25.377  25.930  1.00  0.00     0.332 C 
ATOM     10  N   UNL A   1      29.904  25.485  25.404  1.00  0.00    -0.337 N 
ATOM     11  C   UNL A   1      30.896  25.018  26.372  1.00  0.00     0.267 C 
ATOM     12  C   UNL A   1      30.022  24.997  24.028  1.00  0.00     0.267 C 
ATOM     13  H   UNL A   1      30.136  26.472  25.288  1.00  0.00     0.347 HD
ATOM     14  C   UNL A   1      31.390  23.611  26.161  1.00  0.00     0.120 C 
ATOM     15  C   UNL A   1      30.689  23.652  23.782  1.00  0.00     0.120 C 
ATOM     16  C   UNL A   1      31.842  23.330  24.724  1.00  0.00     0.155 C 
ATOM     17  O   UNL A   1      31.906  21.862  24.705  1.00  0.00    -0.352 OA
ATOM     18  N   UNL A   1      33.211  23.754  24.328  1.00  0.00    -0.295 N 
ATOM     19  C   UNL A   1      33.212  21.444  24.309  1.00  0.00     0.198 C 
BRANCH  18  20
ATOM     20  C   UNL A   1      33.820  24.905  23.838  1.00  0.00     0.256 C 
ATOM     21  O   UNL A   1      34.739  24.868  23.015  1.00  0.00    -0.269 OA
BRANCH  20  22
ATOM     22  C   UNL A   1      33.387  26.262  24.189  1.00  0.00     0.041 A 
ATOM     23  C   UNL A   1      33.942  26.904  25.303  1.00  0.00     0.027 A 
ATOM     24  C   UNL A   1      32.332  26.857  23.503  1.00  0.00     0.027 A 
ATOM     25  C   UNL A   1      33.540  28.209  25.640  1.00  0.00     0.057 A 
ATOM     26  C   UNL A   1      32.019  28.204  23.723  1.00  0.00     0.057 A 
ATOM     27  C   UNL A   1      32.614  28.866  24.810  1.00  0.00     0.026 A 
BRANCH  25  28
ATOM     28  C   UNL A   1      34.101  28.892  26.864  1.00  0.00     0.416 C 
ATOM     29  F   UNL A   1      33.325  28.707  27.966  1.00  0.00    -0.166 F 
ATOM     30  F   UNL A   1      35.342  28.439  27.193  1.00  0.00    -0.166 F 
ATOM     31  F   UNL A   1      34.225  30.241  26.719  1.00  0.00    -0.166 F 
ENDBRANCH  25  28
BRANCH  26  32
ATOM     32  C   UNL A   1      31.136  28.961  22.759  1.00  0.00     0.416 C 
ATOM     33  F   UNL A   1      30.324  29.854  23.388  1.00  0.00    -0.166 F 
ATOM     34  F   UNL A   1      31.859  29.694  21.864  1.00  0.00    -0.166 F 
ATOM     35  F   UNL A   1      30.317  28.167  22.016  1.00  0.00    -0.166 F 
ENDBRANCH  26  32
ENDBRANCH  20  22
ENDBRANCH  18  20
ENDBRANCH   5   8
ENDBRANCH   3   4
ENDBRANCH   2   3
ENDBRANCH   1   2
BRANCH   1  36
ATOM     36  C   UNL A   1      39.542  22.562  26.703  1.00  0.00     0.002 C 
BRANCH  36  37
ATOM     37  C   UNL A   1      40.766  22.187  27.541  1.00  0.00     0.021 C 
BRANCH  37  38
ATOM     38  C   UNL A   1      41.952  23.135  27.396  1.00  0.00     0.116 C 
BRANCH  38  39
ATOM     39  N   UNL A   1      41.837  23.981  26.219  1.00  0.00    -0.352 N 
ATOM     40  C   UNL A   1      41.485  25.305  26.128  1.00  0.00     0.251 C 
ATOM     41  H   UNL A   1      42.042  23.540  25.363  1.00  0.00     0.163 HD
ATOM     42  O   UNL A   1      41.256  25.800  25.030  1.00  0.00    -0.269 OA
BRANCH  40  43
ATOM     43  C   UNL A   1      41.359  26.123  27.356  1.00  0.00     0.039 A 
ATOM     44  C   UNL A   1      42.334  27.087  27.623  1.00  0.00     0.014 A 
ATOM     45  C   UNL A   1      40.294  25.938  28.243  1.00  0.00     0.014 A 
ATOM     46  C   UNL A   1      42.208  27.906  28.747  1.00  0.00     0.010 A 
ATOM     47  C   UNL A   1      40.130  26.806  29.321  1.00  0.00     0.010 A 
ATOM     48  C   UNL A   1      41.085  27.799  29.586  1.00  0.00    -0.014 A 
BRANCH  48  49
ATOM     49  C   UNL A   1      40.893  28.730  30.730  1.00  0.00     0.031 A 
ATOM     50  C   UNL A   1      41.740  28.604  31.968  1.00  0.00     0.074 A 
ATOM     51  C   UNL A   1      39.920  29.661  30.668  1.00  0.00     0.049 A 
ATOM     52  N   UNL A   1      41.701  29.310  33.068  1.00  0.00    -0.248 NA
ATOM     53  C   UNL A   1      42.748  27.531  31.983  1.00  0.00     0.031 C 
ATOM     54  C   UNL A   1      39.001  29.851  29.543  1.00  0.00     0.029 A 
ATOM     55  N   UNL A   1      39.538  30.623  31.571  1.00  0.00    -0.354 N 
ATOM     56  C   UNL A   1      42.663  28.763  33.909  1.00  0.00     0.074 A 
ATOM     57  C   UNL A   1      43.238  27.633  33.211  1.00  0.00     0.031 C 
ATOM     58  C   UNL A   1      38.187  30.886  29.808  1.00  0.00     0.029 A 
ATOM     59  C   UNL A   1      38.494  31.407  31.136  1.00  0.00     0.049 A 
ATOM     60  H   UNL A   1      39.970  30.740  32.448  1.00  0.00     0.167 HD
ATOM     61  C   UNL A   1      43.047  29.176  35.141  1.00  0.00     0.037 A 
ATOM     62  C   UNL A   1      37.854  32.428  31.738  1.00  0.00     0.037 A 
ATOM     63  C   UNL A   1      42.488  30.317  35.819  1.00  0.00     0.049 A 
ATOM     64  C   UNL A   1      38.295  32.859  33.111  1.00  0.00     0.074 A 
ATOM     65  C   UNL A   1      42.861  30.860  37.037  1.00  0.00     0.029 A 
ATOM     66  N   UNL A   1      41.435  31.086  35.346  1.00  0.00    -0.354 N 
ATOM     67  N   UNL A   1      39.263  32.380  33.856  1.00  0.00    -0.248 NA
ATOM     68  C   UNL A   1      37.561  33.973  33.725  1.00  0.00     0.031 C 
ATOM     69  C   UNL A   1      41.994  31.917  37.329  1.00  0.00     0.029 A 
ATOM     70  C   UNL A   1      41.121  32.076  36.264  1.00  0.00     0.049 A 
ATOM     71  H   UNL A   1      40.976  30.948  34.486  1.00  0.00     0.167 HD
ATOM     72  C   UNL A   1      39.274  33.155  35.011  1.00  0.00     0.074 A 
ATOM     73  C   UNL A   1      38.226  34.144  34.858  1.00  0.00     0.031 C 
ATOM     74  C   UNL A   1      40.078  33.059  36.098  1.00  0.00     0.037 A 
BRANCH  61  75
ATOM     75  C   UNL A   1      44.124  28.393  35.845  1.00  0.00     0.058 A 
ATOM     76  C   UNL A   1      45.485  28.697  35.689  1.00  0.00     0.135 A 
ATOM     77  C   UNL A   1      43.784  27.360  36.734  1.00  0.00     0.135 A 
ATOM     78  F   UNL A   1      45.870  29.664  34.840  1.00  0.00    -0.206 F 
ATOM     79  C   UNL A   1      46.472  27.993  36.371  1.00  0.00     0.059 A 
ATOM     80  C   UNL A   1      44.752  26.663  37.451  1.00  0.00     0.059 A 
ATOM     81  F   UNL A   1      42.498  27.025  36.922  1.00  0.00    -0.206 F 
ATOM     82  C   UNL A   1      46.095  26.979  37.254  1.00  0.00     0.060 A 
BRANCH  82  83
ATOM     83  S   UNL A   1      47.388  26.090  38.147  1.00  0.00     0.124 S 
ATOM     84  O   UNL A   1      48.575  26.854  37.778  1.00  0.00    -0.237 OA
ATOM     85  O   UNL A   1      46.955  26.222  39.534  1.00  0.00    -0.237 OA
ATOM     86  O   UNL A   1      47.316  24.740  37.596  1.00  0.00    -0.744 OA
ENDBRANCH  82  83
ENDBRANCH  61  75
BRANCH  62  87
ATOM     87  C   UNL A   1      36.740  33.129  31.044  1.00  0.00     0.058 A 
ATOM     88  C   UNL A   1      35.402  32.836  31.349  1.00  0.00     0.135 A 
ATOM     89  C   UNL A   1      36.986  34.097  30.057  1.00  0.00     0.135 A 
ATOM     90  F   UNL A   1      35.113  31.915  32.280  1.00  0.00    -0.206 F 
ATOM     91  C   UNL A   1      34.349  33.456  30.683  1.00  0.00     0.059 A 
ATOM     92  C   UNL A   1      35.950  34.752  29.399  1.00  0.00     0.059 A 
ATOM     93  F   UNL A   1      38.248  34.428  29.738  1.00  0.00    -0.206 F 
ATOM     94  C   UNL A   1      34.634  34.413  29.709  1.00  0.00     0.060 A 
BRANCH  94  95
ATOM     95  S   UNL A   1      33.260  35.233  28.871  1.00  0.00     0.124 S 
ATOM     96  O   UNL A   1      32.659  34.125  28.141  1.00  0.00    -0.237 OA
ATOM     97  O   UNL A   1      32.486  35.755  29.994  1.00  0.00    -0.237 OA
ATOM     98  O   UNL A   1      33.922  36.245  28.053  1.00  0.00    -0.744 OA
ENDBRANCH  94  95
ENDBRANCH  62  87
BRANCH  74  99
ATOM     99  C   UNL A   1      39.884  34.070  37.195  1.00  0.00     0.058 A 
ATOM    100  C   UNL A   1      40.489  35.336  37.153  1.00  0.00     0.135 A 
ATOM    101  C   UNL A   1      39.048  33.782  38.288  1.00  0.00     0.135 A 
ATOM    102  F   UNL A   1      41.302  35.663  36.134  1.00  0.00    -0.206 F 
ATOM    103  C   UNL A   1      40.300  36.268  38.169  1.00  0.00     0.059 A 
ATOM    104  C   UNL A   1      38.818  34.710  39.298  1.00  0.00     0.059 A 
ATOM    105  F   UNL A   1      38.436  32.591  38.374  1.00  0.00    -0.206 F 
ATOM    106  C   UNL A   1      39.461  35.946  39.237  1.00  0.00     0.060 A 
BRANCH 106 107
ATOM    107  S   UNL A   1      39.207  37.172  40.536  1.00  0.00     0.124 S 
ATOM    108  O   UNL A   1      40.556  37.698  40.713  1.00  0.00    -0.237 OA
ATOM    109  O   UNL A   1      38.246  38.082  39.923  1.00  0.00    -0.237 OA
ATOM    110  O   UNL A   1      38.691  36.384  41.652  1.00  0.00    -0.744 OA
ENDBRANCH 106 107
ENDBRANCH  74  99
ENDBRANCH  48  49
ENDBRANCH  40  43
ENDBRANCH  38  39
ENDBRANCH  37  38
ENDBRANCH  36  37
ENDBRANCH   1  36
TORSDOF 20
ENDMDL
MODEL 2
REMARK VINA RESULT:     -11.9      6.370     11.377
REMARK SMILES C[NH+]1CCC2(CC1)OC[C@H](C(=O)NCCCCCCNC(=O)c1ccc(-c3c4nc(c(-c5c(F)cc(S(=O)(=O)[O-])cc5F)c5ccc([nH]5)c(-c5c(F)cc(S(=O)(=O)[O-])cc5F)c5nc(c(-c6c(F)cc(S(=O)(=O)[O-])cc6F)c6ccc3[nH]6)C=C5)C=C4)cc1)N2C(=O)c1cc(C(F)(F)F)cc(C(F)(F)F)c1
REMARK SMILES IDX 16 1 15 2 14 3 13 4 11 5 12 6 10 8 1 9 2 10 3 11 7 12 4 14
REMARK SMILES IDX 6 15 5 16 8 17 89 18 9 19 90 20 91 21 92 22 93 23 105 24
REMARK SMILES IDX 94 25 100 26 99 27 95 28 96 29 97 30 98 31 101 32 102 33
REMARK SMILES IDX 103 34 104 35 17 36 18 37 19 38 20 39 21 40 22 42 23 43
REMARK SMILES IDX 24 44 88 45 25 46 87 47 26 48 27 49 28 50 81 51 29 52 86 53
REMARK SMILES IDX 80 54 82 55 30 56 85 57 79 58 78 59 31 61 65 62 44 63 64 64
REMARK SMILES IDX 45 65 48 66 63 67 83 68 46 69 47 70 62 72 84 73 49 74 32 75
REMARK SMILES IDX 33 76 42 77 34 78 35 79 41 80 43 81 36 82 37 83 38 84 39 85
REMARK SMILES IDX 40 86 66 87 67 88 76 89 68 90 69 91 75 92 77 93 70 94 71 95
REMARK SMILES IDX 72 96 73 97 74 98 50 99 51 100 60 101 52 102 53 103 59 104
REMARK SMILES IDX 61 105 54 106 55 107 56 108 57 109 58 110
REMARK H PARENT 13 7 2 13 20 41 82 60 48 71
REMARK Flexibility Score: inf
ROOT
ATOM      1  C   UNL A   1      33.933  30.885  27.315  1.00  0.00     0.002 C 
ENDROOT
BRANCH   1   2
ATOM      2  C   UNL A   1      32.442  30.553  27.161  1.00  0.00     0.021 C 
BRANCH   2   3
ATOM      3  C   UNL A   1      32.127  29.062  27.234  1.00  0.00     0.116 C 
BRANCH   3   4
ATOM      4  N   UNL A   1      33.163  28.296  26.570  1.00  0.00    -0.354 N 
ATOM      5  C   UNL A   1      33.158  26.976  26.225  1.00  0.00     0.245 C 
ATOM      6  O   UNL A   1      34.246  26.452  25.974  1.00  0.00    -0.273 OA
ATOM      7  H   UNL A   1      33.979  28.794  26.335  1.00  0.00     0.163 HD
BRANCH   5   8
ATOM      8  C   UNL A   1      31.817  26.218  26.165  1.00  0.00     0.203 C 
ATOM      9  C   UNL A   1      32.898  22.948  20.818  1.00  0.00     0.332 C 
ATOM     10  N   UNL A   1      32.861  22.994  22.273  1.00  0.00    -0.337 N 
ATOM     11  C   UNL A   1      33.694  24.076  22.798  1.00  0.00     0.267 C 
ATOM     12  C   UNL A   1      31.507  22.861  22.814  1.00  0.00     0.267 C 
ATOM     13  H   UNL A   1      33.309  22.154  22.641  1.00  0.00     0.347 HD
ATOM     14  C   UNL A   1      32.956  25.334  23.170  1.00  0.00     0.120 C 
ATOM     15  C   UNL A   1      30.814  24.098  23.367  1.00  0.00     0.120 C 
ATOM     16  C   UNL A   1      31.738  25.087  24.067  1.00  0.00     0.155 C 
ATOM     17  O   UNL A   1      31.019  26.364  23.966  1.00  0.00    -0.352 OA
ATOM     18  N   UNL A   1      31.968  24.919  25.526  1.00  0.00    -0.295 N 
ATOM     19  C   UNL A   1      30.821  26.907  25.272  1.00  0.00     0.198 C 
BRANCH  18  20
ATOM     20  C   UNL A   1      32.282  23.879  26.397  1.00  0.00     0.256 C 
ATOM     21  O   UNL A   1      31.723  23.739  27.487  1.00  0.00    -0.269 OA
BRANCH  20  22
ATOM     22  C   UNL A   1      33.241  22.817  26.076  1.00  0.00     0.041 A 
ATOM     23  C   UNL A   1      32.778  21.530  25.771  1.00  0.00     0.027 A 
ATOM     24  C   UNL A   1      34.607  23.047  26.207  1.00  0.00     0.027 A 
ATOM     25  C   UNL A   1      33.692  20.508  25.451  1.00  0.00     0.057 A 
ATOM     26  C   UNL A   1      35.529  22.097  25.751  1.00  0.00     0.057 A 
ATOM     27  C   UNL A   1      35.062  20.820  25.396  1.00  0.00     0.026 A 
BRANCH  25  28
ATOM     28  C   UNL A   1      33.206  19.108  25.164  1.00  0.00     0.416 C 
ATOM     29  F   UNL A   1      32.177  19.086  24.274  1.00  0.00    -0.166 F 
ATOM     30  F   UNL A   1      34.179  18.314  24.641  1.00  0.00    -0.166 F 
ATOM     31  F   UNL A   1      32.753  18.457  26.273  1.00  0.00    -0.166 F 
ENDBRANCH  25  28
BRANCH  26  32
ATOM     32  C   UNL A   1      36.982  22.460  25.553  1.00  0.00     0.416 C 
ATOM     33  F   UNL A   1      37.424  23.359  26.474  1.00  0.00    -0.166 F 
ATOM     34  F   UNL A   1      37.806  21.379  25.674  1.00  0.00    -0.166 F 
ATOM     35  F   UNL A   1      37.257  23.004  24.336  1.00  0.00    -0.166 F 
ENDBRANCH  26  32
ENDBRANCH  20  22
ENDBRANCH  18  20
ENDBRANCH   5   8
ENDBRANCH   3   4
ENDBRANCH   2   3
ENDBRANCH   1   2
BRANCH   1  36
ATOM     36  C   UNL A   1      34.246  32.000  28.317  1.00  0.00     0.002 C 
BRANCH  36  37
ATOM     37  C   UNL A   1      35.550  32.756  28.053  1.00  0.00     0.021 C 
BRANCH  37  38
ATOM     38  C   UNL A   1      36.480  32.861  29.257  1.00  0.00     0.116 C 
BRANCH  38  39
ATOM     39  N   UNL A   1      36.022  32.053  30.376  1.00  0.00    -0.352 N 
ATOM     40  C   UNL A   1      36.551  30.894  30.888  1.00  0.00     0.251 C 
ATOM     41  H   UNL A   1      35.216  32.386  30.833  1.00  0.00     0.163 HD
ATOM     42  O   UNL A   1      35.917  30.249  31.716  1.00  0.00    -0.269 OA
BRANCH  40  43
ATOM     43  C   UNL A   1      37.871  30.413  30.420  1.00  0.00     0.039 A 
ATOM     44  C   UNL A   1      38.068  30.216  29.052  1.00  0.00     0.014 A 
ATOM     45  C   UNL A   1      38.907  30.151  31.322  1.00  0.00     0.014 A 
ATOM     46  C   UNL A   1      39.320  29.815  28.583  1.00  0.00     0.010 A 
ATOM     47  C   UNL A   1      40.176  29.826  30.846  1.00  0.00     0.010 A 
ATOM     48  C   UNL A   1      40.397  29.652  29.472  1.00  0.00    -0.014 A 
BRANCH  48  49
ATOM     49  C   UNL A   1      41.758  29.319  28.972  1.00  0.00     0.031 A 
ATOM     50  C   UNL A   1      42.071  27.933  28.476  1.00  0.00     0.074 A 
ATOM     51  C   UNL A   1      42.724  30.258  29.013  1.00  0.00     0.049 A 
ATOM     52  N   UNL A   1      43.202  27.456  28.024  1.00  0.00    -0.248 NA
ATOM     53  C   UNL A   1      40.978  26.947  28.509  1.00  0.00     0.031 C 
ATOM     54  C   UNL A   1      42.558  31.623  29.518  1.00  0.00     0.029 A 
ATOM     55  N   UNL A   1      44.041  30.209  28.624  1.00  0.00    -0.354 N 
ATOM     56  C   UNL A   1      42.964  26.117  27.734  1.00  0.00     0.074 A 
ATOM     57  C   UNL A   1      41.593  25.844  28.107  1.00  0.00     0.031 C 
ATOM     58  C   UNL A   1      43.714  32.290  29.377  1.00  0.00     0.029 A 
ATOM     59  C   UNL A   1      44.717  31.392  28.812  1.00  0.00     0.049 A 
ATOM     60  H   UNL A   1      44.461  29.403  28.248  1.00  0.00     0.167 HD
ATOM     61  C   UNL A   1      43.805  25.205  27.189  1.00  0.00     0.037 A 
ATOM     62  C   UNL A   1      46.000  31.718  28.562  1.00  0.00     0.037 A 
ATOM     63  C   UNL A   1      45.161  25.492  26.798  1.00  0.00     0.049 A 
ATOM     64  C   UNL A   1      46.914  30.682  27.965  1.00  0.00     0.074 A 
ATOM     65  C   UNL A   1      46.069  24.656  26.169  1.00  0.00     0.029 A 
ATOM     66  N   UNL A   1      45.809  26.702  27.003  1.00  0.00    -0.354 N 
ATOM     67  N   UNL A   1      46.648  29.444  27.622  1.00  0.00    -0.248 NA
ATOM     68  C   UNL A   1      48.304  31.088  27.716  1.00  0.00     0.031 C 
ATOM     69  C   UNL A   1      47.283  25.339  26.050  1.00  0.00     0.029 A 
ATOM     70  C   UNL A   1      47.116  26.622  26.545  1.00  0.00     0.049 A 
ATOM     71  H   UNL A   1      45.402  27.498  27.414  1.00  0.00     0.167 HD
ATOM     72  C   UNL A   1      47.826  28.935  27.088  1.00  0.00     0.074 A 
ATOM     73  C   UNL A   1      48.802  30.004  27.139  1.00  0.00     0.031 C 
ATOM     74  C   UNL A   1      48.077  27.696  26.598  1.00  0.00     0.037 A 
BRANCH  61  75
ATOM     75  C   UNL A   1      43.290  23.806  26.981  1.00  0.00     0.058 A 
ATOM     76  C   UNL A   1      42.822  23.365  25.733  1.00  0.00     0.135 A 
ATOM     77  C   UNL A   1      43.320  22.874  28.032  1.00  0.00     0.135 A 
ATOM     78  F   UNL A   1      42.757  24.215  24.696  1.00  0.00    -0.206 F 
ATOM     79  C   UNL A   1      42.383  22.059  25.539  1.00  0.00     0.059 A 
ATOM     80  C   UNL A   1      42.914  21.555  27.853  1.00  0.00     0.059 A 
ATOM     81  F   UNL A   1      43.757  23.240  29.247  1.00  0.00    -0.206 F 
ATOM     82  C   UNL A   1      42.436  21.159  26.606  1.00  0.00     0.060 A 
BRANCH  82  83
ATOM     83  S   UNL A   1      41.882  19.464  26.330  1.00  0.00     0.124 S 
ATOM     84  O   UNL A   1      42.222  18.835  27.602  1.00  0.00    -0.237 OA
ATOM     85  O   UNL A   1      40.457  19.641  26.071  1.00  0.00    -0.237 OA
ATOM     86  O   UNL A   1      42.675  19.028  25.184  1.00  0.00    -0.744 OA
ENDBRANCH  82  83
ENDBRANCH  61  75
BRANCH  62  87
ATOM     87  C   UNL A   1      46.497  33.091  28.854  1.00  0.00     0.058 A 
ATOM     88  C   UNL A   1      46.445  34.099  27.880  1.00  0.00     0.135 A 
ATOM     89  C   UNL A   1      47.041  33.421  30.106  1.00  0.00     0.135 A 
ATOM     90  F   UNL A   1      45.939  33.833  26.666  1.00  0.00    -0.206 F 
ATOM     91  C   UNL A   1      46.938  35.377  28.125  1.00  0.00     0.059 A 
ATOM     92  C   UNL A   1      47.514  34.700  30.384  1.00  0.00     0.059 A 
ATOM     93  F   UNL A   1      47.100  32.499  31.080  1.00  0.00    -0.206 F 
ATOM     94  C   UNL A   1      47.471  35.667  29.381  1.00  0.00     0.060 A 
BRANCH  94  95
ATOM     95  S   UNL A   1      48.082  37.337  29.699  1.00  0.00     0.124 S 
ATOM     96  O   UNL A   1      47.215  38.135  28.842  1.00  0.00    -0.237 OA
ATOM     97  O   UNL A   1      47.864  37.473  31.136  1.00  0.00    -0.237 OA
ATOM     98  O   UNL A   1      49.482  37.264  29.290  1.00  0.00    -0.744 OA
ENDBRANCH  94  95
ENDBRANCH  62  87
BRANCH  74  99
ATOM     99  C   UNL A   1      49.452  27.436  26.043  1.00  0.00     0.058 A 
ATOM    100  C   UNL A   1      50.529  27.075  26.868  1.00  0.00     0.135 A 
ATOM    101  C   UNL A   1      49.686  27.512  24.659  1.00  0.00     0.135 A 
ATOM    102  F   UNL A   1      50.363  26.993  28.199  1.00  0.00    -0.206 F 
ATOM    103  C   UNL A   1      51.796  26.832  26.347  1.00  0.00     0.059 A 
ATOM    104  C   UNL A   1      50.936  27.240  24.113  1.00  0.00     0.059 A 
ATOM    105  F   UNL A   1      48.690  27.841  23.823  1.00  0.00    -0.206 F 
ATOM    106  C   UNL A   1      51.989  26.915  24.967  1.00  0.00     0.060 A 
BRANCH 106 107
ATOM    107  S   UNL A   1      53.632  26.575  24.302  1.00  0.00     0.124 S 
ATOM    108  O   UNL A   1      53.997  27.872  23.743  1.00  0.00    -0.237 OA
ATOM    109  O   UNL A   1      54.371  26.166  25.491  1.00  0.00    -0.237 OA
ATOM    110  O   UNL A   1      53.392  25.517  23.325  1.00  0.00    -0.744 OA
ENDBRANCH 106 107
ENDBRANCH  74  99
ENDBRANCH  48  49
ENDBRANCH  40  43
ENDBRANCH  38  39
ENDBRANCH  37  38
ENDBRANCH  36  37
ENDBRANCH   1  36
TORSDOF 20
ENDMDL
MODEL 3
REMARK VINA RESULT:     -11.9      3.548      9.324
REMARK SMILES C[NH+]1CCC2(CC1)OC[C@H](C(=O)NCCCCCCNC(=O)c1ccc(-c3c4nc(c(-c5c(F)cc(S(=O)(=O)[O-])cc5F)c5ccc([nH]5)c(-c5c(F)cc(S(=O)(=O)[O-])cc5F)c5nc(c(-c6c(F)cc(S(=O)(=O)[O-])cc6F)c6ccc3[nH]6)C=C5)C=C4)cc1)N2C(=O)c1cc(C(F)(F)F)cc(C(F)(F)F)c1
REMARK SMILES IDX 16 1 15 2 14 3 13 4 11 5 12 6 10 8 1 9 2 10 3 11 7 12 4 14
REMARK SMILES IDX 6 15 5 16 8 17 89 18 9 19 90 20 91 21 92 22 93 23 105 24
REMARK SMILES IDX 94 25 100 26 99 27 95 28 96 29 97 30 98 31 101 32 102 33
REMARK SMILES IDX 103 34 104 35 17 36 18 37 19 38 20 39 21 40 22 42 23 43
REMARK SMILES IDX 24 44 88 45 25 46 87 47 26 48 27 49 28 50 81 51 29 52 86 53
REMARK SMILES IDX 80 54 82 55 30 56 85 57 79 58 78 59 31 61 65 62 44 63 64 64
REMARK SMILES IDX 45 65 48 66 63 67 83 68 46 69 47 70 62 72 84 73 49 74 32 75
REMARK SMILES IDX 33 76 42 77 34 78 35 79 41 80 43 81 36 82 37 83 38 84 39 85
REMARK SMILES IDX 40 86 66 87 67 88 76 89 68 90 69 91 75 92 77 93 70 94 71 95
REMARK SMILES IDX 72 96 73 97 74 98 50 99 51 100 60 101 52 102 53 103 59 104
REMARK SMILES IDX 61 105 54 106 55 107 56 108 57 109 58 110
REMARK H PARENT 13 7 2 13 20 41 82 60 48 71
REMARK Flexibility Score: inf
ROOT
ATOM      1  C   UNL A   1      31.476  29.078  25.432  1.00  0.00     0.002 C 
ENDROOT
BRANCH   1   2
ATOM      2  C   UNL A   1      30.849  28.155  24.378  1.00  0.00     0.021 C 
BRANCH   2   3
ATOM      3  C   UNL A   1      31.868  27.422  23.509  1.00  0.00     0.116 C 
BRANCH   3   4
ATOM      4  N   UNL A   1      31.381  26.100  23.170  1.00  0.00    -0.354 N 
ATOM      5  C   UNL A   1      31.878  24.887  23.546  1.00  0.00     0.245 C 
ATOM      6  O   UNL A   1      31.525  23.902  22.891  1.00  0.00    -0.273 OA
ATOM      7  H   UNL A   1      30.585  26.073  22.591  1.00  0.00     0.163 HD
BRANCH   5   8
ATOM      8  C   UNL A   1      32.836  24.805  24.752  1.00  0.00     0.203 C 
ATOM      9  C   UNL A   1      32.592  18.513  25.642  1.00  0.00     0.332 C 
ATOM     10  N   UNL A   1      33.285  19.677  25.109  1.00  0.00    -0.337 N 
ATOM     11  C   UNL A   1      32.428  20.448  24.209  1.00  0.00     0.267 C 
ATOM     12  C   UNL A   1      34.029  20.417  26.131  1.00  0.00     0.267 C 
ATOM     13  H   UNL A   1      34.040  19.361  24.500  1.00  0.00     0.347 HD
ATOM     14  C   UNL A   1      31.773  21.657  24.823  1.00  0.00     0.120 C 
ATOM     15  C   UNL A   1      33.469  21.740  26.631  1.00  0.00     0.120 C 
ATOM     16  C   UNL A   1      32.751  22.569  25.572  1.00  0.00     0.155 C 
ATOM     17  O   UNL A   1      31.841  23.416  26.355  1.00  0.00    -0.352 OA
ATOM     18  N   UNL A   1      33.550  23.538  24.779  1.00  0.00    -0.295 N 
ATOM     19  C   UNL A   1      32.093  24.790  26.060  1.00  0.00     0.198 C 
BRANCH  18  20
ATOM     20  C   UNL A   1      34.756  23.538  24.082  1.00  0.00     0.256 C 
ATOM     21  O   UNL A   1      34.868  24.025  22.955  1.00  0.00    -0.269 OA
BRANCH  20  22
ATOM     22  C   UNL A   1      36.014  23.033  24.643  1.00  0.00     0.041 A 
ATOM     23  C   UNL A   1      36.813  23.875  25.428  1.00  0.00     0.027 A 
ATOM     24  C   UNL A   1      36.480  21.772  24.286  1.00  0.00     0.027 A 
ATOM     25  C   UNL A   1      38.016  23.394  25.978  1.00  0.00     0.057 A 
ATOM     26  C   UNL A   1      37.591  21.221  24.937  1.00  0.00     0.057 A 
ATOM     27  C   UNL A   1      38.367  22.049  25.766  1.00  0.00     0.026 A 
BRANCH  25  28
ATOM     28  C   UNL A   1      38.905  24.306  26.789  1.00  0.00     0.416 C 
ATOM     29  F   UNL A   1      39.820  24.959  26.022  1.00  0.00    -0.166 F 
ATOM     30  F   UNL A   1      38.204  25.269  27.448  1.00  0.00    -0.166 F 
ATOM     31  F   UNL A   1      39.621  23.650  27.745  1.00  0.00    -0.166 F 
ENDBRANCH  25  28
BRANCH  26  32
ATOM     32  C   UNL A   1      37.899  19.746  24.831  1.00  0.00     0.416 C 
ATOM     33  F   UNL A   1      38.818  19.337  25.747  1.00  0.00    -0.166 F 
ATOM     34  F   UNL A   1      36.797  18.972  25.050  1.00  0.00    -0.166 F 
ATOM     35  F   UNL A   1      38.385  19.367  23.617  1.00  0.00    -0.166 F 
ENDBRANCH  26  32
ENDBRANCH  20  22
ENDBRANCH  18  20
ENDBRANCH   5   8
ENDBRANCH   3   4
ENDBRANCH   2   3
ENDBRANCH   1   2
BRANCH   1  36
ATOM     36  C   UNL A   1      31.755  28.416  26.785  1.00  0.00     0.002 C 
BRANCH  36  37
ATOM     37  C   UNL A   1      33.236  28.227  27.116  1.00  0.00     0.021 C 
BRANCH  37  38
ATOM     38  C   UNL A   1      34.172  29.225  26.441  1.00  0.00     0.116 C 
BRANCH  38  39
ATOM     39  N   UNL A   1      33.960  30.582  26.914  1.00  0.00    -0.352 N 
ATOM     40  C   UNL A   1      34.641  31.287  27.876  1.00  0.00     0.251 C 
ATOM     41  H   UNL A   1      33.220  31.067  26.482  1.00  0.00     0.163 HD
ATOM     42  O   UNL A   1      34.197  32.357  28.276  1.00  0.00    -0.269 OA
BRANCH  40  43
ATOM     43  C   UNL A   1      35.896  30.742  28.442  1.00  0.00     0.039 A 
ATOM     44  C   UNL A   1      37.114  31.269  28.009  1.00  0.00     0.014 A 
ATOM     45  C   UNL A   1      35.875  29.712  29.389  1.00  0.00     0.014 A 
ATOM     46  C   UNL A   1      38.307  30.807  28.568  1.00  0.00     0.010 A 
ATOM     47  C   UNL A   1      37.060  29.307  30.000  1.00  0.00     0.010 A 
ATOM     48  C   UNL A   1      38.290  29.848  29.596  1.00  0.00    -0.014 A 
BRANCH  48  49
ATOM     49  C   UNL A   1      39.548  29.421  30.264  1.00  0.00     0.031 A 
ATOM     50  C   UNL A   1      40.011  30.097  31.527  1.00  0.00     0.074 A 
ATOM     51  C   UNL A   1      40.298  28.451  29.702  1.00  0.00     0.049 A 
ATOM     52  N   UNL A   1      41.088  29.873  32.234  1.00  0.00    -0.248 NA
ATOM     53  C   UNL A   1      39.165  31.181  32.053  1.00  0.00     0.031 C 
ATOM     54  C   UNL A   1      39.982  27.754  28.453  1.00  0.00     0.029 A 
ATOM     55  N   UNL A   1      41.482  27.884  30.104  1.00  0.00    -0.354 N 
ATOM     56  C   UNL A   1      41.060  30.792  33.277  1.00  0.00     0.074 A 
ATOM     57  C   UNL A   1      39.882  31.610  33.083  1.00  0.00     0.031 C 
ATOM     58  C   UNL A   1      40.926  26.831  28.211  1.00  0.00     0.029 A 
ATOM     59  C   UNL A   1      41.939  26.898  29.260  1.00  0.00     0.049 A 
ATOM     60  H   UNL A   1      41.960  28.158  30.920  1.00  0.00     0.167 HD
ATOM     61  C   UNL A   1      41.923  30.928  34.311  1.00  0.00     0.037 A 
ATOM     62  C   UNL A   1      43.048  26.136  29.321  1.00  0.00     0.037 A 
ATOM     63  C   UNL A   1      43.079  30.093  34.511  1.00  0.00     0.049 A 
ATOM     64  C   UNL A   1      43.995  26.315  30.477  1.00  0.00     0.074 A 
ATOM     65  C   UNL A   1      43.975  30.103  35.567  1.00  0.00     0.029 A 
ATOM     66  N   UNL A   1      43.508  29.104  33.635  1.00  0.00    -0.354 N 
ATOM     67  N   UNL A   1      43.907  27.135  31.498  1.00  0.00    -0.248 NA
ATOM     68  C   UNL A   1      45.191  25.463  30.493  1.00  0.00     0.031 C 
ATOM     69  C   UNL A   1      44.977  29.165  35.301  1.00  0.00     0.029 A 
ATOM     70  C   UNL A   1      44.673  28.524  34.110  1.00  0.00     0.049 A 
ATOM     71  H   UNL A   1      43.052  28.854  32.800  1.00  0.00     0.167 HD
ATOM     72  C   UNL A   1      45.018  26.874  32.292  1.00  0.00     0.074 A 
ATOM     73  C   UNL A   1      45.755  25.810  31.641  1.00  0.00     0.031 C 
ATOM     74  C   UNL A   1      45.395  27.460  33.455  1.00  0.00     0.037 A 
BRANCH  61  75
ATOM     75  C   UNL A   1      41.659  32.021  35.313  1.00  0.00     0.058 A 
ATOM     76  C   UNL A   1      40.731  31.864  36.354  1.00  0.00     0.135 A 
ATOM     77  C   UNL A   1      42.389  33.220  35.265  1.00  0.00     0.135 A 
ATOM     78  F   UNL A   1      39.993  30.745  36.441  1.00  0.00    -0.206 F 
ATOM     79  C   UNL A   1      40.519  32.864  37.298  1.00  0.00     0.059 A 
ATOM     80  C   UNL A   1      42.216  34.221  36.216  1.00  0.00     0.059 A 
ATOM     81  F   UNL A   1      43.290  33.424  34.291  1.00  0.00    -0.206 F 
ATOM     82  C   UNL A   1      41.271  34.039  37.223  1.00  0.00     0.060 A 
BRANCH  82  83
ATOM     83  S   UNL A   1      40.997  35.316  38.469  1.00  0.00     0.124 S 
ATOM     84  O   UNL A   1      41.355  36.524  37.731  1.00  0.00    -0.237 OA
ATOM     85  O   UNL A   1      39.580  35.155  38.773  1.00  0.00    -0.237 OA
ATOM     86  O   UNL A   1      41.913  34.945  39.544  1.00  0.00    -0.744 OA
ENDBRANCH  82  83
ENDBRANCH  61  75
BRANCH  62  87
ATOM     87  C   UNL A   1      43.318  25.118  28.269  1.00  0.00     0.058 A 
ATOM     88  C   UNL A   1      42.903  23.788  28.430  1.00  0.00     0.135 A 
ATOM     89  C   UNL A   1      44.003  25.450  27.089  1.00  0.00     0.135 A 
ATOM     90  F   UNL A   1      42.250  23.419  29.542  1.00  0.00    -0.206 F 
ATOM     91  C   UNL A   1      43.179  22.816  27.472  1.00  0.00     0.059 A 
ATOM     92  C   UNL A   1      44.265  24.503  26.104  1.00  0.00     0.059 A 
ATOM     93  F   UNL A   1      44.407  26.712  26.877  1.00  0.00    -0.206 F 
ATOM     94  C   UNL A   1      43.861  23.184  26.312  1.00  0.00     0.060 A 
BRANCH  94  95
ATOM     95  S   UNL A   1      44.190  21.922  25.063  1.00  0.00     0.124 S 
ATOM     96  O   UNL A   1      43.924  22.653  23.831  1.00  0.00    -0.237 OA
ATOM     97  O   UNL A   1      45.589  21.593  25.323  1.00  0.00    -0.237 OA
ATOM     98  O   UNL A   1      43.235  20.868  25.392  1.00  0.00    -0.744 OA
ENDBRANCH  94  95
ENDBRANCH  62  87
BRANCH  74  99
ATOM     99  C   UNL A   1      46.640  26.941  34.121  1.00  0.00     0.058 A 
ATOM    100  C   UNL A   1      47.905  27.495  33.867  1.00  0.00     0.135 A 
ATOM    101  C   UNL A   1      46.562  25.897  35.060  1.00  0.00     0.135 A 
ATOM    102  F   UNL A   1      48.039  28.491  32.975  1.00  0.00    -0.206 F 
ATOM    103  C   UNL A   1      49.050  27.012  34.491  1.00  0.00     0.059 A 
ATOM    104  C   UNL A   1      47.689  25.421  35.720  1.00  0.00     0.059 A 
ATOM    105  F   UNL A   1      45.377  25.338  35.350  1.00  0.00    -0.206 F 
ATOM    106  C   UNL A   1      48.932  25.976  35.418  1.00  0.00     0.060 A 
BRANCH 106 107
ATOM    107  S   UNL A   1      50.423  25.374  36.237  1.00  0.00     0.124 S 
ATOM    108  O   UNL A   1      49.926  25.081  37.577  1.00  0.00    -0.237 OA
ATOM    109  O   UNL A   1      50.779  24.215  35.425  1.00  0.00    -0.237 OA
ATOM    110  O   UNL A   1      51.343  26.503  36.143  1.00  0.00    -0.744 OA
ENDBRANCH 106 107
ENDBRANCH  74  99
ENDBRANCH  48  49
ENDBRANCH  40  43
ENDBRANCH  38  39
ENDBRANCH  37  38
ENDBRANCH  36  37
ENDBRANCH   1  36
TORSDOF 20
ENDMDL
