MODEL 1
REMARK VINA RESULT:     -11.9      0.000      0.000
REMARK SMILES CCCc1cc2c(cc1Cl)C=C(C(=O)NCCCCCCNC(=O)c1ccc(-c3c4nc(c(-c5c(F)cc(S(=O)(=O)[O-])cc5F)c5ccc([nH]5)c(-c5c(F)cc(S(=O)(=O)[O-])cc5F)c5nc(c(-c6c(F)cc(S(=O)(=O)[O-])cc6F)c6ccc3[nH]6)C=C5)C=C4)cc1)[C@H](C(F)(F)F)O2
REMARK SMILES IDX 19 1 18 2 17 3 16 4 15 5 13 6 14 7 12 9 4 10 5 11 9 12 6 13
REMARK SMILES IDX 8 14 10 15 7 16 96 17 11 18 91 19 3 20 2 21 1 22 92 23 93 24
REMARK SMILES IDX 94 25 95 26 20 27 21 28 22 29 23 30 24 32 25 33 26 34 90 35
REMARK SMILES IDX 27 36 89 37 28 38 29 39 30 40 83 41 31 42 88 43 82 44 84 45
REMARK SMILES IDX 32 46 87 47 81 48 80 49 33 51 67 52 46 53 66 54 47 55 50 56
REMARK SMILES IDX 65 57 85 58 48 59 49 60 64 62 86 63 51 64 34 65 35 66 44 67
REMARK SMILES IDX 36 68 37 69 43 70 45 71 38 72 39 73 40 74 41 75 42 76 68 77
REMARK SMILES IDX 69 78 78 79 70 80 71 81 77 82 79 83 72 84 73 85 74 86 75 87
REMARK SMILES IDX 76 88 52 89 53 90 62 91 54 92 55 93 61 94 63 95 56 96 57 97
REMARK SMILES IDX 58 98 59 99 60 100
REMARK H PARENT 15 8 22 31 84 50 50 61
REMARK Flexibility Score: inf
ROOT
ATOM      1  C   UNL A   1      33.377  28.237  26.622  1.00  0.00     0.002 C 
ENDROOT
BRANCH   1   2
ATOM      2  C   UNL A   1      31.970  28.041  26.045  1.00  0.00     0.002 C 
BRANCH   2   3
ATOM      3  C   UNL A   1      31.139  26.931  26.696  1.00  0.00     0.021 C 
BRANCH   3   4
ATOM      4  C   UNL A   1      30.397  26.037  25.704  1.00  0.00     0.116 C 
BRANCH   4   5
ATOM      5  N   UNL A   1      30.999  26.086  24.381  1.00  0.00    -0.352 N 
ATOM      6  C   UNL A   1      31.774  25.293  23.604  1.00  0.00     0.251 C 
ATOM      7  O   UNL A   1      32.024  25.744  22.480  1.00  0.00    -0.270 OA
ATOM      8  H   UNL A   1      30.783  26.931  23.923  1.00  0.00     0.163 HD
BRANCH   6   9
ATOM      9  C   UNL A   1      32.321  23.957  23.994  1.00  0.00     0.067 C 
ATOM     10  C   UNL A   1      33.240  18.984  24.301  1.00  0.00    -0.026 A 
ATOM     11  C   UNL A   1      33.545  20.105  25.082  1.00  0.00     0.052 A 
ATOM     12  C   UNL A   1      32.584  19.208  23.076  1.00  0.00     0.045 A 
ATOM     13  C   UNL A   1      33.134  21.382  24.705  1.00  0.00     0.128 A 
ATOM     14  C   UNL A   1      32.184  20.497  22.691  1.00  0.00     0.032 A 
ATOM     15  Cl  UNL A   1      32.230  17.912  21.985  1.00  0.00    -0.084 Cl
ATOM     16  C   UNL A   1      32.438  21.589  23.522  1.00  0.00     0.019 A 
ATOM     17  O   UNL A   1      33.409  22.369  25.599  1.00  0.00    -0.475 OA
ATOM     18  C   UNL A   1      31.951  22.927  23.210  1.00  0.00     0.025 C 
ATOM     19  C   UNL A   1      33.267  23.738  25.142  1.00  0.00     0.314 C 
BRANCH  10  20
ATOM     20  C   UNL A   1      33.616  17.586  24.755  1.00  0.00     0.037 C 
BRANCH  20  21
ATOM     21  C   UNL A   1      32.497  16.666  25.273  1.00  0.00     0.001 C 
ATOM     22  C   UNL A   1      32.942  15.224  25.501  1.00  0.00     0.004 C 
ENDBRANCH  20  21
ENDBRANCH  10  20
BRANCH  19  23
ATOM     23  C   UNL A   1      34.666  24.323  24.893  1.00  0.00     0.429 C 
ATOM     24  F   UNL A   1      34.717  25.659  25.090  1.00  0.00    -0.167 F 
ATOM     25  F   UNL A   1      35.569  23.770  25.741  1.00  0.00    -0.167 F 
ATOM     26  F   UNL A   1      35.102  24.099  23.633  1.00  0.00    -0.167 F 
ENDBRANCH  19  23
ENDBRANCH   6   9
ENDBRANCH   4   5
ENDBRANCH   3   4
ENDBRANCH   2   3
ENDBRANCH   1   2
BRANCH   1  27
ATOM     27  C   UNL A   1      33.651  29.606  27.248  1.00  0.00     0.021 C 
BRANCH  27  28
ATOM     28  C   UNL A   1      35.098  29.847  27.663  1.00  0.00     0.116 C 
BRANCH  28  29
ATOM     29  N   UNL A   1      35.204  30.576  28.918  1.00  0.00    -0.352 N 
ATOM     30  C   UNL A   1      36.265  30.645  29.793  1.00  0.00     0.251 C 
ATOM     31  H   UNL A   1      34.406  31.092  29.176  1.00  0.00     0.163 HD
ATOM     32  O   UNL A   1      36.138  31.184  30.880  1.00  0.00    -0.269 OA
BRANCH  30  33
ATOM     33  C   UNL A   1      37.552  30.024  29.407  1.00  0.00     0.039 A 
ATOM     34  C   UNL A   1      38.423  29.538  30.386  1.00  0.00     0.014 A 
ATOM     35  C   UNL A   1      37.906  29.973  28.057  1.00  0.00     0.014 A 
ATOM     36  C   UNL A   1      39.710  29.153  30.028  1.00  0.00     0.010 A 
ATOM     37  C   UNL A   1      39.175  29.513  27.694  1.00  0.00     0.010 A 
ATOM     38  C   UNL A   1      40.105  29.146  28.679  1.00  0.00    -0.014 A 
BRANCH  38  39
ATOM     39  C   UNL A   1      41.500  28.773  28.325  1.00  0.00     0.031 A 
ATOM     40  C   UNL A   1      42.612  29.786  28.423  1.00  0.00     0.074 A 
ATOM     41  C   UNL A   1      41.772  27.503  27.970  1.00  0.00     0.049 A 
ATOM     42  N   UNL A   1      43.884  29.640  28.153  1.00  0.00    -0.248 NA
ATOM     43  C   UNL A   1      42.250  31.136  28.884  1.00  0.00     0.031 C 
ATOM     44  C   UNL A   1      40.782  26.429  27.860  1.00  0.00     0.029 A 
ATOM     45  N   UNL A   1      42.961  26.893  27.660  1.00  0.00    -0.354 N 
ATOM     46  C   UNL A   1      44.471  30.876  28.393  1.00  0.00     0.074 A 
ATOM     47  C   UNL A   1      43.412  31.771  28.806  1.00  0.00     0.031 C 
ATOM     48  C   UNL A   1      41.410  25.283  27.557  1.00  0.00     0.029 A 
ATOM     49  C   UNL A   1      42.835  25.551  27.392  1.00  0.00     0.049 A 
ATOM     50  H   UNL A   1      43.821  27.370  27.633  1.00  0.00     0.167 HD
ATOM     51  C   UNL A   1      45.775  31.230  28.290  1.00  0.00     0.037 A 
ATOM     52  C   UNL A   1      43.760  24.639  27.038  1.00  0.00     0.037 A 
ATOM     53  C   UNL A   1      46.830  30.330  27.899  1.00  0.00     0.049 A 
ATOM     54  C   UNL A   1      45.190  25.066  26.888  1.00  0.00     0.074 A 
ATOM     55  C   UNL A   1      48.183  30.593  27.772  1.00  0.00     0.029 A 
ATOM     56  N   UNL A   1      46.652  28.992  27.577  1.00  0.00    -0.354 N 
ATOM     57  N   UNL A   1      45.723  26.246  27.099  1.00  0.00    -0.248 NA
ATOM     58  C   UNL A   1      46.145  24.044  26.437  1.00  0.00     0.031 C 
ATOM     59  C   UNL A   1      48.818  29.423  27.342  1.00  0.00     0.029 A 
ATOM     60  C   UNL A   1      47.868  28.421  27.238  1.00  0.00     0.049 A 
ATOM     61  H   UNL A   1      45.789  28.519  27.588  1.00  0.00     0.167 HD
ATOM     62  C   UNL A   1      47.075  26.108  26.812  1.00  0.00     0.074 A 
ATOM     63  C   UNL A   1      47.284  24.725  26.432  1.00  0.00     0.031 C 
ATOM     64  C   UNL A   1      48.055  27.045  26.853  1.00  0.00     0.037 A 
BRANCH  51  65
ATOM     65  C   UNL A   1      46.142  32.656  28.598  1.00  0.00     0.058 A 
ATOM     66  C   UNL A   1      46.148  33.645  27.602  1.00  0.00     0.135 A 
ATOM     67  C   UNL A   1      46.441  33.049  29.913  1.00  0.00     0.135 A 
ATOM     68  F   UNL A   1      45.888  33.321  26.326  1.00  0.00    -0.206 F 
ATOM     69  C   UNL A   1      46.455  34.969  27.895  1.00  0.00     0.059 A 
ATOM     70  C   UNL A   1      46.730  34.373  30.234  1.00  0.00     0.059 A 
ATOM     71  F   UNL A   1      46.449  32.143  30.903  1.00  0.00    -0.206 F 
ATOM     72  C   UNL A   1      46.745  35.325  29.215  1.00  0.00     0.060 A 
BRANCH  72  73
ATOM     73  S   UNL A   1      47.133  37.050  29.577  1.00  0.00     0.124 S 
ATOM     74  O   UNL A   1      46.098  37.746  28.818  1.00  0.00    -0.237 OA
ATOM     75  O   UNL A   1      46.995  37.102  31.029  1.00  0.00    -0.237 OA
ATOM     76  O   UNL A   1      48.493  37.207  29.073  1.00  0.00    -0.744 OA
ENDBRANCH  72  73
ENDBRANCH  51  65
BRANCH  52  77
ATOM     77  C   UNL A   1      43.349  23.231  26.800  1.00  0.00     0.058 A 
ATOM     78  C   UNL A   1      43.304  22.702  25.503  1.00  0.00     0.135 A 
ATOM     79  C   UNL A   1      43.037  22.375  27.869  1.00  0.00     0.135 A 
ATOM     80  F   UNL A   1      43.586  23.485  24.450  1.00  0.00    -0.206 F 
ATOM     81  C   UNL A   1      42.965  21.374  25.270  1.00  0.00     0.059 A 
ATOM     82  C   UNL A   1      42.719  21.037  27.663  1.00  0.00     0.059 A 
ATOM     83  F   UNL A   1      43.079  22.831  29.130  1.00  0.00    -0.206 F 
ATOM     84  C   UNL A   1      42.681  20.547  26.358  1.00  0.00     0.060 A 
BRANCH  84  85
ATOM     85  S   UNL A   1      42.314  18.806  26.050  1.00  0.00     0.124 S 
ATOM     86  O   UNL A   1      43.260  18.491  24.985  1.00  0.00    -0.237 OA
ATOM     87  O   UNL A   1      42.589  18.200  27.349  1.00  0.00    -0.237 OA
ATOM     88  O   UNL A   1      40.907  18.824  25.661  1.00  0.00    -0.744 OA
ENDBRANCH  84  85
ENDBRANCH  52  77
BRANCH  64  89
ATOM     89  C   UNL A   1      49.442  26.604  26.482  1.00  0.00     0.058 A 
ATOM     90  C   UNL A   1      50.279  25.968  27.411  1.00  0.00     0.135 A 
ATOM     91  C   UNL A   1      49.919  26.771  25.172  1.00  0.00     0.135 A 
ATOM     92  F   UNL A   1      49.871  25.792  28.678  1.00  0.00    -0.206 F 
ATOM     93  C   UNL A   1      51.550  25.529  27.060  1.00  0.00     0.059 A 
ATOM     94  C   UNL A   1      51.179  26.319  24.793  1.00  0.00     0.059 A 
ATOM     95  F   UNL A   1      49.152  27.365  24.244  1.00  0.00    -0.206 F 
ATOM     96  C   UNL A   1      51.992  25.708  25.748  1.00  0.00     0.060 A 
BRANCH  96  97
ATOM     97  S   UNL A   1      53.632  25.102  25.297  1.00  0.00     0.124 S 
ATOM     98  O   UNL A   1      53.456  23.659  25.428  1.00  0.00    -0.237 OA
ATOM     99  O   UNL A   1      53.786  25.601  23.934  1.00  0.00    -0.237 OA
ATOM    100  O   UNL A   1      54.506  25.721  26.287  1.00  0.00    -0.744 OA
ENDBRANCH  96  97
ENDBRANCH  64  89
ENDBRANCH  38  39
ENDBRANCH  30  33
ENDBRANCH  28  29
ENDBRANCH  27  28
ENDBRANCH   1  27
TORSDOF 19
ENDMDL
MODEL 2
REMARK VINA RESULT:     -11.8      1.767      2.660
REMARK SMILES CCCc1cc2c(cc1Cl)C=C(C(=O)NCCCCCCNC(=O)c1ccc(-c3c4nc(c(-c5c(F)cc(S(=O)(=O)[O-])cc5F)c5ccc([nH]5)c(-c5c(F)cc(S(=O)(=O)[O-])cc5F)c5nc(c(-c6c(F)cc(S(=O)(=O)[O-])cc6F)c6ccc3[nH]6)C=C5)C=C4)cc1)[C@H](C(F)(F)F)O2
REMARK SMILES IDX 19 1 18 2 17 3 16 4 15 5 13 6 14 7 12 9 4 10 5 11 9 12 6 13
REMARK SMILES IDX 8 14 10 15 7 16 96 17 11 18 91 19 3 20 2 21 1 22 92 23 93 24
REMARK SMILES IDX 94 25 95 26 20 27 21 28 22 29 23 30 24 32 25 33 26 34 90 35
REMARK SMILES IDX 27 36 89 37 28 38 29 39 30 40 83 41 31 42 88 43 82 44 84 45
REMARK SMILES IDX 32 46 87 47 81 48 80 49 33 51 67 52 46 53 66 54 47 55 50 56
REMARK SMILES IDX 65 57 85 58 48 59 49 60 64 62 86 63 51 64 34 65 35 66 44 67
REMARK SMILES IDX 36 68 37 69 43 70 45 71 38 72 39 73 40 74 41 75 42 76 68 77
REMARK SMILES IDX 69 78 78 79 70 80 71 81 77 82 79 83 72 84 73 85 74 86 75 87
REMARK SMILES IDX 76 88 52 89 53 90 62 91 54 92 55 93 61 94 63 95 56 96 57 97
REMARK SMILES IDX 58 98 59 99 60 100
REMARK H PARENT 15 8 22 31 84 50 50 61
REMARK Flexibility Score: inf
ROOT
ATOM      1  C   UNL A   1      34.996  29.901  27.388  1.00  0.00     0.002 C 
ENDROOT
BRANCH   1   2
ATOM      2  C   UNL A   1      33.619  29.275  27.135  1.00  0.00     0.002 C 
BRANCH   2   3
ATOM      3  C   UNL A   1      32.502  30.259  26.776  1.00  0.00     0.021 C 
BRANCH   3   4
ATOM      4  C   UNL A   1      31.728  29.896  25.510  1.00  0.00     0.116 C 
BRANCH   4   5
ATOM      5  N   UNL A   1      32.618  29.649  24.387  1.00  0.00    -0.352 N 
ATOM      6  C   UNL A   1      33.028  28.591  23.648  1.00  0.00     0.251 C 
ATOM      7  O   UNL A   1      33.800  28.866  22.722  1.00  0.00    -0.270 OA
ATOM      8  H   UNL A   1      33.039  30.484  24.077  1.00  0.00     0.163 HD
BRANCH   6   9
ATOM      9  C   UNL A   1      32.622  27.169  23.863  1.00  0.00     0.067 C 
ATOM     10  C   UNL A   1      32.500  22.316  25.317  1.00  0.00    -0.026 A 
ATOM     11  C   UNL A   1      31.795  23.100  24.396  1.00  0.00     0.052 A 
ATOM     12  C   UNL A   1      33.442  22.969  26.135  1.00  0.00     0.045 A 
ATOM     13  C   UNL A   1      32.079  24.454  24.233  1.00  0.00     0.128 A 
ATOM     14  C   UNL A   1      33.717  24.337  25.978  1.00  0.00     0.032 A 
ATOM     15  Cl  UNL A   1      34.314  22.125  27.367  1.00  0.00    -0.084 Cl
ATOM     16  C   UNL A   1      33.048  25.080  25.004  1.00  0.00     0.019 A 
ATOM     17  O   UNL A   1      31.390  25.077  23.239  1.00  0.00    -0.475 OA
ATOM     18  C   UNL A   1      33.375  26.476  24.739  1.00  0.00     0.025 C 
ATOM     19  C   UNL A   1      31.429  26.526  23.211  1.00  0.00     0.314 C 
BRANCH  10  20
ATOM     20  C   UNL A   1      32.246  20.826  25.435  1.00  0.00     0.037 C 
BRANCH  20  21
ATOM     21  C   UNL A   1      32.975  19.886  24.458  1.00  0.00     0.001 C 
ATOM     22  C   UNL A   1      34.471  19.758  24.727  1.00  0.00     0.004 C 
ENDBRANCH  20  21
ENDBRANCH  10  20
BRANCH  19  23
ATOM     23  C   UNL A   1      30.089  27.066  23.733  1.00  0.00     0.429 C 
ATOM     24  F   UNL A   1      29.045  26.263  23.427  1.00  0.00    -0.167 F 
ATOM     25  F   UNL A   1      30.115  27.172  25.085  1.00  0.00    -0.167 F 
ATOM     26  F   UNL A   1      29.797  28.289  23.235  1.00  0.00    -0.167 F 
ENDBRANCH  19  23
ENDBRANCH   6   9
ENDBRANCH   4   5
ENDBRANCH   3   4
ENDBRANCH   2   3
ENDBRANCH   1   2
BRANCH   1  27
ATOM     27  C   UNL A   1      34.998  31.406  27.662  1.00  0.00     0.021 C 
BRANCH  27  28
ATOM     28  C   UNL A   1      35.912  31.853  28.798  1.00  0.00     0.116 C 
BRANCH  28  29
ATOM     29  N   UNL A   1      35.680  31.110  30.026  1.00  0.00    -0.352 N 
ATOM     30  C   UNL A   1      36.519  30.237  30.683  1.00  0.00     0.251 C 
ATOM     31  H   UNL A   1      34.801  31.251  30.447  1.00  0.00     0.163 HD
ATOM     32  O   UNL A   1      36.113  29.580  31.628  1.00  0.00    -0.269 OA
BRANCH  30  33
ATOM     33  C   UNL A   1      37.911  30.083  30.202  1.00  0.00     0.039 A 
ATOM     34  C   UNL A   1      38.167  29.809  28.857  1.00  0.00     0.014 A 
ATOM     35  C   UNL A   1      38.960  30.168  31.120  1.00  0.00     0.014 A 
ATOM     36  C   UNL A   1      39.454  29.460  28.462  1.00  0.00     0.010 A 
ATOM     37  C   UNL A   1      40.265  29.891  30.703  1.00  0.00     0.010 A 
ATOM     38  C   UNL A   1      40.516  29.486  29.382  1.00  0.00    -0.014 A 
BRANCH  38  39
ATOM     39  C   UNL A   1      41.873  29.065  28.947  1.00  0.00     0.031 A 
ATOM     40  C   UNL A   1      43.038  30.018  29.041  1.00  0.00     0.074 A 
ATOM     41  C   UNL A   1      42.067  27.803  28.520  1.00  0.00     0.049 A 
ATOM     42  N   UNL A   1      44.288  29.826  28.705  1.00  0.00    -0.248 NA
ATOM     43  C   UNL A   1      42.764  31.360  29.580  1.00  0.00     0.031 C 
ATOM     44  C   UNL A   1      41.021  26.783  28.405  1.00  0.00     0.029 A 
ATOM     45  N   UNL A   1      43.209  27.152  28.128  1.00  0.00    -0.354 N 
ATOM     46  C   UNL A   1      44.945  31.020  28.975  1.00  0.00     0.074 A 
ATOM     47  C   UNL A   1      43.951  31.942  29.478  1.00  0.00     0.031 C 
ATOM     48  C   UNL A   1      41.578  25.625  28.021  1.00  0.00     0.029 A 
ATOM     49  C   UNL A   1      43.005  25.833  27.803  1.00  0.00     0.049 A 
ATOM     50  H   UNL A   1      44.090  27.589  28.083  1.00  0.00     0.167 HD
ATOM     51  C   UNL A   1      46.259  31.315  28.829  1.00  0.00     0.037 A 
ATOM     52  C   UNL A   1      43.867  24.896  27.364  1.00  0.00     0.037 A 
ATOM     53  C   UNL A   1      47.250  30.387  28.348  1.00  0.00     0.049 A 
ATOM     54  C   UNL A   1      45.310  25.262  27.168  1.00  0.00     0.074 A 
ATOM     55  C   UNL A   1      48.608  30.591  28.171  1.00  0.00     0.029 A 
ATOM     56  N   UNL A   1      46.992  29.077  27.972  1.00  0.00    -0.354 N 
ATOM     57  N   UNL A   1      45.909  26.404  27.409  1.00  0.00    -0.248 NA
ATOM     58  C   UNL A   1      46.192  24.220  26.626  1.00  0.00     0.031 C 
ATOM     59  C   UNL A   1      49.165  29.415  27.658  1.00  0.00     0.029 A 
ATOM     60  C   UNL A   1      48.162  28.466  27.551  1.00  0.00     0.049 A 
ATOM     61  H   UNL A   1      46.108  28.644  28.001  1.00  0.00     0.167 HD
ATOM     62  C   UNL A   1      47.238  26.216  27.055  1.00  0.00     0.074 A 
ATOM     63  C   UNL A   1      47.362  24.845  26.601  1.00  0.00     0.031 C 
ATOM     64  C   UNL A   1      48.264  27.103  27.094  1.00  0.00     0.037 A 
BRANCH  51  65
ATOM     65  C   UNL A   1      46.709  32.706  29.186  1.00  0.00     0.058 A 
ATOM     66  C   UNL A   1      47.165  33.023  30.475  1.00  0.00     0.135 A 
ATOM     67  C   UNL A   1      46.732  33.722  28.215  1.00  0.00     0.135 A 
ATOM     68  F   UNL A   1      47.147  32.095  31.445  1.00  0.00    -0.206 F 
ATOM     69  C   UNL A   1      47.612  34.300  30.794  1.00  0.00     0.059 A 
ATOM     70  C   UNL A   1      47.196  35.002  28.507  1.00  0.00     0.059 A 
ATOM     71  F   UNL A   1      46.305  33.472  26.968  1.00  0.00    -0.206 F 
ATOM     72  C   UNL A   1      47.624  35.284  29.803  1.00  0.00     0.060 A 
BRANCH  72  73
ATOM     73  S   UNL A   1      48.215  36.934  30.234  1.00  0.00     0.124 S 
ATOM     74  O   UNL A   1      49.228  37.158  29.206  1.00  0.00    -0.237 OA
ATOM     75  O   UNL A   1      47.004  37.740  30.114  1.00  0.00    -0.237 OA
ATOM     76  O   UNL A   1      48.725  36.771  31.591  1.00  0.00    -0.744 OA
ENDBRANCH  72  73
ENDBRANCH  51  65
BRANCH  52  77
ATOM     77  C   UNL A   1      43.377  23.523  27.080  1.00  0.00     0.058 A 
ATOM     78  C   UNL A   1      43.153  23.096  25.764  1.00  0.00     0.135 A 
ATOM     79  C   UNL A   1      43.168  22.598  28.115  1.00  0.00     0.135 A 
ATOM     80  F   UNL A   1      43.332  23.948  24.743  1.00  0.00    -0.206 F 
ATOM     81  C   UNL A   1      42.738  21.799  25.481  1.00  0.00     0.059 A 
ATOM     82  C   UNL A   1      42.777  21.289  27.856  1.00  0.00     0.059 A 
ATOM     83  F   UNL A   1      43.383  22.956  29.390  1.00  0.00    -0.206 F 
ATOM     84  C   UNL A   1      42.560  20.900  26.535  1.00  0.00     0.060 A 
BRANCH  84  85
ATOM     85  S   UNL A   1      42.092  19.199  26.151  1.00  0.00     0.124 S 
ATOM     86  O   UNL A   1      42.463  18.508  27.381  1.00  0.00    -0.237 OA
ATOM     87  O   UNL A   1      40.660  19.325  25.896  1.00  0.00    -0.237 OA
ATOM     88  O   UNL A   1      42.904  18.884  24.980  1.00  0.00    -0.744 OA
ENDBRANCH  84  85
ENDBRANCH  52  77
BRANCH  64  89
ATOM     89  C   UNL A   1      49.610  26.615  26.638  1.00  0.00     0.058 A 
ATOM     90  C   UNL A   1      50.510  26.017  27.532  1.00  0.00     0.135 A 
ATOM     91  C   UNL A   1      49.982  26.701  25.288  1.00  0.00     0.135 A 
ATOM     92  F   UNL A   1      50.203  25.919  28.836  1.00  0.00    -0.206 F 
ATOM     93  C   UNL A   1      51.742  25.535  27.107  1.00  0.00     0.059 A 
ATOM     94  C   UNL A   1      51.201  26.205  24.835  1.00  0.00     0.059 A 
ATOM     95  F   UNL A   1      49.152  27.257  24.391  1.00  0.00    -0.206 F 
ATOM     96  C   UNL A   1      52.079  25.632  25.755  1.00  0.00     0.060 A 
BRANCH  96  97
ATOM     97  S   UNL A   1      53.668  24.970  25.210  1.00  0.00     0.124 S 
ATOM     98  O   UNL A   1      54.514  25.251  26.365  1.00  0.00    -0.237 OA
ATOM     99  O   UNL A   1      53.357  23.563  24.978  1.00  0.00    -0.237 OA
ATOM    100  O   UNL A   1      53.965  25.746  24.010  1.00  0.00    -0.744 OA
ENDBRANCH  96  97
ENDBRANCH  64  89
ENDBRANCH  38  39
ENDBRANCH  30  33
ENDBRANCH  28  29
ENDBRANCH  27  28
ENDBRANCH   1  27
TORSDOF 19
ENDMDL
MODEL 3
REMARK VINA RESULT:     -11.7      6.629     11.621
REMARK SMILES CCCc1cc2c(cc1Cl)C=C(C(=O)NCCCCCCNC(=O)c1ccc(-c3c4nc(c(-c5c(F)cc(S(=O)(=O)[O-])cc5F)c5ccc([nH]5)c(-c5c(F)cc(S(=O)(=O)[O-])cc5F)c5nc(c(-c6c(F)cc(S(=O)(=O)[O-])cc6F)c6ccc3[nH]6)C=C5)C=C4)cc1)[C@H](C(F)(F)F)O2
REMARK SMILES IDX 19 1 18 2 17 3 16 4 15 5 13 6 14 7 12 9 4 10 5 11 9 12 6 13
REMARK SMILES IDX 8 14 10 15 7 16 96 17 11 18 91 19 3 20 2 21 1 22 92 23 93 24
REMARK SMILES IDX 94 25 95 26 20 27 21 28 22 29 23 30 24 32 25 33 26 34 90 35
REMARK SMILES IDX 27 36 89 37 28 38 29 39 30 40 83 41 31 42 88 43 82 44 84 45
REMARK SMILES IDX 32 46 87 47 81 48 80 49 33 51 67 52 46 53 66 54 47 55 50 56
REMARK SMILES IDX 65 57 85 58 48 59 49 60 64 62 86 63 51 64 34 65 35 66 44 67
REMARK SMILES IDX 36 68 37 69 43 70 45 71 38 72 39 73 40 74 41 75 42 76 68 77
REMARK SMILES IDX 69 78 78 79 70 80 71 81 77 82 79 83 72 84 73 85 74 86 75 87
REMARK SMILES IDX 76 88 52 89 53 90 62 91 54 92 55 93 61 94 63 95 56 96 57 97
REMARK SMILES IDX 58 98 59 99 60 100
REMARK H PARENT 15 8 22 31 84 50 50 61
REMARK Flexibility Score: inf
ROOT
ATOM      1  C   UNL A   1      36.972  23.655  25.415  1.00  0.00     0.002 C 
ENDROOT
BRANCH   1   2
ATOM      2  C   UNL A   1      35.674  23.337  26.168  1.00  0.00     0.002 C 
BRANCH   2   3
ATOM      3  C   UNL A   1      35.455  21.861  26.512  1.00  0.00     0.021 C 
BRANCH   3   4
ATOM      4  C   UNL A   1      34.180  21.582  27.305  1.00  0.00     0.116 C 
BRANCH   4   5
ATOM      5  N   UNL A   1      33.138  21.011  26.467  1.00  0.00    -0.352 N 
ATOM      6  C   UNL A   1      32.277  21.436  25.513  1.00  0.00     0.251 C 
ATOM      7  O   UNL A   1      31.562  20.555  25.023  1.00  0.00    -0.270 OA
ATOM      8  H   UNL A   1      33.027  20.049  26.643  1.00  0.00     0.163 HD
BRANCH   6   9
ATOM      9  C   UNL A   1      32.141  22.843  25.025  1.00  0.00     0.067 C 
ATOM     10  C   UNL A   1      31.370  27.844  24.764  1.00  0.00    -0.026 A 
ATOM     11  C   UNL A   1      31.488  26.803  23.836  1.00  0.00     0.052 A 
ATOM     12  C   UNL A   1      31.575  27.527  26.121  1.00  0.00     0.045 A 
ATOM     13  C   UNL A   1      31.709  25.490  24.246  1.00  0.00     0.128 A 
ATOM     14  C   UNL A   1      31.812  26.206  26.531  1.00  0.00     0.032 A 
ATOM     15  Cl  UNL A   1      31.539  28.742  27.352  1.00  0.00    -0.084 Cl
ATOM     16  C   UNL A   1      31.856  25.176  25.590  1.00  0.00     0.019 A 
ATOM     17  O   UNL A   1      31.707  24.561  23.253  1.00  0.00    -0.475 OA
ATOM     18  C   UNL A   1      31.997  23.779  25.982  1.00  0.00     0.025 C 
ATOM     19  C   UNL A   1      32.210  23.241  23.576  1.00  0.00     0.314 C 
BRANCH  10  20
ATOM     20  C   UNL A   1      31.047  29.258  24.320  1.00  0.00     0.037 C 
BRANCH  20  21
ATOM     21  C   UNL A   1      29.776  29.483  23.483  1.00  0.00     0.001 C 
ATOM     22  C   UNL A   1      30.050  29.726  22.002  1.00  0.00     0.004 C 
ENDBRANCH  20  21
ENDBRANCH  10  20
BRANCH  19  23
ATOM     23  C   UNL A   1      33.614  23.086  22.972  1.00  0.00     0.429 C 
ATOM     24  F   UNL A   1      33.596  22.988  21.623  1.00  0.00    -0.167 F 
ATOM     25  F   UNL A   1      34.381  24.163  23.273  1.00  0.00    -0.167 F 
ATOM     26  F   UNL A   1      34.256  21.988  23.432  1.00  0.00    -0.167 F 
ENDBRANCH  19  23
ENDBRANCH   6   9
ENDBRANCH   4   5
ENDBRANCH   3   4
ENDBRANCH   2   3
ENDBRANCH   1   2
BRANCH   1  27
ATOM     27  C   UNL A   1      38.267  23.364  26.176  1.00  0.00     0.021 C 
BRANCH  27  28
ATOM     28  C   UNL A   1      39.048  24.597  26.614  1.00  0.00     0.116 C 
BRANCH  28  29
ATOM     29  N   UNL A   1      40.239  24.820  25.809  1.00  0.00    -0.352 N 
ATOM     30  C   UNL A   1      41.275  25.701  26.019  1.00  0.00     0.251 C 
ATOM     31  H   UNL A   1      40.313  24.261  25.001  1.00  0.00     0.163 HD
ATOM     32  O   UNL A   1      42.130  25.869  25.163  1.00  0.00    -0.269 OA
BRANCH  30  33
ATOM     33  C   UNL A   1      41.317  26.469  27.284  1.00  0.00     0.039 A 
ATOM     34  C   UNL A   1      40.573  26.050  28.389  1.00  0.00     0.014 A 
ATOM     35  C   UNL A   1      42.072  27.643  27.342  1.00  0.00     0.014 A 
ATOM     36  C   UNL A   1      40.455  26.886  29.493  1.00  0.00     0.010 A 
ATOM     37  C   UNL A   1      42.010  28.445  28.485  1.00  0.00     0.010 A 
ATOM     38  C   UNL A   1      41.163  28.099  29.550  1.00  0.00    -0.014 A 
BRANCH  38  39
ATOM     39  C   UNL A   1      40.985  28.998  30.720  1.00  0.00     0.031 A 
ATOM     40  C   UNL A   1      39.886  30.029  30.735  1.00  0.00     0.074 A 
ATOM     41  C   UNL A   1      41.781  28.844  31.795  1.00  0.00     0.049 A 
ATOM     42  N   UNL A   1      39.585  30.899  31.666  1.00  0.00    -0.248 NA
ATOM     43  C   UNL A   1      39.012  30.094  29.552  1.00  0.00     0.031 C 
ATOM     44  C   UNL A   1      42.867  27.866  31.906  1.00  0.00     0.029 A 
ATOM     45  N   UNL A   1      41.789  29.487  33.007  1.00  0.00    -0.354 N 
ATOM     46  C   UNL A   1      38.504  31.622  31.179  1.00  0.00     0.074 A 
ATOM     47  C   UNL A   1      38.215  31.109  29.857  1.00  0.00     0.031 C 
ATOM     48  C   UNL A   1      43.399  27.940  33.136  1.00  0.00     0.029 A 
ATOM     49  C   UNL A   1      42.738  29.009  33.877  1.00  0.00     0.049 A 
ATOM     50  H   UNL A   1      41.173  30.222  33.231  1.00  0.00     0.167 HD
ATOM     51  C   UNL A   1      37.807  32.615  31.783  1.00  0.00     0.037 A 
ATOM     52  C   UNL A   1      43.053  29.395  35.128  1.00  0.00     0.037 A 
ATOM     53  C   UNL A   1      38.084  33.108  33.109  1.00  0.00     0.049 A 
ATOM     54  C   UNL A   1      42.295  30.527  35.758  1.00  0.00     0.074 A 
ATOM     55  C   UNL A   1      37.430  34.106  33.810  1.00  0.00     0.029 A 
ATOM     56  N   UNL A   1      39.094  32.637  33.935  1.00  0.00    -0.354 N 
ATOM     57  N   UNL A   1      41.288  31.213  35.273  1.00  0.00    -0.248 NA
ATOM     58  C   UNL A   1      42.724  30.948  37.099  1.00  0.00     0.031 C 
ATOM     59  C   UNL A   1      38.064  34.261  35.047  1.00  0.00     0.029 A 
ATOM     60  C   UNL A   1      39.090  33.333  35.132  1.00  0.00     0.049 A 
ATOM     61  H   UNL A   1      39.721  31.914  33.704  1.00  0.00     0.167 HD
ATOM     62  C   UNL A   1      40.959  32.144  36.250  1.00  0.00     0.074 A 
ATOM     63  C   UNL A   1      41.861  31.920  37.363  1.00  0.00     0.031 C 
ATOM     64  C   UNL A   1      40.001  33.103  36.225  1.00  0.00     0.037 A 
BRANCH  51  65
ATOM     65  C   UNL A   1      36.676  33.245  31.017  1.00  0.00     0.058 A 
ATOM     66  C   UNL A   1      35.335  32.976  31.332  1.00  0.00     0.135 A 
ATOM     67  C   UNL A   1      36.936  34.168  29.990  1.00  0.00     0.135 A 
ATOM     68  F   UNL A   1      35.031  32.089  32.292  1.00  0.00    -0.206 F 
ATOM     69  C   UNL A   1      34.291  33.586  30.645  1.00  0.00     0.059 A 
ATOM     70  C   UNL A   1      35.907  34.806  29.303  1.00  0.00     0.059 A 
ATOM     71  F   UNL A   1      38.200  34.460  29.648  1.00  0.00    -0.206 F 
ATOM     72  C   UNL A   1      34.586  34.501  29.631  1.00  0.00     0.060 A 
BRANCH  72  73
ATOM     73  S   UNL A   1      33.218  35.287  28.756  1.00  0.00     0.124 S 
ATOM     74  O   UNL A   1      33.928  36.223  27.888  1.00  0.00    -0.237 OA
ATOM     75  O   UNL A   1      32.586  34.156  28.083  1.00  0.00    -0.237 OA
ATOM     76  O   UNL A   1      32.433  35.896  29.824  1.00  0.00    -0.744 OA
ENDBRANCH  72  73
ENDBRANCH  51  65
BRANCH  52  77
ATOM     77  C   UNL A   1      44.143  28.698  35.858  1.00  0.00     0.058 A 
ATOM     78  C   UNL A   1      43.866  27.619  36.709  1.00  0.00     0.135 A 
ATOM     79  C   UNL A   1      45.486  29.070  35.685  1.00  0.00     0.135 A 
ATOM     80  F   UNL A   1      42.597  27.234  36.911  1.00  0.00    -0.206 F 
ATOM     81  C   UNL A   1      44.881  26.930  37.363  1.00  0.00     0.059 A 
ATOM     82  C   UNL A   1      46.520  28.381  36.309  1.00  0.00     0.059 A 
ATOM     83  F   UNL A   1      45.802  30.088  34.871  1.00  0.00    -0.206 F 
ATOM     84  C   UNL A   1      46.207  27.314  37.151  1.00  0.00     0.060 A 
BRANCH  84  85
ATOM     85  S   UNL A   1      47.521  26.367  37.947  1.00  0.00     0.124 S 
ATOM     86  O   UNL A   1      47.183  26.524  39.358  1.00  0.00    -0.237 OA
ATOM     87  O   UNL A   1      47.321  25.034  37.386  1.00  0.00    -0.237 OA
ATOM     88  O   UNL A   1      48.737  27.046  37.510  1.00  0.00    -0.744 OA
ENDBRANCH  84  85
ENDBRANCH  52  77
BRANCH  64  89
ATOM     89  C   UNL A   1      39.875  33.979  37.438  1.00  0.00     0.058 A 
ATOM     90  C   UNL A   1      40.606  35.170  37.558  1.00  0.00     0.135 A 
ATOM     91  C   UNL A   1      38.977  33.653  38.467  1.00  0.00     0.135 A 
ATOM     92  F   UNL A   1      41.484  35.522  36.605  1.00  0.00    -0.206 F 
ATOM     93  C   UNL A   1      40.466  35.999  38.665  1.00  0.00     0.059 A 
ATOM     94  C   UNL A   1      38.803  34.478  39.572  1.00  0.00     0.059 A 
ATOM     95  F   UNL A   1      38.246  32.528  38.395  1.00  0.00    -0.206 F 
ATOM     96  C   UNL A   1      39.561  35.646  39.667  1.00  0.00     0.060 A 
BRANCH  96  97
ATOM     97  S   UNL A   1      39.363  36.750  41.082  1.00  0.00     0.124 S 
ATOM     98  O   UNL A   1      38.681  37.887  40.473  1.00  0.00    -0.237 OA
ATOM     99  O   UNL A   1      38.560  35.945  41.997  1.00  0.00    -0.237 OA
ATOM    100  O   UNL A   1      40.734  36.997  41.514  1.00  0.00    -0.744 OA
ENDBRANCH  96  97
ENDBRANCH  64  89
ENDBRANCH  38  39
ENDBRANCH  30  33
ENDBRANCH  28  29
ENDBRANCH  27  28
ENDBRANCH   1  27
TORSDOF 19
ENDMDL
