MODEL 1
REMARK VINA RESULT:     -10.9      0.000      0.000
REMARK SMILES CC(C)C[C@H](NC(=O)[C@](C)([NH3+])C(F)(F)F)C(=O)NCCCCCCNC(=O)c1ccc(-c2c3nc(c(-c4c(F)cc(S(=O)(=O)[O-])cc4F)c4ccc([nH]4)c(-c4c(F)cc(S(=O)(=O)[O-])cc4F)c4nc(c(-c5c(F)cc(S(=O)(=O)[O-])cc5F)c5ccc2[nH]5)C=C4)C=C3)cc1
REMARK SMILES IDX 21 1 20 2 19 3 18 4 16 5 17 6 5 8 4 9 2 10 1 11 3 12 6 13
REMARK SMILES IDX 7 14 8 16 9 17 10 18 11 19 12 23 13 24 14 25 15 26 22 27
REMARK SMILES IDX 23 28 24 29 25 30 26 31 27 33 28 34 29 35 93 36 30 37 92 38
REMARK SMILES IDX 31 39 32 40 33 41 86 42 34 43 91 44 85 45 87 46 35 47 90 48
REMARK SMILES IDX 84 49 83 50 36 52 70 53 49 54 69 55 50 56 53 57 68 58 88 59
REMARK SMILES IDX 51 60 52 61 67 63 89 64 54 65 37 66 38 67 47 68 39 69 40 70
REMARK SMILES IDX 46 71 48 72 41 73 42 74 43 75 44 76 45 77 71 78 72 79 81 80
REMARK SMILES IDX 73 81 74 82 80 83 82 84 75 85 76 86 77 87 78 88 79 89 55 90
REMARK SMILES IDX 56 91 65 92 57 93 58 94 64 95 66 96 59 97 60 98 61 99 62 100
REMARK SMILES IDX 63 101
REMARK H PARENT 18 7 6 15 11 20 11 21 11 22 25 32 87 51 53 62
REMARK Flexibility Score: inf
ROOT
ATOM      1  C   UNL A   1      32.120  29.518  27.165  1.00  0.00     0.002 C 
ENDROOT
BRANCH   1   2
ATOM      2  C   UNL A   1      31.440  28.185  27.505  1.00  0.00     0.021 C 
BRANCH   2   3
ATOM      3  C   UNL A   1      31.703  27.098  26.474  1.00  0.00     0.116 C 
BRANCH   3   4
ATOM      4  N   UNL A   1      30.512  26.677  25.753  1.00  0.00    -0.354 N 
ATOM      5  C   UNL A   1      30.077  26.884  24.474  1.00  0.00     0.242 C 
ATOM      6  O   UNL A   1      29.175  26.136  24.074  1.00  0.00    -0.273 OA
ATOM      7  H   UNL A   1      29.894  26.135  26.295  1.00  0.00     0.163 HD
BRANCH   5   8
ATOM      8  C   UNL A   1      30.684  27.932  23.501  1.00  0.00     0.171 C 
BRANCH   8   9
ATOM      9  C   UNL A   1      32.110  27.659  22.940  1.00  0.00     0.038 C 
BRANCH   9  10
ATOM     10  C   UNL A   1      32.590  26.204  22.824  1.00  0.00    -0.015 C 
ATOM     11  C   UNL A   1      32.899  25.801  21.380  1.00  0.00     0.007 C 
ATOM     12  C   UNL A   1      33.807  25.889  23.697  1.00  0.00     0.007 C 
ENDBRANCH   9  10
ENDBRANCH   8   9
BRANCH   8  13
ATOM     13  N   UNL A   1      30.538  29.274  24.076  1.00  0.00    -0.339 N 
ATOM     14  C   UNL A   1      29.904  30.415  23.730  1.00  0.00     0.291 C 
ATOM     15  H   UNL A   1      31.024  29.366  24.927  1.00  0.00     0.164 HD
ATOM     16  O   UNL A   1      29.920  31.270  24.628  1.00  0.00    -0.267 OA
BRANCH  14  17
ATOM     17  C   UNL A   1      29.070  30.655  22.446  1.00  0.00     0.267 C 
ATOM     18  C   UNL A   1      28.021  29.518  22.379  1.00  0.00     0.100 C 
BRANCH  17  19
ATOM     19  N   UNL A   1      29.979  30.462  21.262  1.00  0.00    -0.337 N 
ATOM     20  H   UNL A   1      30.951  30.478  21.574  1.00  0.00     0.345 HD
ATOM     21  H   UNL A   1      29.825  31.212  20.589  1.00  0.00     0.345 HD
ATOM     22  H   UNL A   1      29.778  29.563  20.822  1.00  0.00     0.345 HD
ENDBRANCH  17  19
BRANCH  17  23
ATOM     23  C   UNL A   1      28.283  31.979  22.501  1.00  0.00     0.453 C 
ATOM     24  F   UNL A   1      27.666  32.241  21.321  1.00  0.00    -0.164 F 
ATOM     25  F   UNL A   1      27.319  31.958  23.449  1.00  0.00    -0.164 F 
ATOM     26  F   UNL A   1      29.078  33.044  22.747  1.00  0.00    -0.164 F 
ENDBRANCH  17  23
ENDBRANCH  14  17
ENDBRANCH   8  13
ENDBRANCH   5   8
ENDBRANCH   3   4
ENDBRANCH   2   3
ENDBRANCH   1   2
BRANCH   1  27
ATOM     27  C   UNL A   1      33.438  29.429  26.379  1.00  0.00     0.002 C 
BRANCH  27  28
ATOM     28  C   UNL A   1      34.689  29.089  27.192  1.00  0.00     0.021 C 
BRANCH  28  29
ATOM     29  C   UNL A   1      35.482  30.288  27.696  1.00  0.00     0.116 C 
BRANCH  29  30
ATOM     30  N   UNL A   1      35.381  30.467  29.133  1.00  0.00    -0.352 N 
ATOM     31  C   UNL A   1      36.295  30.160  30.111  1.00  0.00     0.251 C 
ATOM     32  H   UNL A   1      34.538  30.864  29.452  1.00  0.00     0.163 HD
ATOM     33  O   UNL A   1      35.992  30.270  31.289  1.00  0.00    -0.269 OA
BRANCH  31  34
ATOM     34  C   UNL A   1      37.634  29.663  29.724  1.00  0.00     0.039 A 
ATOM     35  C   UNL A   1      38.033  29.785  28.392  1.00  0.00     0.014 A 
ATOM     36  C   UNL A   1      38.496  29.099  30.669  1.00  0.00     0.014 A 
ATOM     37  C   UNL A   1      39.319  29.392  28.018  1.00  0.00     0.010 A 
ATOM     38  C   UNL A   1      39.802  28.781  30.312  1.00  0.00     0.010 A 
ATOM     39  C   UNL A   1      40.225  28.918  28.981  1.00  0.00    -0.014 A 
BRANCH  39  40
ATOM     40  C   UNL A   1      41.618  28.559  28.611  1.00  0.00     0.031 A 
ATOM     41  C   UNL A   1      42.693  29.612  28.610  1.00  0.00     0.074 A 
ATOM     42  C   UNL A   1      41.899  27.299  28.226  1.00  0.00     0.049 A 
ATOM     43  N   UNL A   1      43.953  29.504  28.276  1.00  0.00    -0.248 NA
ATOM     44  C   UNL A   1      42.293  30.971  29.010  1.00  0.00     0.031 C 
ATOM     45  C   UNL A   1      40.931  26.203  28.146  1.00  0.00     0.029 A 
ATOM     46  N   UNL A   1      43.080  26.726  27.826  1.00  0.00    -0.354 N 
ATOM     47  C   UNL A   1      44.493  30.777  28.415  1.00  0.00     0.074 A 
ATOM     48  C   UNL A   1      43.409  31.654  28.805  1.00  0.00     0.031 C 
ATOM     49  C   UNL A   1      41.564  25.084  27.754  1.00  0.00     0.029 A 
ATOM     50  C   UNL A   1      42.970  25.391  27.514  1.00  0.00     0.049 A 
ATOM     51  H   UNL A   1      43.928  27.225  27.766  1.00  0.00     0.167 HD
ATOM     52  C   UNL A   1      45.778  31.176  28.257  1.00  0.00     0.037 A 
ATOM     53  C   UNL A   1      43.898  24.515  27.082  1.00  0.00     0.037 A 
ATOM     54  C   UNL A   1      46.852  30.291  27.886  1.00  0.00     0.049 A 
ATOM     55  C   UNL A   1      45.315  24.986  26.892  1.00  0.00     0.074 A 
ATOM     56  C   UNL A   1      48.198  30.581  27.754  1.00  0.00     0.029 A 
ATOM     57  N   UNL A   1      46.701  28.946  27.579  1.00  0.00    -0.354 N 
ATOM     58  N   UNL A   1      45.822  26.179  27.096  1.00  0.00    -0.248 NA
ATOM     59  C   UNL A   1      46.287  23.992  26.419  1.00  0.00     0.031 C 
ATOM     60  C   UNL A   1      48.852  29.425  27.314  1.00  0.00     0.029 A 
ATOM     61  C   UNL A   1      47.925  28.398  27.230  1.00  0.00     0.049 A 
ATOM     62  H   UNL A   1      45.849  28.452  27.606  1.00  0.00     0.167 HD
ATOM     63  C   UNL A   1      47.178  26.070  26.808  1.00  0.00     0.074 A 
ATOM     64  C   UNL A   1      47.413  24.692  26.426  1.00  0.00     0.031 C 
ATOM     65  C   UNL A   1      48.143  27.022  26.858  1.00  0.00     0.037 A 
BRANCH  52  66
ATOM     66  C   UNL A   1      46.088  32.632  28.479  1.00  0.00     0.058 A 
ATOM     67  C   UNL A   1      46.039  33.568  27.433  1.00  0.00     0.135 A 
ATOM     68  C   UNL A   1      46.420  33.104  29.760  1.00  0.00     0.135 A 
ATOM     69  F   UNL A   1      45.740  33.173  26.185  1.00  0.00    -0.206 F 
ATOM     70  C   UNL A   1      46.348  34.909  27.639  1.00  0.00     0.059 A 
ATOM     71  C   UNL A   1      46.701  34.448  29.996  1.00  0.00     0.059 A 
ATOM     72  F   UNL A   1      46.481  32.256  30.800  1.00  0.00    -0.206 F 
ATOM     73  C   UNL A   1      46.682  35.338  28.925  1.00  0.00     0.060 A 
BRANCH  73  74
ATOM     74  S   UNL A   1      47.093  37.079  29.172  1.00  0.00     0.124 S 
ATOM     75  O   UNL A   1      46.949  37.208  30.618  1.00  0.00    -0.237 OA
ATOM     76  O   UNL A   1      48.458  37.152  28.661  1.00  0.00    -0.237 OA
ATOM     77  O   UNL A   1      46.090  37.781  28.377  1.00  0.00    -0.744 OA
ENDBRANCH  73  74
ENDBRANCH  52  66
BRANCH  53  78
ATOM     78  C   UNL A   1      43.522  23.098  26.826  1.00  0.00     0.058 A 
ATOM     79  C   UNL A   1      43.289  22.213  27.889  1.00  0.00     0.135 A 
ATOM     80  C   UNL A   1      43.377  22.602  25.521  1.00  0.00     0.135 A 
ATOM     81  F   UNL A   1      43.421  22.637  29.156  1.00  0.00    -0.206 F 
ATOM     82  C   UNL A   1      42.943  20.883  27.670  1.00  0.00     0.059 A 
ATOM     83  C   UNL A   1      43.005  21.284  25.276  1.00  0.00     0.059 A 
ATOM     84  F   UNL A   1      43.571  23.412  24.468  1.00  0.00    -0.206 F 
ATOM     85  C   UNL A   1      42.801  20.429  26.359  1.00  0.00     0.060 A 
BRANCH  85  86
ATOM     86  S   UNL A   1      42.306  18.713  26.087  1.00  0.00     0.124 S 
ATOM     87  O   UNL A   1      43.226  18.306  25.032  1.00  0.00    -0.237 OA
ATOM     88  O   UNL A   1      42.535  18.118  27.400  1.00  0.00    -0.237 OA
ATOM     89  O   UNL A   1      40.904  18.827  25.694  1.00  0.00    -0.744 OA
ENDBRANCH  85  86
ENDBRANCH  53  78
BRANCH  65  90
ATOM     90  C   UNL A   1      49.550  26.601  26.530  1.00  0.00     0.058 A 
ATOM     91  C   UNL A   1      50.059  26.669  25.224  1.00  0.00     0.135 A 
ATOM     92  C   UNL A   1      50.417  26.174  27.550  1.00  0.00     0.135 A 
ATOM     93  F   UNL A   1      49.271  27.064  24.211  1.00  0.00    -0.206 F 
ATOM     94  C   UNL A   1      51.370  26.303  24.936  1.00  0.00     0.059 A 
ATOM     95  C   UNL A   1      51.740  25.833  27.290  1.00  0.00     0.059 A 
ATOM     96  F   UNL A   1      49.984  26.100  28.819  1.00  0.00    -0.206 F 
ATOM     97  C   UNL A   1      52.204  25.889  25.976  1.00  0.00     0.060 A 
BRANCH  97  98
ATOM     98  S   UNL A   1      53.914  25.453  25.593  1.00  0.00     0.124 S 
ATOM     99  O   UNL A   1      54.407  26.692  25.002  1.00  0.00    -0.237 OA
ATOM    100  O   UNL A   1      54.452  25.117  26.907  1.00  0.00    -0.237 OA
ATOM    101  O   UNL A   1      53.779  24.329  24.671  1.00  0.00    -0.744 OA
ENDBRANCH  97  98
ENDBRANCH  65  90
ENDBRANCH  39  40
ENDBRANCH  31  34
ENDBRANCH  29  30
ENDBRANCH  28  29
ENDBRANCH  27  28
ENDBRANCH   1  27
TORSDOF 22
ENDMDL
MODEL 2
REMARK VINA RESULT:     -10.7      6.652     11.999
REMARK SMILES CC(C)C[C@H](NC(=O)[C@](C)([NH3+])C(F)(F)F)C(=O)NCCCCCCNC(=O)c1ccc(-c2c3nc(c(-c4c(F)cc(S(=O)(=O)[O-])cc4F)c4ccc([nH]4)c(-c4c(F)cc(S(=O)(=O)[O-])cc4F)c4nc(c(-c5c(F)cc(S(=O)(=O)[O-])cc5F)c5ccc2[nH]5)C=C4)C=C3)cc1
REMARK SMILES IDX 21 1 20 2 19 3 18 4 16 5 17 6 5 8 4 9 2 10 1 11 3 12 6 13
REMARK SMILES IDX 7 14 8 16 9 17 10 18 11 19 12 23 13 24 14 25 15 26 22 27
REMARK SMILES IDX 23 28 24 29 25 30 26 31 27 33 28 34 29 35 93 36 30 37 92 38
REMARK SMILES IDX 31 39 32 40 33 41 86 42 34 43 91 44 85 45 87 46 35 47 90 48
REMARK SMILES IDX 84 49 83 50 36 52 70 53 49 54 69 55 50 56 53 57 68 58 88 59
REMARK SMILES IDX 51 60 52 61 67 63 89 64 54 65 37 66 38 67 47 68 39 69 40 70
REMARK SMILES IDX 46 71 48 72 41 73 42 74 43 75 44 76 45 77 71 78 72 79 81 80
REMARK SMILES IDX 73 81 74 82 80 83 82 84 75 85 76 86 77 87 78 88 79 89 55 90
REMARK SMILES IDX 56 91 65 92 57 93 58 94 64 95 66 96 59 97 60 98 61 99 62 100
REMARK SMILES IDX 63 101
REMARK H PARENT 18 7 6 15 11 20 11 21 11 22 25 32 87 51 53 62
REMARK Flexibility Score: inf
ROOT
ATOM      1  C   UNL A   1      37.422  23.263  26.035  1.00  0.00     0.002 C 
ENDROOT
BRANCH   1   2
ATOM      2  C   UNL A   1      36.617  23.751  24.824  1.00  0.00     0.021 C 
BRANCH   2   3
ATOM      3  C   UNL A   1      35.440  22.849  24.484  1.00  0.00     0.116 C 
BRANCH   3   4
ATOM      4  N   UNL A   1      34.718  23.259  23.289  1.00  0.00    -0.354 N 
ATOM      5  C   UNL A   1      33.846  24.280  23.033  1.00  0.00     0.242 C 
ATOM      6  O   UNL A   1      33.645  24.543  21.840  1.00  0.00    -0.273 OA
ATOM      7  H   UNL A   1      34.890  22.685  22.508  1.00  0.00     0.163 HD
BRANCH   5   8
ATOM      8  C   UNL A   1      33.165  25.146  24.129  1.00  0.00     0.171 C 
BRANCH   8   9
ATOM      9  C   UNL A   1      34.028  26.237  24.828  1.00  0.00     0.038 C 
BRANCH   9  10
ATOM     10  C   UNL A   1      33.615  27.710  24.681  1.00  0.00    -0.015 C 
ATOM     11  C   UNL A   1      34.055  28.566  25.872  1.00  0.00     0.007 C 
ATOM     12  C   UNL A   1      34.117  28.362  23.391  1.00  0.00     0.007 C 
ENDBRANCH   9  10
ENDBRANCH   8   9
BRANCH   8  13
ATOM     13  N   UNL A   1      32.463  24.273  25.075  1.00  0.00    -0.339 N 
ATOM     14  C   UNL A   1      31.274  24.293  25.715  1.00  0.00     0.291 C 
ATOM     15  H   UNL A   1      32.990  23.473  25.301  1.00  0.00     0.164 HD
ATOM     16  O   UNL A   1      31.025  23.230  26.306  1.00  0.00    -0.267 OA
BRANCH  14  17
ATOM     17  C   UNL A   1      30.198  25.404  25.632  1.00  0.00     0.267 C 
ATOM     18  C   UNL A   1      30.814  26.668  26.284  1.00  0.00     0.100 C 
BRANCH  17  19
ATOM     19  N   UNL A   1      29.045  24.996  26.509  1.00  0.00    -0.337 N 
ATOM     20  H   UNL A   1      28.328  25.721  26.488  1.00  0.00     0.345 HD
ATOM     21  H   UNL A   1      29.373  24.869  27.466  1.00  0.00     0.345 HD
ATOM     22  H   UNL A   1      28.652  24.119  26.166  1.00  0.00     0.345 HD
ENDBRANCH  17  19
BRANCH  17  23
ATOM     23  C   UNL A   1      29.859  25.780  24.177  1.00  0.00     0.453 C 
ATOM     24  F   UNL A   1      28.560  26.150  24.048  1.00  0.00    -0.164 F 
ATOM     25  F   UNL A   1      30.606  26.814  23.731  1.00  0.00    -0.164 F 
ATOM     26  F   UNL A   1      30.034  24.747  23.321  1.00  0.00    -0.164 F 
ENDBRANCH  17  23
ENDBRANCH  14  17
ENDBRANCH   8  13
ENDBRANCH   5   8
ENDBRANCH   3   4
ENDBRANCH   2   3
ENDBRANCH   1   2
BRANCH   1  27
ATOM     27  C   UNL A   1      38.464  22.166  25.763  1.00  0.00     0.002 C 
BRANCH  27  28
ATOM     28  C   UNL A   1      39.650  22.104  26.729  1.00  0.00     0.021 C 
BRANCH  28  29
ATOM     29  C   UNL A   1      40.236  23.453  27.124  1.00  0.00     0.116 C 
BRANCH  29  30
ATOM     30  N   UNL A   1      41.056  24.039  26.078  1.00  0.00    -0.352 N 
ATOM     31  C   UNL A   1      41.502  25.331  25.949  1.00  0.00     0.251 C 
ATOM     32  H   UNL A   1      41.330  23.422  25.361  1.00  0.00     0.163 HD
ATOM     33  O   UNL A   1      42.088  25.677  24.934  1.00  0.00    -0.269 OA
BRANCH  31  34
ATOM     34  C   UNL A   1      41.236  26.304  27.031  1.00  0.00     0.039 A 
ATOM     35  C   UNL A   1      40.304  25.971  28.015  1.00  0.00     0.014 A 
ATOM     36  C   UNL A   1      41.912  27.526  27.085  1.00  0.00     0.014 A 
ATOM     37  C   UNL A   1      40.091  26.840  29.087  1.00  0.00     0.010 A 
ATOM     38  C   UNL A   1      41.757  28.354  28.193  1.00  0.00     0.010 A 
ATOM     39  C   UNL A   1      40.840  28.022  29.202  1.00  0.00    -0.014 A 
BRANCH  39  40
ATOM     40  C   UNL A   1      40.673  28.924  30.369  1.00  0.00     0.031 A 
ATOM     41  C   UNL A   1      41.546  28.756  31.583  1.00  0.00     0.074 A 
ATOM     42  C   UNL A   1      39.700  29.857  30.355  1.00  0.00     0.049 A 
ATOM     43  N   UNL A   1      41.523  29.414  32.714  1.00  0.00    -0.248 NA
ATOM     44  C   UNL A   1      42.560  27.691  31.530  1.00  0.00     0.031 C 
ATOM     45  C   UNL A   1      38.764  30.086  29.252  1.00  0.00     0.029 A 
ATOM     46  N   UNL A   1      39.334  30.785  31.297  1.00  0.00    -0.354 N 
ATOM     47  C   UNL A   1      42.508  28.837  33.508  1.00  0.00     0.074 A 
ATOM     48  C   UNL A   1      43.068  27.737  32.752  1.00  0.00     0.031 C 
ATOM     49  C   UNL A   1      37.953  31.109  29.568  1.00  0.00     0.029 A 
ATOM     50  C   UNL A   1      38.282  31.581  30.910  1.00  0.00     0.049 A 
ATOM     51  H   UNL A   1      39.782  30.872  32.170  1.00  0.00     0.167 HD
ATOM     52  C   UNL A   1      42.925  29.206  34.743  1.00  0.00     0.037 A 
ATOM     53  C   UNL A   1      37.652  32.576  31.563  1.00  0.00     0.037 A 
ATOM     54  C   UNL A   1      42.372  30.313  35.479  1.00  0.00     0.049 A 
ATOM     55  C   UNL A   1      38.118  32.953  32.944  1.00  0.00     0.074 A 
ATOM     56  C   UNL A   1      42.759  30.805  36.713  1.00  0.00     0.029 A 
ATOM     57  N   UNL A   1      41.307  31.095  35.053  1.00  0.00    -0.354 N 
ATOM     58  N   UNL A   1      39.098  32.443  33.652  1.00  0.00    -0.248 NA
ATOM     59  C   UNL A   1      37.398  34.045  33.613  1.00  0.00     0.031 C 
ATOM     60  C   UNL A   1      41.895  31.849  37.057  1.00  0.00     0.029 A 
ATOM     61  C   UNL A   1      41.006  32.049  36.012  1.00  0.00     0.049 A 
ATOM     62  H   UNL A   1      40.836  30.989  34.195  1.00  0.00     0.167 HD
ATOM     63  C   UNL A   1      39.132  33.173  34.835  1.00  0.00     0.074 A 
ATOM     64  C   UNL A   1      38.082  34.167  34.742  1.00  0.00     0.031 C 
ATOM     65  C   UNL A   1      39.960  33.036  35.901  1.00  0.00     0.037 A 
BRANCH  52  66
ATOM     66  C   UNL A   1      44.027  28.398  35.375  1.00  0.00     0.058 A 
ATOM     67  C   UNL A   1      45.382  28.680  35.138  1.00  0.00     0.135 A 
ATOM     68  C   UNL A   1      43.725  27.338  36.247  1.00  0.00     0.135 A 
ATOM     69  F   UNL A   1      45.730  29.673  34.303  1.00  0.00    -0.206 F 
ATOM     70  C   UNL A   1      46.397  27.916  35.707  1.00  0.00     0.059 A 
ATOM     71  C   UNL A   1      44.725  26.581  36.854  1.00  0.00     0.059 A 
ATOM     72  F   UNL A   1      42.447  27.024  36.514  1.00  0.00    -0.206 F 
ATOM     73  C   UNL A   1      46.057  26.866  36.561  1.00  0.00     0.060 A 
BRANCH  73  74
ATOM     74  S   UNL A   1      47.385  25.878  37.280  1.00  0.00     0.124 S 
ATOM     75  O   UNL A   1      46.797  24.542  37.258  1.00  0.00    -0.237 OA
ATOM     76  O   UNL A   1      48.483  26.102  36.344  1.00  0.00    -0.237 OA
ATOM     77  O   UNL A   1      47.565  26.462  38.606  1.00  0.00    -0.744 OA
ENDBRANCH  73  74
ENDBRANCH  52  66
BRANCH  53  78
ATOM     78  C   UNL A   1      36.531  33.305  30.909  1.00  0.00     0.058 A 
ATOM     79  C   UNL A   1      35.213  33.156  31.367  1.00  0.00     0.135 A 
ATOM     80  C   UNL A   1      36.751  34.170  29.826  1.00  0.00     0.135 A 
ATOM     81  F   UNL A   1      34.949  32.336  32.395  1.00  0.00    -0.206 F 
ATOM     82  C   UNL A   1      34.151  33.824  30.763  1.00  0.00     0.059 A 
ATOM     83  C   UNL A   1      35.711  34.870  29.225  1.00  0.00     0.059 A 
ATOM     84  F   UNL A   1      37.996  34.362  29.361  1.00  0.00    -0.206 F 
ATOM     85  C   UNL A   1      34.411  34.681  29.694  1.00  0.00     0.060 A 
BRANCH  85  86
ATOM     86  S   UNL A   1      33.032  35.578  28.950  1.00  0.00     0.124 S 
ATOM     87  O   UNL A   1      33.724  36.649  28.245  1.00  0.00    -0.237 OA
ATOM     88  O   UNL A   1      32.417  34.553  28.113  1.00  0.00    -0.237 OA
ATOM     89  O   UNL A   1      32.239  35.992  30.105  1.00  0.00    -0.744 OA
ENDBRANCH  85  86
ENDBRANCH  53  78
BRANCH  65  90
ATOM     90  C   UNL A   1      39.792  34.007  37.038  1.00  0.00     0.058 A 
ATOM     91  C   UNL A   1      40.407  35.269  37.033  1.00  0.00     0.135 A 
ATOM     92  C   UNL A   1      38.960  33.688  38.125  1.00  0.00     0.135 A 
ATOM     93  F   UNL A   1      41.218  35.621  36.023  1.00  0.00    -0.206 F 
ATOM     94  C   UNL A   1      40.224  36.170  38.077  1.00  0.00     0.059 A 
ATOM     95  C   UNL A   1      38.738  34.585  39.163  1.00  0.00     0.059 A 
ATOM     96  F   UNL A   1      38.340  32.498  38.175  1.00  0.00    -0.206 F 
ATOM     97  C   UNL A   1      39.384  35.820  39.137  1.00  0.00     0.060 A 
BRANCH  97  98
ATOM     98  S   UNL A   1      39.126  37.015  40.466  1.00  0.00     0.124 S 
ATOM     99  O   UNL A   1      38.460  36.194  41.472  1.00  0.00    -0.237 OA
ATOM    100  O   UNL A   1      40.490  37.427  40.784  1.00  0.00    -0.237 OA
ATOM    101  O   UNL A   1      38.296  38.042  39.844  1.00  0.00    -0.744 OA
ENDBRANCH  97  98
ENDBRANCH  65  90
ENDBRANCH  39  40
ENDBRANCH  31  34
ENDBRANCH  29  30
ENDBRANCH  28  29
ENDBRANCH  27  28
ENDBRANCH   1  27
TORSDOF 22
ENDMDL
MODEL 3
REMARK VINA RESULT:     -10.6      2.508      3.822
REMARK SMILES CC(C)C[C@H](NC(=O)[C@](C)([NH3+])C(F)(F)F)C(=O)NCCCCCCNC(=O)c1ccc(-c2c3nc(c(-c4c(F)cc(S(=O)(=O)[O-])cc4F)c4ccc([nH]4)c(-c4c(F)cc(S(=O)(=O)[O-])cc4F)c4nc(c(-c5c(F)cc(S(=O)(=O)[O-])cc5F)c5ccc2[nH]5)C=C4)C=C3)cc1
REMARK SMILES IDX 21 1 20 2 19 3 18 4 16 5 17 6 5 8 4 9 2 10 1 11 3 12 6 13
REMARK SMILES IDX 7 14 8 16 9 17 10 18 11 19 12 23 13 24 14 25 15 26 22 27
REMARK SMILES IDX 23 28 24 29 25 30 26 31 27 33 28 34 29 35 93 36 30 37 92 38
REMARK SMILES IDX 31 39 32 40 33 41 86 42 34 43 91 44 85 45 87 46 35 47 90 48
REMARK SMILES IDX 84 49 83 50 36 52 70 53 49 54 69 55 50 56 53 57 68 58 88 59
REMARK SMILES IDX 51 60 52 61 67 63 89 64 54 65 37 66 38 67 47 68 39 69 40 70
REMARK SMILES IDX 46 71 48 72 41 73 42 74 43 75 44 76 45 77 71 78 72 79 81 80
REMARK SMILES IDX 73 81 74 82 80 83 82 84 75 85 76 86 77 87 78 88 79 89 55 90
REMARK SMILES IDX 56 91 65 92 57 93 58 94 64 95 66 96 59 97 60 98 61 99 62 100
REMARK SMILES IDX 63 101
REMARK H PARENT 18 7 6 15 11 20 11 21 11 22 25 32 87 51 53 62
REMARK Flexibility Score: inf
ROOT
ATOM      1  C   UNL A   1      33.964  28.647  27.235  1.00  0.00     0.002 C 
ENDROOT
BRANCH   1   2
ATOM      2  C   UNL A   1      33.485  27.561  26.262  1.00  0.00     0.021 C 
BRANCH   2   3
ATOM      3  C   UNL A   1      31.974  27.388  26.253  1.00  0.00     0.116 C 
BRANCH   3   4
ATOM      4  N   UNL A   1      31.527  26.130  26.832  1.00  0.00    -0.354 N 
ATOM      5  C   UNL A   1      31.541  24.841  26.380  1.00  0.00     0.242 C 
ATOM      6  O   UNL A   1      31.373  23.958  27.232  1.00  0.00    -0.273 OA
ATOM      7  H   UNL A   1      31.136  26.227  27.730  1.00  0.00     0.163 HD
BRANCH   5   8
ATOM      8  C   UNL A   1      31.814  24.432  24.905  1.00  0.00     0.171 C 
BRANCH   8   9
ATOM      9  C   UNL A   1      30.781  24.873  23.828  1.00  0.00     0.038 C 
BRANCH   9  10
ATOM     10  C   UNL A   1      31.274  25.697  22.627  1.00  0.00    -0.015 C 
ATOM     11  C   UNL A   1      30.985  27.192  22.782  1.00  0.00     0.007 C 
ATOM     12  C   UNL A   1      32.762  25.508  22.325  1.00  0.00     0.007 C 
ENDBRANCH   9  10
ENDBRANCH   8   9
BRANCH   8  13
ATOM     13  N   UNL A   1      32.131  23.000  24.847  1.00  0.00    -0.339 N 
ATOM     14  C   UNL A   1      33.214  22.235  25.102  1.00  0.00     0.291 C 
ATOM     15  H   UNL A   1      31.363  22.464  24.547  1.00  0.00     0.164 HD
ATOM     16  O   UNL A   1      32.966  21.020  25.075  1.00  0.00    -0.267 OA
BRANCH  14  17
ATOM     17  C   UNL A   1      34.609  22.731  25.561  1.00  0.00     0.267 C 
ATOM     18  C   UNL A   1      35.508  21.477  25.686  1.00  0.00     0.100 C 
BRANCH  17  19
ATOM     19  N   UNL A   1      34.465  23.288  26.952  1.00  0.00    -0.337 N 
ATOM     20  H   UNL A   1      34.810  22.607  27.629  1.00  0.00     0.345 HD
ATOM     21  H   UNL A   1      33.482  23.486  27.139  1.00  0.00     0.345 HD
ATOM     22  H   UNL A   1      35.006  24.150  27.030  1.00  0.00     0.345 HD
ENDBRANCH  17  19
BRANCH  17  23
ATOM     23  C   UNL A   1      35.274  23.649  24.517  1.00  0.00     0.453 C 
ATOM     24  F   UNL A   1      36.623  23.674  24.664  1.00  0.00    -0.164 F 
ATOM     25  F   UNL A   1      35.027  23.243  23.252  1.00  0.00    -0.164 F 
ATOM     26  F   UNL A   1      34.867  24.934  24.623  1.00  0.00    -0.164 F 
ENDBRANCH  17  23
ENDBRANCH  14  17
ENDBRANCH   8  13
ENDBRANCH   5   8
ENDBRANCH   3   4
ENDBRANCH   2   3
ENDBRANCH   1   2
BRANCH   1  27
ATOM     27  C   UNL A   1      33.414  30.063  26.998  1.00  0.00     0.002 C 
BRANCH  27  28
ATOM     28  C   UNL A   1      34.207  31.210  27.629  1.00  0.00     0.021 C 
BRANCH  28  29
ATOM     29  C   UNL A   1      35.511  30.805  28.304  1.00  0.00     0.116 C 
BRANCH  29  30
ATOM     30  N   UNL A   1      35.426  30.832  29.753  1.00  0.00    -0.352 N 
ATOM     31  C   UNL A   1      36.333  30.386  30.683  1.00  0.00     0.251 C 
ATOM     32  H   UNL A   1      34.602  31.227  30.121  1.00  0.00     0.163 HD
ATOM     33  O   UNL A   1      36.042  30.382  31.870  1.00  0.00    -0.269 OA
BRANCH  31  34
ATOM     34  C   UNL A   1      37.647  29.879  30.231  1.00  0.00     0.039 A 
ATOM     35  C   UNL A   1      37.987  30.010  28.883  1.00  0.00     0.014 A 
ATOM     36  C   UNL A   1      38.545  29.297  31.131  1.00  0.00     0.014 A 
ATOM     37  C   UNL A   1      39.251  29.608  28.448  1.00  0.00     0.010 A 
ATOM     38  C   UNL A   1      39.830  28.970  30.712  1.00  0.00     0.010 A 
ATOM     39  C   UNL A   1      40.194  29.116  29.364  1.00  0.00    -0.014 A 
BRANCH  39  40
ATOM     40  C   UNL A   1      41.565  28.747  28.929  1.00  0.00     0.031 A 
ATOM     41  C   UNL A   1      42.651  29.787  28.893  1.00  0.00     0.074 A 
ATOM     42  C   UNL A   1      41.815  27.489  28.515  1.00  0.00     0.049 A 
ATOM     43  N   UNL A   1      43.894  29.670  28.502  1.00  0.00    -0.248 NA
ATOM     44  C   UNL A   1      42.285  31.145  29.328  1.00  0.00     0.031 C 
ATOM     45  C   UNL A   1      40.831  26.404  28.464  1.00  0.00     0.029 A 
ATOM     46  N   UNL A   1      42.970  26.909  28.055  1.00  0.00    -0.354 N 
ATOM     47  C   UNL A   1      44.454  30.935  28.633  1.00  0.00     0.074 A 
ATOM     48  C   UNL A   1      43.399  31.819  29.082  1.00  0.00     0.031 C 
ATOM     49  C   UNL A   1      41.433  25.284  28.030  1.00  0.00     0.029 A 
ATOM     50  C   UNL A   1      42.831  25.579  27.732  1.00  0.00     0.049 A 
ATOM     51  H   UNL A   1      43.820  27.399  27.965  1.00  0.00     0.167 HD
ATOM     52  C   UNL A   1      45.735  31.322  28.424  1.00  0.00     0.037 A 
ATOM     53  C   UNL A   1      43.728  24.699  27.247  1.00  0.00     0.037 A 
ATOM     54  C   UNL A   1      46.781  30.431  27.993  1.00  0.00     0.049 A 
ATOM     55  C   UNL A   1      45.141  25.157  27.001  1.00  0.00     0.074 A 
ATOM     56  C   UNL A   1      48.124  30.707  27.805  1.00  0.00     0.029 A 
ATOM     57  N   UNL A   1      46.602  29.091  27.676  1.00  0.00    -0.354 N 
ATOM     58  N   UNL A   1      45.671  26.341  27.197  1.00  0.00    -0.248 NA
ATOM     59  C   UNL A   1      46.079  24.158  26.472  1.00  0.00     0.031 C 
ATOM     60  C   UNL A   1      48.744  29.551  27.322  1.00  0.00     0.029 A 
ATOM     61  C   UNL A   1      47.803  28.535  27.267  1.00  0.00     0.049 A 
ATOM     62  H   UNL A   1      45.746  28.607  27.735  1.00  0.00     0.167 HD
ATOM     63  C   UNL A   1      47.011  26.221  26.848  1.00  0.00     0.074 A 
ATOM     64  C   UNL A   1      47.212  24.845  26.438  1.00  0.00     0.031 C 
ATOM     65  C   UNL A   1      47.988  27.162  26.867  1.00  0.00     0.037 A 
BRANCH  52  66
ATOM     66  C   UNL A   1      46.071  32.772  28.651  1.00  0.00     0.058 A 
ATOM     67  C   UNL A   1      46.491  33.248  29.903  1.00  0.00     0.135 A 
ATOM     68  C   UNL A   1      45.992  33.696  27.596  1.00  0.00     0.135 A 
ATOM     69  F   UNL A   1      46.573  32.412  30.952  1.00  0.00    -0.206 F 
ATOM     70  C   UNL A   1      46.779  34.593  30.114  1.00  0.00     0.059 A 
ATOM     71  C   UNL A   1      46.306  35.041  27.775  1.00  0.00     0.059 A 
ATOM     72  F   UNL A   1      45.598  33.299  26.375  1.00  0.00    -0.206 F 
ATOM     73  C   UNL A   1      46.680  35.483  29.043  1.00  0.00     0.060 A 
BRANCH  73  74
ATOM     74  S   UNL A   1      47.044  37.226  29.337  1.00  0.00     0.124 S 
ATOM     75  O   UNL A   1      47.076  37.275  30.795  1.00  0.00    -0.237 OA
ATOM     76  O   UNL A   1      48.331  37.393  28.668  1.00  0.00    -0.237 OA
ATOM     77  O   UNL A   1      45.920  37.919  28.711  1.00  0.00    -0.744 OA
ENDBRANCH  73  74
ENDBRANCH  52  66
BRANCH  53  78
ATOM     78  C   UNL A   1      43.325  23.289  26.990  1.00  0.00     0.058 A 
ATOM     79  C   UNL A   1      43.175  22.380  28.048  1.00  0.00     0.135 A 
ATOM     80  C   UNL A   1      43.071  22.825  25.690  1.00  0.00     0.135 A 
ATOM     81  F   UNL A   1      43.412  22.774  29.309  1.00  0.00    -0.206 F 
ATOM     82  C   UNL A   1      42.805  21.057  27.827  1.00  0.00     0.059 A 
ATOM     83  C   UNL A   1      42.674  21.515  25.446  1.00  0.00     0.059 A 
ATOM     84  F   UNL A   1      43.184  23.658  24.644  1.00  0.00    -0.206 F 
ATOM     85  C   UNL A   1      42.554  20.634  26.521  1.00  0.00     0.060 A 
BRANCH  85  86
ATOM     86  S   UNL A   1      42.030  18.928  26.252  1.00  0.00     0.124 S 
ATOM     87  O   UNL A   1      42.997  18.477  25.258  1.00  0.00    -0.237 OA
ATOM     88  O   UNL A   1      42.166  18.351  27.586  1.00  0.00    -0.237 OA
ATOM     89  O   UNL A   1      40.656  19.070  25.776  1.00  0.00    -0.744 OA
ENDBRANCH  85  86
ENDBRANCH  53  78
BRANCH  65  90
ATOM     90  C   UNL A   1      49.374  26.730  26.472  1.00  0.00     0.058 A 
ATOM     91  C   UNL A   1      50.301  26.255  27.413  1.00  0.00     0.135 A 
ATOM     92  C   UNL A   1      49.761  26.743  25.121  1.00  0.00     0.135 A 
ATOM     93  F   UNL A   1      49.985  26.229  28.718  1.00  0.00    -0.206 F 
ATOM     94  C   UNL A   1      51.570  25.833  27.033  1.00  0.00     0.059 A 
ATOM     95  C   UNL A   1      51.013  26.296  24.714  1.00  0.00     0.059 A 
ATOM     96  F   UNL A   1      48.910  27.178  24.178  1.00  0.00    -0.206 F 
ATOM     97  C   UNL A   1      51.917  25.854  25.680  1.00  0.00     0.060 A 
BRANCH  97  98
ATOM     98  S   UNL A   1      53.555  25.268  25.198  1.00  0.00     0.124 S 
ATOM     99  O   UNL A   1      53.376  23.821  25.248  1.00  0.00    -0.237 OA
ATOM    100  O   UNL A   1      53.712  25.843  23.866  1.00  0.00    -0.237 OA
ATOM    101  O   UNL A   1      54.431  25.828  26.223  1.00  0.00    -0.744 OA
ENDBRANCH  97  98
ENDBRANCH  65  90
ENDBRANCH  39  40
ENDBRANCH  31  34
ENDBRANCH  29  30
ENDBRANCH  28  29
ENDBRANCH  27  28
ENDBRANCH   1  27
TORSDOF 22
ENDMDL
