MODEL 1
REMARK VINA RESULT:     -13.9      0.000      0.000
REMARK SMILES O=C(NCCCCCCNC(=O)[C@@H]1[C@H](C(=O)Nc2ccc(Cn3cncn3)cc2)[C@@H]2C=C[C@H]1CC2)c1ccc(-c2c3nc(c(-c4c(F)cc(S(=O)(=O)[O-])cc4F)c4ccc([nH]4)c(-c4c(F)cc(S(=O)(=O)[O-])cc4F)c4nc(c(-c5c(F)cc(S(=O)(=O)[O-])cc5F)c5ccc2[nH]5)C=C4)C=C3)cc1
REMARK SMILES IDX 7 1 6 2 5 3 4 4 3 5 1 6 2 7 36 9 37 10 101 11 38 12 100 13
REMARK SMILES IDX 39 14 40 15 41 16 94 17 42 18 99 19 93 20 95 21 43 22 98 23
REMARK SMILES IDX 92 24 91 25 44 27 78 28 57 29 77 30 58 31 61 32 76 33 96 34
REMARK SMILES IDX 59 35 60 36 75 38 97 39 62 40 45 41 46 42 55 43 47 44 48 45
REMARK SMILES IDX 54 46 56 47 49 48 50 49 51 50 52 51 53 52 79 53 80 54 89 55
REMARK SMILES IDX 81 56 82 57 88 58 90 59 83 60 84 61 85 62 86 63 87 64 63 65
REMARK SMILES IDX 64 66 73 67 65 68 66 69 72 70 74 71 67 72 68 73 69 74 70 75
REMARK SMILES IDX 71 76 8 77 9 78 10 79 11 80 12 82 13 83 14 84 33 85 30 86
REMARK SMILES IDX 32 87 34 88 31 89 35 90 15 91 16 92 17 93 18 95 19 96 29 97
REMARK SMILES IDX 20 98 28 99 21 100 22 101 23 102 24 103 27 104 25 105 26 106
REMARK H PARENT 3 8 95 26 61 37 10 81 17 94
REMARK Flexibility Score: inf
ROOT
ATOM      1  C   UNL A   1      31.571  26.642  26.604  1.00  0.00     0.002 C 
ENDROOT
BRANCH   1   2
ATOM      2  C   UNL A   1      31.396  28.092  27.004  1.00  0.00     0.002 C 
BRANCH   2   3
ATOM      3  C   UNL A   1      32.284  29.060  26.249  1.00  0.00     0.021 C 
BRANCH   3   4
ATOM      4  C   UNL A   1      33.624  29.405  26.921  1.00  0.00     0.116 C 
BRANCH   4   5
ATOM      5  N   UNL A   1      33.616  30.550  27.799  1.00  0.00    -0.352 N 
ATOM      6  O   UNL A   1      34.330  32.398  28.807  1.00  0.00    -0.269 OA
ATOM      7  C   UNL A   1      34.634  31.326  28.285  1.00  0.00     0.251 C 
ATOM      8  H   UNL A   1      32.720  30.822  28.102  1.00  0.00     0.163 HD
BRANCH   7   9
ATOM      9  C   UNL A   1      36.042  30.857  28.325  1.00  0.00     0.039 A 
ATOM     10  C   UNL A   1      36.464  29.571  27.991  1.00  0.00     0.014 A 
ATOM     11  C   UNL A   1      36.973  31.757  28.860  1.00  0.00     0.014 A 
ATOM     12  C   UNL A   1      37.688  29.106  28.427  1.00  0.00     0.010 A 
ATOM     13  C   UNL A   1      38.245  31.329  29.201  1.00  0.00     0.010 A 
ATOM     14  C   UNL A   1      38.569  29.983  29.056  1.00  0.00    -0.014 A 
BRANCH  14  15
ATOM     15  C   UNL A   1      39.930  29.513  29.267  1.00  0.00     0.031 A 
ATOM     16  C   UNL A   1      40.221  29.340  30.723  1.00  0.00     0.074 A 
ATOM     17  C   UNL A   1      40.759  29.158  28.264  1.00  0.00     0.049 A 
ATOM     18  N   UNL A   1      41.054  30.014  31.448  1.00  0.00    -0.248 NA
ATOM     19  C   UNL A   1      39.295  28.508  31.517  1.00  0.00     0.031 C 
ATOM     20  C   UNL A   1      40.473  29.109  26.828  1.00  0.00     0.029 A 
ATOM     21  N   UNL A   1      42.029  28.665  28.330  1.00  0.00    -0.354 N 
ATOM     22  C   UNL A   1      40.949  29.480  32.732  1.00  0.00     0.074 A 
ATOM     23  C   UNL A   1      39.716  28.747  32.760  1.00  0.00     0.031 C 
ATOM     24  C   UNL A   1      41.431  28.387  26.201  1.00  0.00     0.029 A 
ATOM     25  C   UNL A   1      42.466  28.042  27.157  1.00  0.00     0.049 A 
ATOM     26  H   UNL A   1      42.590  28.741  29.136  1.00  0.00     0.167 HD
ATOM     27  C   UNL A   1      42.035  29.441  33.553  1.00  0.00     0.037 A 
ATOM     28  C   UNL A   1      43.571  27.253  27.026  1.00  0.00     0.037 A 
ATOM     29  C   UNL A   1      43.018  30.408  33.129  1.00  0.00     0.049 A 
ATOM     30  C   UNL A   1      44.472  27.596  28.163  1.00  0.00     0.074 A 
ATOM     31  C   UNL A   1      43.038  31.783  32.987  1.00  0.00     0.029 A 
ATOM     32  N   UNL A   1      44.079  29.940  32.392  1.00  0.00    -0.354 N 
ATOM     33  N   UNL A   1      45.032  28.769  28.298  1.00  0.00    -0.248 NA
ATOM     34  C   UNL A   1      44.306  26.833  29.390  1.00  0.00     0.031 C 
ATOM     35  C   UNL A   1      43.792  32.019  31.800  1.00  0.00     0.029 A 
ATOM     36  C   UNL A   1      44.273  30.793  31.340  1.00  0.00     0.049 A 
ATOM     37  H   UNL A   1      44.607  29.132  32.588  1.00  0.00     0.167 HD
ATOM     38  C   UNL A   1      44.880  29.076  29.643  1.00  0.00     0.074 A 
ATOM     39  C   UNL A   1      44.456  27.825  30.272  1.00  0.00     0.031 C 
ATOM     40  C   UNL A   1      44.821  30.373  30.070  1.00  0.00     0.037 A 
BRANCH  27  41
ATOM     41  C   UNL A   1      42.405  28.235  34.399  1.00  0.00     0.058 A 
ATOM     42  C   UNL A   1      42.495  28.400  35.798  1.00  0.00     0.135 A 
ATOM     43  C   UNL A   1      42.977  27.043  33.899  1.00  0.00     0.135 A 
ATOM     44  F   UNL A   1      41.961  29.477  36.397  1.00  0.00    -0.206 F 
ATOM     45  C   UNL A   1      43.208  27.521  36.614  1.00  0.00     0.059 A 
ATOM     46  C   UNL A   1      43.656  26.132  34.700  1.00  0.00     0.059 A 
ATOM     47  F   UNL A   1      42.984  26.726  32.600  1.00  0.00    -0.206 F 
ATOM     48  C   UNL A   1      43.806  26.402  36.048  1.00  0.00     0.060 A 
BRANCH  48  49
ATOM     49  S   UNL A   1      44.802  25.311  37.076  1.00  0.00     0.124 S 
ATOM     50  O   UNL A   1      44.267  25.612  38.412  1.00  0.00    -0.237 OA
ATOM     51  O   UNL A   1      44.464  24.004  36.538  1.00  0.00    -0.237 OA
ATOM     52  O   UNL A   1      46.161  25.762  36.830  1.00  0.00    -0.744 OA
ENDBRANCH  48  49
ENDBRANCH  27  41
BRANCH  28  53
ATOM     53  C   UNL A   1      43.699  25.968  26.274  1.00  0.00     0.058 A 
ATOM     54  C   UNL A   1      44.788  25.709  25.415  1.00  0.00     0.135 A 
ATOM     55  C   UNL A   1      42.908  24.850  26.608  1.00  0.00     0.135 A 
ATOM     56  F   UNL A   1      45.616  26.704  25.062  1.00  0.00    -0.206 F 
ATOM     57  C   UNL A   1      45.093  24.419  24.951  1.00  0.00     0.059 A 
ATOM     58  C   UNL A   1      43.190  23.559  26.156  1.00  0.00     0.059 A 
ATOM     59  F   UNL A   1      41.883  24.963  27.465  1.00  0.00    -0.206 F 
ATOM     60  C   UNL A   1      44.296  23.345  25.345  1.00  0.00     0.060 A 
BRANCH  60  61
ATOM     61  S   UNL A   1      44.766  21.653  24.891  1.00  0.00     0.124 S 
ATOM     62  O   UNL A   1      43.803  20.858  25.646  1.00  0.00    -0.237 OA
ATOM     63  O   UNL A   1      44.591  21.659  23.442  1.00  0.00    -0.237 OA
ATOM     64  O   UNL A   1      46.150  21.552  25.347  1.00  0.00    -0.744 OA
ENDBRANCH  60  61
ENDBRANCH  28  53
BRANCH  40  65
ATOM     65  C   UNL A   1      45.190  31.469  29.103  1.00  0.00     0.058 A 
ATOM     66  C   UNL A   1      46.505  31.841  28.768  1.00  0.00     0.135 A 
ATOM     67  C   UNL A   1      44.152  32.048  28.361  1.00  0.00     0.135 A 
ATOM     68  F   UNL A   1      47.559  31.260  29.359  1.00  0.00    -0.206 F 
ATOM     69  C   UNL A   1      46.769  32.775  27.761  1.00  0.00     0.059 A 
ATOM     70  C   UNL A   1      44.391  32.954  27.335  1.00  0.00     0.059 A 
ATOM     71  F   UNL A   1      42.878  31.685  28.591  1.00  0.00    -0.206 F 
ATOM     72  C   UNL A   1      45.702  33.326  27.048  1.00  0.00     0.060 A 
BRANCH  72  73
ATOM     73  S   UNL A   1      46.032  34.485  25.704  1.00  0.00     0.124 S 
ATOM     74  O   UNL A   1      45.639  35.759  26.294  1.00  0.00    -0.237 OA
ATOM     75  O   UNL A   1      47.462  34.304  25.474  1.00  0.00    -0.237 OA
ATOM     76  O   UNL A   1      45.172  34.008  24.622  1.00  0.00    -0.744 OA
ENDBRANCH  72  73
ENDBRANCH  40  65
ENDBRANCH  14  15
ENDBRANCH   7   9
ENDBRANCH   4   5
ENDBRANCH   3   4
ENDBRANCH   2   3
ENDBRANCH   1   2
BRANCH   1  77
ATOM     77  C   UNL A   1      30.353  25.724  26.431  1.00  0.00     0.021 C 
BRANCH  77  78
ATOM     78  C   UNL A   1      30.593  24.245  26.147  1.00  0.00     0.116 C 
BRANCH  78  79
ATOM     79  N   UNL A   1      31.103  23.824  24.735  1.00  0.00    -0.356 N 
ATOM     80  C   UNL A   1      32.300  23.817  23.958  1.00  0.00     0.224 C 
ATOM     81  H   UNL A   1      30.362  23.442  24.212  1.00  0.00     0.163 HD
ATOM     82  O   UNL A   1      32.378  23.352  22.814  1.00  0.00    -0.275 OA
BRANCH  80  83
ATOM     83  C   UNL A   1      33.502  24.611  24.295  1.00  0.00     0.098 C 
ATOM     84  C   UNL A   1      34.219  24.580  23.010  1.00  0.00     0.098 C 
ATOM     85  C   UNL A   1      33.998  23.767  25.520  1.00  0.00     0.025 C 
ATOM     86  C   UNL A   1      35.235  23.237  23.325  1.00  0.00     0.025 C 
ATOM     87  C   UNL A   1      33.916  22.286  25.176  1.00  0.00    -0.027 C 
ATOM     88  C   UNL A   1      35.474  23.949  25.801  1.00  0.00     0.009 C 
ATOM     89  C   UNL A   1      34.590  21.997  24.050  1.00  0.00    -0.027 C 
ATOM     90  C   UNL A   1      36.244  23.608  24.496  1.00  0.00     0.009 C 
BRANCH  84  91
ATOM     91  C   UNL A   1      33.007  25.186  21.776  1.00  0.00     0.228 C 
ATOM     92  O   UNL A   1      33.122  24.605  20.671  1.00  0.00    -0.274 OA
ATOM     93  N   UNL A   1      31.878  26.124  21.748  1.00  0.00    -0.326 N 
ATOM     94  H   UNL A   1      31.568  26.221  20.819  1.00  0.00     0.169 HD
BRANCH  93  95
ATOM     95  C   UNL A   1      31.025  26.992  22.639  1.00  0.00     0.041 A 
ATOM     96  C   UNL A   1      31.230  28.376  22.767  1.00  0.00     0.026 A 
ATOM     97  C   UNL A   1      29.869  26.602  23.293  1.00  0.00     0.026 A 
ATOM     98  C   UNL A   1      30.150  29.303  22.784  1.00  0.00     0.008 A 
ATOM     99  C   UNL A   1      28.775  27.527  23.451  1.00  0.00     0.008 A 
ATOM    100  C   UNL A   1      28.856  28.845  22.991  1.00  0.00    -0.026 A 
BRANCH 100 101
ATOM    101  C   UNL A   1      27.630  29.713  22.763  1.00  0.00     0.181 C 
BRANCH 101 102
ATOM    102  N   UNL A   1      28.033  30.967  22.167  1.00  0.00    -0.249 N 
ATOM    103  C   UNL A   1      28.135  32.173  22.794  1.00  0.00     0.220 A 
ATOM    104  N   UNL A   1      28.031  31.115  20.829  1.00  0.00    -0.160 NA
ATOM    105  N   UNL A   1      28.077  33.131  21.899  1.00  0.00    -0.224 NA
ATOM    106  C   UNL A   1      27.979  32.443  20.722  1.00  0.00     0.246 A 
ENDBRANCH 101 102
ENDBRANCH 100 101
ENDBRANCH  93  95
ENDBRANCH  84  91
ENDBRANCH  80  83
ENDBRANCH  78  79
ENDBRANCH  77  78
ENDBRANCH   1  77
TORSDOF 20
ENDMDL
MODEL 2
REMARK VINA RESULT:     -13.6      3.189      9.774
REMARK SMILES O=C(NCCCCCCNC(=O)[C@@H]1[C@H](C(=O)Nc2ccc(Cn3cncn3)cc2)[C@@H]2C=C[C@H]1CC2)c1ccc(-c2c3nc(c(-c4c(F)cc(S(=O)(=O)[O-])cc4F)c4ccc([nH]4)c(-c4c(F)cc(S(=O)(=O)[O-])cc4F)c4nc(c(-c5c(F)cc(S(=O)(=O)[O-])cc5F)c5ccc2[nH]5)C=C4)C=C3)cc1
REMARK SMILES IDX 7 1 6 2 5 3 4 4 3 5 1 6 2 7 36 9 37 10 101 11 38 12 100 13
REMARK SMILES IDX 39 14 40 15 41 16 94 17 42 18 99 19 93 20 95 21 43 22 98 23
REMARK SMILES IDX 92 24 91 25 44 27 78 28 57 29 77 30 58 31 61 32 76 33 96 34
REMARK SMILES IDX 59 35 60 36 75 38 97 39 62 40 45 41 46 42 55 43 47 44 48 45
REMARK SMILES IDX 54 46 56 47 49 48 50 49 51 50 52 51 53 52 79 53 80 54 89 55
REMARK SMILES IDX 81 56 82 57 88 58 90 59 83 60 84 61 85 62 86 63 87 64 63 65
REMARK SMILES IDX 64 66 73 67 65 68 66 69 72 70 74 71 67 72 68 73 69 74 70 75
REMARK SMILES IDX 71 76 8 77 9 78 10 79 11 80 12 82 13 83 14 84 33 85 30 86
REMARK SMILES IDX 32 87 34 88 31 89 35 90 15 91 16 92 17 93 18 95 19 96 29 97
REMARK SMILES IDX 20 98 28 99 21 100 22 101 23 102 24 103 27 104 25 105 26 106
REMARK H PARENT 3 8 95 26 61 37 10 81 17 94
REMARK Flexibility Score: inf
ROOT
ATOM      1  C   UNL A   1      35.115  23.873  23.315  1.00  0.00     0.002 C 
ENDROOT
BRANCH   1   2
ATOM      2  C   UNL A   1      35.341  23.128  24.614  1.00  0.00     0.002 C 
BRANCH   2   3
ATOM      3  C   UNL A   1      36.524  22.180  24.594  1.00  0.00     0.021 C 
BRANCH   3   4
ATOM      4  C   UNL A   1      37.487  22.285  25.788  1.00  0.00     0.116 C 
BRANCH   4   5
ATOM      5  N   UNL A   1      38.859  21.918  25.530  1.00  0.00    -0.352 N 
ATOM      6  O   UNL A   1      41.031  21.624  25.892  1.00  0.00    -0.269 OA
ATOM      7  C   UNL A   1      40.025  22.285  26.146  1.00  0.00     0.251 C 
ATOM      8  H   UNL A   1      38.976  21.294  24.779  1.00  0.00     0.163 HD
BRANCH   7   9
ATOM      9  C   UNL A   1      40.135  23.510  26.977  1.00  0.00     0.039 A 
ATOM     10  C   UNL A   1      39.302  24.623  26.872  1.00  0.00     0.014 A 
ATOM     11  C   UNL A   1      41.242  23.572  27.835  1.00  0.00     0.014 A 
ATOM     12  C   UNL A   1      39.704  25.842  27.378  1.00  0.00     0.010 A 
ATOM     13  C   UNL A   1      41.593  24.767  28.439  1.00  0.00     0.010 A 
ATOM     14  C   UNL A   1      40.867  25.916  28.142  1.00  0.00    -0.014 A 
BRANCH  14  15
ATOM     15  C   UNL A   1      41.109  27.161  28.857  1.00  0.00     0.031 A 
ATOM     16  C   UNL A   1      42.265  27.904  28.270  1.00  0.00     0.074 A 
ATOM     17  C   UNL A   1      40.302  27.628  29.833  1.00  0.00     0.049 A 
ATOM     18  N   UNL A   1      43.410  28.145  28.818  1.00  0.00    -0.248 NA
ATOM     19  C   UNL A   1      42.242  28.177  26.818  1.00  0.00     0.031 C 
ATOM     20  C   UNL A   1      39.045  27.055  30.319  1.00  0.00     0.029 A 
ATOM     21  N   UNL A   1      40.393  28.789  30.542  1.00  0.00    -0.354 N 
ATOM     22  C   UNL A   1      44.139  28.856  27.865  1.00  0.00     0.074 A 
ATOM     23  C   UNL A   1      43.477  28.638  26.611  1.00  0.00     0.031 C 
ATOM     24  C   UNL A   1      38.377  27.982  31.044  1.00  0.00     0.029 A 
ATOM     25  C   UNL A   1      39.212  29.160  31.193  1.00  0.00     0.049 A 
ATOM     26  H   UNL A   1      41.219  29.322  30.590  1.00  0.00     0.167 HD
ATOM     27  C   UNL A   1      45.042  29.800  28.251  1.00  0.00     0.037 A 
ATOM     28  C   UNL A   1      38.946  30.375  31.751  1.00  0.00     0.037 A 
ATOM     29  C   UNL A   1      45.450  29.575  29.616  1.00  0.00     0.049 A 
ATOM     30  C   UNL A   1      40.264  31.023  32.002  1.00  0.00     0.074 A 
ATOM     31  C   UNL A   1      46.076  28.544  30.291  1.00  0.00     0.029 A 
ATOM     32  N   UNL A   1      44.853  30.348  30.583  1.00  0.00    -0.354 N 
ATOM     33  N   UNL A   1      41.134  30.555  32.856  1.00  0.00    -0.248 NA
ATOM     34  C   UNL A   1      40.810  31.845  30.933  1.00  0.00     0.031 C 
ATOM     35  C   UNL A   1      45.420  28.480  31.555  1.00  0.00     0.029 A 
ATOM     36  C   UNL A   1      44.504  29.530  31.623  1.00  0.00     0.049 A 
ATOM     37  H   UNL A   1      44.704  31.320  30.535  1.00  0.00     0.167 HD
ATOM     38  C   UNL A   1      42.353  30.643  32.198  1.00  0.00     0.074 A 
ATOM     39  C   UNL A   1      42.092  31.482  31.027  1.00  0.00     0.031 C 
ATOM     40  C   UNL A   1      43.380  29.791  32.493  1.00  0.00     0.037 A 
BRANCH  27  41
ATOM     41  C   UNL A   1      45.168  31.161  27.587  1.00  0.00     0.058 A 
ATOM     42  C   UNL A   1      46.436  31.558  27.110  1.00  0.00     0.135 A 
ATOM     43  C   UNL A   1      44.212  32.198  27.682  1.00  0.00     0.135 A 
ATOM     44  F   UNL A   1      47.420  30.659  26.946  1.00  0.00    -0.206 F 
ATOM     45  C   UNL A   1      46.765  32.894  26.875  1.00  0.00     0.059 A 
ATOM     46  C   UNL A   1      44.507  33.529  27.412  1.00  0.00     0.059 A 
ATOM     47  F   UNL A   1      42.963  32.001  28.116  1.00  0.00    -0.206 F 
ATOM     48  C   UNL A   1      45.797  33.874  27.054  1.00  0.00     0.060 A 
BRANCH  48  49
ATOM     49  S   UNL A   1      46.237  35.606  26.840  1.00  0.00     0.124 S 
ATOM     50  O   UNL A   1      44.907  36.226  26.733  1.00  0.00    -0.237 OA
ATOM     51  O   UNL A   1      46.966  35.881  28.068  1.00  0.00    -0.237 OA
ATOM     52  O   UNL A   1      47.029  35.607  25.623  1.00  0.00    -0.744 OA
ENDBRANCH  48  49
ENDBRANCH  27  41
BRANCH  28  53
ATOM     53  C   UNL A   1      37.677  31.162  31.675  1.00  0.00     0.058 A 
ATOM     54  C   UNL A   1      36.934  31.496  32.827  1.00  0.00     0.135 A 
ATOM     55  C   UNL A   1      37.322  31.855  30.500  1.00  0.00     0.135 A 
ATOM     56  F   UNL A   1      37.216  30.912  34.001  1.00  0.00    -0.206 F 
ATOM     57  C   UNL A   1      35.933  32.481  32.820  1.00  0.00     0.059 A 
ATOM     58  C   UNL A   1      36.328  32.835  30.468  1.00  0.00     0.059 A 
ATOM     59  F   UNL A   1      37.998  31.666  29.358  1.00  0.00    -0.206 F 
ATOM     60  C   UNL A   1      35.650  33.160  31.636  1.00  0.00     0.060 A 
BRANCH  60  61
ATOM     61  S   UNL A   1      34.478  34.543  31.641  1.00  0.00     0.124 S 
ATOM     62  O   UNL A   1      35.234  35.579  32.337  1.00  0.00    -0.237 OA
ATOM     63  O   UNL A   1      34.253  34.767  30.217  1.00  0.00    -0.237 OA
ATOM     64  O   UNL A   1      33.331  34.014  32.374  1.00  0.00    -0.744 OA
ENDBRANCH  60  61
ENDBRANCH  28  53
BRANCH  40  65
ATOM     65  C   UNL A   1      43.272  28.931  33.726  1.00  0.00     0.058 A 
ATOM     66  C   UNL A   1      43.482  29.377  35.044  1.00  0.00     0.135 A 
ATOM     67  C   UNL A   1      42.765  27.635  33.563  1.00  0.00     0.135 A 
ATOM     68  F   UNL A   1      43.870  30.636  35.292  1.00  0.00    -0.206 F 
ATOM     69  C   UNL A   1      43.232  28.553  36.146  1.00  0.00     0.059 A 
ATOM     70  C   UNL A   1      42.478  26.810  34.643  1.00  0.00     0.059 A 
ATOM     71  F   UNL A   1      42.483  27.174  32.331  1.00  0.00    -0.206 F 
ATOM     72  C   UNL A   1      42.726  27.269  35.934  1.00  0.00     0.060 A 
BRANCH  72  73
ATOM     73  S   UNL A   1      42.338  26.219  37.350  1.00  0.00     0.124 S 
ATOM     74  O   UNL A   1      40.959  26.596  37.643  1.00  0.00    -0.237 OA
ATOM     75  O   UNL A   1      42.529  24.877  36.811  1.00  0.00    -0.237 OA
ATOM     76  O   UNL A   1      43.319  26.623  38.356  1.00  0.00    -0.744 OA
ENDBRANCH  72  73
ENDBRANCH  40  65
ENDBRANCH  14  15
ENDBRANCH   7   9
ENDBRANCH   4   5
ENDBRANCH   3   4
ENDBRANCH   2   3
ENDBRANCH   1   2
BRANCH   1  77
ATOM     77  C   UNL A   1      34.026  23.424  22.332  1.00  0.00     0.021 C 
BRANCH  77  78
ATOM     78  C   UNL A   1      32.879  24.383  22.032  1.00  0.00     0.116 C 
BRANCH  78  79
ATOM     79  N   UNL A   1      31.717  24.510  23.065  1.00  0.00    -0.356 N 
ATOM     80  C   UNL A   1      31.471  24.992  24.386  1.00  0.00     0.224 C 
ATOM     81  H   UNL A   1      30.890  24.139  22.685  1.00  0.00     0.163 HD
ATOM     82  O   UNL A   1      30.361  24.975  24.931  1.00  0.00    -0.275 OA
BRANCH  80  83
ATOM     83  C   UNL A   1      32.541  25.297  25.361  1.00  0.00     0.098 C 
ATOM     84  C   UNL A   1      31.772  25.305  26.616  1.00  0.00     0.098 C 
ATOM     85  C   UNL A   1      33.063  26.630  24.721  1.00  0.00     0.025 C 
ATOM     86  C   UNL A   1      31.458  26.988  26.703  1.00  0.00     0.025 C 
ATOM     87  C   UNL A   1      31.873  27.497  24.328  1.00  0.00    -0.027 C 
ATOM     88  C   UNL A   1      33.790  27.514  25.711  1.00  0.00     0.009 C 
ATOM     89  C   UNL A   1      31.051  27.717  25.368  1.00  0.00    -0.027 C 
ATOM     90  C   UNL A   1      32.830  27.766  26.905  1.00  0.00     0.009 C 
BRANCH  84  91
ATOM     91  C   UNL A   1      30.900  23.694  26.649  1.00  0.00     0.228 C 
ATOM     92  O   UNL A   1      29.773  23.775  27.192  1.00  0.00    -0.274 OA
ATOM     93  N   UNL A   1      31.131  22.335  26.144  1.00  0.00    -0.326 N 
ATOM     94  H   UNL A   1      30.428  21.742  26.494  1.00  0.00     0.169 HD
BRANCH  93  95
ATOM     95  C   UNL A   1      32.065  21.526  25.278  1.00  0.00     0.041 A 
ATOM     96  C   UNL A   1      33.023  20.649  25.814  1.00  0.00     0.026 A 
ATOM     97  C   UNL A   1      32.002  21.407  23.901  1.00  0.00     0.026 A 
ATOM     98  C   UNL A   1      33.257  19.358  25.263  1.00  0.00     0.008 A 
ATOM     99  C   UNL A   1      32.339  20.160  23.262  1.00  0.00     0.008 A 
ATOM    100  C   UNL A   1      32.775  19.053  23.998  1.00  0.00    -0.026 A 
BRANCH 100 101
ATOM    101  C   UNL A   1      32.747  17.637  23.447  1.00  0.00     0.181 C 
BRANCH 101 102
ATOM    102  N   UNL A   1      33.236  16.721  24.453  1.00  0.00    -0.249 N 
ATOM    103  C   UNL A   1      34.500  16.223  24.557  1.00  0.00     0.220 A 
ATOM    104  N   UNL A   1      32.372  16.012  25.203  1.00  0.00    -0.160 NA
ATOM    105  N   UNL A   1      34.473  15.120  25.266  1.00  0.00    -0.224 NA
ATOM    106  C   UNL A   1      33.154  15.011  25.609  1.00  0.00     0.246 A 
ENDBRANCH 101 102
ENDBRANCH 100 101
ENDBRANCH  93  95
ENDBRANCH  84  91
ENDBRANCH  80  83
ENDBRANCH  78  79
ENDBRANCH  77  78
ENDBRANCH   1  77
TORSDOF 20
ENDMDL
MODEL 3
REMARK VINA RESULT:     -13.6      1.319      2.432
REMARK SMILES O=C(NCCCCCCNC(=O)[C@@H]1[C@H](C(=O)Nc2ccc(Cn3cncn3)cc2)[C@@H]2C=C[C@H]1CC2)c1ccc(-c2c3nc(c(-c4c(F)cc(S(=O)(=O)[O-])cc4F)c4ccc([nH]4)c(-c4c(F)cc(S(=O)(=O)[O-])cc4F)c4nc(c(-c5c(F)cc(S(=O)(=O)[O-])cc5F)c5ccc2[nH]5)C=C4)C=C3)cc1
REMARK SMILES IDX 7 1 6 2 5 3 4 4 3 5 1 6 2 7 36 9 37 10 101 11 38 12 100 13
REMARK SMILES IDX 39 14 40 15 41 16 94 17 42 18 99 19 93 20 95 21 43 22 98 23
REMARK SMILES IDX 92 24 91 25 44 27 78 28 57 29 77 30 58 31 61 32 76 33 96 34
REMARK SMILES IDX 59 35 60 36 75 38 97 39 62 40 45 41 46 42 55 43 47 44 48 45
REMARK SMILES IDX 54 46 56 47 49 48 50 49 51 50 52 51 53 52 79 53 80 54 89 55
REMARK SMILES IDX 81 56 82 57 88 58 90 59 83 60 84 61 85 62 86 63 87 64 63 65
REMARK SMILES IDX 64 66 73 67 65 68 66 69 72 70 74 71 67 72 68 73 69 74 70 75
REMARK SMILES IDX 71 76 8 77 9 78 10 79 11 80 12 82 13 83 14 84 33 85 30 86
REMARK SMILES IDX 32 87 34 88 31 89 35 90 15 91 16 92 17 93 18 95 19 96 29 97
REMARK SMILES IDX 20 98 28 99 21 100 22 101 23 102 24 103 27 104 25 105 26 106
REMARK H PARENT 3 8 95 26 61 37 10 81 17 94
REMARK Flexibility Score: inf
ROOT
ATOM      1  C   UNL A   1      33.183  29.466  24.688  1.00  0.00     0.002 C 
ENDROOT
BRANCH   1   2
ATOM      2  C   UNL A   1      31.899  29.080  25.392  1.00  0.00     0.002 C 
BRANCH   2   3
ATOM      3  C   UNL A   1      32.026  28.947  26.897  1.00  0.00     0.021 C 
BRANCH   3   4
ATOM      4  C   UNL A   1      33.349  29.441  27.504  1.00  0.00     0.116 C 
BRANCH   4   5
ATOM      5  N   UNL A   1      33.457  30.865  27.715  1.00  0.00    -0.352 N 
ATOM      6  O   UNL A   1      34.376  32.887  27.798  1.00  0.00    -0.269 OA
ATOM      7  C   UNL A   1      34.547  31.672  27.901  1.00  0.00     0.251 C 
ATOM      8  H   UNL A   1      32.595  31.339  27.726  1.00  0.00     0.163 HD
BRANCH   7   9
ATOM      9  C   UNL A   1      35.860  31.146  28.351  1.00  0.00     0.039 A 
ATOM     10  C   UNL A   1      36.826  31.888  29.029  1.00  0.00     0.014 A 
ATOM     11  C   UNL A   1      36.172  29.843  27.941  1.00  0.00     0.014 A 
ATOM     12  C   UNL A   1      38.138  31.463  29.054  1.00  0.00     0.010 A 
ATOM     13  C   UNL A   1      37.464  29.362  28.062  1.00  0.00     0.010 A 
ATOM     14  C   UNL A   1      38.460  30.206  28.545  1.00  0.00    -0.014 A 
BRANCH  14  15
ATOM     15  C   UNL A   1      39.798  29.705  28.822  1.00  0.00     0.031 A 
ATOM     16  C   UNL A   1      40.074  29.687  30.290  1.00  0.00     0.074 A 
ATOM     17  C   UNL A   1      40.616  29.202  27.873  1.00  0.00     0.049 A 
ATOM     18  N   UNL A   1      40.932  30.403  30.942  1.00  0.00    -0.248 NA
ATOM     19  C   UNL A   1      39.108  28.992  31.165  1.00  0.00     0.031 C 
ATOM     20  C   UNL A   1      40.335  29.002  26.450  1.00  0.00     0.029 A 
ATOM     21  N   UNL A   1      41.863  28.666  28.009  1.00  0.00    -0.354 N 
ATOM     22  C   UNL A   1      40.797  30.024  32.277  1.00  0.00     0.074 A 
ATOM     23  C   UNL A   1      39.533  29.353  32.377  1.00  0.00     0.031 C 
ATOM     24  C   UNL A   1      41.263  28.171  25.919  1.00  0.00     0.029 A 
ATOM     25  C   UNL A   1      42.278  27.894  26.918  1.00  0.00     0.049 A 
ATOM     26  H   UNL A   1      42.422  28.809  28.806  1.00  0.00     0.167 HD
ATOM     27  C   UNL A   1      41.876  30.033  33.109  1.00  0.00     0.037 A 
ATOM     28  C   UNL A   1      43.348  27.049  26.890  1.00  0.00     0.037 A 
ATOM     29  C   UNL A   1      42.903  30.902  32.587  1.00  0.00     0.049 A 
ATOM     30  C   UNL A   1      44.257  27.481  27.989  1.00  0.00     0.074 A 
ATOM     31  C   UNL A   1      42.983  32.249  32.289  1.00  0.00     0.029 A 
ATOM     32  N   UNL A   1      43.946  30.307  31.919  1.00  0.00    -0.354 N 
ATOM     33  N   UNL A   1      44.867  28.636  27.995  1.00  0.00    -0.248 NA
ATOM     34  C   UNL A   1      44.051  26.871  29.294  1.00  0.00     0.031 C 
ATOM     35  C   UNL A   1      43.753  32.315  31.091  1.00  0.00     0.029 A 
ATOM     36  C   UNL A   1      44.182  31.026  30.778  1.00  0.00     0.049 A 
ATOM     37  H   UNL A   1      44.437  29.506  32.211  1.00  0.00     0.167 HD
ATOM     38  C   UNL A   1      44.723  29.101  29.294  1.00  0.00     0.074 A 
ATOM     39  C   UNL A   1      44.241  27.950  30.058  1.00  0.00     0.031 C 
ATOM     40  C   UNL A   1      44.718  30.440  29.570  1.00  0.00     0.037 A 
BRANCH  27  41
ATOM     41  C   UNL A   1      42.188  28.917  34.090  1.00  0.00     0.058 A 
ATOM     42  C   UNL A   1      42.348  27.608  33.588  1.00  0.00     0.135 A 
ATOM     43  C   UNL A   1      42.023  29.005  35.492  1.00  0.00     0.135 A 
ATOM     44  F   UNL A   1      42.545  27.396  32.276  1.00  0.00    -0.206 F 
ATOM     45  C   UNL A   1      42.221  26.474  34.391  1.00  0.00     0.059 A 
ATOM     46  C   UNL A   1      41.936  27.889  36.317  1.00  0.00     0.059 A 
ATOM     47  F   UNL A   1      41.856  30.163  36.136  1.00  0.00    -0.206 F 
ATOM     48  C   UNL A   1      41.990  26.627  35.752  1.00  0.00     0.060 A 
BRANCH  48  49
ATOM     49  S   UNL A   1      41.735  25.173  36.780  1.00  0.00     0.124 S 
ATOM     50  O   UNL A   1      41.702  24.109  35.765  1.00  0.00    -0.237 OA
ATOM     51  O   UNL A   1      42.914  25.199  37.631  1.00  0.00    -0.237 OA
ATOM     52  O   UNL A   1      40.472  25.444  37.444  1.00  0.00    -0.744 OA
ENDBRANCH  48  49
ENDBRANCH  27  41
BRANCH  28  53
ATOM     53  C   UNL A   1      43.423  25.682  26.290  1.00  0.00     0.058 A 
ATOM     54  C   UNL A   1      44.385  25.345  25.315  1.00  0.00     0.135 A 
ATOM     55  C   UNL A   1      42.741  24.595  26.874  1.00  0.00     0.135 A 
ATOM     56  F   UNL A   1      45.106  26.308  24.722  1.00  0.00    -0.206 F 
ATOM     57  C   UNL A   1      44.678  24.014  24.973  1.00  0.00     0.059 A 
ATOM     58  C   UNL A   1      43.013  23.265  26.547  1.00  0.00     0.059 A 
ATOM     59  F   UNL A   1      41.849  24.789  27.856  1.00  0.00    -0.206 F 
ATOM     60  C   UNL A   1      43.998  22.978  25.610  1.00  0.00     0.060 A 
BRANCH  60  61
ATOM     61  S   UNL A   1      44.473  21.256  25.302  1.00  0.00     0.124 S 
ATOM     62  O   UNL A   1      44.364  21.166  23.850  1.00  0.00    -0.237 OA
ATOM     63  O   UNL A   1      45.826  21.204  25.844  1.00  0.00    -0.237 OA
ATOM     64  O   UNL A   1      43.477  20.491  26.049  1.00  0.00    -0.744 OA
ENDBRANCH  60  61
ENDBRANCH  28  53
BRANCH  40  65
ATOM     65  C   UNL A   1      45.139  31.401  28.489  1.00  0.00     0.058 A 
ATOM     66  C   UNL A   1      44.328  31.818  27.417  1.00  0.00     0.135 A 
ATOM     67  C   UNL A   1      46.369  32.052  28.651  1.00  0.00     0.135 A 
ATOM     68  F   UNL A   1      43.095  31.318  27.249  1.00  0.00    -0.206 F 
ATOM     69  C   UNL A   1      44.741  32.816  26.529  1.00  0.00     0.059 A 
ATOM     70  C   UNL A   1      46.787  33.068  27.801  1.00  0.00     0.059 A 
ATOM     71  F   UNL A   1      47.160  31.743  29.692  1.00  0.00    -0.206 F 
ATOM     72  C   UNL A   1      45.975  33.437  26.731  1.00  0.00     0.060 A 
BRANCH  72  73
ATOM     73  S   UNL A   1      46.492  34.771  25.630  1.00  0.00     0.124 S 
ATOM     74  O   UNL A   1      45.613  34.580  24.482  1.00  0.00    -0.237 OA
ATOM     75  O   UNL A   1      46.238  35.962  26.434  1.00  0.00    -0.237 OA
ATOM     76  O   UNL A   1      47.905  34.485  25.385  1.00  0.00    -0.744 OA
ENDBRANCH  72  73
ENDBRANCH  40  65
ENDBRANCH  14  15
ENDBRANCH   7   9
ENDBRANCH   4   5
ENDBRANCH   3   4
ENDBRANCH   2   3
ENDBRANCH   1   2
BRANCH   1  77
ATOM     77  C   UNL A   1      33.673  28.681  23.464  1.00  0.00     0.021 C 
BRANCH  77  78
ATOM     78  C   UNL A   1      34.078  27.223  23.652  1.00  0.00     0.116 C 
BRANCH  78  79
ATOM     79  N   UNL A   1      33.629  26.479  24.947  1.00  0.00    -0.356 N 
ATOM     80  C   UNL A   1      33.424  25.155  25.437  1.00  0.00     0.224 C 
ATOM     81  H   UNL A   1      33.419  27.133  25.652  1.00  0.00     0.163 HD
ATOM     82  O   UNL A   1      33.077  24.892  26.594  1.00  0.00    -0.275 OA
BRANCH  80  83
ATOM     83  C   UNL A   1      33.316  23.965  24.564  1.00  0.00     0.098 C 
ATOM     84  C   UNL A   1      32.586  23.043  25.449  1.00  0.00     0.098 C 
ATOM     85  C   UNL A   1      34.841  23.761  24.263  1.00  0.00     0.025 C 
ATOM     86  C   UNL A   1      33.933  22.215  26.111  1.00  0.00     0.025 C 
ATOM     87  C   UNL A   1      35.632  23.910  25.556  1.00  0.00    -0.027 C 
ATOM     88  C   UNL A   1      35.176  22.346  23.844  1.00  0.00     0.009 C 
ATOM     89  C   UNL A   1      35.185  23.080  26.513  1.00  0.00    -0.027 C 
ATOM     90  C   UNL A   1      34.660  21.395  24.959  1.00  0.00     0.009 C 
BRANCH  84  91
ATOM     91  C   UNL A   1      31.092  23.968  25.968  1.00  0.00     0.228 C 
ATOM     92  O   UNL A   1      30.852  23.836  27.192  1.00  0.00    -0.274 OA
ATOM     93  N   UNL A   1      30.128  24.889  25.353  1.00  0.00    -0.326 N 
ATOM     94  H   UNL A   1      29.403  25.065  25.994  1.00  0.00     0.169 HD
BRANCH  93  95
ATOM     95  C   UNL A   1      29.857  25.661  24.086  1.00  0.00     0.041 A 
ATOM     96  C   UNL A   1      28.743  26.504  23.938  1.00  0.00     0.026 A 
ATOM     97  C   UNL A   1      30.712  25.779  23.004  1.00  0.00     0.026 A 
ATOM     98  C   UNL A   1      28.840  27.784  23.323  1.00  0.00     0.008 A 
ATOM     99  C   UNL A   1      30.779  27.011  22.259  1.00  0.00     0.008 A 
ATOM    100  C   UNL A   1      29.964  28.103  22.574  1.00  0.00    -0.026 A 
BRANCH 100 101
ATOM    101  C   UNL A   1      30.270  29.517  22.110  1.00  0.00     0.181 C 
BRANCH 101 102
ATOM    102  N   UNL A   1      29.208  30.402  22.536  1.00  0.00    -0.249 N 
ATOM    103  C   UNL A   1      28.301  31.031  21.737  1.00  0.00     0.220 A 
ATOM    104  N   UNL A   1      29.232  30.948  23.766  1.00  0.00    -0.160 NA
ATOM    105  N   UNL A   1      27.807  32.065  22.376  1.00  0.00    -0.224 NA
ATOM    106  C   UNL A   1      28.427  31.997  23.592  1.00  0.00     0.246 A 
ENDBRANCH 101 102
ENDBRANCH 100 101
ENDBRANCH  93  95
ENDBRANCH  84  91
ENDBRANCH  80  83
ENDBRANCH  78  79
ENDBRANCH  77  78
ENDBRANCH   1  77
TORSDOF 20
ENDMDL
