MODEL 1
REMARK VINA RESULT:     -12.3      0.000      0.000
REMARK SMILES O=C(NCCCCCCNC(=O)[C@H]1C[C@](O)(c2ccc(F)cc2)[C@@H](c2ccc(F)cc2)O1)c1ccc(-c2c3nc(c(-c4c(F)cc(S(=O)(=O)[O-])cc4F)c4ccc([nH]4)c(-c4c(F)cc(S(=O)(=O)[O-])cc4F)c4nc(c(-c5c(F)cc(S(=O)(=O)[O-])cc5F)c5ccc2[nH]5)C=C4)C=C3)cc1
REMARK SMILES IDX 5 1 4 2 3 3 1 4 2 5 33 7 34 8 98 9 35 10 97 11 36 12 37 13
REMARK SMILES IDX 38 14 91 15 39 16 96 17 90 18 92 19 40 20 95 21 89 22 88 23
REMARK SMILES IDX 41 25 75 26 54 27 74 28 55 29 58 30 73 31 93 32 56 33 57 34
REMARK SMILES IDX 72 36 94 37 59 38 42 39 43 40 52 41 44 42 45 43 51 44 53 45
REMARK SMILES IDX 46 46 47 47 48 48 49 49 50 50 76 51 77 52 86 53 78 54 79 55
REMARK SMILES IDX 85 56 87 57 80 58 81 59 82 60 83 61 84 62 60 63 61 64 70 65
REMARK SMILES IDX 62 66 63 67 69 68 71 69 64 70 65 71 66 72 67 73 68 74 6 75
REMARK SMILES IDX 7 76 8 77 9 78 10 79 11 80 12 82 13 83 14 84 32 85 15 86
REMARK SMILES IDX 24 87 17 88 18 89 23 90 19 91 22 92 20 93 21 94 16 95 25 97
REMARK SMILES IDX 26 98 31 99 27 100 30 101 28 102 29 103
REMARK H PARENT 3 6 92 24 58 35 10 81 16 96
REMARK Flexibility Score: inf
ROOT
ATOM      1  C   UNL A   1      42.417  22.128  27.329  1.00  0.00     0.021 C 
ENDROOT
BRANCH   1   2
ATOM      2  C   UNL A   1      42.989  23.538  27.352  1.00  0.00     0.116 C 
BRANCH   2   3
ATOM      3  N   UNL A   1      42.651  24.292  26.157  1.00  0.00    -0.352 N 
ATOM      4  O   UNL A   1      41.674  25.911  24.940  1.00  0.00    -0.269 OA
ATOM      5  C   UNL A   1      42.038  25.513  26.038  1.00  0.00     0.251 C 
ATOM      6  H   UNL A   1      42.901  23.863  25.307  1.00  0.00     0.163 HD
BRANCH   5   7
ATOM      7  C   UNL A   1      41.810  26.338  27.246  1.00  0.00     0.039 A 
ATOM      8  C   UNL A   1      42.625  27.437  27.520  1.00  0.00     0.014 A 
ATOM      9  C   UNL A   1      40.749  26.019  28.100  1.00  0.00     0.014 A 
ATOM     10  C   UNL A   1      42.466  28.137  28.707  1.00  0.00     0.010 A 
ATOM     11  C   UNL A   1      40.528  26.787  29.245  1.00  0.00     0.010 A 
ATOM     12  C   UNL A   1      41.394  27.843  29.566  1.00  0.00    -0.014 A 
BRANCH  12  13
ATOM     13  C   UNL A   1      41.149  28.720  30.736  1.00  0.00     0.031 A 
ATOM     14  C   UNL A   1      42.027  28.662  31.953  1.00  0.00     0.074 A 
ATOM     15  C   UNL A   1      40.129  29.600  30.668  1.00  0.00     0.049 A 
ATOM     16  N   UNL A   1      41.950  29.367  33.052  1.00  0.00    -0.248 NA
ATOM     17  C   UNL A   1      43.130  27.688  31.942  1.00  0.00     0.031 C 
ATOM     18  C   UNL A   1      39.213  29.735  29.529  1.00  0.00     0.029 A 
ATOM     19  N   UNL A   1      39.703  30.561  31.546  1.00  0.00    -0.354 N 
ATOM     20  C   UNL A   1      42.981  28.918  33.868  1.00  0.00     0.074 A 
ATOM     21  C   UNL A   1      43.655  27.858  33.149  1.00  0.00     0.031 C 
ATOM     22  C   UNL A   1      38.377  30.757  29.753  1.00  0.00     0.029 A 
ATOM     23  C   UNL A   1      38.641  31.299  31.080  1.00  0.00     0.049 A 
ATOM     24  H   UNL A   1      40.118  30.708  32.427  1.00  0.00     0.167 HD
ATOM     25  C   UNL A   1      43.333  29.361  35.099  1.00  0.00     0.037 A 
ATOM     26  C   UNL A   1      37.940  32.291  31.661  1.00  0.00     0.037 A 
ATOM     27  C   UNL A   1      42.651  30.423  35.796  1.00  0.00     0.049 A 
ATOM     28  C   UNL A   1      38.324  32.729  33.043  1.00  0.00     0.074 A 
ATOM     29  C   UNL A   1      42.939  30.957  37.041  1.00  0.00     0.029 A 
ATOM     30  N   UNL A   1      41.547  31.113  35.314  1.00  0.00    -0.354 N 
ATOM     31  N   UNL A   1      39.309  32.300  33.796  1.00  0.00    -0.248 NA
ATOM     32  C   UNL A   1      37.501  33.776  33.660  1.00  0.00     0.031 C 
ATOM     33  C   UNL A   1      41.979  31.932  37.331  1.00  0.00     0.029 A 
ATOM     34  C   UNL A   1      41.128  32.050  36.244  1.00  0.00     0.049 A 
ATOM     35  H   UNL A   1      41.122  30.958  34.438  1.00  0.00     0.167 HD
ATOM     36  C   UNL A   1      39.232  33.032  34.973  1.00  0.00     0.074 A 
ATOM     37  C   UNL A   1      38.117  33.946  34.823  1.00  0.00     0.031 C 
ATOM     38  C   UNL A   1      40.013  32.951  36.078  1.00  0.00     0.037 A 
BRANCH  25  39
ATOM     39  C   UNL A   1      44.499  28.701  35.785  1.00  0.00     0.058 A 
ATOM     40  C   UNL A   1      45.811  29.136  35.539  1.00  0.00     0.135 A 
ATOM     41  C   UNL A   1      44.327  27.591  36.627  1.00  0.00     0.135 A 
ATOM     42  F   UNL A   1      46.036  30.196  34.747  1.00  0.00    -0.206 F 
ATOM     43  C   UNL A   1      46.912  28.483  36.087  1.00  0.00     0.059 A 
ATOM     44  C   UNL A   1      45.412  26.937  37.206  1.00  0.00     0.059 A 
ATOM     45  F   UNL A   1      43.093  27.145  36.913  1.00  0.00    -0.206 F 
ATOM     46  C   UNL A   1      46.702  27.381  36.917  1.00  0.00     0.060 A 
BRANCH  46  47
ATOM     47  S   UNL A   1      48.138  26.558  37.638  1.00  0.00     0.124 S 
ATOM     48  O   UNL A   1      49.174  26.842  36.652  1.00  0.00    -0.237 OA
ATOM     49  O   UNL A   1      48.272  27.245  38.920  1.00  0.00    -0.237 OA
ATOM     50  O   UNL A   1      47.718  25.163  37.727  1.00  0.00    -0.744 OA
ENDBRANCH  46  47
ENDBRANCH  25  39
BRANCH  26  51
ATOM     51  C   UNL A   1      36.813  32.919  30.924  1.00  0.00     0.058 A 
ATOM     52  C   UNL A   1      37.042  33.865  29.912  1.00  0.00     0.135 A 
ATOM     53  C   UNL A   1      35.482  32.633  31.261  1.00  0.00     0.135 A 
ATOM     54  F   UNL A   1      38.296  34.185  29.560  1.00  0.00    -0.206 F 
ATOM     55  C   UNL A   1      35.995  34.532  29.287  1.00  0.00     0.059 A 
ATOM     56  C   UNL A   1      34.415  33.264  30.627  1.00  0.00     0.059 A 
ATOM     57  F   UNL A   1      35.213  31.730  32.216  1.00  0.00    -0.206 F 
ATOM     58  C   UNL A   1      34.684  34.228  29.655  1.00  0.00     0.060 A 
BRANCH  58  59
ATOM     59  S   UNL A   1      33.340  35.118  28.843  1.00  0.00     0.124 S 
ATOM     60  O   UNL A   1      32.529  35.525  29.986  1.00  0.00    -0.237 OA
ATOM     61  O   UNL A   1      34.054  36.189  28.157  1.00  0.00    -0.237 OA
ATOM     62  O   UNL A   1      32.742  34.108  27.976  1.00  0.00    -0.744 OA
ENDBRANCH  58  59
ENDBRANCH  26  51
BRANCH  38  63
ATOM     63  C   UNL A   1      39.702  33.887  37.212  1.00  0.00     0.058 A 
ATOM     64  C   UNL A   1      40.287  35.162  37.261  1.00  0.00     0.135 A 
ATOM     65  C   UNL A   1      38.885  33.497  38.285  1.00  0.00     0.135 A 
ATOM     66  F   UNL A   1      41.079  35.583  36.262  1.00  0.00    -0.206 F 
ATOM     67  C   UNL A   1      40.088  36.012  38.344  1.00  0.00     0.059 A 
ATOM     68  C   UNL A   1      38.649  34.342  39.365  1.00  0.00     0.059 A 
ATOM     69  F   UNL A   1      38.292  32.293  38.278  1.00  0.00    -0.206 F 
ATOM     70  C   UNL A   1      39.270  35.590  39.393  1.00  0.00     0.060 A 
BRANCH  70  71
ATOM     71  S   UNL A   1      39.017  36.710  40.785  1.00  0.00     0.124 S 
ATOM     72  O   UNL A   1      40.389  37.016  41.175  1.00  0.00    -0.237 OA
ATOM     73  O   UNL A   1      38.272  37.804  40.169  1.00  0.00    -0.237 OA
ATOM     74  O   UNL A   1      38.259  35.903  41.737  1.00  0.00    -0.744 OA
ENDBRANCH  70  71
ENDBRANCH  38  63
ENDBRANCH  12  13
ENDBRANCH   5   7
ENDBRANCH   2   3
ENDBRANCH   1   2
BRANCH   1  75
ATOM     75  C   UNL A   1      41.005  21.989  27.902  1.00  0.00     0.002 C 
BRANCH  75  76
ATOM     76  C   UNL A   1      39.889  22.705  27.130  1.00  0.00     0.002 C 
BRANCH  76  77
ATOM     77  C   UNL A   1      39.114  21.852  26.128  1.00  0.00     0.021 C 
BRANCH  77  78
ATOM     78  C   UNL A   1      37.804  22.460  25.656  1.00  0.00     0.116 C 
BRANCH  78  79
ATOM     79  N   UNL A   1      37.497  22.280  24.261  1.00  0.00    -0.354 N 
ATOM     80  C   UNL A   1      36.509  22.851  23.514  1.00  0.00     0.249 C 
ATOM     81  H   UNL A   1      38.083  21.654  23.777  1.00  0.00     0.163 HD
ATOM     82  O   UNL A   1      36.622  22.725  22.286  1.00  0.00    -0.272 OA
BRANCH  80  83
ATOM     83  C   UNL A   1      35.291  23.647  24.092  1.00  0.00     0.211 C 
ATOM     84  C   UNL A   1      34.297  24.273  23.140  1.00  0.00     0.085 C 
ATOM     85  O   UNL A   1      34.529  23.041  25.128  1.00  0.00    -0.357 OA
ATOM     86  C   UNL A   1      32.941  23.558  23.374  1.00  0.00     0.123 C 
ATOM     87  C   UNL A   1      33.259  22.599  24.594  1.00  0.00     0.186 C 
BRANCH  86  88
ATOM     88  C   UNL A   1      31.839  24.623  23.497  1.00  0.00    -0.013 A 
ATOM     89  C   UNL A   1      31.151  24.743  24.734  1.00  0.00     0.010 A 
ATOM     90  C   UNL A   1      31.555  25.570  22.504  1.00  0.00     0.010 A 
ATOM     91  C   UNL A   1      30.184  25.724  24.948  1.00  0.00     0.039 A 
ATOM     92  C   UNL A   1      30.586  26.560  22.723  1.00  0.00     0.039 A 
ATOM     93  C   UNL A   1      29.906  26.623  23.935  1.00  0.00     0.123 A 
ATOM     94  F   UNL A   1      28.983  27.572  24.132  1.00  0.00    -0.207 F 
ENDBRANCH  86  88
BRANCH  86  95
ATOM     95  O   UNL A   1      32.568  22.821  22.197  1.00  0.00    -0.382 OA
ATOM     96  H   UNL A   1      31.767  23.211  21.812  1.00  0.00     0.212 HD
ENDBRANCH  86  95
BRANCH  87  97
ATOM     97  C   UNL A   1      33.363  21.080  24.379  1.00  0.00    -0.016 A 
ATOM     98  C   UNL A   1      34.454  20.340  24.896  1.00  0.00     0.009 A 
ATOM     99  C   UNL A   1      32.364  20.365  23.700  1.00  0.00     0.009 A 
ATOM    100  C   UNL A   1      34.600  18.974  24.645  1.00  0.00     0.039 A 
ATOM    101  C   UNL A   1      32.498  18.989  23.467  1.00  0.00     0.039 A 
ATOM    102  C   UNL A   1      33.623  18.312  23.920  1.00  0.00     0.123 A 
ATOM    103  F   UNL A   1      33.778  17.012  23.640  1.00  0.00    -0.207 F 
ENDBRANCH  87  97
ENDBRANCH  80  83
ENDBRANCH  78  79
ENDBRANCH  77  78
ENDBRANCH  76  77
ENDBRANCH  75  76
ENDBRANCH   1  75
TORSDOF 19
ENDMDL
MODEL 2
REMARK VINA RESULT:     -12.2      1.187      3.271
REMARK SMILES O=C(NCCCCCCNC(=O)[C@H]1C[C@](O)(c2ccc(F)cc2)[C@@H](c2ccc(F)cc2)O1)c1ccc(-c2c3nc(c(-c4c(F)cc(S(=O)(=O)[O-])cc4F)c4ccc([nH]4)c(-c4c(F)cc(S(=O)(=O)[O-])cc4F)c4nc(c(-c5c(F)cc(S(=O)(=O)[O-])cc5F)c5ccc2[nH]5)C=C4)C=C3)cc1
REMARK SMILES IDX 5 1 4 2 3 3 1 4 2 5 33 7 34 8 98 9 35 10 97 11 36 12 37 13
REMARK SMILES IDX 38 14 91 15 39 16 96 17 90 18 92 19 40 20 95 21 89 22 88 23
REMARK SMILES IDX 41 25 75 26 54 27 74 28 55 29 58 30 73 31 93 32 56 33 57 34
REMARK SMILES IDX 72 36 94 37 59 38 42 39 43 40 52 41 44 42 45 43 51 44 53 45
REMARK SMILES IDX 46 46 47 47 48 48 49 49 50 50 76 51 77 52 86 53 78 54 79 55
REMARK SMILES IDX 85 56 87 57 80 58 81 59 82 60 83 61 84 62 60 63 61 64 70 65
REMARK SMILES IDX 62 66 63 67 69 68 71 69 64 70 65 71 66 72 67 73 68 74 6 75
REMARK SMILES IDX 7 76 8 77 9 78 10 79 11 80 12 82 13 83 14 84 32 85 15 86
REMARK SMILES IDX 24 87 17 88 18 89 23 90 19 91 22 92 20 93 21 94 16 95 25 97
REMARK SMILES IDX 26 98 31 99 27 100 30 101 28 102 29 103
REMARK H PARENT 3 6 92 24 58 35 10 81 16 96
REMARK Flexibility Score: inf
ROOT
ATOM      1  C   UNL A   1      43.743  22.912  27.152  1.00  0.00     0.021 C 
ENDROOT
BRANCH   1   2
ATOM      2  C   UNL A   1      43.752  24.399  26.832  1.00  0.00     0.116 C 
BRANCH   2   3
ATOM      3  N   UNL A   1      42.767  24.754  25.823  1.00  0.00    -0.352 N 
ATOM      4  O   UNL A   1      40.850  25.608  25.013  1.00  0.00    -0.269 OA
ATOM      5  C   UNL A   1      41.667  25.568  25.924  1.00  0.00     0.251 C 
ATOM      6  H   UNL A   1      42.912  24.351  24.937  1.00  0.00     0.163 HD
BRANCH   5   7
ATOM      7  C   UNL A   1      41.471  26.386  27.141  1.00  0.00     0.039 A 
ATOM      8  C   UNL A   1      42.204  27.559  27.335  1.00  0.00     0.014 A 
ATOM      9  C   UNL A   1      40.523  25.985  28.088  1.00  0.00     0.014 A 
ATOM     10  C   UNL A   1      42.085  28.259  28.527  1.00  0.00     0.010 A 
ATOM     11  C   UNL A   1      40.334  26.747  29.243  1.00  0.00     0.010 A 
ATOM     12  C   UNL A   1      41.124  27.881  29.479  1.00  0.00    -0.014 A 
BRANCH  12  13
ATOM     13  C   UNL A   1      40.904  28.750  30.660  1.00  0.00     0.031 A 
ATOM     14  C   UNL A   1      41.785  28.658  31.872  1.00  0.00     0.074 A 
ATOM     15  C   UNL A   1      39.903  29.652  30.607  1.00  0.00     0.049 A 
ATOM     16  N   UNL A   1      41.729  29.352  32.980  1.00  0.00    -0.248 NA
ATOM     17  C   UNL A   1      42.867  27.661  31.845  1.00  0.00     0.031 C 
ATOM     18  C   UNL A   1      38.985  29.820  29.475  1.00  0.00     0.029 A 
ATOM     19  N   UNL A   1      39.501  30.611  31.499  1.00  0.00    -0.354 N 
ATOM     20  C   UNL A   1      42.754  28.871  33.786  1.00  0.00     0.074 A 
ATOM     21  C   UNL A   1      43.402  27.806  33.051  1.00  0.00     0.031 C 
ATOM     22  C   UNL A   1      38.171  30.856  29.714  1.00  0.00     0.029 A 
ATOM     23  C   UNL A   1      38.453  31.378  31.046  1.00  0.00     0.049 A 
ATOM     24  H   UNL A   1      39.923  30.739  32.379  1.00  0.00     0.167 HD
ATOM     25  C   UNL A   1      43.121  29.293  35.019  1.00  0.00     0.037 A 
ATOM     26  C   UNL A   1      37.776  32.377  31.641  1.00  0.00     0.037 A 
ATOM     27  C   UNL A   1      42.465  30.361  35.732  1.00  0.00     0.049 A 
ATOM     28  C   UNL A   1      38.175  32.791  33.027  1.00  0.00     0.074 A 
ATOM     29  C   UNL A   1      42.770  30.875  36.982  1.00  0.00     0.029 A 
ATOM     30  N   UNL A   1      41.373  31.080  35.263  1.00  0.00    -0.354 N 
ATOM     31  N   UNL A   1      39.154  32.332  33.770  1.00  0.00    -0.248 NA
ATOM     32  C   UNL A   1      37.378  33.848  33.660  1.00  0.00     0.031 C 
ATOM     33  C   UNL A   1      41.833  31.866  37.287  1.00  0.00     0.029 A 
ATOM     34  C   UNL A   1      40.979  32.015  36.206  1.00  0.00     0.049 A 
ATOM     35  H   UNL A   1      40.942  30.944  34.388  1.00  0.00     0.167 HD
ATOM     36  C   UNL A   1      39.098  33.052  34.956  1.00  0.00     0.074 A 
ATOM     37  C   UNL A   1      38.003  33.991  34.822  1.00  0.00     0.031 C 
ATOM     38  C   UNL A   1      39.883  32.941  36.056  1.00  0.00     0.037 A 
BRANCH  25  39
ATOM     39  C   UNL A   1      44.276  28.600  35.692  1.00  0.00     0.058 A 
ATOM     40  C   UNL A   1      45.596  29.004  35.438  1.00  0.00     0.135 A 
ATOM     41  C   UNL A   1      44.083  27.490  36.529  1.00  0.00     0.135 A 
ATOM     42  F   UNL A   1      45.841  30.063  34.650  1.00  0.00    -0.206 F 
ATOM     43  C   UNL A   1      46.685  28.321  35.973  1.00  0.00     0.059 A 
ATOM     44  C   UNL A   1      45.156  26.806  37.095  1.00  0.00     0.059 A 
ATOM     45  F   UNL A   1      42.840  27.073  36.823  1.00  0.00    -0.206 F 
ATOM     46  C   UNL A   1      46.454  27.219  36.799  1.00  0.00     0.060 A 
BRANCH  46  47
ATOM     47  S   UNL A   1      47.875  26.357  37.504  1.00  0.00     0.124 S 
ATOM     48  O   UNL A   1      47.301  25.759  38.702  1.00  0.00    -0.237 OA
ATOM     49  O   UNL A   1      48.229  25.429  36.434  1.00  0.00    -0.237 OA
ATOM     50  O   UNL A   1      48.839  27.429  37.735  1.00  0.00    -0.744 OA
ENDBRANCH  46  47
ENDBRANCH  25  39
BRANCH  26  51
ATOM     51  C   UNL A   1      36.659  33.038  30.918  1.00  0.00     0.058 A 
ATOM     52  C   UNL A   1      36.904  33.977  29.903  1.00  0.00     0.135 A 
ATOM     53  C   UNL A   1      35.325  32.790  31.270  1.00  0.00     0.135 A 
ATOM     54  F   UNL A   1      38.163  34.262  29.538  1.00  0.00    -0.206 F 
ATOM     55  C   UNL A   1      35.869  34.674  29.290  1.00  0.00     0.059 A 
ATOM     56  C   UNL A   1      34.269  33.451  30.648  1.00  0.00     0.059 A 
ATOM     57  F   UNL A   1      35.040  31.894  32.227  1.00  0.00    -0.206 F 
ATOM     58  C   UNL A   1      34.555  34.407  29.673  1.00  0.00     0.060 A 
BRANCH  58  59
ATOM     59  S   UNL A   1      33.227  35.336  28.876  1.00  0.00     0.124 S 
ATOM     60  O   UNL A   1      32.564  34.290  28.105  1.00  0.00    -0.237 OA
ATOM     61  O   UNL A   1      32.485  35.849  30.022  1.00  0.00    -0.237 OA
ATOM     62  O   UNL A   1      33.940  36.339  28.092  1.00  0.00    -0.744 OA
ENDBRANCH  58  59
ENDBRANCH  26  51
BRANCH  38  63
ATOM     63  C   UNL A   1      39.598  33.871  37.203  1.00  0.00     0.058 A 
ATOM     64  C   UNL A   1      40.078  35.189  37.183  1.00  0.00     0.135 A 
ATOM     65  C   UNL A   1      38.913  33.435  38.348  1.00  0.00     0.135 A 
ATOM     66  F   UNL A   1      40.741  35.654  36.113  1.00  0.00    -0.206 F 
ATOM     67  C   UNL A   1      39.906  36.040  38.270  1.00  0.00     0.059 A 
ATOM     68  C   UNL A   1      38.704  34.279  39.435  1.00  0.00     0.059 A 
ATOM     69  F   UNL A   1      38.422  32.188  38.409  1.00  0.00    -0.206 F 
ATOM     70  C   UNL A   1      39.220  35.574  39.393  1.00  0.00     0.060 A 
BRANCH  70  71
ATOM     71  S   UNL A   1      39.000  36.696  40.789  1.00  0.00     0.124 S 
ATOM     72  O   UNL A   1      37.993  35.996  41.579  1.00  0.00    -0.237 OA
ATOM     73  O   UNL A   1      40.342  36.738  41.365  1.00  0.00    -0.237 OA
ATOM     74  O   UNL A   1      38.556  37.937  40.161  1.00  0.00    -0.744 OA
ENDBRANCH  70  71
ENDBRANCH  38  63
ENDBRANCH  12  13
ENDBRANCH   5   7
ENDBRANCH   2   3
ENDBRANCH   1   2
BRANCH   1  75
ATOM     75  C   UNL A   1      42.925  22.515  28.383  1.00  0.00     0.002 C 
BRANCH  75  76
ATOM     76  C   UNL A   1      41.406  22.689  28.269  1.00  0.00     0.002 C 
BRANCH  76  77
ATOM     77  C   UNL A   1      40.653  21.563  27.562  1.00  0.00     0.021 C 
BRANCH  77  78
ATOM     78  C   UNL A   1      40.115  21.923  26.188  1.00  0.00     0.116 C 
BRANCH  78  79
ATOM     79  N   UNL A   1      39.219  23.049  26.142  1.00  0.00    -0.354 N 
ATOM     80  C   UNL A   1      37.933  23.111  25.693  1.00  0.00     0.249 C 
ATOM     81  H   UNL A   1      39.588  23.896  26.482  1.00  0.00     0.163 HD
ATOM     82  O   UNL A   1      37.304  24.133  26.000  1.00  0.00    -0.272 OA
BRANCH  80  83
ATOM     83  C   UNL A   1      37.218  21.996  24.857  1.00  0.00     0.211 C 
ATOM     84  C   UNL A   1      36.370  20.966  25.568  1.00  0.00     0.085 C 
ATOM     85  O   UNL A   1      36.486  22.393  23.704  1.00  0.00    -0.357 OA
ATOM     86  C   UNL A   1      34.912  21.173  25.083  1.00  0.00     0.123 C 
ATOM     87  C   UNL A   1      35.069  22.300  23.981  1.00  0.00     0.186 C 
BRANCH  86  88
ATOM     88  C   UNL A   1      34.321  19.804  24.708  1.00  0.00    -0.013 A 
ATOM     89  C   UNL A   1      35.200  18.692  24.610  1.00  0.00     0.010 A 
ATOM     90  C   UNL A   1      32.948  19.556  24.579  1.00  0.00     0.010 A 
ATOM     91  C   UNL A   1      34.736  17.407  24.337  1.00  0.00     0.039 A 
ATOM     92  C   UNL A   1      32.482  18.261  24.311  1.00  0.00     0.039 A 
ATOM     93  C   UNL A   1      33.377  17.203  24.184  1.00  0.00     0.123 A 
ATOM     94  F   UNL A   1      32.920  15.972  23.928  1.00  0.00    -0.207 F 
ENDBRANCH  86  88
BRANCH  86  95
ATOM     95  O   UNL A   1      34.089  21.607  26.179  1.00  0.00    -0.382 OA
ATOM     96  H   UNL A   1      34.575  22.259  26.709  1.00  0.00     0.212 HD
ENDBRANCH  86  95
BRANCH  87  97
ATOM     97  C   UNL A   1      34.567  23.727  24.254  1.00  0.00    -0.016 A 
ATOM     98  C   UNL A   1      34.463  24.227  25.575  1.00  0.00     0.009 A 
ATOM     99  C   UNL A   1      34.232  24.600  23.207  1.00  0.00     0.009 A 
ATOM    100  C   UNL A   1      33.937  25.493  25.842  1.00  0.00     0.039 A 
ATOM    101  C   UNL A   1      33.726  25.880  23.473  1.00  0.00     0.039 A 
ATOM    102  C   UNL A   1      33.562  26.305  24.786  1.00  0.00     0.123 A 
ATOM    103  F   UNL A   1      33.019  27.503  25.037  1.00  0.00    -0.207 F 
ENDBRANCH  87  97
ENDBRANCH  80  83
ENDBRANCH  78  79
ENDBRANCH  77  78
ENDBRANCH  76  77
ENDBRANCH  75  76
ENDBRANCH   1  75
TORSDOF 19
ENDMDL
MODEL 3
REMARK VINA RESULT:     -12.2      0.572      7.983
REMARK SMILES O=C(NCCCCCCNC(=O)[C@H]1C[C@](O)(c2ccc(F)cc2)[C@@H](c2ccc(F)cc2)O1)c1ccc(-c2c3nc(c(-c4c(F)cc(S(=O)(=O)[O-])cc4F)c4ccc([nH]4)c(-c4c(F)cc(S(=O)(=O)[O-])cc4F)c4nc(c(-c5c(F)cc(S(=O)(=O)[O-])cc5F)c5ccc2[nH]5)C=C4)C=C3)cc1
REMARK SMILES IDX 5 1 4 2 3 3 1 4 2 5 33 7 34 8 98 9 35 10 97 11 36 12 37 13
REMARK SMILES IDX 38 14 91 15 39 16 96 17 90 18 92 19 40 20 95 21 89 22 88 23
REMARK SMILES IDX 41 25 75 26 54 27 74 28 55 29 58 30 73 31 93 32 56 33 57 34
REMARK SMILES IDX 72 36 94 37 59 38 42 39 43 40 52 41 44 42 45 43 51 44 53 45
REMARK SMILES IDX 46 46 47 47 48 48 49 49 50 50 76 51 77 52 86 53 78 54 79 55
REMARK SMILES IDX 85 56 87 57 80 58 81 59 82 60 83 61 84 62 60 63 61 64 70 65
REMARK SMILES IDX 62 66 63 67 69 68 71 69 64 70 65 71 66 72 67 73 68 74 6 75
REMARK SMILES IDX 7 76 8 77 9 78 10 79 11 80 12 82 13 83 14 84 32 85 15 86
REMARK SMILES IDX 24 87 17 88 18 89 23 90 19 91 22 92 20 93 21 94 16 95 25 97
REMARK SMILES IDX 26 98 31 99 27 100 30 101 28 102 29 103
REMARK H PARENT 3 6 92 24 58 35 10 81 16 96
REMARK Flexibility Score: inf
ROOT
ATOM      1  C   UNL A   1      41.400  22.347  27.767  1.00  0.00     0.021 C 
ENDROOT
BRANCH   1   2
ATOM      2  C   UNL A   1      42.431  23.441  27.531  1.00  0.00     0.116 C 
BRANCH   2   3
ATOM      3  N   UNL A   1      42.176  24.188  26.312  1.00  0.00    -0.352 N 
ATOM      4  O   UNL A   1      41.347  25.845  25.035  1.00  0.00    -0.269 OA
ATOM      5  C   UNL A   1      41.658  25.449  26.151  1.00  0.00     0.251 C 
ATOM      6  H   UNL A   1      42.411  23.721  25.477  1.00  0.00     0.163 HD
BRANCH   5   7
ATOM      7  C   UNL A   1      41.466  26.317  27.334  1.00  0.00     0.039 A 
ATOM      8  C   UNL A   1      42.324  27.392  27.572  1.00  0.00     0.014 A 
ATOM      9  C   UNL A   1      40.398  26.064  28.200  1.00  0.00     0.014 A 
ATOM     10  C   UNL A   1      42.196  28.133  28.738  1.00  0.00     0.010 A 
ATOM     11  C   UNL A   1      40.211  26.874  29.323  1.00  0.00     0.010 A 
ATOM     12  C   UNL A   1      41.118  27.906  29.609  1.00  0.00    -0.014 A 
BRANCH  12  13
ATOM     13  C   UNL A   1      40.912  28.826  30.753  1.00  0.00     0.031 A 
ATOM     14  C   UNL A   1      39.824  29.861  30.736  1.00  0.00     0.074 A 
ATOM     15  C   UNL A   1      41.712  28.689  31.830  1.00  0.00     0.049 A 
ATOM     16  N   UNL A   1      39.510  30.733  31.660  1.00  0.00    -0.248 NA
ATOM     17  C   UNL A   1      38.981  29.934  29.533  1.00  0.00     0.031 C 
ATOM     18  C   UNL A   1      42.803  27.715  31.945  1.00  0.00     0.029 A 
ATOM     19  N   UNL A   1      41.725  29.339  33.036  1.00  0.00    -0.354 N 
ATOM     20  C   UNL A   1      38.445  31.465  31.149  1.00  0.00     0.074 A 
ATOM     21  C   UNL A   1      38.183  30.955  29.821  1.00  0.00     0.031 C 
ATOM     22  C   UNL A   1      43.336  27.790  33.171  1.00  0.00     0.029 A 
ATOM     23  C   UNL A   1      42.682  28.867  33.903  1.00  0.00     0.049 A 
ATOM     24  H   UNL A   1      41.107  30.072  33.259  1.00  0.00     0.167 HD
ATOM     25  C   UNL A   1      37.750  32.463  31.744  1.00  0.00     0.037 A 
ATOM     26  C   UNL A   1      43.014  29.268  35.145  1.00  0.00     0.037 A 
ATOM     27  C   UNL A   1      38.023  32.954  33.072  1.00  0.00     0.049 A 
ATOM     28  C   UNL A   1      42.256  30.407  35.760  1.00  0.00     0.074 A 
ATOM     29  C   UNL A   1      37.367  33.951  33.772  1.00  0.00     0.029 A 
ATOM     30  N   UNL A   1      39.035  32.487  33.901  1.00  0.00    -0.354 N 
ATOM     31  N   UNL A   1      41.245  31.082  35.265  1.00  0.00    -0.248 NA
ATOM     32  C   UNL A   1      42.685  30.848  37.092  1.00  0.00     0.031 C 
ATOM     33  C   UNL A   1      38.012  34.121  35.001  1.00  0.00     0.029 A 
ATOM     34  C   UNL A   1      39.034  33.190  35.095  1.00  0.00     0.049 A 
ATOM     35  H   UNL A   1      39.661  31.761  33.674  1.00  0.00     0.167 HD
ATOM     36  C   UNL A   1      40.909  32.020  36.231  1.00  0.00     0.074 A 
ATOM     37  C   UNL A   1      41.810  31.812  37.347  1.00  0.00     0.031 C 
ATOM     38  C   UNL A   1      39.941  32.970  36.194  1.00  0.00     0.037 A 
BRANCH  25  39
ATOM     39  C   UNL A   1      36.629  33.106  30.971  1.00  0.00     0.058 A 
ATOM     40  C   UNL A   1      36.903  34.013  29.936  1.00  0.00     0.135 A 
ATOM     41  C   UNL A   1      35.283  32.884  31.304  1.00  0.00     0.135 A 
ATOM     42  F   UNL A   1      38.171  34.260  29.571  1.00  0.00    -0.206 F 
ATOM     43  C   UNL A   1      35.887  34.692  29.270  1.00  0.00     0.059 A 
ATOM     44  C   UNL A   1      34.248  33.533  30.635  1.00  0.00     0.059 A 
ATOM     45  F   UNL A   1      34.961  32.011  32.272  1.00  0.00    -0.206 F 
ATOM     46  C   UNL A   1      34.560  34.447  29.629  1.00  0.00     0.060 A 
BRANCH  46  47
ATOM     47  S   UNL A   1      33.251  35.318  28.742  1.00  0.00     0.124 S 
ATOM     48  O   UNL A   1      34.012  36.269  27.940  1.00  0.00    -0.237 OA
ATOM     49  O   UNL A   1      32.608  34.233  28.006  1.00  0.00    -0.237 OA
ATOM     50  O   UNL A   1      32.447  35.899  29.813  1.00  0.00    -0.744 OA
ENDBRANCH  46  47
ENDBRANCH  25  39
BRANCH  26  51
ATOM     51  C   UNL A   1      44.115  28.579  35.866  1.00  0.00     0.058 A 
ATOM     52  C   UNL A   1      45.455  28.955  35.680  1.00  0.00     0.135 A 
ATOM     53  C   UNL A   1      43.853  27.489  36.709  1.00  0.00     0.135 A 
ATOM     54  F   UNL A   1      45.761  29.983  34.874  1.00  0.00    -0.206 F 
ATOM     55  C   UNL A   1      46.498  28.253  36.273  1.00  0.00     0.059 A 
ATOM     56  C   UNL A   1      44.879  26.789  37.339  1.00  0.00     0.059 A 
ATOM     57  F   UNL A   1      42.589  27.098  36.925  1.00  0.00    -0.206 F 
ATOM     58  C   UNL A   1      46.200  27.168  37.097  1.00  0.00     0.060 A 
BRANCH  58  59
ATOM     59  S   UNL A   1      47.570  26.259  37.842  1.00  0.00     0.124 S 
ATOM     60  O   UNL A   1      46.866  25.167  38.508  1.00  0.00    -0.237 OA
ATOM     61  O   UNL A   1      48.360  25.886  36.674  1.00  0.00    -0.237 OA
ATOM     62  O   UNL A   1      48.186  27.242  38.726  1.00  0.00    -0.744 OA
ENDBRANCH  58  59
ENDBRANCH  26  51
BRANCH  38  63
ATOM     63  C   UNL A   1      39.794  33.851  37.403  1.00  0.00     0.058 A 
ATOM     64  C   UNL A   1      40.567  35.016  37.531  1.00  0.00     0.135 A 
ATOM     65  C   UNL A   1      38.942  33.506  38.465  1.00  0.00     0.135 A 
ATOM     66  F   UNL A   1      41.399  35.389  36.547  1.00  0.00    -0.206 F 
ATOM     67  C   UNL A   1      40.516  35.798  38.680  1.00  0.00     0.059 A 
ATOM     68  C   UNL A   1      38.853  34.291  39.611  1.00  0.00     0.059 A 
ATOM     69  F   UNL A   1      38.172  32.410  38.384  1.00  0.00    -0.206 F 
ATOM     70  C   UNL A   1      39.658  35.425  39.716  1.00  0.00     0.060 A 
BRANCH  70  71
ATOM     71  S   UNL A   1      39.599  36.458  41.194  1.00  0.00     0.124 S 
ATOM     72  O   UNL A   1      39.012  35.548  42.171  1.00  0.00    -0.237 OA
ATOM     73  O   UNL A   1      41.008  36.786  41.396  1.00  0.00    -0.237 OA
ATOM     74  O   UNL A   1      38.754  37.579  40.792  1.00  0.00    -0.744 OA
ENDBRANCH  70  71
ENDBRANCH  38  63
ENDBRANCH  12  13
ENDBRANCH   5   7
ENDBRANCH   2   3
ENDBRANCH   1   2
BRANCH   1  75
ATOM     75  C   UNL A   1      40.888  21.652  26.503  1.00  0.00     0.002 C 
BRANCH  75  76
ATOM     76  C   UNL A   1      39.428  21.929  26.125  1.00  0.00     0.002 C 
BRANCH  76  77
ATOM     77  C   UNL A   1      38.793  23.164  26.763  1.00  0.00     0.021 C 
BRANCH  77  78
ATOM     78  C   UNL A   1      37.850  23.934  25.855  1.00  0.00     0.116 C 
BRANCH  78  79
ATOM     79  N   UNL A   1      37.439  23.253  24.655  1.00  0.00    -0.354 N 
ATOM     80  C   UNL A   1      36.294  23.399  23.928  1.00  0.00     0.249 C 
ATOM     81  H   UNL A   1      38.075  22.585  24.310  1.00  0.00     0.163 HD
ATOM     82  O   UNL A   1      36.301  22.881  22.803  1.00  0.00    -0.272 OA
BRANCH  80  83
ATOM     83  C   UNL A   1      35.019  24.173  24.405  1.00  0.00     0.211 C 
ATOM     84  C   UNL A   1      34.147  24.864  23.382  1.00  0.00     0.085 C 
ATOM     85  O   UNL A   1      34.138  23.515  25.307  1.00  0.00    -0.357 OA
ATOM     86  C   UNL A   1      32.770  24.152  23.412  1.00  0.00     0.123 C 
ATOM     87  C   UNL A   1      32.939  23.119  24.601  1.00  0.00     0.186 C 
BRANCH  86  88
ATOM     88  C   UNL A   1      31.665  25.220  23.468  1.00  0.00    -0.013 A 
ATOM     89  C   UNL A   1      31.659  26.237  22.477  1.00  0.00     0.010 A 
ATOM     90  C   UNL A   1      30.588  25.182  24.363  1.00  0.00     0.010 A 
ATOM     91  C   UNL A   1      30.658  27.205  22.419  1.00  0.00     0.039 A 
ATOM     92  C   UNL A   1      29.578  26.152  24.299  1.00  0.00     0.039 A 
ATOM     93  C   UNL A   1      29.625  27.156  23.338  1.00  0.00     0.123 A 
ATOM     94  F   UNL A   1      28.655  28.076  23.288  1.00  0.00    -0.207 F 
ENDBRANCH  86  88
BRANCH  86  95
ATOM     95  O   UNL A   1      32.536  23.489  22.158  1.00  0.00    -0.382 OA
ATOM     96  H   UNL A   1      33.369  23.430  21.663  1.00  0.00     0.212 HD
ENDBRANCH  86  95
BRANCH  87  97
ATOM     97  C   UNL A   1      33.062  21.614  24.310  1.00  0.00    -0.016 A 
ATOM     98  C   UNL A   1      32.225  20.981  23.359  1.00  0.00     0.009 A 
ATOM     99  C   UNL A   1      34.032  20.821  24.943  1.00  0.00     0.009 A 
ATOM    100  C   UNL A   1      32.275  19.603  23.139  1.00  0.00     0.039 A 
ATOM    101  C   UNL A   1      34.098  19.441  24.706  1.00  0.00     0.039 A 
ATOM    102  C   UNL A   1      33.205  18.843  23.826  1.00  0.00     0.123 A 
ATOM    103  F   UNL A   1      33.230  17.515  23.651  1.00  0.00    -0.207 F 
ENDBRANCH  87  97
ENDBRANCH  80  83
ENDBRANCH  78  79
ENDBRANCH  77  78
ENDBRANCH  76  77
ENDBRANCH  75  76
ENDBRANCH   1  75
TORSDOF 19
ENDMDL
