MODEL 1
REMARK VINA RESULT:     -11.9      0.000      0.000
REMARK SMILES CC(C)Cc1cc2c(cc1Cl)C=C(C(=O)NCCCCCCNC(=O)c1ccc(-c3c4nc(c(-c5c(F)cc(S(=O)(=O)[O-])cc5F)c5ccc([nH]5)c(-c5c(F)cc(S(=O)(=O)[O-])cc5F)c5nc(c(-c6c(F)cc(S(=O)(=O)[O-])cc6F)c6ccc3[nH]6)C=C5)C=C4)cc1)[C@@H](C(F)(F)F)O2
REMARK SMILES IDX 20 1 19 2 18 3 17 4 16 5 14 6 15 7 13 9 5 10 6 11 10 12 7 13
REMARK SMILES IDX 9 14 11 15 8 16 97 17 12 18 92 19 4 20 2 21 1 22 3 23 93 24
REMARK SMILES IDX 94 25 95 26 96 27 21 28 22 29 23 30 24 31 25 33 26 34 27 35
REMARK SMILES IDX 91 36 28 37 90 38 29 39 30 40 31 41 84 42 32 43 89 44 83 45
REMARK SMILES IDX 85 46 33 47 88 48 82 49 81 50 34 52 68 53 47 54 67 55 48 56
REMARK SMILES IDX 51 57 66 58 86 59 49 60 50 61 65 63 87 64 52 65 35 66 36 67
REMARK SMILES IDX 45 68 37 69 38 70 44 71 46 72 39 73 40 74 41 75 42 76 43 77
REMARK SMILES IDX 69 78 70 79 79 80 71 81 72 82 78 83 80 84 73 85 74 86 75 87
REMARK SMILES IDX 76 88 77 89 53 90 54 91 63 92 55 93 56 94 62 95 64 96 57 97
REMARK SMILES IDX 58 98 59 99 60 100 61 101
REMARK H PARENT 16 8 23 32 85 51 51 62
REMARK Flexibility Score: inf
ROOT
ATOM      1  C   UNL A   1      32.809  29.455  27.233  1.00  0.00     0.002 C 
ENDROOT
BRANCH   1   2
ATOM      2  C   UNL A   1      32.333  30.107  25.928  1.00  0.00     0.002 C 
BRANCH   2   3
ATOM      3  C   UNL A   1      32.720  29.375  24.640  1.00  0.00     0.021 C 
BRANCH   3   4
ATOM      4  C   UNL A   1      31.555  29.102  23.695  1.00  0.00     0.116 C 
BRANCH   4   5
ATOM      5  N   UNL A   1      30.638  28.113  24.232  1.00  0.00    -0.352 N 
ATOM      6  C   UNL A   1      30.633  26.774  24.423  1.00  0.00     0.251 C 
ATOM      7  O   UNL A   1      29.612  26.324  24.954  1.00  0.00    -0.270 OA
ATOM      8  H   UNL A   1      29.797  28.525  24.535  1.00  0.00     0.163 HD
BRANCH   6   9
ATOM      9  C   UNL A   1      31.739  25.841  24.048  1.00  0.00     0.067 C 
ATOM     10  C   UNL A   1      36.042  23.177  24.095  1.00  0.00    -0.025 A 
ATOM     11  C   UNL A   1      34.929  23.245  23.242  1.00  0.00     0.052 A 
ATOM     12  C   UNL A   1      36.032  23.957  25.262  1.00  0.00     0.045 A 
ATOM     13  C   UNL A   1      33.855  24.083  23.533  1.00  0.00     0.128 A 
ATOM     14  C   UNL A   1      34.948  24.795  25.551  1.00  0.00     0.032 A 
ATOM     15  Cl  UNL A   1      37.338  23.937  26.395  1.00  0.00    -0.084 Cl
ATOM     16  C   UNL A   1      33.856  24.863  24.682  1.00  0.00     0.019 A 
ATOM     17  O   UNL A   1      32.820  24.053  22.652  1.00  0.00    -0.475 OA
ATOM     18  C   UNL A   1      32.712  25.716  24.970  1.00  0.00     0.025 C 
ATOM     19  C   UNL A   1      31.835  25.119  22.730  1.00  0.00     0.314 C 
BRANCH  10  20
ATOM     20  C   UNL A   1      37.199  22.298  23.678  1.00  0.00     0.040 C 
BRANCH  20  21
ATOM     21  C   UNL A   1      37.261  20.966  24.457  1.00  0.00    -0.013 C 
ATOM     22  C   UNL A   1      38.351  20.968  25.531  1.00  0.00     0.008 C 
ATOM     23  C   UNL A   1      35.903  20.678  25.100  1.00  0.00     0.008 C 
ENDBRANCH  20  21
ENDBRANCH  10  20
BRANCH  19  24
ATOM     24  C   UNL A   1      32.056  26.065  21.537  1.00  0.00     0.429 C 
ATOM     25  F   UNL A   1      30.955  26.830  21.328  1.00  0.00    -0.167 F 
ATOM     26  F   UNL A   1      33.084  26.922  21.730  1.00  0.00    -0.167 F 
ATOM     27  F   UNL A   1      32.310  25.394  20.390  1.00  0.00    -0.167 F 
ENDBRANCH  19  24
ENDBRANCH   6   9
ENDBRANCH   4   5
ENDBRANCH   3   4
ENDBRANCH   2   3
ENDBRANCH   1   2
BRANCH   1  28
ATOM     28  C   UNL A   1      34.144  28.712  27.158  1.00  0.00     0.021 C 
BRANCH  28  29
ATOM     29  C   UNL A   1      35.359  29.514  27.608  1.00  0.00     0.116 C 
BRANCH  29  30
ATOM     30  N   UNL A   1      35.322  29.837  29.024  1.00  0.00    -0.352 N 
ATOM     31  C   UNL A   1      36.340  29.828  29.949  1.00  0.00     0.251 C 
ATOM     32  H   UNL A   1      34.440  30.100  29.374  1.00  0.00     0.163 HD
ATOM     33  O   UNL A   1      36.082  29.978  31.141  1.00  0.00    -0.269 OA
BRANCH  31  34
ATOM     34  C   UNL A   1      37.737  29.613  29.512  1.00  0.00     0.039 A 
ATOM     35  C   UNL A   1      38.108  29.805  28.180  1.00  0.00     0.014 A 
ATOM     36  C   UNL A   1      38.693  29.215  30.452  1.00  0.00     0.014 A 
ATOM     37  C   UNL A   1      39.386  29.450  27.760  1.00  0.00     0.010 A 
ATOM     38  C   UNL A   1      40.004  28.944  30.042  1.00  0.00     0.010 A 
ATOM     39  C   UNL A   1      40.351  29.019  28.686  1.00  0.00    -0.014 A 
BRANCH  39  40
ATOM     40  C   UNL A   1      41.713  28.677  28.196  1.00  0.00     0.031 A 
ATOM     41  C   UNL A   1      42.824  29.692  28.218  1.00  0.00     0.074 A 
ATOM     42  C   UNL A   1      41.961  27.412  27.802  1.00  0.00     0.049 A 
ATOM     43  N   UNL A   1      44.090  29.529  27.928  1.00  0.00    -0.248 NA
ATOM     44  C   UNL A   1      42.476  31.067  28.610  1.00  0.00     0.031 C 
ATOM     45  C   UNL A   1      40.960  26.344  27.727  1.00  0.00     0.029 A 
ATOM     46  N   UNL A   1      43.131  26.794  27.434  1.00  0.00    -0.354 N 
ATOM     47  C   UNL A   1      44.685  30.775  28.094  1.00  0.00     0.074 A 
ATOM     48  C   UNL A   1      43.637  31.695  28.475  1.00  0.00     0.031 C 
ATOM     49  C   UNL A   1      41.567  25.191  27.413  1.00  0.00     0.029 A 
ATOM     50  C   UNL A   1      42.990  25.444  27.208  1.00  0.00     0.049 A 
ATOM     51  H   UNL A   1      43.986  27.271  27.341  1.00  0.00     0.167 HD
ATOM     52  C   UNL A   1      45.990  31.114  27.959  1.00  0.00     0.037 A 
ATOM     53  C   UNL A   1      43.903  24.509  26.879  1.00  0.00     0.037 A 
ATOM     54  C   UNL A   1      47.033  30.188  27.601  1.00  0.00     0.049 A 
ATOM     55  C   UNL A   1      45.340  24.915  26.714  1.00  0.00     0.074 A 
ATOM     56  C   UNL A   1      48.387  30.432  27.464  1.00  0.00     0.029 A 
ATOM     57  N   UNL A   1      46.839  28.842  27.326  1.00  0.00    -0.354 N 
ATOM     58  N   UNL A   1      45.884  26.092  26.903  1.00  0.00    -0.248 NA
ATOM     59  C   UNL A   1      46.282  23.875  26.281  1.00  0.00     0.031 C 
ATOM     60  C   UNL A   1      49.008  29.243  27.069  1.00  0.00     0.029 A 
ATOM     61  C   UNL A   1      48.047  28.248  27.001  1.00  0.00     0.049 A 
ATOM     62  H   UNL A   1      45.972  28.377  27.358  1.00  0.00     0.167 HD
ATOM     63  C   UNL A   1      47.236  25.934  26.622  1.00  0.00     0.074 A 
ATOM     64  C   UNL A   1      47.430  24.543  26.264  1.00  0.00     0.031 C 
ATOM     65  C   UNL A   1      48.224  26.860  26.654  1.00  0.00     0.037 A 
BRANCH  52  66
ATOM     66  C   UNL A   1      46.375  32.548  28.201  1.00  0.00     0.058 A 
ATOM     67  C   UNL A   1      46.246  33.520  27.197  1.00  0.00     0.135 A 
ATOM     68  C   UNL A   1      46.809  32.967  29.468  1.00  0.00     0.135 A 
ATOM     69  F   UNL A   1      45.847  33.170  25.964  1.00  0.00    -0.206 F 
ATOM     70  C   UNL A   1      46.550  34.856  27.436  1.00  0.00     0.059 A 
ATOM     71  C   UNL A   1      47.099  34.303  29.736  1.00  0.00     0.059 A 
ATOM     72  F   UNL A   1      46.949  32.078  30.464  1.00  0.00    -0.206 F 
ATOM     73  C   UNL A   1      46.974  35.239  28.710  1.00  0.00     0.060 A 
BRANCH  73  74
ATOM     74  S   UNL A   1      47.351  36.980  29.005  1.00  0.00     0.124 S 
ATOM     75  O   UNL A   1      48.809  36.954  29.067  1.00  0.00    -0.237 OA
ATOM     76  O   UNL A   1      46.778  37.625  27.828  1.00  0.00    -0.237 OA
ATOM     77  O   UNL A   1      46.675  37.266  30.266  1.00  0.00    -0.744 OA
ENDBRANCH  73  74
ENDBRANCH  52  66
BRANCH  53  78
ATOM     78  C   UNL A   1      43.475  23.097  26.708  1.00  0.00     0.058 A 
ATOM     79  C   UNL A   1      43.431  22.505  25.436  1.00  0.00     0.135 A 
ATOM     80  C   UNL A   1      43.156  22.293  27.814  1.00  0.00     0.135 A 
ATOM     81  F   UNL A   1      43.723  23.233  24.347  1.00  0.00    -0.206 F 
ATOM     82  C   UNL A   1      43.088  21.168  25.268  1.00  0.00     0.059 A 
ATOM     83  C   UNL A   1      42.833  20.948  27.673  1.00  0.00     0.059 A 
ATOM     84  F   UNL A   1      43.198  22.809  29.053  1.00  0.00    -0.206 F 
ATOM     85  C   UNL A   1      42.799  20.395  26.394  1.00  0.00     0.060 A 
BRANCH  85  86
ATOM     86  S   UNL A   1      42.430  18.642  26.168  1.00  0.00     0.124 S 
ATOM     87  O   UNL A   1      43.389  18.270  25.136  1.00  0.00    -0.237 OA
ATOM     88  O   UNL A   1      42.683  18.102  27.500  1.00  0.00    -0.237 OA
ATOM     89  O   UNL A   1      41.029  18.644  25.758  1.00  0.00    -0.744 OA
ENDBRANCH  85  86
ENDBRANCH  53  78
BRANCH  65  90
ATOM     90  C   UNL A   1      49.614  26.416  26.304  1.00  0.00     0.058 A 
ATOM     91  C   UNL A   1      50.164  26.678  25.041  1.00  0.00     0.135 A 
ATOM     92  C   UNL A   1      50.444  25.839  27.278  1.00  0.00     0.135 A 
ATOM     93  F   UNL A   1      49.407  27.218  24.072  1.00  0.00    -0.206 F 
ATOM     94  C   UNL A   1      51.496  26.395  24.758  1.00  0.00     0.059 A 
ATOM     95  C   UNL A   1      51.785  25.566  27.024  1.00  0.00     0.059 A 
ATOM     96  F   UNL A   1      49.964  25.575  28.504  1.00  0.00    -0.206 F 
ATOM     97  C   UNL A   1      52.302  25.852  25.761  1.00  0.00     0.060 A 
BRANCH  97  98
ATOM     98  S   UNL A   1      54.052  25.582  25.409  1.00  0.00     0.124 S 
ATOM     99  O   UNL A   1      54.035  24.237  24.842  1.00  0.00    -0.237 OA
ATOM    100  O   UNL A   1      54.349  26.661  24.471  1.00  0.00    -0.237 OA
ATOM    101  O   UNL A   1      54.686  25.704  26.717  1.00  0.00    -0.744 OA
ENDBRANCH  97  98
ENDBRANCH  65  90
ENDBRANCH  39  40
ENDBRANCH  31  34
ENDBRANCH  29  30
ENDBRANCH  28  29
ENDBRANCH   1  28
TORSDOF 19
ENDMDL
MODEL 2
REMARK VINA RESULT:     -11.4      3.054      8.825
REMARK SMILES CC(C)Cc1cc2c(cc1Cl)C=C(C(=O)NCCCCCCNC(=O)c1ccc(-c3c4nc(c(-c5c(F)cc(S(=O)(=O)[O-])cc5F)c5ccc([nH]5)c(-c5c(F)cc(S(=O)(=O)[O-])cc5F)c5nc(c(-c6c(F)cc(S(=O)(=O)[O-])cc6F)c6ccc3[nH]6)C=C5)C=C4)cc1)[C@@H](C(F)(F)F)O2
REMARK SMILES IDX 20 1 19 2 18 3 17 4 16 5 14 6 15 7 13 9 5 10 6 11 10 12 7 13
REMARK SMILES IDX 9 14 11 15 8 16 97 17 12 18 92 19 4 20 2 21 1 22 3 23 93 24
REMARK SMILES IDX 94 25 95 26 96 27 21 28 22 29 23 30 24 31 25 33 26 34 27 35
REMARK SMILES IDX 91 36 28 37 90 38 29 39 30 40 31 41 84 42 32 43 89 44 83 45
REMARK SMILES IDX 85 46 33 47 88 48 82 49 81 50 34 52 68 53 47 54 67 55 48 56
REMARK SMILES IDX 51 57 66 58 86 59 49 60 50 61 65 63 87 64 52 65 35 66 36 67
REMARK SMILES IDX 45 68 37 69 38 70 44 71 46 72 39 73 40 74 41 75 42 76 43 77
REMARK SMILES IDX 69 78 70 79 79 80 71 81 72 82 78 83 80 84 73 85 74 86 75 87
REMARK SMILES IDX 76 88 77 89 53 90 54 91 63 92 55 93 56 94 62 95 64 96 57 97
REMARK SMILES IDX 58 98 59 99 60 100 61 101
REMARK H PARENT 16 8 23 32 85 51 51 62
REMARK Flexibility Score: inf
ROOT
ATOM      1  C   UNL A   1      33.469  28.851  24.276  1.00  0.00     0.002 C 
ENDROOT
BRANCH   1   2
ATOM      2  C   UNL A   1      32.999  28.575  22.842  1.00  0.00     0.002 C 
BRANCH   2   3
ATOM      3  C   UNL A   1      33.604  27.338  22.171  1.00  0.00     0.021 C 
BRANCH   3   4
ATOM      4  C   UNL A   1      32.585  26.280  21.762  1.00  0.00     0.116 C 
BRANCH   4   5
ATOM      5  N   UNL A   1      31.521  26.140  22.740  1.00  0.00    -0.352 N 
ATOM      6  C   UNL A   1      31.178  25.256  23.704  1.00  0.00     0.251 C 
ATOM      7  O   UNL A   1      30.162  25.546  24.345  1.00  0.00    -0.270 OA
ATOM      8  H   UNL A   1      30.880  26.885  22.687  1.00  0.00     0.163 HD
BRANCH   6   9
ATOM      9  C   UNL A   1      31.918  23.998  24.029  1.00  0.00     0.067 C 
ATOM     10  C   UNL A   1      33.612  19.229  23.955  1.00  0.00    -0.025 A 
ATOM     11  C   UNL A   1      33.914  20.375  24.707  1.00  0.00     0.052 A 
ATOM     12  C   UNL A   1      32.666  19.343  22.924  1.00  0.00     0.045 A 
ATOM     13  C   UNL A   1      33.274  21.586  24.454  1.00  0.00     0.128 A 
ATOM     14  C   UNL A   1      32.028  20.564  22.671  1.00  0.00     0.032 A 
ATOM     15  Cl  UNL A   1      32.233  18.004  21.920  1.00  0.00    -0.084 Cl
ATOM     16  C   UNL A   1      32.328  21.690  23.441  1.00  0.00     0.019 A 
ATOM     17  O   UNL A   1      33.659  22.638  25.226  1.00  0.00    -0.475 OA
ATOM     18  C   UNL A   1      31.689  22.972  23.187  1.00  0.00     0.025 C 
ATOM     19  C   UNL A   1      32.816  23.821  25.225  1.00  0.00     0.314 C 
BRANCH  10  20
ATOM     20  C   UNL A   1      34.296  17.935  24.333  1.00  0.00     0.040 C 
BRANCH  20  21
ATOM     21  C   UNL A   1      33.323  16.871  24.884  1.00  0.00    -0.013 C 
ATOM     22  C   UNL A   1      34.042  15.595  25.325  1.00  0.00     0.008 C 
ATOM     23  C   UNL A   1      32.533  17.451  26.060  1.00  0.00     0.008 C 
ENDBRANCH  20  21
ENDBRANCH  10  20
BRANCH  19  24
ATOM     24  C   UNL A   1      32.057  23.872  26.563  1.00  0.00     0.429 C 
ATOM     25  F   UNL A   1      30.843  23.280  26.442  1.00  0.00    -0.167 F 
ATOM     26  F   UNL A   1      32.702  23.221  27.557  1.00  0.00    -0.167 F 
ATOM     27  F   UNL A   1      31.853  25.140  26.988  1.00  0.00    -0.167 F 
ENDBRANCH  19  24
ENDBRANCH   6   9
ENDBRANCH   4   5
ENDBRANCH   3   4
ENDBRANCH   2   3
ENDBRANCH   1   2
BRANCH   1  28
ATOM     28  C   UNL A   1      33.904  27.627  25.083  1.00  0.00     0.021 C 
BRANCH  28  29
ATOM     29  C   UNL A   1      34.255  27.900  26.539  1.00  0.00     0.116 C 
BRANCH  29  30
ATOM     30  N   UNL A   1      33.773  29.192  26.997  1.00  0.00    -0.352 N 
ATOM     31  C   UNL A   1      34.399  30.131  27.782  1.00  0.00     0.251 C 
ATOM     32  H   UNL A   1      32.864  29.430  26.703  1.00  0.00     0.163 HD
ATOM     33  O   UNL A   1      33.767  31.098  28.198  1.00  0.00    -0.269 OA
BRANCH  31  34
ATOM     34  C   UNL A   1      35.824  29.962  28.145  1.00  0.00     0.039 A 
ATOM     35  C   UNL A   1      36.833  30.181  27.206  1.00  0.00     0.014 A 
ATOM     36  C   UNL A   1      36.156  29.580  29.449  1.00  0.00     0.014 A 
ATOM     37  C   UNL A   1      38.151  29.869  27.522  1.00  0.00     0.010 A 
ATOM     38  C   UNL A   1      37.494  29.352  29.791  1.00  0.00     0.010 A 
ATOM     39  C   UNL A   1      38.500  29.454  28.819  1.00  0.00    -0.014 A 
BRANCH  39  40
ATOM     40  C   UNL A   1      39.926  29.158  29.119  1.00  0.00     0.031 A 
ATOM     41  C   UNL A   1      40.534  27.828  28.763  1.00  0.00     0.074 A 
ATOM     42  C   UNL A   1      40.693  30.133  29.646  1.00  0.00     0.049 A 
ATOM     43  N   UNL A   1      41.782  27.445  28.858  1.00  0.00    -0.248 NA
ATOM     44  C   UNL A   1      39.631  26.791  28.238  1.00  0.00     0.031 C 
ATOM     45  C   UNL A   1      40.211  31.459  30.043  1.00  0.00     0.029 A 
ATOM     46  N   UNL A   1      42.042  30.183  29.899  1.00  0.00    -0.354 N 
ATOM     47  C   UNL A   1      41.814  26.128  28.414  1.00  0.00     0.074 A 
ATOM     48  C   UNL A   1      40.455  25.762  28.083  1.00  0.00     0.031 C 
ATOM     49  C   UNL A   1      41.254  32.214  30.415  1.00  0.00     0.029 A 
ATOM     50  C   UNL A   1      42.472  31.413  30.340  1.00  0.00     0.049 A 
ATOM     51  H   UNL A   1      42.642  29.413  29.778  1.00  0.00     0.167 HD
ATOM     52  C   UNL A   1      42.883  25.307  28.278  1.00  0.00     0.037 A 
ATOM     53  C   UNL A   1      43.708  31.853  30.646  1.00  0.00     0.037 A 
ATOM     54  C   UNL A   1      44.237  25.685  28.588  1.00  0.00     0.049 A 
ATOM     55  C   UNL A   1      44.874  30.916  30.507  1.00  0.00     0.074 A 
ATOM     56  C   UNL A   1      45.390  24.931  28.459  1.00  0.00     0.029 A 
ATOM     57  N   UNL A   1      44.623  26.921  29.085  1.00  0.00    -0.354 N 
ATOM     58  N   UNL A   1      44.885  29.684  30.060  1.00  0.00    -0.248 NA
ATOM     59  C   UNL A   1      46.189  31.420  30.923  1.00  0.00     0.031 C 
ATOM     60  C   UNL A   1      46.467  25.697  28.915  1.00  0.00     0.029 A 
ATOM     61  C   UNL A   1      45.992  26.944  29.287  1.00  0.00     0.049 A 
ATOM     62  H   UNL A   1      44.012  27.673  29.267  1.00  0.00     0.167 HD
ATOM     63  C   UNL A   1      46.208  29.267  30.131  1.00  0.00     0.074 A 
ATOM     64  C   UNL A   1      46.972  30.383  30.650  1.00  0.00     0.031 C 
ATOM     65  C   UNL A   1      46.739  28.066  29.799  1.00  0.00     0.037 A 
BRANCH  52  66
ATOM     66  C   UNL A   1      42.641  23.912  27.769  1.00  0.00     0.058 A 
ATOM     67  C   UNL A   1      42.469  22.831  28.647  1.00  0.00     0.135 A 
ATOM     68  C   UNL A   1      42.509  23.667  26.392  1.00  0.00     0.135 A 
ATOM     69  F   UNL A   1      42.598  23.009  29.971  1.00  0.00    -0.206 F 
ATOM     70  C   UNL A   1      42.192  21.551  28.177  1.00  0.00     0.059 A 
ATOM     71  C   UNL A   1      42.210  22.399  25.902  1.00  0.00     0.059 A 
ATOM     72  F   UNL A   1      42.663  24.666  25.510  1.00  0.00    -0.206 F 
ATOM     73  C   UNL A   1      42.061  21.345  26.803  1.00  0.00     0.060 A 
BRANCH  73  74
ATOM     74  S   UNL A   1      41.687  19.680  26.214  1.00  0.00     0.124 S 
ATOM     75  O   UNL A   1      42.120  18.867  27.346  1.00  0.00    -0.237 OA
ATOM     76  O   UNL A   1      40.245  19.744  25.996  1.00  0.00    -0.237 OA
ATOM     77  O   UNL A   1      42.496  19.555  25.006  1.00  0.00    -0.744 OA
ENDBRANCH  73  74
ENDBRANCH  52  66
BRANCH  53  78
ATOM     78  C   UNL A   1      43.895  33.259  31.090  1.00  0.00     0.058 A 
ATOM     79  C   UNL A   1      43.937  33.584  32.454  1.00  0.00     0.135 A 
ATOM     80  C   UNL A   1      44.092  34.295  30.164  1.00  0.00     0.135 A 
ATOM     81  F   UNL A   1      43.750  32.629  33.378  1.00  0.00    -0.206 F 
ATOM     82  C   UNL A   1      44.169  34.886  32.885  1.00  0.00     0.059 A 
ATOM     83  C   UNL A   1      44.351  35.601  30.570  1.00  0.00     0.059 A 
ATOM     84  F   UNL A   1      44.077  34.032  28.848  1.00  0.00    -0.206 F 
ATOM     85  C   UNL A   1      44.383  35.887  31.935  1.00  0.00     0.060 A 
BRANCH  85  86
ATOM     86  S   UNL A   1      44.760  37.557  32.507  1.00  0.00     0.124 S 
ATOM     87  O   UNL A   1      45.586  37.287  33.677  1.00  0.00    -0.237 OA
ATOM     88  O   UNL A   1      45.451  38.127  31.354  1.00  0.00    -0.237 OA
ATOM     89  O   UNL A   1      43.442  38.123  32.779  1.00  0.00    -0.744 OA
ENDBRANCH  85  86
ENDBRANCH  53  78
BRANCH  65  90
ATOM     90  C   UNL A   1      48.218  27.879  29.972  1.00  0.00     0.058 A 
ATOM     91  C   UNL A   1      48.757  27.444  31.191  1.00  0.00     0.135 A 
ATOM     92  C   UNL A   1      49.086  28.014  28.877  1.00  0.00     0.135 A 
ATOM     93  F   UNL A   1      47.969  27.310  32.270  1.00  0.00    -0.206 F 
ATOM     94  C   UNL A   1      50.107  27.135  31.317  1.00  0.00     0.059 A 
ATOM     95  C   UNL A   1      50.436  27.692  28.974  1.00  0.00     0.059 A 
ATOM     96  F   UNL A   1      48.615  28.422  27.688  1.00  0.00    -0.206 F 
ATOM     97  C   UNL A   1      50.935  27.248  30.198  1.00  0.00     0.060 A 
BRANCH  97  98
ATOM     98  S   UNL A   1      52.664  26.751  30.352  1.00  0.00     0.124 S 
ATOM     99  O   UNL A   1      53.004  26.430  28.970  1.00  0.00    -0.237 OA
ATOM    100  O   UNL A   1      53.286  27.955  30.894  1.00  0.00    -0.237 OA
ATOM    101  O   UNL A   1      52.612  25.614  31.266  1.00  0.00    -0.744 OA
ENDBRANCH  97  98
ENDBRANCH  65  90
ENDBRANCH  39  40
ENDBRANCH  31  34
ENDBRANCH  29  30
ENDBRANCH  28  29
ENDBRANCH   1  28
TORSDOF 19
ENDMDL
MODEL 3
REMARK VINA RESULT:     -11.1      4.291     10.933
REMARK SMILES CC(C)Cc1cc2c(cc1Cl)C=C(C(=O)NCCCCCCNC(=O)c1ccc(-c3c4nc(c(-c5c(F)cc(S(=O)(=O)[O-])cc5F)c5ccc([nH]5)c(-c5c(F)cc(S(=O)(=O)[O-])cc5F)c5nc(c(-c6c(F)cc(S(=O)(=O)[O-])cc6F)c6ccc3[nH]6)C=C5)C=C4)cc1)[C@@H](C(F)(F)F)O2
REMARK SMILES IDX 20 1 19 2 18 3 17 4 16 5 14 6 15 7 13 9 5 10 6 11 10 12 7 13
REMARK SMILES IDX 9 14 11 15 8 16 97 17 12 18 92 19 4 20 2 21 1 22 3 23 93 24
REMARK SMILES IDX 94 25 95 26 96 27 21 28 22 29 23 30 24 31 25 33 26 34 27 35
REMARK SMILES IDX 91 36 28 37 90 38 29 39 30 40 31 41 84 42 32 43 89 44 83 45
REMARK SMILES IDX 85 46 33 47 88 48 82 49 81 50 34 52 68 53 47 54 67 55 48 56
REMARK SMILES IDX 51 57 66 58 86 59 49 60 50 61 65 63 87 64 52 65 35 66 36 67
REMARK SMILES IDX 45 68 37 69 38 70 44 71 46 72 39 73 40 74 41 75 42 76 43 77
REMARK SMILES IDX 69 78 70 79 79 80 71 81 72 82 78 83 80 84 73 85 74 86 75 87
REMARK SMILES IDX 76 88 77 89 53 90 54 91 63 92 55 93 56 94 62 95 64 96 57 97
REMARK SMILES IDX 58 98 59 99 60 100 61 101
REMARK H PARENT 16 8 23 32 85 51 51 62
REMARK Flexibility Score: inf
ROOT
ATOM      1  C   UNL A   1      34.136  34.020  30.152  1.00  0.00     0.002 C 
ENDROOT
BRANCH   1   2
ATOM      2  C   UNL A   1      33.796  35.305  30.918  1.00  0.00     0.002 C 
BRANCH   2   3
ATOM      3  C   UNL A   1      34.151  35.303  32.408  1.00  0.00     0.021 C 
BRANCH   3   4
ATOM      4  C   UNL A   1      35.151  34.226  32.816  1.00  0.00     0.116 C 
BRANCH   4   5
ATOM      5  N   UNL A   1      35.330  34.165  34.255  1.00  0.00    -0.352 N 
ATOM      6  C   UNL A   1      36.244  33.657  35.113  1.00  0.00     0.251 C 
ATOM      7  O   UNL A   1      36.007  33.858  36.310  1.00  0.00    -0.270 OA
ATOM      8  H   UNL A   1      34.593  34.608  34.731  1.00  0.00     0.163 HD
BRANCH   6   9
ATOM      9  C   UNL A   1      37.471  32.897  34.724  1.00  0.00     0.067 C 
ATOM     10  C   UNL A   1      40.582  29.313  32.964  1.00  0.00    -0.025 A 
ATOM     11  C   UNL A   1      40.755  30.602  33.493  1.00  0.00     0.052 A 
ATOM     12  C   UNL A   1      39.272  28.835  32.798  1.00  0.00     0.045 A 
ATOM     13  C   UNL A   1      39.658  31.375  33.867  1.00  0.00     0.128 A 
ATOM     14  C   UNL A   1      38.173  29.618  33.173  1.00  0.00     0.032 A 
ATOM     15  Cl  UNL A   1      38.940  27.273  32.137  1.00  0.00    -0.084 Cl
ATOM     16  C   UNL A   1      38.365  30.891  33.714  1.00  0.00     0.019 A 
ATOM     17  O   UNL A   1      39.939  32.617  34.346  1.00  0.00    -0.475 OA
ATOM     18  C   UNL A   1      37.237  31.728  34.097  1.00  0.00     0.025 C 
ATOM     19  C   UNL A   1      38.878  33.330  35.037  1.00  0.00     0.314 C 
BRANCH  10  20
ATOM     20  C   UNL A   1      41.821  28.508  32.645  1.00  0.00     0.040 C 
BRANCH  20  21
ATOM     21  C   UNL A   1      42.587  28.048  33.904  1.00  0.00    -0.013 C 
ATOM     22  C   UNL A   1      41.860  26.929  34.654  1.00  0.00     0.008 C 
ATOM     23  C   UNL A   1      43.991  27.581  33.515  1.00  0.00     0.008 C 
ENDBRANCH  20  21
ENDBRANCH  10  20
BRANCH  19  24
ATOM     24  C   UNL A   1      39.194  33.318  36.543  1.00  0.00     0.429 C 
ATOM     25  F   UNL A   1      40.524  33.150  36.748  1.00  0.00    -0.167 F 
ATOM     26  F   UNL A   1      38.856  34.474  37.159  1.00  0.00    -0.167 F 
ATOM     27  F   UNL A   1      38.551  32.321  37.194  1.00  0.00    -0.167 F 
ENDBRANCH  19  24
ENDBRANCH   6   9
ENDBRANCH   4   5
ENDBRANCH   3   4
ENDBRANCH   2   3
ENDBRANCH   1   2
BRANCH   1  28
ATOM     28  C   UNL A   1      34.306  34.171  28.639  1.00  0.00     0.021 C 
BRANCH  28  29
ATOM     29  C   UNL A   1      34.959  32.988  27.937  1.00  0.00     0.116 C 
BRANCH  29  30
ATOM     30  N   UNL A   1      34.075  31.839  27.838  1.00  0.00    -0.352 N 
ATOM     31  C   UNL A   1      34.381  30.499  27.834  1.00  0.00     0.251 C 
ATOM     32  H   UNL A   1      33.116  32.051  27.763  1.00  0.00     0.163 HD
ATOM     33  O   UNL A   1      33.506  29.674  27.581  1.00  0.00    -0.269 OA
BRANCH  31  34
ATOM     34  C   UNL A   1      35.765  30.053  28.109  1.00  0.00     0.039 A 
ATOM     35  C   UNL A   1      36.142  29.636  29.387  1.00  0.00     0.014 A 
ATOM     36  C   UNL A   1      36.701  30.052  27.070  1.00  0.00     0.014 A 
ATOM     37  C   UNL A   1      37.480  29.369  29.659  1.00  0.00     0.010 A 
ATOM     38  C   UNL A   1      38.030  29.695  27.327  1.00  0.00     0.010 A 
ATOM     39  C   UNL A   1      38.440  29.391  28.633  1.00  0.00    -0.014 A 
BRANCH  39  40
ATOM     40  C   UNL A   1      39.854  29.072  28.966  1.00  0.00     0.031 A 
ATOM     41  C   UNL A   1      40.449  27.734  28.621  1.00  0.00     0.074 A 
ATOM     42  C   UNL A   1      40.624  30.034  29.514  1.00  0.00     0.049 A 
ATOM     43  N   UNL A   1      41.689  27.331  28.744  1.00  0.00    -0.248 NA
ATOM     44  C   UNL A   1      39.544  26.712  28.071  1.00  0.00     0.031 C 
ATOM     45  C   UNL A   1      40.153  31.366  29.903  1.00  0.00     0.029 A 
ATOM     46  N   UNL A   1      41.967  30.062  29.799  1.00  0.00    -0.354 N 
ATOM     47  C   UNL A   1      41.711  26.014  28.298  1.00  0.00     0.074 A 
ATOM     48  C   UNL A   1      40.355  25.671  27.934  1.00  0.00     0.031 C 
ATOM     49  C   UNL A   1      41.198  32.104  30.303  1.00  0.00     0.029 A 
ATOM     50  C   UNL A   1      42.405  31.284  30.254  1.00  0.00     0.049 A 
ATOM     51  H   UNL A   1      42.557  29.283  29.690  1.00  0.00     0.167 HD
ATOM     52  C   UNL A   1      42.771  25.177  28.185  1.00  0.00     0.037 A 
ATOM     53  C   UNL A   1      43.641  31.704  30.590  1.00  0.00     0.037 A 
ATOM     54  C   UNL A   1      44.122  25.534  28.528  1.00  0.00     0.049 A 
ATOM     55  C   UNL A   1      44.794  30.749  30.476  1.00  0.00     0.074 A 
ATOM     56  C   UNL A   1      45.266  24.762  28.424  1.00  0.00     0.029 A 
ATOM     57  N   UNL A   1      44.515  26.762  29.037  1.00  0.00    -0.354 N 
ATOM     58  N   UNL A   1      44.797  29.518  30.025  1.00  0.00    -0.248 NA
ATOM     59  C   UNL A   1      46.107  31.231  30.924  1.00  0.00     0.031 C 
ATOM     60  C   UNL A   1      46.344  25.510  28.907  1.00  0.00     0.029 A 
ATOM     61  C   UNL A   1      45.880  26.763  29.271  1.00  0.00     0.049 A 
ATOM     62  H   UNL A   1      43.912  27.523  29.207  1.00  0.00     0.167 HD
ATOM     63  C   UNL A   1      46.112  29.081  30.127  1.00  0.00     0.074 A 
ATOM     64  C   UNL A   1      46.880  30.183  30.668  1.00  0.00     0.031 C 
ATOM     65  C   UNL A   1      46.631  27.872  29.804  1.00  0.00     0.037 A 
BRANCH  52  66
ATOM     66  C   UNL A   1      42.519  23.788  27.665  1.00  0.00     0.058 A 
ATOM     67  C   UNL A   1      42.402  23.530  26.291  1.00  0.00     0.135 A 
ATOM     68  C   UNL A   1      42.465  22.694  28.545  1.00  0.00     0.135 A 
ATOM     69  F   UNL A   1      42.433  24.541  25.409  1.00  0.00    -0.206 F 
ATOM     70  C   UNL A   1      42.223  22.238  25.807  1.00  0.00     0.059 A 
ATOM     71  C   UNL A   1      42.309  21.391  28.081  1.00  0.00     0.059 A 
ATOM     72  F   UNL A   1      42.573  22.885  29.869  1.00  0.00    -0.206 F 
ATOM     73  C   UNL A   1      42.180  21.174  26.709  1.00  0.00     0.060 A 
BRANCH  73  74
ATOM     74  S   UNL A   1      41.961  19.503  26.061  1.00  0.00     0.124 S 
ATOM     75  O   UNL A   1      42.785  19.549  24.857  1.00  0.00    -0.237 OA
ATOM     76  O   UNL A   1      42.477  18.678  27.149  1.00  0.00    -0.237 OA
ATOM     77  O   UNL A   1      40.523  19.411  25.834  1.00  0.00    -0.744 OA
ENDBRANCH  73  74
ENDBRANCH  52  66
BRANCH  53  78
ATOM     78  C   UNL A   1      43.839  33.105  31.043  1.00  0.00     0.058 A 
ATOM     79  C   UNL A   1      43.769  33.440  32.403  1.00  0.00     0.135 A 
ATOM     80  C   UNL A   1      44.157  34.126  30.134  1.00  0.00     0.135 A 
ATOM     81  F   UNL A   1      43.464  32.499  33.311  1.00  0.00    -0.206 F 
ATOM     82  C   UNL A   1      44.010  34.736  32.847  1.00  0.00     0.059 A 
ATOM     83  C   UNL A   1      44.426  35.425  30.555  1.00  0.00     0.059 A 
ATOM     84  F   UNL A   1      44.251  33.853  28.823  1.00  0.00    -0.206 F 
ATOM     85  C   UNL A   1      44.346  35.720  31.915  1.00  0.00     0.060 A 
BRANCH  85  86
ATOM     86  S   UNL A   1      44.731  37.380  32.511  1.00  0.00     0.124 S 
ATOM     87  O   UNL A   1      46.187  37.379  32.463  1.00  0.00    -0.237 OA
ATOM     88  O   UNL A   1      44.060  38.222  31.525  1.00  0.00    -0.237 OA
ATOM     89  O   UNL A   1      44.141  37.402  33.846  1.00  0.00    -0.744 OA
ENDBRANCH  85  86
ENDBRANCH  53  78
BRANCH  65  90
ATOM     90  C   UNL A   1      48.102  27.661  30.011  1.00  0.00     0.058 A 
ATOM     91  C   UNL A   1      49.032  27.998  29.017  1.00  0.00     0.135 A 
ATOM     92  C   UNL A   1      48.593  27.239  31.257  1.00  0.00     0.135 A 
ATOM     93  F   UNL A   1      48.612  28.396  27.805  1.00  0.00    -0.206 F 
ATOM     94  C   UNL A   1      50.401  27.937  29.254  1.00  0.00     0.059 A 
ATOM     95  C   UNL A   1      49.957  27.189  31.524  1.00  0.00     0.059 A 
ATOM     96  F   UNL A   1      47.741  26.912  32.242  1.00  0.00    -0.206 F 
ATOM     97  C   UNL A   1      50.853  27.545  30.516  1.00  0.00     0.060 A 
BRANCH  97  98
ATOM     98  S   UNL A   1      52.630  27.565  30.840  1.00  0.00     0.124 S 
ATOM     99  O   UNL A   1      52.902  28.997  30.905  1.00  0.00    -0.237 OA
ATOM    100  O   UNL A   1      52.722  26.844  32.105  1.00  0.00    -0.237 OA
ATOM    101  O   UNL A   1      53.194  26.870  29.687  1.00  0.00    -0.744 OA
ENDBRANCH  97  98
ENDBRANCH  65  90
ENDBRANCH  39  40
ENDBRANCH  31  34
ENDBRANCH  29  30
ENDBRANCH  28  29
ENDBRANCH   1  28
TORSDOF 19
ENDMDL
