MODEL 1
REMARK VINA RESULT:     -11.4      0.000      0.000
REMARK SMILES [NH3+][C@]1(C(=O)NCCCCCCNC(=O)c2ccc(-c3c4nc(c(-c5c(F)cc(S(=O)(=O)[O-])cc5F)c5ccc([nH]5)c(-c5c(F)cc(S(=O)(=O)[O-])cc5F)c5nc(c(-c6c(F)cc(S(=O)(=O)[O-])cc6F)c6ccc3[nH]6)C=C5)C=C4)cc2)CC[C@@H](Sc2cc3ccccc3[nH]2)C1
REMARK SMILES IDX 9 1 8 2 7 3 6 4 5 5 3 6 4 7 2 9 81 10 94 11 82 12 83 13 1 14
REMARK SMILES IDX 84 18 85 19 86 20 93 21 87 22 92 23 88 25 91 26 89 27 90 28
REMARK SMILES IDX 10 29 11 30 12 31 13 32 14 34 15 35 16 36 80 37 17 38 79 39
REMARK SMILES IDX 18 40 19 41 20 42 73 43 21 44 78 45 72 46 74 47 22 48 77 49
REMARK SMILES IDX 71 50 70 51 23 53 57 54 36 55 56 56 37 57 40 58 55 59 75 60
REMARK SMILES IDX 38 61 39 62 54 64 76 65 41 66 24 67 25 68 34 69 26 70 27 71
REMARK SMILES IDX 33 72 35 73 28 74 29 75 30 76 31 77 32 78 58 79 59 80 68 81
REMARK SMILES IDX 60 82 61 83 67 84 69 85 62 86 63 87 64 88 65 89 66 90 42 91
REMARK SMILES IDX 43 92 52 93 44 94 45 95 51 96 53 97 46 98 47 99 48 100
REMARK SMILES IDX 49 101 50 102
REMARK H PARENT 5 8 1 15 1 16 1 17 93 24 12 33 74 52 40 63
REMARK Flexibility Score: inf
ROOT
ATOM      1  C   UNL A   1      36.885  22.537  24.993  1.00  0.00     0.002 C 
ENDROOT
BRANCH   1   2
ATOM      2  C   UNL A   1      35.516  22.077  25.502  1.00  0.00     0.002 C 
BRANCH   2   3
ATOM      3  C   UNL A   1      34.433  21.931  24.431  1.00  0.00     0.021 C 
BRANCH   3   4
ATOM      4  C   UNL A   1      33.058  21.542  24.959  1.00  0.00     0.116 C 
BRANCH   4   5
ATOM      5  N   UNL A   1      32.637  22.384  26.055  1.00  0.00    -0.351 N 
ATOM      6  C   UNL A   1      31.818  23.464  26.136  1.00  0.00     0.281 C 
ATOM      7  O   UNL A   1      31.625  23.893  27.280  1.00  0.00    -0.268 OA
ATOM      8  H   UNL A   1      33.024  22.122  26.921  1.00  0.00     0.163 HD
BRANCH   6   9
ATOM      9  C   UNL A   1      31.254  24.210  24.903  1.00  0.00     0.175 C 
ATOM     10  C   UNL A   1      30.174  25.223  25.324  1.00  0.00     0.080 C 
ATOM     11  C   UNL A   1      32.341  25.110  24.308  1.00  0.00     0.094 C 
ATOM     12  C   UNL A   1      30.139  26.217  24.173  1.00  0.00     0.022 C 
ATOM     13  C   UNL A   1      31.595  26.315  23.719  1.00  0.00     0.060 C 
BRANCH   9  14
ATOM     14  N   UNL A   1      30.648  23.365  23.858  1.00  0.00    -0.345 N 
ATOM     15  H   UNL A   1      31.375  22.812  23.404  1.00  0.00     0.345 HD
ATOM     16  H   UNL A   1      30.189  23.957  23.165  1.00  0.00     0.345 HD
ATOM     17  H   UNL A   1      29.961  22.742  24.281  1.00  0.00     0.345 HD
ENDBRANCH   9  14
BRANCH  13  18
ATOM     18  S   UNL A   1      32.515  27.811  24.114  1.00  0.00    -0.105 SA
BRANCH  18  19
ATOM     19  C   UNL A   1      32.754  27.849  25.836  1.00  0.00     0.073 A 
ATOM     20  C   UNL A   1      33.935  27.716  26.541  1.00  0.00     0.043 A 
ATOM     21  N   UNL A   1      31.989  28.740  26.547  1.00  0.00    -0.350 N 
ATOM     22  C   UNL A   1      34.110  29.015  27.127  1.00  0.00     0.001 A 
ATOM     23  C   UNL A   1      32.877  29.666  27.056  1.00  0.00     0.046 A 
ATOM     24  H   UNL A   1      31.012  28.723  26.669  1.00  0.00     0.167 HD
ATOM     25  C   UNL A   1      35.237  29.752  27.530  1.00  0.00     0.010 A 
ATOM     26  C   UNL A   1      32.701  31.025  27.317  1.00  0.00     0.027 A 
ATOM     27  C   UNL A   1      35.100  31.136  27.707  1.00  0.00     0.001 A 
ATOM     28  C   UNL A   1      33.856  31.759  27.589  1.00  0.00     0.002 A 
ENDBRANCH  18  19
ENDBRANCH  13  18
ENDBRANCH   6   9
ENDBRANCH   4   5
ENDBRANCH   3   4
ENDBRANCH   2   3
ENDBRANCH   1   2
BRANCH   1  29
ATOM     29  C   UNL A   1      37.280  23.967  25.369  1.00  0.00     0.021 C 
BRANCH  29  30
ATOM     30  C   UNL A   1      38.218  24.077  26.565  1.00  0.00     0.116 C 
BRANCH  30  31
ATOM     31  N   UNL A   1      39.609  23.925  26.178  1.00  0.00    -0.352 N 
ATOM     32  C   UNL A   1      40.683  24.722  26.484  1.00  0.00     0.251 C 
ATOM     33  H   UNL A   1      39.809  23.140  25.618  1.00  0.00     0.163 HD
ATOM     34  O   UNL A   1      41.748  24.567  25.897  1.00  0.00    -0.269 OA
BRANCH  32  35
ATOM     35  C   UNL A   1      40.542  25.778  27.510  1.00  0.00     0.039 A 
ATOM     36  C   UNL A   1      39.634  25.589  28.554  1.00  0.00     0.014 A 
ATOM     37  C   UNL A   1      41.300  26.952  27.441  1.00  0.00     0.014 A 
ATOM     38  C   UNL A   1      39.523  26.555  29.555  1.00  0.00     0.010 A 
ATOM     39  C   UNL A   1      41.243  27.876  28.480  1.00  0.00     0.010 A 
ATOM     40  C   UNL A   1      40.348  27.692  29.544  1.00  0.00    -0.014 A 
BRANCH  40  41
ATOM     41  C   UNL A   1      40.285  28.698  30.636  1.00  0.00     0.031 A 
ATOM     42  C   UNL A   1      41.181  28.564  31.838  1.00  0.00     0.074 A 
ATOM     43  C   UNL A   1      39.381  29.695  30.571  1.00  0.00     0.049 A 
ATOM     44  N   UNL A   1      41.233  29.305  32.914  1.00  0.00    -0.248 NA
ATOM     45  C   UNL A   1      42.125  27.434  31.844  1.00  0.00     0.031 C 
ATOM     46  C   UNL A   1      38.425  29.901  29.478  1.00  0.00     0.029 A 
ATOM     47  N   UNL A   1      39.107  30.718  31.444  1.00  0.00    -0.354 N 
ATOM     48  C   UNL A   1      42.197  28.723  33.731  1.00  0.00     0.074 A 
ATOM     49  C   UNL A   1      42.671  27.540  33.048  1.00  0.00     0.031 C 
ATOM     50  C   UNL A   1      37.690  30.994  29.737  1.00  0.00     0.029 A 
ATOM     51  C   UNL A   1      38.088  31.543  31.029  1.00  0.00     0.049 A 
ATOM     52  H   UNL A   1      39.596  30.848  32.289  1.00  0.00     0.167 HD
ATOM     53  C   UNL A   1      42.655  29.148  34.933  1.00  0.00     0.037 A 
ATOM     54  C   UNL A   1      37.530  32.613  31.627  1.00  0.00     0.037 A 
ATOM     55  C   UNL A   1      42.200  30.346  35.589  1.00  0.00     0.049 A 
ATOM     56  C   UNL A   1      38.060  33.064  32.963  1.00  0.00     0.074 A 
ATOM     57  C   UNL A   1      42.659  30.905  36.769  1.00  0.00     0.029 A 
ATOM     58  N   UNL A   1      41.180  31.165  35.129  1.00  0.00    -0.354 N 
ATOM     59  N   UNL A   1      39.029  32.548  33.682  1.00  0.00    -0.248 NA
ATOM     60  C   UNL A   1      37.427  34.245  33.567  1.00  0.00     0.031 C 
ATOM     61  C   UNL A   1      41.878  32.029  37.052  1.00  0.00     0.029 A 
ATOM     62  C   UNL A   1      40.973  32.207  36.018  1.00  0.00     0.049 A 
ATOM     63  H   UNL A   1      40.676  31.027  34.294  1.00  0.00     0.167 HD
ATOM     64  C   UNL A   1      39.143  33.361  34.805  1.00  0.00     0.074 A 
ATOM     65  C   UNL A   1      38.151  34.407  34.664  1.00  0.00     0.031 C 
ATOM     66  C   UNL A   1      39.991  33.251  35.858  1.00  0.00     0.037 A 
BRANCH  53  67
ATOM     67  C   UNL A   1      43.704  28.317  35.622  1.00  0.00     0.058 A 
ATOM     68  C   UNL A   1      45.076  28.553  35.441  1.00  0.00     0.135 A 
ATOM     69  C   UNL A   1      43.328  27.308  36.525  1.00  0.00     0.135 A 
ATOM     70  F   UNL A   1      45.493  29.494  34.579  1.00  0.00    -0.206 F 
ATOM     71  C   UNL A   1      46.038  27.805  36.112  1.00  0.00     0.059 A 
ATOM     72  C   UNL A   1      44.272  26.569  37.230  1.00  0.00     0.059 A 
ATOM     73  F   UNL A   1      42.030  27.039  36.735  1.00  0.00    -0.206 F 
ATOM     74  C   UNL A   1      45.625  26.817  37.009  1.00  0.00     0.060 A 
BRANCH  74  75
ATOM     75  S   UNL A   1      46.887  25.872  37.889  1.00  0.00     0.124 S 
ATOM     76  O   UNL A   1      46.070  25.063  38.789  1.00  0.00    -0.237 OA
ATOM     77  O   UNL A   1      47.544  25.147  36.807  1.00  0.00    -0.237 OA
ATOM     78  O   UNL A   1      47.696  26.902  38.534  1.00  0.00    -0.744 OA
ENDBRANCH  74  75
ENDBRANCH  53  67
BRANCH  54  79
ATOM     79  C   UNL A   1      36.414  33.345  30.966  1.00  0.00     0.058 A 
ATOM     80  C   UNL A   1      36.651  34.186  29.868  1.00  0.00     0.135 A 
ATOM     81  C   UNL A   1      35.094  33.229  31.426  1.00  0.00     0.135 A 
ATOM     82  F   UNL A   1      37.897  34.335  29.393  1.00  0.00    -0.206 F 
ATOM     83  C   UNL A   1      35.625  34.907  29.267  1.00  0.00     0.059 A 
ATOM     84  C   UNL A   1      34.045  33.917  30.822  1.00  0.00     0.059 A 
ATOM     85  F   UNL A   1      34.808  32.424  32.461  1.00  0.00    -0.206 F 
ATOM     86  C   UNL A   1      34.324  34.767  29.753  1.00  0.00     0.060 A 
BRANCH  86  87
ATOM     87  S   UNL A   1      32.995  35.690  28.952  1.00  0.00     0.124 S 
ATOM     88  O   UNL A   1      33.736  36.756  28.290  1.00  0.00    -0.237 OA
ATOM     89  O   UNL A   1      32.405  34.682  28.077  1.00  0.00    -0.237 OA
ATOM     90  O   UNL A   1      32.154  36.105  30.071  1.00  0.00    -0.744 OA
ENDBRANCH  86  87
ENDBRANCH  54  79
BRANCH  66  91
ATOM     91  C   UNL A   1      39.919  34.311  36.922  1.00  0.00     0.058 A 
ATOM     92  C   UNL A   1      40.638  35.512  36.820  1.00  0.00     0.135 A 
ATOM     93  C   UNL A   1      39.077  34.144  38.033  1.00  0.00     0.135 A 
ATOM     94  F   UNL A   1      41.462  35.722  35.781  1.00  0.00    -0.206 F 
ATOM     95  C   UNL A   1      40.542  36.500  37.795  1.00  0.00     0.059 A 
ATOM     96  C   UNL A   1      38.942  35.131  39.004  1.00  0.00     0.059 A 
ATOM     97  F   UNL A   1      38.359  33.018  38.175  1.00  0.00    -0.206 F 
ATOM     98  C   UNL A   1      39.690  36.302  38.882  1.00  0.00     0.060 A 
BRANCH  98  99
ATOM     99  S   UNL A   1      39.548  37.606  40.121  1.00  0.00     0.124 S 
ATOM    100  O   UNL A   1      40.885  38.190  40.087  1.00  0.00    -0.237 OA
ATOM    101  O   UNL A   1      38.480  38.439  39.577  1.00  0.00    -0.237 OA
ATOM    102  O   UNL A   1      39.210  36.882  41.342  1.00  0.00    -0.744 OA
ENDBRANCH  98  99
ENDBRANCH  66  91
ENDBRANCH  40  41
ENDBRANCH  32  35
ENDBRANCH  30  31
ENDBRANCH  29  30
ENDBRANCH   1  29
TORSDOF 19
ENDMDL
MODEL 2
REMARK VINA RESULT:     -11.4      4.933      6.086
REMARK SMILES [NH3+][C@]1(C(=O)NCCCCCCNC(=O)c2ccc(-c3c4nc(c(-c5c(F)cc(S(=O)(=O)[O-])cc5F)c5ccc([nH]5)c(-c5c(F)cc(S(=O)(=O)[O-])cc5F)c5nc(c(-c6c(F)cc(S(=O)(=O)[O-])cc6F)c6ccc3[nH]6)C=C5)C=C4)cc2)CC[C@@H](Sc2cc3ccccc3[nH]2)C1
REMARK SMILES IDX 9 1 8 2 7 3 6 4 5 5 3 6 4 7 2 9 81 10 94 11 82 12 83 13 1 14
REMARK SMILES IDX 84 18 85 19 86 20 93 21 87 22 92 23 88 25 91 26 89 27 90 28
REMARK SMILES IDX 10 29 11 30 12 31 13 32 14 34 15 35 16 36 80 37 17 38 79 39
REMARK SMILES IDX 18 40 19 41 20 42 73 43 21 44 78 45 72 46 74 47 22 48 77 49
REMARK SMILES IDX 71 50 70 51 23 53 57 54 36 55 56 56 37 57 40 58 55 59 75 60
REMARK SMILES IDX 38 61 39 62 54 64 76 65 41 66 24 67 25 68 34 69 26 70 27 71
REMARK SMILES IDX 33 72 35 73 28 74 29 75 30 76 31 77 32 78 58 79 59 80 68 81
REMARK SMILES IDX 60 82 61 83 67 84 69 85 62 86 63 87 64 88 65 89 66 90 42 91
REMARK SMILES IDX 43 92 52 93 44 94 45 95 51 96 53 97 46 98 47 99 48 100
REMARK SMILES IDX 49 101 50 102
REMARK H PARENT 5 8 1 15 1 16 1 17 93 24 12 33 74 52 40 63
REMARK Flexibility Score: inf
ROOT
ATOM      1  C   UNL A   1      35.660  22.886  23.841  1.00  0.00     0.002 C 
ENDROOT
BRANCH   1   2
ATOM      2  C   UNL A   1      34.210  22.548  23.483  1.00  0.00     0.002 C 
BRANCH   2   3
ATOM      3  C   UNL A   1      33.484  21.637  24.476  1.00  0.00     0.021 C 
BRANCH   3   4
ATOM      4  C   UNL A   1      31.977  21.840  24.549  1.00  0.00     0.116 C 
BRANCH   4   5
ATOM      5  N   UNL A   1      31.603  22.771  25.590  1.00  0.00    -0.351 N 
ATOM      6  C   UNL A   1      31.017  23.996  25.574  1.00  0.00     0.281 C 
ATOM      7  O   UNL A   1      30.774  24.477  26.688  1.00  0.00    -0.268 OA
ATOM      8  H   UNL A   1      31.818  22.452  26.495  1.00  0.00     0.163 HD
BRANCH   6   9
ATOM      9  C   UNL A   1      30.774  24.817  24.286  1.00  0.00     0.175 C 
ATOM     10  C   UNL A   1      29.768  25.953  24.544  1.00  0.00     0.080 C 
ATOM     11  C   UNL A   1      32.050  25.579  23.916  1.00  0.00     0.094 C 
ATOM     12  C   UNL A   1      30.057  26.954  23.434  1.00  0.00     0.022 C 
ATOM     13  C   UNL A   1      31.571  26.873  23.244  1.00  0.00     0.060 C 
BRANCH   9  14
ATOM     14  N   UNL A   1      30.263  24.064  23.126  1.00  0.00    -0.345 N 
ATOM     15  H   UNL A   1      30.931  24.127  22.359  1.00  0.00     0.345 HD
ATOM     16  H   UNL A   1      29.369  24.457  22.832  1.00  0.00     0.345 HD
ATOM     17  H   UNL A   1      30.135  23.086  23.386  1.00  0.00     0.345 HD
ENDBRANCH   9  14
BRANCH  13  18
ATOM     18  S   UNL A   1      32.582  28.239  23.837  1.00  0.00    -0.105 SA
BRANCH  18  19
ATOM     19  C   UNL A   1      32.632  28.148  25.574  1.00  0.00     0.073 A 
ATOM     20  C   UNL A   1      33.667  27.719  26.381  1.00  0.00     0.043 A 
ATOM     21  N   UNL A   1      32.009  29.160  26.264  1.00  0.00    -0.350 N 
ATOM     22  C   UNL A   1      34.061  28.918  27.067  1.00  0.00     0.001 A 
ATOM     23  C   UNL A   1      33.019  29.836  26.918  1.00  0.00     0.046 A 
ATOM     24  H   UNL A   1      31.046  29.360  26.287  1.00  0.00     0.167 HD
ATOM     25  C   UNL A   1      35.272  29.360  27.626  1.00  0.00     0.010 A 
ATOM     26  C   UNL A   1      33.123  31.186  27.250  1.00  0.00     0.027 A 
ATOM     27  C   UNL A   1      35.428  30.730  27.880  1.00  0.00     0.001 A 
ATOM     28  C   UNL A   1      34.374  31.626  27.682  1.00  0.00     0.002 A 
ENDBRANCH  18  19
ENDBRANCH  13  18
ENDBRANCH   6   9
ENDBRANCH   4   5
ENDBRANCH   3   4
ENDBRANCH   2   3
ENDBRANCH   1   2
BRANCH   1  29
ATOM     29  C   UNL A   1      35.846  24.083  24.776  1.00  0.00     0.021 C 
BRANCH  29  30
ATOM     30  C   UNL A   1      36.379  23.736  26.160  1.00  0.00     0.116 C 
BRANCH  30  31
ATOM     31  N   UNL A   1      37.271  22.592  26.126  1.00  0.00    -0.352 N 
ATOM     32  C   UNL A   1      38.638  22.557  26.246  1.00  0.00     0.251 C 
ATOM     33  H   UNL A   1      36.834  21.718  25.998  1.00  0.00     0.163 HD
ATOM     34  O   UNL A   1      39.251  21.530  25.978  1.00  0.00    -0.269 OA
BRANCH  32  35
ATOM     35  C   UNL A   1      39.365  23.770  26.681  1.00  0.00     0.039 A 
ATOM     36  C   UNL A   1      39.741  24.712  25.723  1.00  0.00     0.014 A 
ATOM     37  C   UNL A   1      39.677  23.973  28.030  1.00  0.00     0.014 A 
ATOM     38  C   UNL A   1      40.387  25.883  26.124  1.00  0.00     0.010 A 
ATOM     39  C   UNL A   1      40.250  25.174  28.434  1.00  0.00     0.010 A 
ATOM     40  C   UNL A   1      40.619  26.139  27.485  1.00  0.00    -0.014 A 
BRANCH  40  41
ATOM     41  C   UNL A   1      41.248  27.409  27.933  1.00  0.00     0.031 A 
ATOM     42  C   UNL A   1      42.742  27.580  27.855  1.00  0.00     0.074 A 
ATOM     43  C   UNL A   1      40.480  28.381  28.462  1.00  0.00     0.049 A 
ATOM     44  N   UNL A   1      43.478  28.587  28.248  1.00  0.00    -0.248 NA
ATOM     45  C   UNL A   1      43.513  26.462  27.286  1.00  0.00     0.031 C 
ATOM     46  C   UNL A   1      39.026  28.312  28.634  1.00  0.00     0.029 A 
ATOM     47  N   UNL A   1      40.812  29.615  28.965  1.00  0.00    -0.354 N 
ATOM     48  C   UNL A   1      44.795  28.218  27.993  1.00  0.00     0.074 A 
ATOM     49  C   UNL A   1      44.761  26.876  27.455  1.00  0.00     0.031 C 
ATOM     50  C   UNL A   1      38.592  29.460  29.179  1.00  0.00     0.029 A 
ATOM     51  C   UNL A   1      39.735  30.330  29.436  1.00  0.00     0.049 A 
ATOM     52  H   UNL A   1      41.736  29.955  28.986  1.00  0.00     0.167 HD
ATOM     53  C   UNL A   1      45.925  28.941  28.175  1.00  0.00     0.037 A 
ATOM     54  C   UNL A   1      39.678  31.543  30.018  1.00  0.00     0.037 A 
ATOM     55  C   UNL A   1      45.945  30.289  28.680  1.00  0.00     0.049 A 
ATOM     56  C   UNL A   1      40.950  32.325  30.207  1.00  0.00     0.074 A 
ATOM     57  C   UNL A   1      47.031  31.135  28.825  1.00  0.00     0.029 A 
ATOM     58  N   UNL A   1      44.833  30.986  29.128  1.00  0.00    -0.354 N 
ATOM     59  N   UNL A   1      42.178  31.993  29.883  1.00  0.00    -0.248 NA
ATOM     60  C   UNL A   1      40.832  33.649  30.835  1.00  0.00     0.031 C 
ATOM     61  C   UNL A   1      46.585  32.321  29.415  1.00  0.00     0.029 A 
ATOM     62  C   UNL A   1      45.212  32.239  29.580  1.00  0.00     0.049 A 
ATOM     63  H   UNL A   1      43.911  30.641  29.126  1.00  0.00     0.167 HD
ATOM     64  C   UNL A   1      42.972  33.079  30.237  1.00  0.00     0.074 A 
ATOM     65  C   UNL A   1      42.084  34.082  30.789  1.00  0.00     0.031 C 
ATOM     66  C   UNL A   1      44.314  33.233  30.116  1.00  0.00     0.037 A 
BRANCH  53  67
ATOM     67  C   UNL A   1      47.240  28.296  27.827  1.00  0.00     0.058 A 
ATOM     68  C   UNL A   1      48.008  27.614  28.784  1.00  0.00     0.135 A 
ATOM     69  C   UNL A   1      47.708  28.310  26.502  1.00  0.00     0.135 A 
ATOM     70  F   UNL A   1      47.617  27.581  30.068  1.00  0.00    -0.206 F 
ATOM     71  C   UNL A   1      49.204  26.987  28.446  1.00  0.00     0.059 A 
ATOM     72  C   UNL A   1      48.885  27.664  26.136  1.00  0.00     0.059 A 
ATOM     73  F   UNL A   1      47.015  28.949  25.547  1.00  0.00    -0.206 F 
ATOM     74  C   UNL A   1      49.632  27.015  27.117  1.00  0.00     0.060 A 
BRANCH  74  75
ATOM     75  S   UNL A   1      51.173  26.176  26.691  1.00  0.00     0.124 S 
ATOM     76  O   UNL A   1      52.150  26.973  27.426  1.00  0.00    -0.237 OA
ATOM     77  O   UNL A   1      50.944  24.828  27.200  1.00  0.00    -0.237 OA
ATOM     78  O   UNL A   1      51.234  26.294  25.237  1.00  0.00    -0.744 OA
ENDBRANCH  74  75
ENDBRANCH  53  67
BRANCH  54  79
ATOM     79  C   UNL A   1      38.369  32.104  30.455  1.00  0.00     0.058 A 
ATOM     80  C   UNL A   1      37.657  32.997  29.640  1.00  0.00     0.135 A 
ATOM     81  C   UNL A   1      37.812  31.770  31.698  1.00  0.00     0.135 A 
ATOM     82  F   UNL A   1      38.149  33.351  28.443  1.00  0.00    -0.206 F 
ATOM     83  C   UNL A   1      36.454  33.560  30.052  1.00  0.00     0.059 A 
ATOM     84  C   UNL A   1      36.596  32.297  32.121  1.00  0.00     0.059 A 
ATOM     85  F   UNL A   1      38.442  30.906  32.510  1.00  0.00    -0.206 F 
ATOM     86  C   UNL A   1      35.932  33.204  31.297  1.00  0.00     0.060 A 
BRANCH  86  87
ATOM     87  S   UNL A   1      34.359  33.924  31.814  1.00  0.00     0.124 S 
ATOM     88  O   UNL A   1      34.800  35.126  32.511  1.00  0.00    -0.237 OA
ATOM     89  O   UNL A   1      33.684  34.137  30.537  1.00  0.00    -0.237 OA
ATOM     90  O   UNL A   1      33.775  32.884  32.656  1.00  0.00    -0.744 OA
ENDBRANCH  86  87
ENDBRANCH  54  79
BRANCH  66  91
ATOM     91  C   UNL A   1      44.904  34.548  30.546  1.00  0.00     0.058 A 
ATOM     92  C   UNL A   1      44.965  35.651  29.680  1.00  0.00     0.135 A 
ATOM     93  C   UNL A   1      45.366  34.721  31.861  1.00  0.00     0.135 A 
ATOM     94  F   UNL A   1      44.544  35.539  28.410  1.00  0.00    -0.206 F 
ATOM     95  C   UNL A   1      45.486  36.872  30.096  1.00  0.00     0.059 A 
ATOM     96  C   UNL A   1      45.861  35.941  32.308  1.00  0.00     0.059 A 
ATOM     97  F   UNL A   1      45.320  33.702  32.734  1.00  0.00    -0.206 F 
ATOM     98  C   UNL A   1      45.929  37.009  31.412  1.00  0.00     0.060 A 
BRANCH  98  99
ATOM     99  S   UNL A   1      46.570  38.609  31.949  1.00  0.00     0.124 S 
ATOM    100  O   UNL A   1      47.534  38.211  32.970  1.00  0.00    -0.237 OA
ATOM    101  O   UNL A   1      47.139  39.146  30.716  1.00  0.00    -0.237 OA
ATOM    102  O   UNL A   1      45.385  39.304  32.440  1.00  0.00    -0.744 OA
ENDBRANCH  98  99
ENDBRANCH  66  91
ENDBRANCH  40  41
ENDBRANCH  32  35
ENDBRANCH  30  31
ENDBRANCH  29  30
ENDBRANCH   1  29
TORSDOF 19
ENDMDL
MODEL 3
REMARK VINA RESULT:     -11.3      3.186      9.477
REMARK SMILES [NH3+][C@]1(C(=O)NCCCCCCNC(=O)c2ccc(-c3c4nc(c(-c5c(F)cc(S(=O)(=O)[O-])cc5F)c5ccc([nH]5)c(-c5c(F)cc(S(=O)(=O)[O-])cc5F)c5nc(c(-c6c(F)cc(S(=O)(=O)[O-])cc6F)c6ccc3[nH]6)C=C5)C=C4)cc2)CC[C@@H](Sc2cc3ccccc3[nH]2)C1
REMARK SMILES IDX 9 1 8 2 7 3 6 4 5 5 3 6 4 7 2 9 81 10 94 11 82 12 83 13 1 14
REMARK SMILES IDX 84 18 85 19 86 20 93 21 87 22 92 23 88 25 91 26 89 27 90 28
REMARK SMILES IDX 10 29 11 30 12 31 13 32 14 34 15 35 16 36 80 37 17 38 79 39
REMARK SMILES IDX 18 40 19 41 20 42 73 43 21 44 78 45 72 46 74 47 22 48 77 49
REMARK SMILES IDX 71 50 70 51 23 53 57 54 36 55 56 56 37 57 40 58 55 59 75 60
REMARK SMILES IDX 38 61 39 62 54 64 76 65 41 66 24 67 25 68 34 69 26 70 27 71
REMARK SMILES IDX 33 72 35 73 28 74 29 75 30 76 31 77 32 78 58 79 59 80 68 81
REMARK SMILES IDX 60 82 61 83 67 84 69 85 62 86 63 87 64 88 65 89 66 90 42 91
REMARK SMILES IDX 43 92 52 93 44 94 45 95 51 96 53 97 46 98 47 99 48 100
REMARK SMILES IDX 49 101 50 102
REMARK H PARENT 5 8 1 15 1 16 1 17 93 24 12 33 74 52 40 63
REMARK Flexibility Score: inf
ROOT
ATOM      1  C   UNL A   1      33.819  28.583  24.166  1.00  0.00     0.002 C 
ENDROOT
BRANCH   1   2
ATOM      2  C   UNL A   1      32.798  28.130  23.119  1.00  0.00     0.002 C 
BRANCH   2   3
ATOM      3  C   UNL A   1      31.344  28.506  23.414  1.00  0.00     0.021 C 
BRANCH   3   4
ATOM      4  C   UNL A   1      30.418  27.326  23.681  1.00  0.00     0.116 C 
BRANCH   4   5
ATOM      5  N   UNL A   1      30.603  26.778  25.005  1.00  0.00    -0.351 N 
ATOM      6  C   UNL A   1      31.060  25.584  25.461  1.00  0.00     0.281 C 
ATOM      7  O   UNL A   1      31.155  25.492  26.691  1.00  0.00    -0.268 OA
ATOM      8  H   UNL A   1      30.345  27.398  25.725  1.00  0.00     0.163 HD
BRANCH   6   9
ATOM      9  C   UNL A   1      31.327  24.361  24.552  1.00  0.00     0.175 C 
ATOM     10  C   UNL A   1      32.508  24.633  23.604  1.00  0.00     0.080 C 
ATOM     11  C   UNL A   1      31.843  23.195  25.401  1.00  0.00     0.094 C 
ATOM     12  C   UNL A   1      32.992  23.243  23.217  1.00  0.00     0.022 C 
ATOM     13  C   UNL A   1      32.792  22.412  24.483  1.00  0.00     0.060 C 
BRANCH   9  14
ATOM     14  N   UNL A   1      30.202  23.929  23.703  1.00  0.00    -0.345 N 
ATOM     15  H   UNL A   1      30.003  24.650  23.009  1.00  0.00     0.345 HD
ATOM     16  H   UNL A   1      29.376  23.777  24.282  1.00  0.00     0.345 HD
ATOM     17  H   UNL A   1      30.448  23.060  23.229  1.00  0.00     0.345 HD
ENDBRANCH   9  14
BRANCH  13  18
ATOM     18  S   UNL A   1      34.246  21.934  25.431  1.00  0.00    -0.105 SA
BRANCH  18  19
ATOM     19  C   UNL A   1      35.631  22.683  24.694  1.00  0.00     0.073 A 
ATOM     20  C   UNL A   1      36.229  23.887  25.016  1.00  0.00     0.043 A 
ATOM     21  N   UNL A   1      36.649  21.850  24.300  1.00  0.00    -0.350 N 
ATOM     22  C   UNL A   1      37.511  23.484  25.523  1.00  0.00     0.001 A 
ATOM     23  C   UNL A   1      37.720  22.167  25.110  1.00  0.00     0.046 A 
ATOM     24  H   UNL A   1      36.621  21.169  23.590  1.00  0.00     0.167 HD
ATOM     25  C   UNL A   1      38.410  24.052  26.443  1.00  0.00     0.010 A 
ATOM     26  C   UNL A   1      38.747  21.357  25.594  1.00  0.00     0.027 A 
ATOM     27  C   UNL A   1      39.392  23.227  27.010  1.00  0.00     0.001 A 
ATOM     28  C   UNL A   1      39.546  21.901  26.600  1.00  0.00     0.002 A 
ENDBRANCH  18  19
ENDBRANCH  13  18
ENDBRANCH   6   9
ENDBRANCH   4   5
ENDBRANCH   3   4
ENDBRANCH   2   3
ENDBRANCH   1   2
BRANCH   1  29
ATOM     29  C   UNL A   1      34.078  27.592  25.304  1.00  0.00     0.021 C 
BRANCH  29  30
ATOM     30  C   UNL A   1      33.663  28.083  26.685  1.00  0.00     0.116 C 
BRANCH  30  31
ATOM     31  N   UNL A   1      33.523  29.527  26.728  1.00  0.00    -0.352 N 
ATOM     32  C   UNL A   1      34.281  30.449  27.405  1.00  0.00     0.251 C 
ATOM     33  H   UNL A   1      32.779  29.896  26.199  1.00  0.00     0.163 HD
ATOM     34  O   UNL A   1      33.893  31.607  27.505  1.00  0.00    -0.269 OA
BRANCH  32  35
ATOM     35  C   UNL A   1      35.557  30.032  28.027  1.00  0.00     0.039 A 
ATOM     36  C   UNL A   1      36.730  30.103  27.274  1.00  0.00     0.014 A 
ATOM     37  C   UNL A   1      35.594  29.568  29.346  1.00  0.00     0.014 A 
ATOM     38  C   UNL A   1      37.949  29.757  27.861  1.00  0.00     0.010 A 
ATOM     39  C   UNL A   1      36.818  29.299  29.952  1.00  0.00     0.010 A 
ATOM     40  C   UNL A   1      38.008  29.382  29.214  1.00  0.00    -0.014 A 
BRANCH  40  41
ATOM     41  C   UNL A   1      39.304  29.071  29.870  1.00  0.00     0.031 A 
ATOM     42  C   UNL A   1      39.769  29.885  31.048  1.00  0.00     0.074 A 
ATOM     43  C   UNL A   1      40.088  28.098  29.367  1.00  0.00     0.049 A 
ATOM     44  N   UNL A   1      40.890  29.805  31.715  1.00  0.00    -0.248 NA
ATOM     45  C   UNL A   1      38.865  30.947  31.523  1.00  0.00     0.031 C 
ATOM     46  C   UNL A   1      39.767  27.272  28.198  1.00  0.00     0.029 A 
ATOM     47  N   UNL A   1      41.320  27.640  29.764  1.00  0.00    -0.354 N 
ATOM     48  C   UNL A   1      40.837  30.813  32.672  1.00  0.00     0.074 A 
ATOM     49  C   UNL A   1      39.594  31.523  32.469  1.00  0.00     0.031 C 
ATOM     50  C   UNL A   1      40.765  26.397  27.991  1.00  0.00     0.029 A 
ATOM     51  C   UNL A   1      41.813  26.624  28.980  1.00  0.00     0.049 A 
ATOM     52  H   UNL A   1      41.805  28.007  30.539  1.00  0.00     0.167 HD
ATOM     53  C   UNL A   1      41.736  31.106  33.642  1.00  0.00     0.037 A 
ATOM     54  C   UNL A   1      42.982  25.958  29.043  1.00  0.00     0.037 A 
ATOM     55  C   UNL A   1      42.955  30.371  33.857  1.00  0.00     0.049 A 
ATOM     56  C   UNL A   1      43.964  26.305  30.132  1.00  0.00     0.074 A 
ATOM     57  C   UNL A   1      43.892  30.539  34.862  1.00  0.00     0.029 A 
ATOM     58  N   UNL A   1      43.411  29.336  33.054  1.00  0.00    -0.354 N 
ATOM     59  N   UNL A   1      43.859  27.207  31.079  1.00  0.00    -0.248 NA
ATOM     60  C   UNL A   1      45.218  25.541  30.166  1.00  0.00     0.031 C 
ATOM     61  C   UNL A   1      44.943  29.646  34.633  1.00  0.00     0.029 A 
ATOM     62  C   UNL A   1      44.632  28.879  33.521  1.00  0.00     0.049 A 
ATOM     63  H   UNL A   1      42.938  28.981  32.267  1.00  0.00     0.167 HD
ATOM     64  C   UNL A   1      45.018  27.095  31.841  1.00  0.00     0.074 A 
ATOM     65  C   UNL A   1      45.803  26.031  31.250  1.00  0.00     0.031 C 
ATOM     66  C   UNL A   1      45.397  27.808  32.930  1.00  0.00     0.037 A 
BRANCH  53  67
ATOM     67  C   UNL A   1      41.441  32.270  34.550  1.00  0.00     0.058 A 
ATOM     68  C   UNL A   1      41.914  33.563  34.275  1.00  0.00     0.135 A 
ATOM     69  C   UNL A   1      40.623  32.099  35.679  1.00  0.00     0.135 A 
ATOM     70  F   UNL A   1      42.712  33.782  33.219  1.00  0.00    -0.206 F 
ATOM     71  C   UNL A   1      41.605  34.641  35.100  1.00  0.00     0.059 A 
ATOM     72  C   UNL A   1      40.277  33.168  36.500  1.00  0.00     0.059 A 
ATOM     73  F   UNL A   1      40.146  30.884  35.990  1.00  0.00    -0.206 F 
ATOM     74  C   UNL A   1      40.782  34.433  36.208  1.00  0.00     0.060 A 
BRANCH  74  75
ATOM     75  S   UNL A   1      40.371  35.847  37.253  1.00  0.00     0.124 S 
ATOM     76  O   UNL A   1      39.811  36.777  36.277  1.00  0.00    -0.237 OA
ATOM     77  O   UNL A   1      39.419  35.271  38.196  1.00  0.00    -0.237 OA
ATOM     78  O   UNL A   1      41.658  36.236  37.822  1.00  0.00    -0.744 OA
ENDBRANCH  74  75
ENDBRANCH  53  67
BRANCH  54  79
ATOM     79  C   UNL A   1      43.291  24.887  28.056  1.00  0.00     0.058 A 
ATOM     80  C   UNL A   1      42.866  23.566  28.266  1.00  0.00     0.135 A 
ATOM     81  C   UNL A   1      44.025  25.158  26.892  1.00  0.00     0.135 A 
ATOM     82  F   UNL A   1      42.165  23.254  29.366  1.00  0.00    -0.206 F 
ATOM     83  C   UNL A   1      43.182  22.548  27.373  1.00  0.00     0.059 A 
ATOM     84  C   UNL A   1      44.328  24.163  25.968  1.00  0.00     0.059 A 
ATOM     85  F   UNL A   1      44.440  26.408  26.632  1.00  0.00    -0.206 F 
ATOM     86  C   UNL A   1      43.916  22.856  26.227  1.00  0.00     0.060 A 
BRANCH  86  87
ATOM     87  S   UNL A   1      44.302  21.531  25.062  1.00  0.00     0.124 S 
ATOM     88  O   UNL A   1      43.287  20.540  25.398  1.00  0.00    -0.237 OA
ATOM     89  O   UNL A   1      44.141  22.199  23.774  1.00  0.00    -0.237 OA
ATOM     90  O   UNL A   1      45.674  21.173  25.406  1.00  0.00    -0.744 OA
ENDBRANCH  86  87
ENDBRANCH  54  79
BRANCH  66  91
ATOM     91  C   UNL A   1      46.699  27.436  33.586  1.00  0.00     0.058 A 
ATOM     92  C   UNL A   1      47.908  28.055  33.235  1.00  0.00     0.135 A 
ATOM     93  C   UNL A   1      46.725  26.482  34.617  1.00  0.00     0.135 A 
ATOM     94  F   UNL A   1      47.942  28.968  32.252  1.00  0.00    -0.206 F 
ATOM     95  C   UNL A   1      49.103  27.724  33.868  1.00  0.00     0.059 A 
ATOM     96  C   UNL A   1      47.901  26.159  35.284  1.00  0.00     0.059 A 
ATOM     97  F   UNL A   1      45.594  25.867  34.998  1.00  0.00    -0.206 F 
ATOM     98  C   UNL A   1      49.089  26.777  34.893  1.00  0.00     0.060 A 
BRANCH  98  99
ATOM     99  S   UNL A   1      50.639  26.383  35.729  1.00  0.00     0.124 S 
ATOM    100  O   UNL A   1      50.374  25.035  36.221  1.00  0.00    -0.237 OA
ATOM    101  O   UNL A   1      51.612  26.481  34.645  1.00  0.00    -0.237 OA
ATOM    102  O   UNL A   1      50.747  27.416  36.754  1.00  0.00    -0.744 OA
ENDBRANCH  98  99
ENDBRANCH  66  91
ENDBRANCH  40  41
ENDBRANCH  32  35
ENDBRANCH  30  31
ENDBRANCH  29  30
ENDBRANCH   1  29
TORSDOF 19
ENDMDL
