MODEL 1
REMARK VINA RESULT:     -11.5      0.000      0.000
REMARK SMILES CCCn1cc(Br)cc1C(=O)NC[C@H]1CC[C@@H](C(=O)NCCCCCCNC(=O)c2ccc(-c3c4nc(c(-c5c(F)cc(S(=O)(=O)[O-])cc5F)c5ccc([nH]5)c(-c5c(F)cc(S(=O)(=O)[O-])cc5F)c5nc(c(-c6c(F)cc(S(=O)(=O)[O-])cc6F)c6ccc3[nH]6)C=C5)C=C4)cc2)O1
REMARK SMILES IDX 22 1 21 2 20 3 18 4 19 5 17 7 14 8 15 9 96 10 16 11 13 12
REMARK SMILES IDX 12 13 10 14 11 15 9 17 4 18 5 19 6 20 8 21 7 22 3 23 2 24
REMARK SMILES IDX 1 25 23 26 24 27 25 28 26 29 27 30 28 31 29 33 30 34 31 35
REMARK SMILES IDX 95 36 32 37 94 38 33 39 34 40 35 41 88 42 36 43 93 44 87 45
REMARK SMILES IDX 89 46 37 47 92 48 86 49 85 50 38 52 72 53 51 54 71 55 52 56
REMARK SMILES IDX 55 57 70 58 90 59 53 60 54 61 69 63 91 64 56 65 39 66 40 67
REMARK SMILES IDX 49 68 41 69 42 70 48 71 50 72 43 73 44 74 45 75 46 76 47 77
REMARK SMILES IDX 73 78 74 79 83 80 75 81 76 82 82 83 84 84 77 85 78 86 79 87
REMARK SMILES IDX 80 88 81 89 57 90 58 91 67 92 59 93 60 94 66 95 68 96 61 97
REMARK SMILES IDX 62 98 63 99 64 100 65 101
REMARK H PARENT 20 6 12 16 27 32 89 51 55 62
REMARK Flexibility Score: inf
ROOT
ATOM      1  C   UNL A   1      36.571  22.307  25.233  1.00  0.00     0.021 C 
ENDROOT
BRANCH   1   2
ATOM      2  C   UNL A   1      35.512  21.831  26.227  1.00  0.00     0.116 C 
BRANCH   2   3
ATOM      3  N   UNL A   1      34.589  22.904  26.529  1.00  0.00    -0.354 N 
ATOM      4  C   UNL A   1      33.441  23.215  25.854  1.00  0.00     0.249 C 
ATOM      5  O   UNL A   1      32.856  24.262  26.138  1.00  0.00    -0.272 OA
ATOM      6  H   UNL A   1      34.811  23.469  27.303  1.00  0.00     0.163 HD
BRANCH   4   7
ATOM      7  C   UNL A   1      32.908  22.204  24.825  1.00  0.00     0.207 C 
ATOM      8  C   UNL A   1      31.217  22.844  23.332  1.00  0.00     0.138 C 
ATOM      9  C   UNL A   1      32.348  22.206  22.523  1.00  0.00     0.037 C 
ATOM     10  O   UNL A   1      31.482  22.430  24.681  1.00  0.00    -0.363 OA
ATOM     11  C   UNL A   1      33.540  22.316  23.449  1.00  0.00     0.045 C 
BRANCH   8  12
ATOM     12  C   UNL A   1      31.334  24.364  23.190  1.00  0.00     0.148 C 
BRANCH  12  13
ATOM     13  N   UNL A   1      32.154  24.989  22.202  1.00  0.00    -0.348 N 
ATOM     14  C   UNL A   1      32.846  26.179  22.329  1.00  0.00     0.268 C 
ATOM     15  O   UNL A   1      33.584  26.443  21.373  1.00  0.00    -0.268 OA
ATOM     16  H   UNL A   1      32.237  24.522  21.339  1.00  0.00     0.163 HD
BRANCH  14  17
ATOM     17  C   UNL A   1      32.681  27.144  23.439  1.00  0.00     0.108 A 
ATOM     18  N   UNL A   1      31.705  28.096  23.804  1.00  0.00    -0.342 N 
ATOM     19  C   UNL A   1      32.179  28.854  24.852  1.00  0.00     0.102 A 
ATOM     20  C   UNL A   1      33.342  28.296  25.292  1.00  0.00     0.036 A 
ATOM     21  C   UNL A   1      33.643  27.219  24.456  1.00  0.00     0.049 A 
ATOM     22  Br  UNL A   1      34.402  28.878  26.718  1.00  0.00    -0.049 Br
BRANCH  18  23
ATOM     23  C   UNL A   1      30.422  28.347  23.176  1.00  0.00     0.122 C 
BRANCH  23  24
ATOM     24  C   UNL A   1      30.176  29.459  22.152  1.00  0.00     0.018 C 
ATOM     25  C   UNL A   1      29.214  30.549  22.609  1.00  0.00     0.006 C 
ENDBRANCH  23  24
ENDBRANCH  18  23
ENDBRANCH  14  17
ENDBRANCH  12  13
ENDBRANCH   8  12
ENDBRANCH   4   7
ENDBRANCH   2   3
ENDBRANCH   1   2
BRANCH   1  26
ATOM     26  C   UNL A   1      37.333  23.551  25.708  1.00  0.00     0.002 C 
BRANCH  26  27
ATOM     27  C   UNL A   1      38.654  23.269  26.445  1.00  0.00     0.002 C 
BRANCH  27  28
ATOM     28  C   UNL A   1      39.288  21.892  26.190  1.00  0.00     0.021 C 
BRANCH  28  29
ATOM     29  C   UNL A   1      40.515  21.641  27.044  1.00  0.00     0.116 C 
BRANCH  29  30
ATOM     30  N   UNL A   1      41.737  21.522  26.241  1.00  0.00    -0.352 N 
ATOM     31  C   UNL A   1      42.539  22.532  25.729  1.00  0.00     0.251 C 
ATOM     32  H   UNL A   1      42.028  20.603  26.039  1.00  0.00     0.163 HD
ATOM     33  O   UNL A   1      43.308  22.327  24.808  1.00  0.00    -0.269 OA
BRANCH  31  34
ATOM     34  C   UNL A   1      42.444  23.862  26.359  1.00  0.00     0.039 A 
ATOM     35  C   UNL A   1      41.714  24.926  25.819  1.00  0.00     0.014 A 
ATOM     36  C   UNL A   1      43.103  23.996  27.570  1.00  0.00     0.014 A 
ATOM     37  C   UNL A   1      41.629  26.113  26.550  1.00  0.00     0.010 A 
ATOM     38  C   UNL A   1      42.767  25.018  28.397  1.00  0.00     0.010 A 
ATOM     39  C   UNL A   1      42.170  26.140  27.840  1.00  0.00    -0.014 A 
BRANCH  39  40
ATOM     40  C   UNL A   1      42.156  27.301  28.718  1.00  0.00     0.031 A 
ATOM     41  C   UNL A   1      43.312  28.224  28.540  1.00  0.00     0.074 A 
ATOM     42  C   UNL A   1      40.983  27.634  29.315  1.00  0.00     0.049 A 
ATOM     43  N   UNL A   1      44.156  28.639  29.425  1.00  0.00    -0.248 NA
ATOM     44  C   UNL A   1      43.663  28.629  27.163  1.00  0.00     0.031 C 
ATOM     45  C   UNL A   1      39.692  26.923  29.243  1.00  0.00     0.029 A 
ATOM     46  N   UNL A   1      40.642  28.772  29.978  1.00  0.00    -0.354 N 
ATOM     47  C   UNL A   1      44.995  29.537  28.761  1.00  0.00     0.074 A 
ATOM     48  C   UNL A   1      44.790  29.315  27.358  1.00  0.00     0.031 C 
ATOM     49  C   UNL A   1      38.687  27.747  29.610  1.00  0.00     0.029 A 
ATOM     50  C   UNL A   1      39.264  28.977  30.107  1.00  0.00     0.049 A 
ATOM     51  H   UNL A   1      41.309  29.400  30.337  1.00  0.00     0.167 HD
ATOM     52  C   UNL A   1      45.597  30.570  29.416  1.00  0.00     0.037 A 
ATOM     53  C   UNL A   1      38.661  30.114  30.547  1.00  0.00     0.037 A 
ATOM     54  C   UNL A   1      45.564  30.358  30.842  1.00  0.00     0.049 A 
ATOM     55  C   UNL A   1      39.711  30.883  31.271  1.00  0.00     0.074 A 
ATOM     56  C   UNL A   1      46.086  29.398  31.686  1.00  0.00     0.029 A 
ATOM     57  N   UNL A   1      44.575  30.989  31.558  1.00  0.00    -0.354 N 
ATOM     58  N   UNL A   1      40.298  30.453  32.358  1.00  0.00    -0.248 NA
ATOM     59  C   UNL A   1      40.466  31.858  30.498  1.00  0.00     0.031 C 
ATOM     60  C   UNL A   1      45.065  29.170  32.656  1.00  0.00     0.029 A 
ATOM     61  C   UNL A   1      44.020  30.062  32.405  1.00  0.00     0.049 A 
ATOM     62  H   UNL A   1      44.312  31.934  31.478  1.00  0.00     0.167 HD
ATOM     63  C   UNL A   1      41.639  30.780  32.199  1.00  0.00     0.074 A 
ATOM     64  C   UNL A   1      41.670  31.688  31.052  1.00  0.00     0.031 C 
ATOM     65  C   UNL A   1      42.628  30.060  32.810  1.00  0.00     0.037 A 
BRANCH  52  66
ATOM     66  C   UNL A   1      45.887  31.926  28.807  1.00  0.00     0.058 A 
ATOM     67  C   UNL A   1      44.821  32.684  28.276  1.00  0.00     0.135 A 
ATOM     68  C   UNL A   1      47.180  32.394  28.477  1.00  0.00     0.135 A 
ATOM     69  F   UNL A   1      43.547  32.344  28.528  1.00  0.00    -0.206 F 
ATOM     70  C   UNL A   1      45.024  33.763  27.413  1.00  0.00     0.059 A 
ATOM     71  C   UNL A   1      47.405  33.500  27.665  1.00  0.00     0.059 A 
ATOM     72  F   UNL A   1      48.295  31.751  28.841  1.00  0.00    -0.206 F 
ATOM     73  C   UNL A   1      46.323  34.149  27.098  1.00  0.00     0.060 A 
BRANCH  73  74
ATOM     74  S   UNL A   1      46.593  35.453  25.885  1.00  0.00     0.124 S 
ATOM     75  O   UNL A   1      45.808  36.543  26.451  1.00  0.00    -0.237 OA
ATOM     76  O   UNL A   1      48.042  35.614  25.932  1.00  0.00    -0.237 OA
ATOM     77  O   UNL A   1      46.072  34.875  24.650  1.00  0.00    -0.744 OA
ENDBRANCH  73  74
ENDBRANCH  52  66
BRANCH  53  78
ATOM     78  C   UNL A   1      37.398  30.724  30.040  1.00  0.00     0.058 A 
ATOM     79  C   UNL A   1      36.464  31.335  30.897  1.00  0.00     0.135 A 
ATOM     80  C   UNL A   1      37.205  30.952  28.661  1.00  0.00     0.135 A 
ATOM     81  F   UNL A   1      36.585  31.200  32.227  1.00  0.00    -0.206 F 
ATOM     82  C   UNL A   1      35.421  32.143  30.419  1.00  0.00     0.059 A 
ATOM     83  C   UNL A   1      36.171  31.746  28.161  1.00  0.00     0.059 A 
ATOM     84  F   UNL A   1      38.074  30.478  27.756  1.00  0.00    -0.206 F 
ATOM     85  C   UNL A   1      35.292  32.357  29.046  1.00  0.00     0.060 A 
BRANCH  85  86
ATOM     86  S   UNL A   1      34.046  33.515  28.422  1.00  0.00     0.124 S 
ATOM     87  O   UNL A   1      33.109  32.621  27.752  1.00  0.00    -0.237 OA
ATOM     88  O   UNL A   1      33.565  34.142  29.648  1.00  0.00    -0.237 OA
ATOM     89  O   UNL A   1      34.810  34.392  27.537  1.00  0.00    -0.744 OA
ENDBRANCH  85  86
ENDBRANCH  53  78
BRANCH  65  90
ATOM     90  C   UNL A   1      42.234  29.019  33.837  1.00  0.00     0.058 A 
ATOM     91  C   UNL A   1      42.164  27.636  33.580  1.00  0.00     0.135 A 
ATOM     92  C   UNL A   1      42.123  29.416  35.176  1.00  0.00     0.135 A 
ATOM     93  F   UNL A   1      42.358  27.156  32.346  1.00  0.00    -0.206 F 
ATOM     94  C   UNL A   1      41.969  26.697  34.596  1.00  0.00     0.059 A 
ATOM     95  C   UNL A   1      41.957  28.497  36.211  1.00  0.00     0.059 A 
ATOM     96  F   UNL A   1      42.245  30.713  35.501  1.00  0.00    -0.206 F 
ATOM     97  C   UNL A   1      41.873  27.138  35.913  1.00  0.00     0.060 A 
BRANCH  97  98
ATOM     98  S   UNL A   1      41.711  25.922  37.240  1.00  0.00     0.124 S 
ATOM     99  O   UNL A   1      42.770  26.326  38.158  1.00  0.00    -0.237 OA
ATOM    100  O   UNL A   1      40.346  26.145  37.709  1.00  0.00    -0.237 OA
ATOM    101  O   UNL A   1      41.927  24.647  36.560  1.00  0.00    -0.744 OA
ENDBRANCH  97  98
ENDBRANCH  65  90
ENDBRANCH  39  40
ENDBRANCH  31  34
ENDBRANCH  29  30
ENDBRANCH  28  29
ENDBRANCH  27  28
ENDBRANCH  26  27
ENDBRANCH   1  26
TORSDOF 21
ENDMDL
MODEL 2
REMARK VINA RESULT:     -11.3      1.970      3.006
REMARK SMILES CCCn1cc(Br)cc1C(=O)NC[C@H]1CC[C@@H](C(=O)NCCCCCCNC(=O)c2ccc(-c3c4nc(c(-c5c(F)cc(S(=O)(=O)[O-])cc5F)c5ccc([nH]5)c(-c5c(F)cc(S(=O)(=O)[O-])cc5F)c5nc(c(-c6c(F)cc(S(=O)(=O)[O-])cc6F)c6ccc3[nH]6)C=C5)C=C4)cc2)O1
REMARK SMILES IDX 22 1 21 2 20 3 18 4 19 5 17 7 14 8 15 9 96 10 16 11 13 12
REMARK SMILES IDX 12 13 10 14 11 15 9 17 4 18 5 19 6 20 8 21 7 22 3 23 2 24
REMARK SMILES IDX 1 25 23 26 24 27 25 28 26 29 27 30 28 31 29 33 30 34 31 35
REMARK SMILES IDX 95 36 32 37 94 38 33 39 34 40 35 41 88 42 36 43 93 44 87 45
REMARK SMILES IDX 89 46 37 47 92 48 86 49 85 50 38 52 72 53 51 54 71 55 52 56
REMARK SMILES IDX 55 57 70 58 90 59 53 60 54 61 69 63 91 64 56 65 39 66 40 67
REMARK SMILES IDX 49 68 41 69 42 70 48 71 50 72 43 73 44 74 45 75 46 76 47 77
REMARK SMILES IDX 73 78 74 79 83 80 75 81 76 82 82 83 84 84 77 85 78 86 79 87
REMARK SMILES IDX 80 88 81 89 57 90 58 91 67 92 59 93 60 94 66 95 68 96 61 97
REMARK SMILES IDX 62 98 63 99 64 100 65 101
REMARK H PARENT 20 6 12 16 27 32 89 51 55 62
REMARK Flexibility Score: inf
ROOT
ATOM      1  C   UNL A   1      38.940  22.106  26.138  1.00  0.00     0.021 C 
ENDROOT
BRANCH   1   2
ATOM      2  C   UNL A   1      38.016  23.317  26.005  1.00  0.00     0.116 C 
BRANCH   2   3
ATOM      3  N   UNL A   1      37.372  23.317  24.710  1.00  0.00    -0.354 N 
ATOM      4  C   UNL A   1      36.028  23.343  24.459  1.00  0.00     0.249 C 
ATOM      5  O   UNL A   1      35.641  23.171  23.302  1.00  0.00    -0.272 OA
ATOM      6  H   UNL A   1      37.965  23.297  23.924  1.00  0.00     0.163 HD
BRANCH   4   7
ATOM      7  C   UNL A   1      35.079  23.658  25.627  1.00  0.00     0.207 C 
ATOM      8  C   UNL A   1      32.943  24.520  25.193  1.00  0.00     0.138 C 
ATOM      9  C   UNL A   1      32.789  23.326  26.137  1.00  0.00     0.037 C 
ATOM     10  O   UNL A   1      34.336  24.855  25.284  1.00  0.00    -0.363 OA
ATOM     11  C   UNL A   1      34.077  22.558  25.935  1.00  0.00     0.045 C 
BRANCH   8  12
ATOM     12  C   UNL A   1      32.580  24.055  23.780  1.00  0.00     0.148 C 
BRANCH  12  13
ATOM     13  N   UNL A   1      33.137  24.641  22.604  1.00  0.00    -0.348 N 
ATOM     14  C   UNL A   1      33.048  25.965  22.214  1.00  0.00     0.268 C 
ATOM     15  O   UNL A   1      33.722  26.249  21.218  1.00  0.00    -0.268 OA
ATOM     16  H   UNL A   1      33.640  24.040  22.008  1.00  0.00     0.163 HD
BRANCH  14  17
ATOM     17  C   UNL A   1      32.161  26.975  22.832  1.00  0.00     0.108 A 
ATOM     18  N   UNL A   1      32.288  27.920  23.873  1.00  0.00    -0.342 N 
ATOM     19  C   UNL A   1      31.055  28.469  24.143  1.00  0.00     0.102 A 
ATOM     20  C   UNL A   1      30.180  28.048  23.187  1.00  0.00     0.036 A 
ATOM     21  C   UNL A   1      30.857  27.158  22.350  1.00  0.00     0.049 A 
ATOM     22  Br  UNL A   1      28.375  28.510  23.027  1.00  0.00    -0.049 Br
BRANCH  18  23
ATOM     23  C   UNL A   1      33.476  28.257  24.634  1.00  0.00     0.122 C 
BRANCH  23  24
ATOM     24  C   UNL A   1      33.600  28.072  26.150  1.00  0.00     0.018 C 
ATOM     25  C   UNL A   1      32.358  27.507  26.829  1.00  0.00     0.006 C 
ENDBRANCH  23  24
ENDBRANCH  18  23
ENDBRANCH  14  17
ENDBRANCH  12  13
ENDBRANCH   8  12
ENDBRANCH   4   7
ENDBRANCH   2   3
ENDBRANCH   1   2
BRANCH   1  26
ATOM     26  C   UNL A   1      40.309  22.451  26.738  1.00  0.00     0.002 C 
BRANCH  26  27
ATOM     27  C   UNL A   1      40.830  21.460  27.793  1.00  0.00     0.002 C 
BRANCH  27  28
ATOM     28  C   UNL A   1      41.879  20.447  27.308  1.00  0.00     0.021 C 
BRANCH  28  29
ATOM     29  C   UNL A   1      41.794  20.178  25.819  1.00  0.00     0.116 C 
BRANCH  29  30
ATOM     30  N   UNL A   1      43.115  19.967  25.215  1.00  0.00    -0.352 N 
ATOM     31  C   UNL A   1      44.046  20.915  24.815  1.00  0.00     0.251 C 
ATOM     32  H   UNL A   1      43.377  19.027  25.078  1.00  0.00     0.163 HD
ATOM     33  O   UNL A   1      44.933  20.640  24.028  1.00  0.00    -0.269 OA
BRANCH  31  34
ATOM     34  C   UNL A   1      43.938  22.264  25.399  1.00  0.00     0.039 A 
ATOM     35  C   UNL A   1      43.129  23.276  24.870  1.00  0.00     0.014 A 
ATOM     36  C   UNL A   1      44.670  22.475  26.555  1.00  0.00     0.014 A 
ATOM     37  C   UNL A   1      43.044  24.488  25.558  1.00  0.00     0.010 A 
ATOM     38  C   UNL A   1      44.347  23.515  27.364  1.00  0.00     0.010 A 
ATOM     39  C   UNL A   1      43.667  24.589  26.806  1.00  0.00    -0.014 A 
BRANCH  39  40
ATOM     40  C   UNL A   1      43.663  25.784  27.638  1.00  0.00     0.031 A 
ATOM     41  C   UNL A   1      44.725  26.774  27.302  1.00  0.00     0.074 A 
ATOM     42  C   UNL A   1      42.540  26.063  28.346  1.00  0.00     0.049 A 
ATOM     43  N   UNL A   1      45.626  27.284  28.074  1.00  0.00    -0.248 NA
ATOM     44  C   UNL A   1      44.899  27.140  25.881  1.00  0.00     0.031 C 
ATOM     45  C   UNL A   1      41.302  25.264  28.440  1.00  0.00     0.029 A 
ATOM     46  N   UNL A   1      42.189  27.203  29.000  1.00  0.00    -0.354 N 
ATOM     47  C   UNL A   1      46.323  28.206  27.291  1.00  0.00     0.074 A 
ATOM     48  C   UNL A   1      45.987  27.909  25.927  1.00  0.00     0.031 C 
ATOM     49  C   UNL A   1      40.285  26.034  28.884  1.00  0.00     0.029 A 
ATOM     50  C   UNL A   1      40.822  27.321  29.270  1.00  0.00     0.049 A 
ATOM     51  H   UNL A   1      42.844  27.890  29.261  1.00  0.00     0.167 HD
ATOM     52  C   UNL A   1      46.915  29.305  27.839  1.00  0.00     0.037 A 
ATOM     53  C   UNL A   1      40.189  28.432  29.732  1.00  0.00     0.037 A 
ATOM     54  C   UNL A   1      47.049  29.154  29.266  1.00  0.00     0.049 A 
ATOM     55  C   UNL A   1      41.252  29.302  30.309  1.00  0.00     0.074 A 
ATOM     56  C   UNL A   1      47.724  28.268  30.083  1.00  0.00     0.029 A 
ATOM     57  N   UNL A   1      46.098  29.747  30.063  1.00  0.00    -0.354 N 
ATOM     58  N   UNL A   1      41.979  28.960  31.340  1.00  0.00    -0.248 NA
ATOM     59  C   UNL A   1      41.849  30.291  29.424  1.00  0.00     0.031 C 
ATOM     60  C   UNL A   1      46.831  28.015  31.166  1.00  0.00     0.029 A 
ATOM     61  C   UNL A   1      45.704  28.823  30.998  1.00  0.00     0.049 A 
ATOM     62  H   UNL A   1      45.761  30.668  29.977  1.00  0.00     0.167 HD
ATOM     63  C   UNL A   1      43.269  29.369  31.025  1.00  0.00     0.074 A 
ATOM     64  C   UNL A   1      43.114  30.226  29.849  1.00  0.00     0.031 C 
ATOM     65  C   UNL A   1      44.367  28.745  31.551  1.00  0.00     0.037 A 
BRANCH  52  66
ATOM     66  C   UNL A   1      47.042  30.649  27.153  1.00  0.00     0.058 A 
ATOM     67  C   UNL A   1      48.306  31.276  27.098  1.00  0.00     0.135 A 
ATOM     68  C   UNL A   1      45.948  31.470  26.792  1.00  0.00     0.135 A 
ATOM     69  F   UNL A   1      49.421  30.596  27.408  1.00  0.00    -0.206 F 
ATOM     70  C   UNL A   1      48.459  32.631  26.797  1.00  0.00     0.059 A 
ATOM     71  C   UNL A   1      46.084  32.807  26.436  1.00  0.00     0.059 A 
ATOM     72  F   UNL A   1      44.679  31.051  26.859  1.00  0.00    -0.206 F 
ATOM     73  C   UNL A   1      47.337  33.393  26.488  1.00  0.00     0.060 A 
BRANCH  73  74
ATOM     74  S   UNL A   1      47.510  35.166  26.229  1.00  0.00     0.124 S 
ATOM     75  O   UNL A   1      48.613  35.215  25.278  1.00  0.00    -0.237 OA
ATOM     76  O   UNL A   1      46.195  35.525  25.706  1.00  0.00    -0.237 OA
ATOM     77  O   UNL A   1      47.805  35.673  27.566  1.00  0.00    -0.744 OA
ENDBRANCH  73  74
ENDBRANCH  52  66
BRANCH  53  78
ATOM     78  C   UNL A   1      38.839  28.933  29.343  1.00  0.00     0.058 A 
ATOM     79  C   UNL A   1      37.815  29.137  30.287  1.00  0.00     0.135 A 
ATOM     80  C   UNL A   1      38.607  29.475  28.061  1.00  0.00     0.135 A 
ATOM     81  F   UNL A   1      37.959  28.686  31.542  1.00  0.00    -0.206 F 
ATOM     82  C   UNL A   1      36.647  29.856  29.986  1.00  0.00     0.059 A 
ATOM     83  C   UNL A   1      37.452  30.186  27.735  1.00  0.00     0.059 A 
ATOM     84  F   UNL A   1      39.544  29.402  27.103  1.00  0.00    -0.206 F 
ATOM     85  C   UNL A   1      36.482  30.393  28.708  1.00  0.00     0.060 A 
BRANCH  85  86
ATOM     86  S   UNL A   1      35.054  31.448  28.347  1.00  0.00     0.124 S 
ATOM     87  O   UNL A   1      35.631  32.446  27.454  1.00  0.00    -0.237 OA
ATOM     88  O   UNL A   1      34.121  30.508  27.736  1.00  0.00    -0.237 OA
ATOM     89  O   UNL A   1      34.658  31.946  29.663  1.00  0.00    -0.744 OA
ENDBRANCH  85  86
ENDBRANCH  53  78
BRANCH  65  90
ATOM     90  C   UNL A   1      44.159  27.726  32.652  1.00  0.00     0.058 A 
ATOM     91  C   UNL A   1      43.838  28.050  33.984  1.00  0.00     0.135 A 
ATOM     92  C   UNL A   1      44.083  26.373  32.298  1.00  0.00     0.135 A 
ATOM     93  F   UNL A   1      43.788  29.325  34.388  1.00  0.00    -0.206 F 
ATOM     94  C   UNL A   1      43.483  27.079  34.924  1.00  0.00     0.059 A 
ATOM     95  C   UNL A   1      43.703  25.388  33.209  1.00  0.00     0.059 A 
ATOM     96  F   UNL A   1      44.313  25.999  31.029  1.00  0.00    -0.206 F 
ATOM     97  C   UNL A   1      43.412  25.747  34.523  1.00  0.00     0.060 A 
BRANCH  97  98
ATOM     98  S   UNL A   1      42.866  24.499  35.710  1.00  0.00     0.124 S 
ATOM     99  O   UNL A   1      43.380  23.268  35.120  1.00  0.00    -0.237 OA
ATOM    100  O   UNL A   1      43.515  24.931  36.946  1.00  0.00    -0.237 OA
ATOM    101  O   UNL A   1      41.411  24.635  35.702  1.00  0.00    -0.744 OA
ENDBRANCH  97  98
ENDBRANCH  65  90
ENDBRANCH  39  40
ENDBRANCH  31  34
ENDBRANCH  29  30
ENDBRANCH  28  29
ENDBRANCH  27  28
ENDBRANCH  26  27
ENDBRANCH   1  26
TORSDOF 21
ENDMDL
MODEL 3
REMARK VINA RESULT:     -11.2      1.484      2.679
REMARK SMILES CCCn1cc(Br)cc1C(=O)NC[C@H]1CC[C@@H](C(=O)NCCCCCCNC(=O)c2ccc(-c3c4nc(c(-c5c(F)cc(S(=O)(=O)[O-])cc5F)c5ccc([nH]5)c(-c5c(F)cc(S(=O)(=O)[O-])cc5F)c5nc(c(-c6c(F)cc(S(=O)(=O)[O-])cc6F)c6ccc3[nH]6)C=C5)C=C4)cc2)O1
REMARK SMILES IDX 22 1 21 2 20 3 18 4 19 5 17 7 14 8 15 9 96 10 16 11 13 12
REMARK SMILES IDX 12 13 10 14 11 15 9 17 4 18 5 19 6 20 8 21 7 22 3 23 2 24
REMARK SMILES IDX 1 25 23 26 24 27 25 28 26 29 27 30 28 31 29 33 30 34 31 35
REMARK SMILES IDX 95 36 32 37 94 38 33 39 34 40 35 41 88 42 36 43 93 44 87 45
REMARK SMILES IDX 89 46 37 47 92 48 86 49 85 50 38 52 72 53 51 54 71 55 52 56
REMARK SMILES IDX 55 57 70 58 90 59 53 60 54 61 69 63 91 64 56 65 39 66 40 67
REMARK SMILES IDX 49 68 41 69 42 70 48 71 50 72 43 73 44 74 45 75 46 76 47 77
REMARK SMILES IDX 73 78 74 79 83 80 75 81 76 82 82 83 84 84 77 85 78 86 79 87
REMARK SMILES IDX 80 88 81 89 57 90 58 91 67 92 59 93 60 94 66 95 68 96 61 97
REMARK SMILES IDX 62 98 63 99 64 100 65 101
REMARK H PARENT 20 6 12 16 27 32 89 51 55 62
REMARK Flexibility Score: inf
ROOT
ATOM      1  C   UNL A   1      35.209  23.609  24.887  1.00  0.00     0.021 C 
ENDROOT
BRANCH   1   2
ATOM      2  C   UNL A   1      34.972  24.908  25.657  1.00  0.00     0.116 C 
BRANCH   2   3
ATOM      3  N   UNL A   1      33.554  25.161  25.790  1.00  0.00    -0.354 N 
ATOM      4  C   UNL A   1      32.960  26.320  26.206  1.00  0.00     0.249 C 
ATOM      5  O   UNL A   1      31.747  26.317  26.424  1.00  0.00    -0.272 OA
ATOM      6  H   UNL A   1      32.951  24.419  25.554  1.00  0.00     0.163 HD
BRANCH   4   7
ATOM      7  C   UNL A   1      33.832  27.583  26.312  1.00  0.00     0.207 C 
ATOM      8  C   UNL A   1      33.274  29.491  25.069  1.00  0.00     0.138 C 
ATOM      9  C   UNL A   1      33.482  29.917  26.524  1.00  0.00     0.037 C 
ATOM     10  O   UNL A   1      33.886  28.194  24.998  1.00  0.00    -0.363 OA
ATOM     11  C   UNL A   1      33.314  28.623  27.290  1.00  0.00     0.045 C 
BRANCH   8  12
ATOM     12  C   UNL A   1      31.766  29.402  24.816  1.00  0.00     0.148 C 
BRANCH  12  13
ATOM     13  N   UNL A   1      31.179  29.662  23.541  1.00  0.00    -0.348 N 
ATOM     14  C   UNL A   1      30.630  28.734  22.675  1.00  0.00     0.268 C 
ATOM     15  O   UNL A   1      30.073  29.226  21.687  1.00  0.00    -0.268 OA
ATOM     16  H   UNL A   1      31.161  30.601  23.247  1.00  0.00     0.163 HD
BRANCH  14  17
ATOM     17  C   UNL A   1      30.755  27.266  22.812  1.00  0.00     0.108 A 
ATOM     18  N   UNL A   1      30.073  26.264  23.534  1.00  0.00    -0.342 N 
ATOM     19  C   UNL A   1      30.758  25.075  23.421  1.00  0.00     0.102 A 
ATOM     20  C   UNL A   1      31.748  25.237  22.499  1.00  0.00     0.036 A 
ATOM     21  C   UNL A   1      31.733  26.571  22.086  1.00  0.00     0.049 A 
ATOM     22  Br  UNL A   1      32.965  23.944  21.911  1.00  0.00    -0.049 Br
BRANCH  18  23
ATOM     23  C   UNL A   1      28.882  26.403  24.350  1.00  0.00     0.122 C 
BRANCH  23  24
ATOM     24  C   UNL A   1      27.493  26.721  23.786  1.00  0.00     0.018 C 
ATOM     25  C   UNL A   1      27.244  28.195  23.489  1.00  0.00     0.006 C 
ENDBRANCH  23  24
ENDBRANCH  18  23
ENDBRANCH  14  17
ENDBRANCH  12  13
ENDBRANCH   8  12
ENDBRANCH   4   7
ENDBRANCH   2   3
ENDBRANCH   1   2
BRANCH   1  26
ATOM     26  C   UNL A   1      35.742  22.471  25.768  1.00  0.00     0.002 C 
BRANCH  26  27
ATOM     27  C   UNL A   1      37.085  21.870  25.319  1.00  0.00     0.002 C 
BRANCH  27  28
ATOM     28  C   UNL A   1      38.313  22.783  25.458  1.00  0.00     0.021 C 
BRANCH  28  29
ATOM     29  C   UNL A   1      39.250  22.347  26.568  1.00  0.00     0.116 C 
BRANCH  29  30
ATOM     30  N   UNL A   1      40.572  21.963  26.061  1.00  0.00    -0.352 N 
ATOM     31  C   UNL A   1      41.659  22.776  25.772  1.00  0.00     0.251 C 
ATOM     32  H   UNL A   1      40.708  21.000  25.908  1.00  0.00     0.163 HD
ATOM     33  O   UNL A   1      42.559  22.398  25.045  1.00  0.00    -0.269 OA
BRANCH  31  34
ATOM     34  C   UNL A   1      41.695  24.111  26.398  1.00  0.00     0.039 A 
ATOM     35  C   UNL A   1      41.093  25.245  25.843  1.00  0.00     0.014 A 
ATOM     36  C   UNL A   1      42.344  24.179  27.620  1.00  0.00     0.014 A 
ATOM     37  C   UNL A   1      41.123  26.437  26.570  1.00  0.00     0.010 A 
ATOM     38  C   UNL A   1      42.104  25.234  28.439  1.00  0.00     0.010 A 
ATOM     39  C   UNL A   1      41.640  26.411  27.869  1.00  0.00    -0.014 A 
BRANCH  39  40
ATOM     40  C   UNL A   1      41.735  27.570  28.744  1.00  0.00     0.031 A 
ATOM     41  C   UNL A   1      42.920  28.440  28.492  1.00  0.00     0.074 A 
ATOM     42  C   UNL A   1      40.620  27.957  29.413  1.00  0.00     0.049 A 
ATOM     43  N   UNL A   1      43.836  28.814  29.321  1.00  0.00    -0.248 NA
ATOM     44  C   UNL A   1      43.201  28.829  27.095  1.00  0.00     0.031 C 
ATOM     45  C   UNL A   1      39.294  27.306  29.424  1.00  0.00     0.029 A 
ATOM     46  N   UNL A   1      40.373  29.108  30.095  1.00  0.00    -0.354 N 
ATOM     47  C   UNL A   1      44.671  29.673  28.605  1.00  0.00     0.074 A 
ATOM     48  C   UNL A   1      44.368  29.463  27.218  1.00  0.00     0.031 C 
ATOM     49  C   UNL A   1      38.354  28.175  29.852  1.00  0.00     0.029 A 
ATOM     50  C   UNL A   1      39.018  29.376  30.310  1.00  0.00     0.049 A 
ATOM     51  H   UNL A   1      41.090  29.704  30.410  1.00  0.00     0.167 HD
ATOM     52  C   UNL A   1      45.360  30.677  29.219  1.00  0.00     0.037 A 
ATOM     53  C   UNL A   1      38.496  30.539  30.786  1.00  0.00     0.037 A 
ATOM     54  C   UNL A   1      45.408  30.465  30.644  1.00  0.00     0.049 A 
ATOM     55  C   UNL A   1      39.624  31.258  31.440  1.00  0.00     0.074 A 
ATOM     56  C   UNL A   1      45.937  29.480  31.455  1.00  0.00     0.029 A 
ATOM     57  N   UNL A   1      44.496  31.139  31.420  1.00  0.00    -0.354 N 
ATOM     58  N   UNL A   1      40.258  30.800  32.489  1.00  0.00    -0.248 NA
ATOM     59  C   UNL A   1      40.373  32.198  30.621  1.00  0.00     0.031 C 
ATOM     60  C   UNL A   1      44.971  29.298  32.488  1.00  0.00     0.029 A 
ATOM     61  C   UNL A   1      43.953  30.237  32.302  1.00  0.00     0.049 A 
ATOM     62  H   UNL A   1      44.272  32.096  31.356  1.00  0.00     0.167 HD
ATOM     63  C   UNL A   1      41.600  31.065  32.245  1.00  0.00     0.074 A 
ATOM     64  C   UNL A   1      41.601  31.972  31.097  1.00  0.00     0.031 C 
ATOM     65  C   UNL A   1      42.592  30.299  32.794  1.00  0.00     0.037 A 
BRANCH  52  66
ATOM     66  C   UNL A   1      45.674  32.018  28.591  1.00  0.00     0.058 A 
ATOM     67  C   UNL A   1      47.017  32.450  28.526  1.00  0.00     0.135 A 
ATOM     68  C   UNL A   1      44.710  33.011  28.300  1.00  0.00     0.135 A 
ATOM     69  F   UNL A   1      48.023  31.596  28.772  1.00  0.00    -0.206 F 
ATOM     70  C   UNL A   1      47.367  33.779  28.282  1.00  0.00     0.059 A 
ATOM     71  C   UNL A   1      45.039  34.328  28.001  1.00  0.00     0.059 A 
ATOM     72  F   UNL A   1      43.394  32.786  28.386  1.00  0.00    -0.206 F 
ATOM     73  C   UNL A   1      46.367  34.715  28.041  1.00  0.00     0.060 A 
BRANCH  73  74
ATOM     74  S   UNL A   1      46.801  36.453  27.857  1.00  0.00     0.124 S 
ATOM     75  O   UNL A   1      47.759  36.630  28.941  1.00  0.00    -0.237 OA
ATOM     76  O   UNL A   1      47.349  36.486  26.504  1.00  0.00    -0.237 OA
ATOM     77  O   UNL A   1      45.523  37.138  28.026  1.00  0.00    -0.744 OA
ENDBRANCH  73  74
ENDBRANCH  52  66
BRANCH  53  78
ATOM     78  C   UNL A   1      37.233  31.207  30.358  1.00  0.00     0.058 A 
ATOM     79  C   UNL A   1      36.363  31.822  31.277  1.00  0.00     0.135 A 
ATOM     80  C   UNL A   1      36.984  31.486  28.998  1.00  0.00     0.135 A 
ATOM     81  F   UNL A   1      36.541  31.641  32.595  1.00  0.00    -0.206 F 
ATOM     82  C   UNL A   1      35.327  32.680  30.874  1.00  0.00     0.059 A 
ATOM     83  C   UNL A   1      35.957  32.329  28.572  1.00  0.00     0.059 A 
ATOM     84  F   UNL A   1      37.792  31.010  28.038  1.00  0.00    -0.206 F 
ATOM     85  C   UNL A   1      35.142  32.941  29.516  1.00  0.00     0.060 A 
BRANCH  85  86
ATOM     86  S   UNL A   1      33.910  34.160  28.988  1.00  0.00     0.124 S 
ATOM     87  O   UNL A   1      33.255  34.495  30.246  1.00  0.00    -0.237 OA
ATOM     88  O   UNL A   1      34.740  35.206  28.402  1.00  0.00    -0.237 OA
ATOM     89  O   UNL A   1      33.085  33.418  28.036  1.00  0.00    -0.744 OA
ENDBRANCH  85  86
ENDBRANCH  53  78
BRANCH  65  90
ATOM     90  C   UNL A   1      42.216  29.276  33.846  1.00  0.00     0.058 A 
ATOM     91  C   UNL A   1      41.842  27.948  33.563  1.00  0.00     0.135 A 
ATOM     92  C   UNL A   1      42.439  29.594  35.191  1.00  0.00     0.135 A 
ATOM     93  F   UNL A   1      41.703  27.527  32.301  1.00  0.00    -0.206 F 
ATOM     94  C   UNL A   1      41.675  26.991  34.568  1.00  0.00     0.059 A 
ATOM     95  C   UNL A   1      42.307  28.650  36.209  1.00  0.00     0.059 A 
ATOM     96  F   UNL A   1      42.860  30.824  35.526  1.00  0.00    -0.206 F 
ATOM     97  C   UNL A   1      41.917  27.351  35.891  1.00  0.00     0.060 A 
BRANCH  97  98
ATOM     98  S   UNL A   1      41.789  26.095  37.183  1.00  0.00     0.124 S 
ATOM     99  O   UNL A   1      40.400  26.228  37.605  1.00  0.00    -0.237 OA
ATOM    100  O   UNL A   1      42.120  24.866  36.465  1.00  0.00    -0.237 OA
ATOM    101  O   UNL A   1      42.784  26.517  38.166  1.00  0.00    -0.744 OA
ENDBRANCH  97  98
ENDBRANCH  65  90
ENDBRANCH  39  40
ENDBRANCH  31  34
ENDBRANCH  29  30
ENDBRANCH  28  29
ENDBRANCH  27  28
ENDBRANCH  26  27
ENDBRANCH   1  26
TORSDOF 21
ENDMDL
