MODEL 1
REMARK VINA RESULT:     -11.2      0.000      0.000
REMARK SMILES CC1(C)CC[NH+](CC[C@H]2CCC[C@]2([NH3+])C(=O)NCCCCCCNC(=O)c2ccc(-c3c4nc(c(-c5c(F)cc(S(=O)(=O)[O-])cc5F)c5ccc([nH]5)c(-c5c(F)cc(S(=O)(=O)[O-])cc5F)c5nc(c(-c6c(F)cc(S(=O)(=O)[O-])cc6F)c6ccc3[nH]6)C=C5)C=C4)cc2)CC1
REMARK SMILES IDX 20 1 19 2 18 3 17 4 15 5 16 6 13 8 9 9 10 10 11 11 12 12
REMARK SMILES IDX 8 13 7 14 6 15 1 16 2 17 3 18 4 19 94 20 5 21 93 22 14 24
REMARK SMILES IDX 21 28 22 29 23 30 24 31 25 32 26 34 27 35 28 36 92 37 29 38
REMARK SMILES IDX 91 39 30 40 31 41 32 42 85 43 33 44 90 45 84 46 86 47 34 48
REMARK SMILES IDX 89 49 83 50 82 51 35 53 69 54 48 55 68 56 49 57 52 58 67 59
REMARK SMILES IDX 87 60 50 61 51 62 66 64 88 65 53 66 36 67 37 68 46 69 38 70
REMARK SMILES IDX 39 71 45 72 47 73 40 74 41 75 42 76 43 77 44 78 70 79 71 80
REMARK SMILES IDX 80 81 72 82 73 83 79 84 81 85 74 86 75 87 76 88 77 89 78 90
REMARK SMILES IDX 54 91 55 92 64 93 56 94 57 95 63 96 65 97 58 98 59 99 60 100
REMARK SMILES IDX 61 101 62 102
REMARK H PARENT 17 7 6 23 14 25 14 26 14 27 24 33 86 52 52 63
REMARK Flexibility Score: inf
ROOT
ATOM      1  C   UNL A   1      34.071  28.602  25.800  1.00  0.00     0.002 C 
ENDROOT
BRANCH   1   2
ATOM      2  C   UNL A   1      32.816  29.401  25.420  1.00  0.00     0.021 C 
BRANCH   2   3
ATOM      3  C   UNL A   1      31.532  28.685  25.847  1.00  0.00     0.116 C 
BRANCH   3   4
ATOM      4  N   UNL A   1      30.783  28.359  24.649  1.00  0.00    -0.351 N 
ATOM      5  C   UNL A   1      30.998  27.287  23.808  1.00  0.00     0.281 C 
ATOM      6  O   UNL A   1      30.883  27.458  22.596  1.00  0.00    -0.268 OA
ATOM      7  H   UNL A   1      30.044  28.966  24.412  1.00  0.00     0.163 HD
BRANCH   5   8
ATOM      8  C   UNL A   1      31.150  25.879  24.501  1.00  0.00     0.177 C 
ATOM      9  C   UNL A   1      32.729  25.563  24.697  1.00  0.00     0.066 C 
ATOM     10  C   UNL A   1      33.036  24.705  23.420  1.00  0.00     0.011 C 
ATOM     11  C   UNL A   1      31.751  24.247  22.759  1.00  0.00     0.008 C 
ATOM     12  C   UNL A   1      30.603  24.783  23.568  1.00  0.00     0.079 C 
BRANCH   9  13
ATOM     13  C   UNL A   1      33.670  24.931  25.849  1.00  0.00     0.072 C 
BRANCH  13  14
ATOM     14  C   UNL A   1      34.824  23.857  25.781  1.00  0.00     0.262 C 
BRANCH  14  15
ATOM     15  N   UNL A   1      34.994  22.631  26.583  1.00  0.00    -0.335 N 
ATOM     16  C   UNL A   1      32.846  19.264  25.436  1.00  0.00     0.011 C 
ATOM     17  C   UNL A   1      33.390  20.660  25.097  1.00  0.00    -0.025 C 
ATOM     18  C   UNL A   1      32.765  20.960  23.703  1.00  0.00     0.011 C 
ATOM     19  C   UNL A   1      32.878  21.607  26.203  1.00  0.00     0.068 C 
ATOM     20  C   UNL A   1      34.925  20.726  24.923  1.00  0.00     0.068 C 
ATOM     21  C   UNL A   1      33.813  22.152  27.254  1.00  0.00     0.262 C 
ATOM     22  C   UNL A   1      35.690  21.477  26.014  1.00  0.00     0.262 C 
ATOM     23  H   UNL A   1      35.648  23.043  27.249  1.00  0.00     0.348 HD
ENDBRANCH  14  15
ENDBRANCH  13  14
ENDBRANCH   9  13
BRANCH   8  24
ATOM     24  N   UNL A   1      30.071  25.995  25.493  1.00  0.00    -0.345 N 
ATOM     25  H   UNL A   1      29.897  25.083  25.914  1.00  0.00     0.345 HD
ATOM     26  H   UNL A   1      29.222  26.326  25.035  1.00  0.00     0.345 HD
ATOM     27  H   UNL A   1      30.347  26.658  26.218  1.00  0.00     0.345 HD
ENDBRANCH   8  24
ENDBRANCH   5   8
ENDBRANCH   3   4
ENDBRANCH   2   3
ENDBRANCH   1   2
BRANCH   1  28
ATOM     28  C   UNL A   1      34.690  29.039  27.132  1.00  0.00     0.002 C 
BRANCH  28  29
ATOM     29  C   UNL A   1      34.522  30.531  27.417  1.00  0.00     0.021 C 
BRANCH  29  30
ATOM     30  C   UNL A   1      35.688  31.130  28.193  1.00  0.00     0.116 C 
BRANCH  30  31
ATOM     31  N   UNL A   1      35.474  31.045  29.632  1.00  0.00    -0.352 N 
ATOM     32  C   UNL A   1      36.324  30.564  30.588  1.00  0.00     0.251 C 
ATOM     33  H   UNL A   1      34.605  31.376  29.957  1.00  0.00     0.163 HD
ATOM     34  O   UNL A   1      35.926  30.349  31.733  1.00  0.00    -0.269 OA
BRANCH  32  35
ATOM     35  C   UNL A   1      37.723  30.293  30.215  1.00  0.00     0.039 A 
ATOM     36  C   UNL A   1      38.674  30.103  31.218  1.00  0.00     0.014 A 
ATOM     37  C   UNL A   1      38.071  30.179  28.866  1.00  0.00     0.014 A 
ATOM     38  C   UNL A   1      39.974  29.743  30.865  1.00  0.00     0.010 A 
ATOM     39  C   UNL A   1      39.343  29.742  28.523  1.00  0.00     0.010 A 
ATOM     40  C   UNL A   1      40.309  29.529  29.517  1.00  0.00    -0.014 A 
BRANCH  40  41
ATOM     41  C   UNL A   1      41.672  29.102  29.114  1.00  0.00     0.031 A 
ATOM     42  C   UNL A   1      42.777  30.121  29.045  1.00  0.00     0.074 A 
ATOM     43  C   UNL A   1      41.890  27.827  28.736  1.00  0.00     0.049 A 
ATOM     44  N   UNL A   1      43.998  29.983  28.601  1.00  0.00    -0.248 NA
ATOM     45  C   UNL A   1      42.457  31.483  29.506  1.00  0.00     0.031 C 
ATOM     46  C   UNL A   1      40.885  26.761  28.721  1.00  0.00     0.029 A 
ATOM     47  N   UNL A   1      43.027  27.213  28.270  1.00  0.00    -0.354 N 
ATOM     48  C   UNL A   1      44.583  31.240  28.709  1.00  0.00     0.074 A 
ATOM     49  C   UNL A   1      43.570  32.139  29.215  1.00  0.00     0.031 C 
ATOM     50  C   UNL A   1      41.452  25.626  28.280  1.00  0.00     0.029 A 
ATOM     51  C   UNL A   1      42.845  25.891  27.935  1.00  0.00     0.049 A 
ATOM     52  H   UNL A   1      43.892  27.676  28.184  1.00  0.00     0.167 HD
ATOM     53  C   UNL A   1      45.855  31.603  28.430  1.00  0.00     0.037 A 
ATOM     54  C   UNL A   1      43.698  25.001  27.391  1.00  0.00     0.037 A 
ATOM     55  C   UNL A   1      46.866  30.690  27.964  1.00  0.00     0.049 A 
ATOM     56  C   UNL A   1      45.109  25.435  27.087  1.00  0.00     0.074 A 
ATOM     57  C   UNL A   1      48.204  30.945  27.719  1.00  0.00     0.029 A 
ATOM     58  N   UNL A   1      46.653  29.351  27.673  1.00  0.00    -0.354 N 
ATOM     59  N   UNL A   1      45.664  26.611  27.260  1.00  0.00    -0.248 NA
ATOM     60  C   UNL A   1      46.012  24.424  26.520  1.00  0.00     0.031 C 
ATOM     61  C   UNL A   1      48.786  29.775  27.226  1.00  0.00     0.029 A 
ATOM     62  C   UNL A   1      47.829  28.774  27.227  1.00  0.00     0.049 A 
ATOM     63  H   UNL A   1      45.792  28.882  27.770  1.00  0.00     0.167 HD
ATOM     64  C   UNL A   1      46.990  26.468  26.862  1.00  0.00     0.074 A 
ATOM     65  C   UNL A   1      47.155  25.092  26.445  1.00  0.00     0.031 C 
ATOM     66  C   UNL A   1      47.982  27.393  26.845  1.00  0.00     0.037 A 
BRANCH  53  67
ATOM     67  C   UNL A   1      46.243  33.043  28.623  1.00  0.00     0.058 A 
ATOM     68  C   UNL A   1      46.130  33.984  27.588  1.00  0.00     0.135 A 
ATOM     69  C   UNL A   1      46.654  33.503  29.885  1.00  0.00     0.135 A 
ATOM     70  F   UNL A   1      45.761  33.596  26.357  1.00  0.00    -0.206 F 
ATOM     71  C   UNL A   1      46.418  35.329  27.794  1.00  0.00     0.059 A 
ATOM     72  C   UNL A   1      46.919  34.848  30.122  1.00  0.00     0.059 A 
ATOM     73  F   UNL A   1      46.785  32.643  30.908  1.00  0.00    -0.206 F 
ATOM     74  C   UNL A   1      46.803  35.753  29.067  1.00  0.00     0.060 A 
BRANCH  74  75
ATOM     75  S   UNL A   1      47.122  37.510  29.328  1.00  0.00     0.124 S 
ATOM     76  O   UNL A   1      48.402  37.473  30.026  1.00  0.00    -0.237 OA
ATOM     77  O   UNL A   1      47.159  38.024  27.963  1.00  0.00    -0.237 OA
ATOM     78  O   UNL A   1      45.984  37.948  30.130  1.00  0.00    -0.744 OA
ENDBRANCH  74  75
ENDBRANCH  53  67
BRANCH  54  79
ATOM     79  C   UNL A   1      43.250  23.613  27.090  1.00  0.00     0.058 A 
ATOM     80  C   UNL A   1      43.098  22.662  28.111  1.00  0.00     0.135 A 
ATOM     81  C   UNL A   1      42.994  23.200  25.772  1.00  0.00     0.135 A 
ATOM     82  F   UNL A   1      43.333  23.004  29.387  1.00  0.00    -0.206 F 
ATOM     83  C   UNL A   1      42.747  21.344  27.834  1.00  0.00     0.059 A 
ATOM     84  C   UNL A   1      42.609  21.897  25.475  1.00  0.00     0.059 A 
ATOM     85  F   UNL A   1      43.104  24.074  24.760  1.00  0.00    -0.206 F 
ATOM     86  C   UNL A   1      42.509  20.970  26.511  1.00  0.00     0.060 A 
BRANCH  86  87
ATOM     87  S   UNL A   1      42.051  19.259  26.163  1.00  0.00     0.124 S 
ATOM     88  O   UNL A   1      42.383  18.604  27.422  1.00  0.00    -0.237 OA
ATOM     89  O   UNL A   1      40.627  19.378  25.861  1.00  0.00    -0.237 OA
ATOM     90  O   UNL A   1      42.898  18.910  25.026  1.00  0.00    -0.744 OA
ENDBRANCH  86  87
ENDBRANCH  54  79
BRANCH  66  91
ATOM     91  C   UNL A   1      49.353  26.943  26.423  1.00  0.00     0.058 A 
ATOM     92  C   UNL A   1      50.203  26.237  27.287  1.00  0.00     0.135 A 
ATOM     93  C   UNL A   1      49.785  27.151  25.102  1.00  0.00     0.135 A 
ATOM     94  F   UNL A   1      49.841  26.017  28.561  1.00  0.00    -0.206 F 
ATOM     95  C   UNL A   1      51.440  25.763  26.862  1.00  0.00     0.059 A 
ATOM     96  C   UNL A   1      51.003  26.658  24.646  1.00  0.00     0.059 A 
ATOM     97  F   UNL A   1      49.005  27.811  24.231  1.00  0.00    -0.206 F 
ATOM     98  C   UNL A   1      51.828  25.973  25.536  1.00  0.00     0.060 A 
BRANCH  98  99
ATOM     99  S   UNL A   1      53.409  25.302  24.982  1.00  0.00     0.124 S 
ATOM    100  O   UNL A   1      53.331  23.927  25.463  1.00  0.00    -0.237 OA
ATOM    101  O   UNL A   1      53.330  25.473  23.535  1.00  0.00    -0.237 OA
ATOM    102  O   UNL A   1      54.392  26.147  25.653  1.00  0.00    -0.744 OA
ENDBRANCH  98  99
ENDBRANCH  66  91
ENDBRANCH  40  41
ENDBRANCH  32  35
ENDBRANCH  30  31
ENDBRANCH  29  30
ENDBRANCH  28  29
ENDBRANCH   1  28
TORSDOF 20
ENDMDL
MODEL 2
REMARK VINA RESULT:     -11.2      0.931      1.777
REMARK SMILES CC1(C)CC[NH+](CC[C@H]2CCC[C@]2([NH3+])C(=O)NCCCCCCNC(=O)c2ccc(-c3c4nc(c(-c5c(F)cc(S(=O)(=O)[O-])cc5F)c5ccc([nH]5)c(-c5c(F)cc(S(=O)(=O)[O-])cc5F)c5nc(c(-c6c(F)cc(S(=O)(=O)[O-])cc6F)c6ccc3[nH]6)C=C5)C=C4)cc2)CC1
REMARK SMILES IDX 20 1 19 2 18 3 17 4 15 5 16 6 13 8 9 9 10 10 11 11 12 12
REMARK SMILES IDX 8 13 7 14 6 15 1 16 2 17 3 18 4 19 94 20 5 21 93 22 14 24
REMARK SMILES IDX 21 28 22 29 23 30 24 31 25 32 26 34 27 35 28 36 92 37 29 38
REMARK SMILES IDX 91 39 30 40 31 41 32 42 85 43 33 44 90 45 84 46 86 47 34 48
REMARK SMILES IDX 89 49 83 50 82 51 35 53 69 54 48 55 68 56 49 57 52 58 67 59
REMARK SMILES IDX 87 60 50 61 51 62 66 64 88 65 53 66 36 67 37 68 46 69 38 70
REMARK SMILES IDX 39 71 45 72 47 73 40 74 41 75 42 76 43 77 44 78 70 79 71 80
REMARK SMILES IDX 80 81 72 82 73 83 79 84 81 85 74 86 75 87 76 88 77 89 78 90
REMARK SMILES IDX 54 91 55 92 64 93 56 94 57 95 63 96 65 97 58 98 59 99 60 100
REMARK SMILES IDX 61 101 62 102
REMARK H PARENT 17 7 6 23 14 25 14 26 14 27 24 33 86 52 52 63
REMARK Flexibility Score: inf
ROOT
ATOM      1  C   UNL A   1      34.937  30.792  27.262  1.00  0.00     0.002 C 
ENDROOT
BRANCH   1   2
ATOM      2  C   UNL A   1      33.785  29.776  27.231  1.00  0.00     0.021 C 
BRANCH   2   3
ATOM      3  C   UNL A   1      34.017  28.681  26.188  1.00  0.00     0.116 C 
BRANCH   3   4
ATOM      4  N   UNL A   1      33.581  29.189  24.902  1.00  0.00    -0.351 N 
ATOM      5  C   UNL A   1      33.396  28.458  23.747  1.00  0.00     0.281 C 
ATOM      6  O   UNL A   1      33.736  28.954  22.675  1.00  0.00    -0.268 OA
ATOM      7  H   UNL A   1      33.399  30.155  24.848  1.00  0.00     0.163 HD
BRANCH   5   8
ATOM      8  C   UNL A   1      32.549  27.136  23.889  1.00  0.00     0.177 C 
ATOM      9  C   UNL A   1      33.533  25.936  24.363  1.00  0.00     0.066 C 
ATOM     10  C   UNL A   1      33.900  25.273  22.990  1.00  0.00     0.011 C 
ATOM     11  C   UNL A   1      32.971  25.757  21.894  1.00  0.00     0.008 C 
ATOM     12  C   UNL A   1      31.999  26.724  22.511  1.00  0.00     0.079 C 
BRANCH   9  13
ATOM     13  C   UNL A   1      33.470  24.704  25.407  1.00  0.00     0.072 C 
BRANCH  13  14
ATOM     14  C   UNL A   1      32.362  23.610  25.665  1.00  0.00     0.262 C 
BRANCH  14  15
ATOM     15  N   UNL A   1      32.514  22.253  26.223  1.00  0.00    -0.335 N 
ATOM     16  C   UNL A   1      35.718  19.969  24.890  1.00  0.00     0.011 C 
ATOM     17  C   UNL A   1      35.042  21.342  25.023  1.00  0.00    -0.025 C 
ATOM     18  C   UNL A   1      35.972  22.281  24.199  1.00  0.00     0.011 C 
ATOM     19  C   UNL A   1      33.634  21.197  24.407  1.00  0.00     0.068 C 
ATOM     20  C   UNL A   1      35.005  21.901  26.465  1.00  0.00     0.068 C 
ATOM     21  C   UNL A   1      32.404  21.171  25.279  1.00  0.00     0.262 C 
ATOM     22  C   UNL A   1      33.627  21.956  27.125  1.00  0.00     0.262 C 
ATOM     23  H   UNL A   1      31.686  22.303  26.818  1.00  0.00     0.348 HD
ENDBRANCH  14  15
ENDBRANCH  13  14
ENDBRANCH   9  13
BRANCH   8  24
ATOM     24  N   UNL A   1      31.354  27.698  24.533  1.00  0.00    -0.345 N 
ATOM     25  H   UNL A   1      31.406  28.717  24.517  1.00  0.00     0.345 HD
ATOM     26  H   UNL A   1      31.305  27.376  25.500  1.00  0.00     0.345 HD
ATOM     27  H   UNL A   1      30.521  27.392  24.030  1.00  0.00     0.345 HD
ENDBRANCH   8  24
ENDBRANCH   5   8
ENDBRANCH   3   4
ENDBRANCH   2   3
ENDBRANCH   1   2
BRANCH   1  28
ATOM     28  C   UNL A   1      34.607  32.060  28.056  1.00  0.00     0.002 C 
BRANCH  28  29
ATOM     29  C   UNL A   1      35.752  33.071  28.088  1.00  0.00     0.021 C 
BRANCH  29  30
ATOM     30  C   UNL A   1      36.596  32.984  29.353  1.00  0.00     0.116 C 
BRANCH  30  31
ATOM     31  N   UNL A   1      36.058  32.007  30.290  1.00  0.00    -0.352 N 
ATOM     32  C   UNL A   1      36.591  30.804  30.659  1.00  0.00     0.251 C 
ATOM     33  H   UNL A   1      35.200  32.244  30.712  1.00  0.00     0.163 HD
ATOM     34  O   UNL A   1      35.921  29.986  31.290  1.00  0.00    -0.269 OA
BRANCH  32  35
ATOM     35  C   UNL A   1      37.980  30.500  30.272  1.00  0.00     0.039 A 
ATOM     36  C   UNL A   1      38.967  30.444  31.256  1.00  0.00     0.014 A 
ATOM     37  C   UNL A   1      38.282  30.220  28.936  1.00  0.00     0.014 A 
ATOM     38  C   UNL A   1      40.258  30.053  30.904  1.00  0.00     0.010 A 
ATOM     39  C   UNL A   1      39.546  29.754  28.604  1.00  0.00     0.010 A 
ATOM     40  C   UNL A   1      40.549  29.676  29.582  1.00  0.00    -0.014 A 
BRANCH  40  41
ATOM     41  C   UNL A   1      41.902  29.213  29.185  1.00  0.00     0.031 A 
ATOM     42  C   UNL A   1      43.033  30.202  29.120  1.00  0.00     0.074 A 
ATOM     43  C   UNL A   1      42.089  27.932  28.810  1.00  0.00     0.049 A 
ATOM     44  N   UNL A   1      44.253  30.032  28.683  1.00  0.00    -0.248 NA
ATOM     45  C   UNL A   1      42.747  31.573  29.578  1.00  0.00     0.031 C 
ATOM     46  C   UNL A   1      41.057  26.892  28.791  1.00  0.00     0.029 A 
ATOM     47  N   UNL A   1      43.211  27.288  28.351  1.00  0.00    -0.354 N 
ATOM     48  C   UNL A   1      44.870  31.273  28.792  1.00  0.00     0.074 A 
ATOM     49  C   UNL A   1      43.878  32.199  29.292  1.00  0.00     0.031 C 
ATOM     50  C   UNL A   1      41.596  25.742  28.355  1.00  0.00     0.029 A 
ATOM     51  C   UNL A   1      42.997  25.971  28.017  1.00  0.00     0.049 A 
ATOM     52  H   UNL A   1      44.089  27.728  28.268  1.00  0.00     0.167 HD
ATOM     53  C   UNL A   1      46.153  31.603  28.519  1.00  0.00     0.037 A 
ATOM     54  C   UNL A   1      43.829  25.058  27.478  1.00  0.00     0.037 A 
ATOM     55  C   UNL A   1      47.141  30.663  28.059  1.00  0.00     0.049 A 
ATOM     56  C   UNL A   1      45.253  25.455  27.181  1.00  0.00     0.074 A 
ATOM     57  C   UNL A   1      48.487  30.883  27.820  1.00  0.00     0.029 A 
ATOM     58  N   UNL A   1      46.895  29.329  27.769  1.00  0.00    -0.354 N 
ATOM     59  N   UNL A   1      45.838  26.616  27.354  1.00  0.00    -0.248 NA
ATOM     60  C   UNL A   1      46.132  24.419  26.618  1.00  0.00     0.031 C 
ATOM     61  C   UNL A   1      49.041  29.697  27.332  1.00  0.00     0.029 A 
ATOM     62  C   UNL A   1      48.058  28.721  27.329  1.00  0.00     0.049 A 
ATOM     63  H   UNL A   1      46.022  28.883  27.862  1.00  0.00     0.167 HD
ATOM     64  C   UNL A   1      47.161  26.437  26.963  1.00  0.00     0.074 A 
ATOM     65  C   UNL A   1      47.292  25.058  26.548  1.00  0.00     0.031 C 
ATOM     66  C   UNL A   1      48.177  27.336  26.949  1.00  0.00     0.037 A 
BRANCH  53  67
ATOM     67  C   UNL A   1      46.577  33.032  28.712  1.00  0.00     0.058 A 
ATOM     68  C   UNL A   1      47.141  33.480  29.917  1.00  0.00     0.135 A 
ATOM     69  C   UNL A   1      46.493  33.946  27.649  1.00  0.00     0.135 A 
ATOM     70  F   UNL A   1      47.227  32.654  30.973  1.00  0.00    -0.206 F 
ATOM     71  C   UNL A   1      47.600  34.784  30.064  1.00  0.00     0.059 A 
ATOM     72  C   UNL A   1      46.973  35.247  27.764  1.00  0.00     0.059 A 
ATOM     73  F   UNL A   1      45.955  33.572  26.477  1.00  0.00    -0.206 F 
ATOM     74  C   UNL A   1      47.520  35.658  28.978  1.00  0.00     0.060 A 
BRANCH  74  75
ATOM     75  S   UNL A   1      48.169  37.331  29.172  1.00  0.00     0.124 S 
ATOM     76  O   UNL A   1      47.090  38.130  28.602  1.00  0.00    -0.237 OA
ATOM     77  O   UNL A   1      48.337  37.432  30.618  1.00  0.00    -0.237 OA
ATOM     78  O   UNL A   1      49.408  37.308  28.400  1.00  0.00    -0.744 OA
ENDBRANCH  74  75
ENDBRANCH  53  67
BRANCH  54  79
ATOM     79  C   UNL A   1      43.346  23.682  27.176  1.00  0.00     0.058 A 
ATOM     80  C   UNL A   1      43.094  22.759  28.204  1.00  0.00     0.135 A 
ATOM     81  C   UNL A   1      43.157  23.250  25.854  1.00  0.00     0.135 A 
ATOM     82  F   UNL A   1      43.263  23.121  29.485  1.00  0.00    -0.206 F 
ATOM     83  C   UNL A   1      42.710  21.450  27.932  1.00  0.00     0.059 A 
ATOM     84  C   UNL A   1      42.741  21.956  25.558  1.00  0.00     0.059 A 
ATOM     85  F   UNL A   1      43.364  24.096  24.833  1.00  0.00    -0.206 F 
ATOM     86  C   UNL A   1      42.539  21.057  26.604  1.00  0.00     0.060 A 
BRANCH  86  87
ATOM     87  S   UNL A   1      42.037  19.357  26.261  1.00  0.00     0.124 S 
ATOM     88  O   UNL A   1      42.686  19.112  24.979  1.00  0.00    -0.237 OA
ATOM     89  O   UNL A   1      42.590  18.637  27.405  1.00  0.00    -0.237 OA
ATOM     90  O   UNL A   1      40.580  19.439  26.225  1.00  0.00    -0.744 OA
ENDBRANCH  86  87
ENDBRANCH  54  79
BRANCH  66  91
ATOM     91  C   UNL A   1      49.537  26.850  26.535  1.00  0.00     0.058 A 
ATOM     92  C   UNL A   1      50.434  26.278  27.450  1.00  0.00     0.135 A 
ATOM     93  C   UNL A   1      49.913  26.882  25.181  1.00  0.00     0.135 A 
ATOM     94  F   UNL A   1      50.127  26.229  28.756  1.00  0.00    -0.206 F 
ATOM     95  C   UNL A   1      51.661  25.767  27.041  1.00  0.00     0.059 A 
ATOM     96  C   UNL A   1      51.120  26.348  24.745  1.00  0.00     0.059 A 
ATOM     97  F   UNL A   1      49.087  27.409  24.263  1.00  0.00    -0.206 F 
ATOM     98  C   UNL A   1      51.992  25.800  25.684  1.00  0.00     0.060 A 
BRANCH  98  99
ATOM     99  S   UNL A   1      53.561  25.079  25.160  1.00  0.00     0.124 S 
ATOM    100  O   UNL A   1      53.771  25.733  23.872  1.00  0.00    -0.237 OA
ATOM    101  O   UNL A   1      54.464  25.487  26.232  1.00  0.00    -0.237 OA
ATOM    102  O   UNL A   1      53.277  23.648  25.099  1.00  0.00    -0.744 OA
ENDBRANCH  98  99
ENDBRANCH  66  91
ENDBRANCH  40  41
ENDBRANCH  32  35
ENDBRANCH  30  31
ENDBRANCH  29  30
ENDBRANCH  28  29
ENDBRANCH   1  28
TORSDOF 20
ENDMDL
MODEL 3
REMARK VINA RESULT:     -11.2      0.968      8.219
REMARK SMILES CC1(C)CC[NH+](CC[C@H]2CCC[C@]2([NH3+])C(=O)NCCCCCCNC(=O)c2ccc(-c3c4nc(c(-c5c(F)cc(S(=O)(=O)[O-])cc5F)c5ccc([nH]5)c(-c5c(F)cc(S(=O)(=O)[O-])cc5F)c5nc(c(-c6c(F)cc(S(=O)(=O)[O-])cc6F)c6ccc3[nH]6)C=C5)C=C4)cc2)CC1
REMARK SMILES IDX 20 1 19 2 18 3 17 4 15 5 16 6 13 8 9 9 10 10 11 11 12 12
REMARK SMILES IDX 8 13 7 14 6 15 1 16 2 17 3 18 4 19 94 20 5 21 93 22 14 24
REMARK SMILES IDX 21 28 22 29 23 30 24 31 25 32 26 34 27 35 28 36 92 37 29 38
REMARK SMILES IDX 91 39 30 40 31 41 32 42 85 43 33 44 90 45 84 46 86 47 34 48
REMARK SMILES IDX 89 49 83 50 82 51 35 53 69 54 48 55 68 56 49 57 52 58 67 59
REMARK SMILES IDX 87 60 50 61 51 62 66 64 88 65 53 66 36 67 37 68 46 69 38 70
REMARK SMILES IDX 39 71 45 72 47 73 40 74 41 75 42 76 43 77 44 78 70 79 71 80
REMARK SMILES IDX 80 81 72 82 73 83 79 84 81 85 74 86 75 87 76 88 77 89 78 90
REMARK SMILES IDX 54 91 55 92 64 93 56 94 57 95 63 96 65 97 58 98 59 99 60 100
REMARK SMILES IDX 61 101 62 102
REMARK H PARENT 17 7 6 23 14 25 14 26 14 27 24 33 86 52 52 63
REMARK Flexibility Score: inf
ROOT
ATOM      1  C   UNL A   1      32.014  29.684  27.239  1.00  0.00     0.002 C 
ENDROOT
BRANCH   1   2
ATOM      2  C   UNL A   1      31.609  30.233  25.864  1.00  0.00     0.021 C 
BRANCH   2   3
ATOM      3  C   UNL A   1      32.082  29.328  24.724  1.00  0.00     0.116 C 
BRANCH   3   4
ATOM      4  N   UNL A   1      30.923  28.954  23.938  1.00  0.00    -0.351 N 
ATOM      5  C   UNL A   1      30.853  27.942  23.004  1.00  0.00     0.281 C 
ATOM      6  O   UNL A   1      30.211  28.136  21.973  1.00  0.00    -0.268 OA
ATOM      7  H   UNL A   1      30.102  29.477  24.087  1.00  0.00     0.163 HD
BRANCH   5   8
ATOM      8  C   UNL A   1      31.419  26.541  23.452  1.00  0.00     0.177 C 
ATOM      9  C   UNL A   1      33.004  26.695  23.763  1.00  0.00     0.066 C 
ATOM     10  C   UNL A   1      33.635  26.250  22.399  1.00  0.00     0.011 C 
ATOM     11  C   UNL A   1      32.602  25.560  21.529  1.00  0.00     0.008 C 
ATOM     12  C   UNL A   1      31.304  25.541  22.286  1.00  0.00     0.079 C 
BRANCH   9  13
ATOM     13  C   UNL A   1      34.041  26.166  24.884  1.00  0.00     0.072 C 
BRANCH  13  14
ATOM     14  C   UNL A   1      34.130  24.794  25.658  1.00  0.00     0.262 C 
BRANCH  14  15
ATOM     15  N   UNL A   1      33.086  23.768  25.844  1.00  0.00    -0.335 N 
ATOM     16  C   UNL A   1      34.041  19.849  24.849  1.00  0.00     0.011 C 
ATOM     17  C   UNL A   1      34.504  21.278  25.166  1.00  0.00    -0.025 C 
ATOM     18  C   UNL A   1      36.039  21.224  24.912  1.00  0.00     0.011 C 
ATOM     19  C   UNL A   1      33.762  22.205  24.179  1.00  0.00     0.068 C 
ATOM     20  C   UNL A   1      34.308  21.703  26.640  1.00  0.00     0.068 C 
ATOM     21  C   UNL A   1      32.644  23.101  24.646  1.00  0.00     0.262 C 
ATOM     22  C   UNL A   1      33.232  22.760  26.894  1.00  0.00     0.262 C 
ATOM     23  H   UNL A   1      32.376  24.416  26.184  1.00  0.00     0.348 HD
ENDBRANCH  14  15
ENDBRANCH  13  14
ENDBRANCH   9  13
BRANCH   8  24
ATOM     24  N   UNL A   1      30.314  26.116  24.323  1.00  0.00    -0.345 N 
ATOM     25  H   UNL A   1      29.585  25.677  23.759  1.00  0.00     0.345 HD
ATOM     26  H   UNL A   1      29.928  26.929  24.804  1.00  0.00     0.345 HD
ATOM     27  H   UNL A   1      30.661  25.447  25.010  1.00  0.00     0.345 HD
ENDBRANCH   8  24
ENDBRANCH   5   8
ENDBRANCH   3   4
ENDBRANCH   2   3
ENDBRANCH   1   2
BRANCH   1  28
ATOM     28  C   UNL A   1      33.376  28.981  27.235  1.00  0.00     0.002 C 
BRANCH  28  29
ATOM     29  C   UNL A   1      34.556  29.946  27.344  1.00  0.00     0.021 C 
BRANCH  29  30
ATOM     30  C   UNL A   1      35.711  29.394  28.169  1.00  0.00     0.116 C 
BRANCH  30  31
ATOM     31  N   UNL A   1      35.628  29.821  29.559  1.00  0.00    -0.352 N 
ATOM     32  C   UNL A   1      36.627  29.872  30.492  1.00  0.00     0.251 C 
ATOM     33  H   UNL A   1      34.738  30.109  29.867  1.00  0.00     0.163 HD
ATOM     34  O   UNL A   1      36.366  30.042  31.683  1.00  0.00    -0.269 OA
BRANCH  32  35
ATOM     35  C   UNL A   1      38.019  29.703  30.042  1.00  0.00     0.039 A 
ATOM     36  C   UNL A   1      38.954  29.137  30.909  1.00  0.00     0.014 A 
ATOM     37  C   UNL A   1      38.375  30.063  28.739  1.00  0.00     0.014 A 
ATOM     38  C   UNL A   1      40.244  28.881  30.447  1.00  0.00     0.010 A 
ATOM     39  C   UNL A   1      39.635  29.733  28.259  1.00  0.00     0.010 A 
ATOM     40  C   UNL A   1      40.584  29.148  29.110  1.00  0.00    -0.014 A 
BRANCH  40  41
ATOM     41  C   UNL A   1      41.935  28.846  28.577  1.00  0.00     0.031 A 
ATOM     42  C   UNL A   1      42.253  27.451  28.112  1.00  0.00     0.074 A 
ATOM     43  C   UNL A   1      42.889  29.798  28.587  1.00  0.00     0.049 A 
ATOM     44  N   UNL A   1      43.398  26.950  27.730  1.00  0.00    -0.248 NA
ATOM     45  C   UNL A   1      41.142  26.482  28.105  1.00  0.00     0.031 C 
ATOM     46  C   UNL A   1      42.710  31.176  29.055  1.00  0.00     0.029 A 
ATOM     47  N   UNL A   1      44.209  29.749  28.213  1.00  0.00    -0.354 N 
ATOM     48  C   UNL A   1      43.151  25.608  27.460  1.00  0.00     0.074 A 
ATOM     49  C   UNL A   1      41.760  25.361  27.767  1.00  0.00     0.031 C 
ATOM     50  C   UNL A   1      43.870  31.840  28.929  1.00  0.00     0.029 A 
ATOM     51  C   UNL A   1      44.889  30.927  28.419  1.00  0.00     0.049 A 
ATOM     52  H   UNL A   1      44.630  28.944  27.832  1.00  0.00     0.167 HD
ATOM     53  C   UNL A   1      44.005  24.675  26.981  1.00  0.00     0.037 A 
ATOM     54  C   UNL A   1      46.189  31.231  28.238  1.00  0.00     0.037 A 
ATOM     55  C   UNL A   1      45.378  24.944  26.643  1.00  0.00     0.049 A 
ATOM     56  C   UNL A   1      47.118  30.169  27.706  1.00  0.00     0.074 A 
ATOM     57  C   UNL A   1      46.307  24.083  26.083  1.00  0.00     0.029 A 
ATOM     58  N   UNL A   1      46.019  26.159  26.829  1.00  0.00    -0.354 N 
ATOM     59  N   UNL A   1      46.852  28.923  27.391  1.00  0.00    -0.248 NA
ATOM     60  C   UNL A   1      48.522  30.552  27.500  1.00  0.00     0.031 C 
ATOM     61  C   UNL A   1      47.524  24.761  25.986  1.00  0.00     0.029 A 
ATOM     62  C   UNL A   1      47.338  26.063  26.420  1.00  0.00     0.049 A 
ATOM     63  H   UNL A   1      45.598  26.969  27.199  1.00  0.00     0.167 HD
ATOM     64  C   UNL A   1      48.044  28.390  26.912  1.00  0.00     0.074 A 
ATOM     65  C   UNL A   1      49.030  29.447  26.972  1.00  0.00     0.031 C 
ATOM     66  C   UNL A   1      48.298  27.136  26.460  1.00  0.00     0.037 A 
BRANCH  53  67
ATOM     67  C   UNL A   1      43.491  23.276  26.782  1.00  0.00     0.058 A 
ATOM     68  C   UNL A   1      43.286  22.739  25.502  1.00  0.00     0.135 A 
ATOM     69  C   UNL A   1      43.281  22.435  27.887  1.00  0.00     0.135 A 
ATOM     70  F   UNL A   1      43.452  23.505  24.411  1.00  0.00    -0.206 F 
ATOM     71  C   UNL A   1      42.883  21.420  25.324  1.00  0.00     0.059 A 
ATOM     72  C   UNL A   1      42.907  21.104  27.731  1.00  0.00     0.059 A 
ATOM     73  F   UNL A   1      43.457  22.900  29.134  1.00  0.00    -0.206 F 
ATOM     74  C   UNL A   1      42.705  20.607  26.444  1.00  0.00     0.060 A 
BRANCH  74  75
ATOM     75  S   UNL A   1      42.233  18.884  26.191  1.00  0.00     0.124 S 
ATOM     76  O   UNL A   1      42.428  18.329  27.526  1.00  0.00    -0.237 OA
ATOM     77  O   UNL A   1      40.847  19.005  25.750  1.00  0.00    -0.237 OA
ATOM     78  O   UNL A   1      43.173  18.419  25.175  1.00  0.00    -0.744 OA
ENDBRANCH  74  75
ENDBRANCH  53  67
BRANCH  54  79
ATOM     79  C   UNL A   1      46.699  32.591  28.565  1.00  0.00     0.058 A 
ATOM     80  C   UNL A   1      47.141  32.908  29.860  1.00  0.00     0.135 A 
ATOM     81  C   UNL A   1      46.728  33.610  27.600  1.00  0.00     0.135 A 
ATOM     82  F   UNL A   1      47.131  31.970  30.820  1.00  0.00    -0.206 F 
ATOM     83  C   UNL A   1      47.555  34.193  30.195  1.00  0.00     0.059 A 
ATOM     84  C   UNL A   1      47.169  34.894  27.904  1.00  0.00     0.059 A 
ATOM     85  F   UNL A   1      46.336  33.357  26.342  1.00  0.00    -0.206 F 
ATOM     86  C   UNL A   1      47.561  35.181  29.210  1.00  0.00     0.060 A 
BRANCH  86  87
ATOM     87  S   UNL A   1      48.103  36.845  29.654  1.00  0.00     0.124 S 
ATOM     88  O   UNL A   1      47.438  37.037  30.937  1.00  0.00    -0.237 OA
ATOM     89  O   UNL A   1      49.555  36.692  29.703  1.00  0.00    -0.237 OA
ATOM     90  O   UNL A   1      47.604  37.665  28.554  1.00  0.00    -0.744 OA
ENDBRANCH  86  87
ENDBRANCH  54  79
BRANCH  66  91
ATOM     91  C   UNL A   1      49.676  26.847  25.933  1.00  0.00     0.058 A 
ATOM     92  C   UNL A   1      50.018  27.056  24.588  1.00  0.00     0.135 A 
ATOM     93  C   UNL A   1      50.692  26.434  26.812  1.00  0.00     0.135 A 
ATOM     94  F   UNL A   1      49.084  27.445  23.706  1.00  0.00    -0.206 F 
ATOM     95  C   UNL A   1      51.315  26.853  24.129  1.00  0.00     0.059 A 
ATOM     96  C   UNL A   1      52.003  26.256  26.382  1.00  0.00     0.059 A 
ATOM     97  F   UNL A   1      50.420  26.229  28.110  1.00  0.00    -0.206 F 
ATOM     98  C   UNL A   1      52.303  26.460  25.036  1.00  0.00     0.060 A 
BRANCH  98  99
ATOM     99  S   UNL A   1      53.994  26.258  24.438  1.00  0.00     0.124 S 
ATOM    100  O   UNL A   1      54.675  27.366  25.098  1.00  0.00    -0.237 OA
ATOM    101  O   UNL A   1      54.337  24.924  24.921  1.00  0.00    -0.237 OA
ATOM    102  O   UNL A   1      53.860  26.377  22.989  1.00  0.00    -0.744 OA
ENDBRANCH  98  99
ENDBRANCH  66  91
ENDBRANCH  40  41
ENDBRANCH  32  35
ENDBRANCH  30  31
ENDBRANCH  29  30
ENDBRANCH  28  29
ENDBRANCH   1  28
TORSDOF 20
ENDMDL
