MODEL 1
REMARK VINA RESULT:      -7.9      0.000      0.000
REMARK SMILES CCCCCCOC(=O)Nc1cccc(-c2ccc([C@@H](C)C(=O)NCCCCCCNC(=O)c3ccc(-c4c5nc(c(-c6c(F)cc(S(=O)(=O)[O-])cc6F)c6ccc([nH]6)c(-c6c(F)cc(S(=O)(=O)[O-])cc6F)c6nc(c(-c7c(F)cc(S(=O)(=O)[O-])cc7F)c7ccc4[nH]7)C=C6)C=C5)cc3)cc2F)c1
REMARK SMILES IDX 22 1 23 2 24 3 20 5 21 6 19 7 16 8 17 9 101 10 18 11 100 12
REMARK SMILES IDX 102 13 15 14 11 15 12 16 103 17 13 18 14 19 10 20 8 21 9 22
REMARK SMILES IDX 7 24 6 25 5 26 4 27 3 28 2 29 1 30 25 31 26 32 27 33 28 34
REMARK SMILES IDX 29 35 30 36 31 37 32 38 33 40 34 41 35 42 99 43 36 44 98 45
REMARK SMILES IDX 37 46 38 47 39 48 92 49 40 50 97 51 91 52 93 53 41 54 96 55
REMARK SMILES IDX 90 56 89 57 42 59 76 60 55 61 75 62 56 63 59 64 74 65 94 66
REMARK SMILES IDX 57 67 58 68 73 70 95 71 60 72 43 73 44 74 53 75 45 76 46 77
REMARK SMILES IDX 52 78 54 79 47 80 48 81 49 82 50 83 51 84 77 85 78 86 87 87
REMARK SMILES IDX 79 88 80 89 86 90 88 91 81 92 82 93 83 94 84 95 85 96 61 97
REMARK SMILES IDX 62 98 71 99 63 100 64 101 70 102 72 103 65 104 66 105 67 106
REMARK SMILES IDX 68 107 69 108
REMARK H PARENT 24 4 10 23 31 39 93 58 59 69
REMARK Flexibility Score: inf
ROOT
ATOM      1  C   UNL A   1      40.570  26.325  27.917  1.00  0.00     0.227 C 
ATOM      2  O   UNL A   1      39.391  26.153  28.251  1.00  0.00    -0.274 OA
ATOM      3  N   UNL A   1      40.988  25.665  26.804  1.00  0.00    -0.356 N 
ATOM      4  H   UNL A   1      40.277  25.173  26.332  1.00  0.00     0.163 HD
ENDROOT
BRANCH   1   5
ATOM      5  C   UNL A   1      41.469  27.263  28.735  1.00  0.00     0.105 C 
ATOM      6  C   UNL A   1      42.495  26.538  29.605  1.00  0.00     0.023 C 
BRANCH   5   7
ATOM      7  C   UNL A   1      40.718  28.404  29.406  1.00  0.00    -0.033 A 
ATOM      8  C   UNL A   1      39.455  30.611  30.721  1.00  0.00     0.018 A 
ATOM      9  C   UNL A   1      39.188  30.305  29.379  1.00  0.00     0.012 A 
ATOM     10  C   UNL A   1      40.342  29.753  31.393  1.00  0.00     0.131 A 
ATOM     11  C   UNL A   1      39.781  29.204  28.747  1.00  0.00     0.005 A 
ATOM     12  C   UNL A   1      40.979  28.690  30.751  1.00  0.00     0.044 A 
ATOM     13  F   UNL A   1      40.602  29.924  32.700  1.00  0.00    -0.206 F 
BRANCH   8  14
ATOM     14  C   UNL A   1      38.824  31.776  31.380  1.00  0.00    -0.013 A 
ATOM     15  C   UNL A   1      36.934  32.752  32.595  1.00  0.00     0.045 A 
ATOM     16  C   UNL A   1      37.511  34.014  32.507  1.00  0.00     0.026 A 
ATOM     17  C   UNL A   1      37.599  31.645  32.055  1.00  0.00     0.035 A 
ATOM     18  C   UNL A   1      38.761  34.163  31.908  1.00  0.00     0.003 A 
ATOM     19  C   UNL A   1      39.401  33.057  31.340  1.00  0.00     0.009 A 
BRANCH  15  20
ATOM     20  N   UNL A   1      35.635  32.644  33.111  1.00  0.00    -0.291 N 
ATOM     21  C   UNL A   1      34.461  32.943  32.473  1.00  0.00     0.411 C 
ATOM     22  O   UNL A   1      33.473  33.297  33.096  1.00  0.00    -0.224 OA
ATOM     23  H   UNL A   1      35.558  32.316  34.035  1.00  0.00     0.173 HD
BRANCH  21  24
ATOM     24  O   UNL A   1      34.503  32.678  31.140  1.00  0.00    -0.449 OA
BRANCH  24  25
ATOM     25  C   UNL A   1      34.664  33.780  30.235  1.00  0.00     0.235 C 
BRANCH  25  26
ATOM     26  C   UNL A   1      34.085  33.481  28.847  1.00  0.00     0.042 C 
BRANCH  26  27
ATOM     27  C   UNL A   1      34.303  32.054  28.328  1.00  0.00     0.003 C 
BRANCH  27  28
ATOM     28  C   UNL A   1      35.769  31.666  28.088  1.00  0.00    -0.000 C 
BRANCH  28  29
ATOM     29  C   UNL A   1      36.025  30.167  27.945  1.00  0.00    -0.003 C 
ATOM     30  C   UNL A   1      34.862  29.434  27.297  1.00  0.00     0.004 C 
ENDBRANCH  28  29
ENDBRANCH  27  28
ENDBRANCH  26  27
ENDBRANCH  25  26
ENDBRANCH  24  25
ENDBRANCH  21  24
ENDBRANCH  15  20
ENDBRANCH   8  14
ENDBRANCH   5   7
ENDBRANCH   1   5
BRANCH   3  31
ATOM     31  C   UNL A   1      42.294  25.559  26.191  1.00  0.00     0.116 C 
BRANCH  31  32
ATOM     32  C   UNL A   1      43.120  24.433  26.814  1.00  0.00     0.021 C 
BRANCH  32  33
ATOM     33  C   UNL A   1      44.614  24.514  26.486  1.00  0.00     0.002 C 
BRANCH  33  34
ATOM     34  C   UNL A   1      44.969  24.243  25.018  1.00  0.00     0.002 C 
BRANCH  34  35
ATOM     35  C   UNL A   1      46.458  24.017  24.735  1.00  0.00     0.021 C 
BRANCH  35  36
ATOM     36  C   UNL A   1      47.378  25.110  25.269  1.00  0.00     0.116 C 
BRANCH  36  37
ATOM     37  N   UNL A   1      47.616  26.140  24.271  1.00  0.00    -0.352 N 
ATOM     38  C   UNL A   1      47.181  27.439  24.233  1.00  0.00     0.251 C 
ATOM     39  H   UNL A   1      48.172  25.862  23.508  1.00  0.00     0.163 HD
ATOM     40  O   UNL A   1      47.261  28.072  23.184  1.00  0.00    -0.269 OA
BRANCH  38  41
ATOM     41  C   UNL A   1      46.626  28.081  25.446  1.00  0.00     0.039 A 
ATOM     42  C   UNL A   1      47.493  28.764  26.305  1.00  0.00     0.014 A 
ATOM     43  C   UNL A   1      45.274  27.949  25.777  1.00  0.00     0.014 A 
ATOM     44  C   UNL A   1      47.000  29.327  27.484  1.00  0.00     0.010 A 
ATOM     45  C   UNL A   1      44.771  28.573  26.916  1.00  0.00     0.010 A 
ATOM     46  C   UNL A   1      45.634  29.242  27.796  1.00  0.00    -0.014 A 
BRANCH  46  47
ATOM     47  C   UNL A   1      45.103  29.786  29.072  1.00  0.00     0.031 A 
ATOM     48  C   UNL A   1      44.587  31.201  29.124  1.00  0.00     0.074 A 
ATOM     49  C   UNL A   1      45.121  29.028  30.185  1.00  0.00     0.049 A 
ATOM     50  N   UNL A   1      44.131  31.879  30.146  1.00  0.00    -0.248 NA
ATOM     51  C   UNL A   1      44.611  31.963  27.864  1.00  0.00     0.031 C 
ATOM     52  C   UNL A   1      45.635  27.660  30.270  1.00  0.00     0.029 A 
ATOM     53  N   UNL A   1      44.700  29.304  31.461  1.00  0.00    -0.354 N 
ATOM     54  C   UNL A   1      43.835  33.146  29.658  1.00  0.00     0.074 A 
ATOM     55  C   UNL A   1      44.214  33.163  28.262  1.00  0.00     0.031 C 
ATOM     56  C   UNL A   1      45.479  27.209  31.525  1.00  0.00     0.029 A 
ATOM     57  C   UNL A   1      44.883  28.263  32.340  1.00  0.00     0.049 A 
ATOM     58  H   UNL A   1      44.303  30.167  31.724  1.00  0.00     0.167 HD
ATOM     59  C   UNL A   1      43.273  34.195  30.306  1.00  0.00     0.037 A 
ATOM     60  C   UNL A   1      44.603  28.171  33.655  1.00  0.00     0.037 A 
ATOM     61  C   UNL A   1      42.865  34.160  31.686  1.00  0.00     0.049 A 
ATOM     62  C   UNL A   1      43.958  29.340  34.349  1.00  0.00     0.074 A 
ATOM     63  C   UNL A   1      42.240  35.148  32.425  1.00  0.00     0.029 A 
ATOM     64  N   UNL A   1      43.034  33.074  32.533  1.00  0.00    -0.354 N 
ATOM     65  N   UNL A   1      43.637  30.515  33.860  1.00  0.00    -0.248 NA
ATOM     66  C   UNL A   1      43.623  29.168  35.769  1.00  0.00     0.031 C 
ATOM     67  C   UNL A   1      42.064  34.673  33.730  1.00  0.00     0.029 A 
ATOM     68  C   UNL A   1      42.535  33.371  33.790  1.00  0.00     0.049 A 
ATOM     69  H   UNL A   1      43.448  32.218  32.277  1.00  0.00     0.167 HD
ATOM     70  C   UNL A   1      43.031  31.208  34.902  1.00  0.00     0.074 A 
ATOM     71  C   UNL A   1      43.024  30.319  36.045  1.00  0.00     0.031 C 
ATOM     72  C   UNL A   1      42.522  32.466  34.911  1.00  0.00     0.037 A 
BRANCH  59  73
ATOM     73  C   UNL A   1      43.059  35.465  29.527  1.00  0.00     0.058 A 
ATOM     74  C   UNL A   1      41.863  35.712  28.833  1.00  0.00     0.135 A 
ATOM     75  C   UNL A   1      44.051  36.458  29.493  1.00  0.00     0.135 A 
ATOM     76  F   UNL A   1      40.887  34.790  28.817  1.00  0.00    -0.206 F 
ATOM     77  C   UNL A   1      41.672  36.883  28.107  1.00  0.00     0.059 A 
ATOM     78  C   UNL A   1      43.869  37.650  28.797  1.00  0.00     0.059 A 
ATOM     79  F   UNL A   1      45.215  36.275  30.137  1.00  0.00    -0.206 F 
ATOM     80  C   UNL A   1      42.682  37.846  28.093  1.00  0.00     0.060 A 
BRANCH  80  81
ATOM     81  S   UNL A   1      42.417  39.361  27.147  1.00  0.00     0.124 S 
ATOM     82  O   UNL A   1      43.706  39.514  26.478  1.00  0.00    -0.237 OA
ATOM     83  O   UNL A   1      41.295  39.000  26.286  1.00  0.00    -0.237 OA
ATOM     84  O   UNL A   1      42.121  40.355  28.174  1.00  0.00    -0.744 OA
ENDBRANCH  80  81
ENDBRANCH  59  73
BRANCH  60  85
ATOM     85  C   UNL A   1      44.898  26.912  34.391  1.00  0.00     0.058 A 
ATOM     86  C   UNL A   1      46.160  26.689  34.962  1.00  0.00     0.135 A 
ATOM     87  C   UNL A   1      43.924  25.915  34.548  1.00  0.00     0.135 A 
ATOM     88  F   UNL A   1      47.126  27.612  34.835  1.00  0.00    -0.206 F 
ATOM     89  C   UNL A   1      46.455  25.513  35.644  1.00  0.00     0.059 A 
ATOM     90  C   UNL A   1      44.187  24.741  35.248  1.00  0.00     0.059 A 
ATOM     91  F   UNL A   1      42.695  26.087  34.039  1.00  0.00    -0.206 F 
ATOM     92  C   UNL A   1      45.460  24.544  35.783  1.00  0.00     0.060 A 
BRANCH  92  93
ATOM     93  S   UNL A   1      45.838  23.040  36.708  1.00  0.00     0.124 S 
ATOM     94  O   UNL A   1      45.033  22.051  36.000  1.00  0.00    -0.237 OA
ATOM     95  O   UNL A   1      47.283  22.930  36.537  1.00  0.00    -0.237 OA
ATOM     96  O   UNL A   1      45.398  23.361  38.063  1.00  0.00    -0.744 OA
ENDBRANCH  92  93
ENDBRANCH  60  85
BRANCH  72  97
ATOM     97  C   UNL A   1      41.867  32.937  36.180  1.00  0.00     0.058 A 
ATOM     98  C   UNL A   1      40.490  32.789  36.403  1.00  0.00     0.135 A 
ATOM     99  C   UNL A   1      42.641  33.505  37.205  1.00  0.00     0.135 A 
ATOM    100  F   UNL A   1      39.704  32.256  35.453  1.00  0.00    -0.206 F 
ATOM    101  C   UNL A   1      39.896  33.215  37.586  1.00  0.00     0.059 A 
ATOM    102  C   UNL A   1      42.074  33.911  38.408  1.00  0.00     0.059 A 
ATOM    103  F   UNL A   1      43.966  33.657  37.048  1.00  0.00    -0.206 F 
ATOM    104  C   UNL A   1      40.698  33.776  38.584  1.00  0.00     0.060 A 
BRANCH 104 105
ATOM    105  S   UNL A   1      39.921  34.302  40.126  1.00  0.00     0.124 S 
ATOM    106  O   UNL A   1      40.992  35.075  40.745  1.00  0.00    -0.237 OA
ATOM    107  O   UNL A   1      38.776  35.073  39.652  1.00  0.00    -0.237 OA
ATOM    108  O   UNL A   1      39.591  33.043  40.787  1.00  0.00    -0.744 OA
ENDBRANCH 104 105
ENDBRANCH  72  97
ENDBRANCH  46  47
ENDBRANCH  38  41
ENDBRANCH  36  37
ENDBRANCH  35  36
ENDBRANCH  34  35
ENDBRANCH  33  34
ENDBRANCH  32  33
ENDBRANCH  31  32
ENDBRANCH   3  31
TORSDOF 25
ENDMDL
MODEL 2
REMARK VINA RESULT:      -7.9      3.779     10.368
REMARK SMILES CCCCCCOC(=O)Nc1cccc(-c2ccc([C@@H](C)C(=O)NCCCCCCNC(=O)c3ccc(-c4c5nc(c(-c6c(F)cc(S(=O)(=O)[O-])cc6F)c6ccc([nH]6)c(-c6c(F)cc(S(=O)(=O)[O-])cc6F)c6nc(c(-c7c(F)cc(S(=O)(=O)[O-])cc7F)c7ccc4[nH]7)C=C6)C=C5)cc3)cc2F)c1
REMARK SMILES IDX 22 1 23 2 24 3 20 5 21 6 19 7 16 8 17 9 101 10 18 11 100 12
REMARK SMILES IDX 102 13 15 14 11 15 12 16 103 17 13 18 14 19 10 20 8 21 9 22
REMARK SMILES IDX 7 24 6 25 5 26 4 27 3 28 2 29 1 30 25 31 26 32 27 33 28 34
REMARK SMILES IDX 29 35 30 36 31 37 32 38 33 40 34 41 35 42 99 43 36 44 98 45
REMARK SMILES IDX 37 46 38 47 39 48 92 49 40 50 97 51 91 52 93 53 41 54 96 55
REMARK SMILES IDX 90 56 89 57 42 59 76 60 55 61 75 62 56 63 59 64 74 65 94 66
REMARK SMILES IDX 57 67 58 68 73 70 95 71 60 72 43 73 44 74 53 75 45 76 46 77
REMARK SMILES IDX 52 78 54 79 47 80 48 81 49 82 50 83 51 84 77 85 78 86 87 87
REMARK SMILES IDX 79 88 80 89 86 90 88 91 81 92 82 93 83 94 84 95 85 96 61 97
REMARK SMILES IDX 62 98 71 99 63 100 64 101 70 102 72 103 65 104 66 105 67 106
REMARK SMILES IDX 68 107 69 108
REMARK H PARENT 24 4 10 23 31 39 93 58 59 69
REMARK Flexibility Score: inf
ROOT
ATOM      1  C   UNL A   1      46.064  27.927  26.103  1.00  0.00     0.227 C 
ATOM      2  O   UNL A   1      45.645  28.290  24.996  1.00  0.00    -0.274 OA
ATOM      3  N   UNL A   1      45.448  28.462  27.191  1.00  0.00    -0.356 N 
ATOM      4  H   UNL A   1      44.672  29.031  26.980  1.00  0.00     0.163 HD
ENDROOT
BRANCH   1   5
ATOM      5  C   UNL A   1      47.209  26.907  26.193  1.00  0.00     0.105 C 
ATOM      6  C   UNL A   1      48.499  27.360  25.512  1.00  0.00     0.023 C 
BRANCH   5   7
ATOM      7  C   UNL A   1      46.778  25.475  25.914  1.00  0.00    -0.033 A 
ATOM      8  C   UNL A   1      45.819  22.814  25.468  1.00  0.00     0.018 A 
ATOM      9  C   UNL A   1      46.332  23.594  24.423  1.00  0.00     0.012 A 
ATOM     10  C   UNL A   1      45.840  23.393  26.748  1.00  0.00     0.131 A 
ATOM     11  C   UNL A   1      46.833  24.884  24.649  1.00  0.00     0.005 A 
ATOM     12  C   UNL A   1      46.284  24.698  26.968  1.00  0.00     0.044 A 
ATOM     13  F   UNL A   1      45.436  22.695  27.822  1.00  0.00    -0.206 F 
BRANCH   8  14
ATOM     14  C   UNL A   1      45.292  21.454  25.220  1.00  0.00    -0.013 A 
ATOM     15  C   UNL A   1      43.592  19.738  25.627  1.00  0.00     0.045 A 
ATOM     16  C   UNL A   1      44.336  18.811  24.903  1.00  0.00     0.026 A 
ATOM     17  C   UNL A   1      44.061  21.050  25.761  1.00  0.00     0.035 A 
ATOM     18  C   UNL A   1      45.525  19.203  24.293  1.00  0.00     0.003 A 
ATOM     19  C   UNL A   1      46.003  20.507  24.463  1.00  0.00     0.009 A 
BRANCH  15  20
ATOM     20  N   UNL A   1      42.454  19.294  26.313  1.00  0.00    -0.291 N 
ATOM     21  C   UNL A   1      41.470  20.064  26.874  1.00  0.00     0.411 C 
ATOM     22  O   UNL A   1      40.826  19.670  27.833  1.00  0.00    -0.224 OA
ATOM     23  H   UNL A   1      42.349  18.320  26.401  1.00  0.00     0.173 HD
BRANCH  21  24
ATOM     24  O   UNL A   1      41.231  21.205  26.174  1.00  0.00    -0.449 OA
BRANCH  24  25
ATOM     25  C   UNL A   1      39.930  21.804  26.280  1.00  0.00     0.235 C 
BRANCH  25  26
ATOM     26  C   UNL A   1      38.865  21.020  25.506  1.00  0.00     0.042 C 
BRANCH  26  27
ATOM     27  C   UNL A   1      37.515  21.726  25.328  1.00  0.00     0.003 C 
BRANCH  27  28
ATOM     28  C   UNL A   1      36.336  20.801  24.998  1.00  0.00    -0.000 C 
BRANCH  28  29
ATOM     29  C   UNL A   1      34.995  21.228  25.592  1.00  0.00    -0.003 C 
ATOM     30  C   UNL A   1      35.100  22.493  26.427  1.00  0.00     0.004 C 
ENDBRANCH  28  29
ENDBRANCH  27  28
ENDBRANCH  26  27
ENDBRANCH  25  26
ENDBRANCH  24  25
ENDBRANCH  21  24
ENDBRANCH  15  20
ENDBRANCH   8  14
ENDBRANCH   5   7
ENDBRANCH   1   5
BRANCH   3  31
ATOM     31  C   UNL A   1      45.731  28.341  28.604  1.00  0.00     0.116 C 
BRANCH  31  32
ATOM     32  C   UNL A   1      45.111  27.075  29.198  1.00  0.00     0.021 C 
BRANCH  32  33
ATOM     33  C   UNL A   1      43.768  26.696  28.567  1.00  0.00     0.002 C 
BRANCH  33  34
ATOM     34  C   UNL A   1      43.244  25.306  28.950  1.00  0.00     0.002 C 
BRANCH  34  35
ATOM     35  C   UNL A   1      42.734  24.453  27.783  1.00  0.00     0.021 C 
BRANCH  35  36
ATOM     36  C   UNL A   1      42.539  25.217  26.477  1.00  0.00     0.116 C 
BRANCH  36  37
ATOM     37  N   UNL A   1      41.182  25.076  25.975  1.00  0.00    -0.352 N 
ATOM     38  C   UNL A   1      39.994  25.450  26.546  1.00  0.00     0.251 C 
ATOM     39  H   UNL A   1      41.106  24.646  25.093  1.00  0.00     0.163 HD
ATOM     40  O   UNL A   1      38.941  25.008  26.094  1.00  0.00    -0.269 OA
BRANCH  38  41
ATOM     41  C   UNL A   1      39.974  26.384  27.694  1.00  0.00     0.039 A 
ATOM     42  C   UNL A   1      40.566  27.642  27.550  1.00  0.00     0.014 A 
ATOM     43  C   UNL A   1      39.442  25.998  28.928  1.00  0.00     0.014 A 
ATOM     44  C   UNL A   1      40.609  28.517  28.638  1.00  0.00     0.010 A 
ATOM     45  C   UNL A   1      39.421  26.898  29.990  1.00  0.00     0.010 A 
ATOM     46  C   UNL A   1      40.031  28.155  29.865  1.00  0.00    -0.014 A 
BRANCH  46  47
ATOM     47  C   UNL A   1      40.117  29.050  31.046  1.00  0.00     0.031 A 
ATOM     48  C   UNL A   1      41.215  28.848  32.059  1.00  0.00     0.074 A 
ATOM     49  C   UNL A   1      39.194  30.014  31.229  1.00  0.00     0.049 A 
ATOM     50  N   UNL A   1      41.434  29.485  33.181  1.00  0.00    -0.248 NA
ATOM     51  C   UNL A   1      42.177  27.767  31.789  1.00  0.00     0.031 C 
ATOM     52  C   UNL A   1      38.062  30.280  30.340  1.00  0.00     0.029 A 
ATOM     53  N   UNL A   1      39.059  30.946  32.226  1.00  0.00    -0.354 N 
ATOM     54  C   UNL A   1      42.541  28.872  33.755  1.00  0.00     0.074 A 
ATOM     55  C   UNL A   1      42.916  27.776  32.888  1.00  0.00     0.031 C 
ATOM     56  C   UNL A   1      37.360  31.319  30.821  1.00  0.00     0.029 A 
ATOM     57  C   UNL A   1      37.974  31.774  32.064  1.00  0.00     0.049 A 
ATOM     58  H   UNL A   1      39.681  31.015  32.987  1.00  0.00     0.167 HD
ATOM     59  C   UNL A   1      43.205  29.207  34.888  1.00  0.00     0.037 A 
ATOM     60  C   UNL A   1      37.525  32.785  32.835  1.00  0.00     0.037 A 
ATOM     61  C   UNL A   1      42.847  30.321  35.727  1.00  0.00     0.049 A 
ATOM     62  C   UNL A   1      38.291  33.154  34.076  1.00  0.00     0.074 A 
ATOM     63  C   UNL A   1      43.482  30.778  36.868  1.00  0.00     0.029 A 
ATOM     64  N   UNL A   1      41.763  31.159  35.509  1.00  0.00    -0.354 N 
ATOM     65  N   UNL A   1      39.368  32.596  34.578  1.00  0.00    -0.248 NA
ATOM     66  C   UNL A   1      37.791  34.299  34.850  1.00  0.00     0.031 C 
ATOM     67  C   UNL A   1      42.760  31.871  37.362  1.00  0.00     0.029 A 
ATOM     68  C   UNL A   1      41.704  32.124  36.500  1.00  0.00     0.049 A 
ATOM     69  H   UNL A   1      41.129  31.078  34.760  1.00  0.00     0.167 HD
ATOM     70  C   UNL A   1      39.693  33.343  35.705  1.00  0.00     0.074 A 
ATOM     71  C   UNL A   1      38.704  34.396  35.807  1.00  0.00     0.031 C 
ATOM     72  C   UNL A   1      40.721  33.175  36.575  1.00  0.00     0.037 A 
BRANCH  59  73
ATOM     73  C   UNL A   1      44.387  28.363  35.280  1.00  0.00     0.058 A 
ATOM     74  C   UNL A   1      44.232  27.157  35.984  1.00  0.00     0.135 A 
ATOM     75  C   UNL A   1      45.690  28.749  34.927  1.00  0.00     0.135 A 
ATOM     76  F   UNL A   1      43.010  26.747  36.362  1.00  0.00    -0.206 F 
ATOM     77  C   UNL A   1      45.327  26.382  36.352  1.00  0.00     0.059 A 
ATOM     78  C   UNL A   1      46.799  27.974  35.259  1.00  0.00     0.059 A 
ATOM     79  F   UNL A   1      45.898  29.892  34.254  1.00  0.00    -0.206 F 
ATOM     80  C   UNL A   1      46.607  26.801  35.987  1.00  0.00     0.060 A 
BRANCH  80  81
ATOM     81  S   UNL A   1      48.019  25.783  36.472  1.00  0.00     0.124 S 
ATOM     82  O   UNL A   1      47.872  24.640  35.577  1.00  0.00    -0.237 OA
ATOM     83  O   UNL A   1      49.149  26.664  36.195  1.00  0.00    -0.237 OA
ATOM     84  O   UNL A   1      47.771  25.511  37.884  1.00  0.00    -0.744 OA
ENDBRANCH  80  81
ENDBRANCH  59  73
BRANCH  60  85
ATOM     85  C   UNL A   1      36.310  33.543  32.432  1.00  0.00     0.058 A 
ATOM     86  C   UNL A   1      36.320  34.375  31.302  1.00  0.00     0.135 A 
ATOM     87  C   UNL A   1      35.115  33.442  33.159  1.00  0.00     0.135 A 
ATOM     88  F   UNL A   1      37.441  34.507  30.576  1.00  0.00    -0.206 F 
ATOM     89  C   UNL A   1      35.195  35.097  30.919  1.00  0.00     0.059 A 
ATOM     90  C   UNL A   1      33.968  34.135  32.781  1.00  0.00     0.059 A 
ATOM     91  F   UNL A   1      35.046  32.644  34.236  1.00  0.00    -0.206 F 
ATOM     92  C   UNL A   1      34.022  34.970  31.665  1.00  0.00     0.060 A 
BRANCH  92  93
ATOM     93  S   UNL A   1      32.554  35.878  31.135  1.00  0.00     0.124 S 
ATOM     94  O   UNL A   1      32.247  35.224  29.869  1.00  0.00    -0.237 OA
ATOM     95  O   UNL A   1      31.623  35.623  32.229  1.00  0.00    -0.237 OA
ATOM     96  O   UNL A   1      33.030  37.255  31.036  1.00  0.00    -0.744 OA
ENDBRANCH  92  93
ENDBRANCH  60  85
BRANCH  72  97
ATOM     97  C   UNL A   1      40.860  34.182  37.683  1.00  0.00     0.058 A 
ATOM     98  C   UNL A   1      41.695  35.304  37.564  1.00  0.00     0.135 A 
ATOM     99  C   UNL A   1      40.111  34.043  38.862  1.00  0.00     0.135 A 
ATOM    100  F   UNL A   1      42.437  35.481  36.459  1.00  0.00    -0.206 F 
ATOM    101  C   UNL A   1      41.805  36.237  38.589  1.00  0.00     0.059 A 
ATOM    102  C   UNL A   1      40.182  34.979  39.887  1.00  0.00     0.059 A 
ATOM    103  F   UNL A   1      39.286  32.995  39.020  1.00  0.00    -0.206 F 
ATOM    104  C   UNL A   1      41.044  36.066  39.748  1.00  0.00     0.060 A 
BRANCH 104 105
ATOM    105  S   UNL A   1      41.177  37.297  41.062  1.00  0.00     0.124 S 
ATOM    106  O   UNL A   1      41.157  36.457  42.254  1.00  0.00    -0.237 OA
ATOM    107  O   UNL A   1      42.451  37.941  40.760  1.00  0.00    -0.237 OA
ATOM    108  O   UNL A   1      39.996  38.133  40.863  1.00  0.00    -0.744 OA
ENDBRANCH 104 105
ENDBRANCH  72  97
ENDBRANCH  46  47
ENDBRANCH  38  41
ENDBRANCH  36  37
ENDBRANCH  35  36
ENDBRANCH  34  35
ENDBRANCH  33  34
ENDBRANCH  32  33
ENDBRANCH  31  32
ENDBRANCH   3  31
TORSDOF 25
ENDMDL
MODEL 3
REMARK VINA RESULT:      -7.4      1.697      2.351
REMARK SMILES CCCCCCOC(=O)Nc1cccc(-c2ccc([C@@H](C)C(=O)NCCCCCCNC(=O)c3ccc(-c4c5nc(c(-c6c(F)cc(S(=O)(=O)[O-])cc6F)c6ccc([nH]6)c(-c6c(F)cc(S(=O)(=O)[O-])cc6F)c6nc(c(-c7c(F)cc(S(=O)(=O)[O-])cc7F)c7ccc4[nH]7)C=C6)C=C5)cc3)cc2F)c1
REMARK SMILES IDX 22 1 23 2 24 3 20 5 21 6 19 7 16 8 17 9 101 10 18 11 100 12
REMARK SMILES IDX 102 13 15 14 11 15 12 16 103 17 13 18 14 19 10 20 8 21 9 22
REMARK SMILES IDX 7 24 6 25 5 26 4 27 3 28 2 29 1 30 25 31 26 32 27 33 28 34
REMARK SMILES IDX 29 35 30 36 31 37 32 38 33 40 34 41 35 42 99 43 36 44 98 45
REMARK SMILES IDX 37 46 38 47 39 48 92 49 40 50 97 51 91 52 93 53 41 54 96 55
REMARK SMILES IDX 90 56 89 57 42 59 76 60 55 61 75 62 56 63 59 64 74 65 94 66
REMARK SMILES IDX 57 67 58 68 73 70 95 71 60 72 43 73 44 74 53 75 45 76 46 77
REMARK SMILES IDX 52 78 54 79 47 80 48 81 49 82 50 83 51 84 77 85 78 86 87 87
REMARK SMILES IDX 79 88 80 89 86 90 88 91 81 92 82 93 83 94 84 95 85 96 61 97
REMARK SMILES IDX 62 98 71 99 63 100 64 101 70 102 72 103 65 104 66 105 67 106
REMARK SMILES IDX 68 107 69 108
REMARK H PARENT 24 4 10 23 31 39 93 58 59 69
REMARK Flexibility Score: inf
ROOT
ATOM      1  C   UNL A   1      43.395  25.932  28.186  1.00  0.00     0.227 C 
ATOM      2  O   UNL A   1      42.363  25.271  28.009  1.00  0.00    -0.274 OA
ATOM      3  N   UNL A   1      44.307  25.913  27.178  1.00  0.00    -0.356 N 
ATOM      4  H   UNL A   1      44.012  25.431  26.371  1.00  0.00     0.163 HD
ENDROOT
BRANCH   1   5
ATOM      5  C   UNL A   1      43.580  26.732  29.484  1.00  0.00     0.105 C 
ATOM      6  C   UNL A   1      43.879  25.870  30.708  1.00  0.00     0.023 C 
BRANCH   5   7
ATOM      7  C   UNL A   1      42.545  27.830  29.681  1.00  0.00    -0.033 A 
ATOM      8  C   UNL A   1      40.695  29.959  30.177  1.00  0.00     0.018 A 
ATOM      9  C   UNL A   1      41.173  29.686  28.887  1.00  0.00     0.012 A 
ATOM     10  C   UNL A   1      41.141  29.107  31.201  1.00  0.00     0.131 A 
ATOM     11  C   UNL A   1      42.052  28.622  28.641  1.00  0.00     0.005 A 
ATOM     12  C   UNL A   1      42.061  28.082  30.970  1.00  0.00     0.044 A 
ATOM     13  F   UNL A   1      40.682  29.245  32.456  1.00  0.00    -0.206 F 
BRANCH   8  14
ATOM     14  C   UNL A   1      39.769  31.084  30.427  1.00  0.00    -0.013 A 
ATOM     15  C   UNL A   1      37.536  31.891  31.032  1.00  0.00     0.045 A 
ATOM     16  C   UNL A   1      37.920  33.200  30.756  1.00  0.00     0.026 A 
ATOM     17  C   UNL A   1      38.463  30.852  30.888  1.00  0.00     0.035 A 
ATOM     18  C   UNL A   1      39.231  33.469  30.368  1.00  0.00     0.003 A 
ATOM     19  C   UNL A   1      40.139  32.419  30.192  1.00  0.00     0.009 A 
BRANCH  15  20
ATOM     20  N   UNL A   1      36.189  31.635  31.324  1.00  0.00    -0.291 N 
ATOM     21  C   UNL A   1      35.161  32.539  31.356  1.00  0.00     0.411 C 
ATOM     22  O   UNL A   1      34.185  32.364  32.068  1.00  0.00    -0.224 OA
ATOM     23  H   UNL A   1      35.957  30.702  31.527  1.00  0.00     0.173 HD
BRANCH  21  24
ATOM     24  O   UNL A   1      35.304  33.533  30.439  1.00  0.00    -0.449 OA
BRANCH  24  25
ATOM     25  C   UNL A   1      34.544  33.447  29.224  1.00  0.00     0.235 C 
BRANCH  25  26
ATOM     26  C   UNL A   1      35.190  32.507  28.200  1.00  0.00     0.042 C 
BRANCH  26  27
ATOM     27  C   UNL A   1      34.402  31.232  27.876  1.00  0.00     0.003 C 
BRANCH  27  28
ATOM     28  C   UNL A   1      35.254  30.038  27.426  1.00  0.00    -0.000 C 
BRANCH  28  29
ATOM     29  C   UNL A   1      36.433  29.706  28.339  1.00  0.00    -0.003 C 
ATOM     30  C   UNL A   1      37.733  29.522  27.573  1.00  0.00     0.004 C 
ENDBRANCH  28  29
ENDBRANCH  27  28
ENDBRANCH  26  27
ENDBRANCH  25  26
ENDBRANCH  24  25
ENDBRANCH  21  24
ENDBRANCH  15  20
ENDBRANCH   8  14
ENDBRANCH   5   7
ENDBRANCH   1   5
BRANCH   3  31
ATOM     31  C   UNL A   1      45.636  26.478  27.082  1.00  0.00     0.116 C 
BRANCH  31  32
ATOM     32  C   UNL A   1      46.607  25.803  28.052  1.00  0.00     0.021 C 
BRANCH  32  33
ATOM     33  C   UNL A   1      47.910  25.341  27.393  1.00  0.00     0.002 C 
BRANCH  33  34
ATOM     34  C   UNL A   1      47.973  25.542  25.873  1.00  0.00     0.002 C 
BRANCH  34  35
ATOM     35  C   UNL A   1      49.295  26.104  25.340  1.00  0.00     0.021 C 
BRANCH  35  36
ATOM     36  C   UNL A   1      50.252  26.604  26.417  1.00  0.00     0.116 C 
BRANCH  36  37
ATOM     37  N   UNL A   1      50.944  27.811  25.997  1.00  0.00    -0.352 N 
ATOM     38  C   UNL A   1      50.595  29.125  26.167  1.00  0.00     0.251 C 
ATOM     39  H   UNL A   1      51.790  27.661  25.517  1.00  0.00     0.163 HD
ATOM     40  O   UNL A   1      51.167  29.992  25.511  1.00  0.00    -0.269 OA
BRANCH  38  41
ATOM     41  C   UNL A   1      49.542  29.503  27.137  1.00  0.00     0.039 A 
ATOM     42  C   UNL A   1      49.923  30.038  28.371  1.00  0.00     0.014 A 
ATOM     43  C   UNL A   1      48.193  29.263  26.865  1.00  0.00     0.014 A 
ATOM     44  C   UNL A   1      48.949  30.348  29.323  1.00  0.00     0.010 A 
ATOM     45  C   UNL A   1      47.219  29.639  27.786  1.00  0.00     0.010 A 
ATOM     46  C   UNL A   1      47.588  30.157  29.036  1.00  0.00    -0.014 A 
BRANCH  46  47
ATOM     47  C   UNL A   1      46.544  30.428  30.056  1.00  0.00     0.031 A 
ATOM     48  C   UNL A   1      45.774  31.723  30.013  1.00  0.00     0.074 A 
ATOM     49  C   UNL A   1      46.316  29.535  31.039  1.00  0.00     0.049 A 
ATOM     50  N   UNL A   1      44.863  32.172  30.837  1.00  0.00    -0.248 NA
ATOM     51  C   UNL A   1      46.092  32.648  28.912  1.00  0.00     0.031 C 
ATOM     52  C   UNL A   1      47.025  28.266  31.210  1.00  0.00     0.029 A 
ATOM     53  N   UNL A   1      45.425  29.561  32.081  1.00  0.00    -0.354 N 
ATOM     54  C   UNL A   1      44.515  33.433  30.366  1.00  0.00     0.074 A 
ATOM     55  C   UNL A   1      45.352  33.702  29.218  1.00  0.00     0.031 C 
ATOM     56  C   UNL A   1      46.528  27.625  32.280  1.00  0.00     0.029 A 
ATOM     57  C   UNL A   1      45.487  28.449  32.887  1.00  0.00     0.049 A 
ATOM     58  H   UNL A   1      44.799  30.305  32.237  1.00  0.00     0.167 HD
ATOM     59  C   UNL A   1      43.564  34.279  30.830  1.00  0.00     0.037 A 
ATOM     60  C   UNL A   1      44.783  28.132  33.992  1.00  0.00     0.037 A 
ATOM     61  C   UNL A   1      42.709  33.988  31.952  1.00  0.00     0.049 A 
ATOM     62  C   UNL A   1      43.717  29.077  34.477  1.00  0.00     0.074 A 
ATOM     63  C   UNL A   1      41.682  34.754  32.473  1.00  0.00     0.029 A 
ATOM     64  N   UNL A   1      42.779  32.835  32.720  1.00  0.00    -0.354 N 
ATOM     65  N   UNL A   1      43.365  30.244  33.989  1.00  0.00    -0.248 NA
ATOM     66  C   UNL A   1      42.942  28.658  35.652  1.00  0.00     0.031 C 
ATOM     67  C   UNL A   1      41.153  34.080  33.580  1.00  0.00     0.029 A 
ATOM     68  C   UNL A   1      41.819  32.873  33.718  1.00  0.00     0.049 A 
ATOM     69  H   UNL A   1      43.417  32.099  32.577  1.00  0.00     0.167 HD
ATOM     70  C   UNL A   1      42.305  30.680  34.776  1.00  0.00     0.074 A 
ATOM     71  C   UNL A   1      42.069  29.650  35.766  1.00  0.00     0.031 C 
ATOM     72  C   UNL A   1      41.589  31.829  34.684  1.00  0.00     0.037 A 
BRANCH  59  73
ATOM     73  C   UNL A   1      43.394  35.596  30.121  1.00  0.00     0.058 A 
ATOM     74  C   UNL A   1      42.516  35.740  29.034  1.00  0.00     0.135 A 
ATOM     75  C   UNL A   1      44.099  36.733  30.547  1.00  0.00     0.135 A 
ATOM     76  F   UNL A   1      41.830  34.682  28.574  1.00  0.00    -0.206 F 
ATOM     77  C   UNL A   1      42.367  36.957  28.375  1.00  0.00     0.059 A 
ATOM     78  C   UNL A   1      43.942  37.968  29.921  1.00  0.00     0.059 A 
ATOM     79  F   UNL A   1      44.952  36.653  31.581  1.00  0.00    -0.206 F 
ATOM     80  C   UNL A   1      43.087  38.064  28.826  1.00  0.00     0.060 A 
BRANCH  80  81
ATOM     81  S   UNL A   1      42.881  39.636  27.960  1.00  0.00     0.124 S 
ATOM     82  O   UNL A   1      41.454  39.613  27.653  1.00  0.00    -0.237 OA
ATOM     83  O   UNL A   1      43.296  40.606  28.969  1.00  0.00    -0.237 OA
ATOM     84  O   UNL A   1      43.772  39.510  26.811  1.00  0.00    -0.744 OA
ENDBRANCH  80  81
ENDBRANCH  59  73
BRANCH  60  85
ATOM     85  C   UNL A   1      45.040  26.845  34.693  1.00  0.00     0.058 A 
ATOM     86  C   UNL A   1      44.183  25.748  34.524  1.00  0.00     0.135 A 
ATOM     87  C   UNL A   1      46.152  26.683  35.534  1.00  0.00     0.135 A 
ATOM     88  F   UNL A   1      43.104  25.855  33.733  1.00  0.00    -0.206 F 
ATOM     89  C   UNL A   1      44.404  24.541  35.181  1.00  0.00     0.059 A 
ATOM     90  C   UNL A   1      46.409  25.478  36.182  1.00  0.00     0.059 A 
ATOM     91  F   UNL A   1      47.014  27.695  35.713  1.00  0.00    -0.206 F 
ATOM     92  C   UNL A   1      45.522  24.416  36.007  1.00  0.00     0.060 A 
BRANCH  92  93
ATOM     93  S   UNL A   1      45.825  22.833  36.821  1.00  0.00     0.124 S 
ATOM     94  O   UNL A   1      45.331  23.095  38.167  1.00  0.00    -0.237 OA
ATOM     95  O   UNL A   1      45.027  21.915  36.014  1.00  0.00    -0.237 OA
ATOM     96  O   UNL A   1      47.271  22.666  36.699  1.00  0.00    -0.744 OA
ENDBRANCH  92  93
ENDBRANCH  60  85
BRANCH  72  97
ATOM     97  C   UNL A   1      40.448  32.010  35.647  1.00  0.00     0.058 A 
ATOM     98  C   UNL A   1      39.201  31.399  35.443  1.00  0.00     0.135 A 
ATOM     99  C   UNL A   1      40.623  32.772  36.813  1.00  0.00     0.135 A 
ATOM    100  F   UNL A   1      38.980  30.664  34.341  1.00  0.00    -0.206 F 
ATOM    101  C   UNL A   1      38.157  31.561  36.348  1.00  0.00     0.059 A 
ATOM    102  C   UNL A   1      39.602  32.924  37.746  1.00  0.00     0.059 A 
ATOM    103  F   UNL A   1      41.800  33.367  37.063  1.00  0.00    -0.206 F 
ATOM    104  C   UNL A   1      38.368  32.327  37.497  1.00  0.00     0.060 A 
BRANCH 104 105
ATOM    105  S   UNL A   1      37.013  32.510  38.676  1.00  0.00     0.124 S 
ATOM    106  O   UNL A   1      36.067  33.316  37.913  1.00  0.00    -0.237 OA
ATOM    107  O   UNL A   1      36.618  31.126  38.916  1.00  0.00    -0.237 OA
ATOM    108  O   UNL A   1      37.639  33.182  39.811  1.00  0.00    -0.744 OA
ENDBRANCH 104 105
ENDBRANCH  72  97
ENDBRANCH  46  47
ENDBRANCH  38  41
ENDBRANCH  36  37
ENDBRANCH  35  36
ENDBRANCH  34  35
ENDBRANCH  33  34
ENDBRANCH  32  33
ENDBRANCH  31  32
ENDBRANCH   3  31
TORSDOF 25
ENDMDL
