MODEL 1
REMARK VINA RESULT:     -11.9      0.000      0.000
REMARK SMILES C[C@@H](Oc1ccc(/C=C2\C(=O)[NH+]=C(NCCCCCCNC(=O)c3ccc(-c4c5nc(c(-c6c(F)cc(S(=O)(=O)[O-])cc6F)c6ccc([nH]6)c(-c6c(F)cc(S(=O)(=O)[O-])cc6F)c6nc(c(-c7c(F)cc(S(=O)(=O)[O-])cc7F)c7ccc4[nH]7)C=C6)C=C5)cc3)N(c3ccc4c(c3)OCO4)C2=O)cc1)C(=O)[O-]
REMARK SMILES IDX 17 1 16 2 15 3 14 4 8 5 9 6 10 7 100 8 11 9 12 10 90 11
REMARK SMILES IDX 101 12 13 13 7 16 4 17 5 18 103 19 6 20 102 21 3 22 2 23
REMARK SMILES IDX 1 24 104 25 105 26 106 27 91 28 92 29 96 30 93 31 95 32
REMARK SMILES IDX 94 33 97 34 99 35 98 36 18 37 19 38 20 39 21 40 22 41 23 43
REMARK SMILES IDX 24 44 25 45 89 46 26 47 88 48 27 49 28 50 29 51 82 52 30 53
REMARK SMILES IDX 87 54 81 55 83 56 31 57 86 58 80 59 79 60 32 62 66 63 45 64
REMARK SMILES IDX 65 65 46 66 49 67 64 68 84 69 47 70 48 71 63 73 85 74 50 75
REMARK SMILES IDX 33 76 34 77 43 78 35 79 36 80 42 81 44 82 37 83 38 84 39 85
REMARK SMILES IDX 40 86 41 87 67 88 68 89 77 90 69 91 70 92 76 93 78 94 71 95
REMARK SMILES IDX 72 96 73 97 74 98 75 99 51 100 52 101 61 102 53 103 54 104
REMARK SMILES IDX 60 105 62 106 55 107 56 108 57 109 58 110 59 111
REMARK H PARENT 12 14 14 15 21 42 83 61 49 72
REMARK Flexibility Score: inf
ROOT
ATOM      1  C   UNL A   1      35.269  30.164  27.734  1.00  0.00     0.003 C 
ENDROOT
BRANCH   1   2
ATOM      2  C   UNL A   1      33.961  29.609  27.153  1.00  0.00     0.037 C 
BRANCH   2   3
ATOM      3  C   UNL A   1      34.039  28.144  26.731  1.00  0.00     0.197 C 
BRANCH   3   4
ATOM      4  N   UNL A   1      33.071  27.886  25.685  1.00  0.00    -0.277 N 
ATOM      5  C   UNL A   1      31.937  23.045  23.814  1.00  0.00     0.031 C 
ATOM      6  C   UNL A   1      32.499  24.262  23.929  1.00  0.00     0.138 C 
ATOM      7  C   UNL A   1      33.791  24.578  24.558  1.00  0.00     0.321 C 
ATOM      8  C   UNL A   1      31.746  25.399  23.368  1.00  0.00     0.328 C 
ATOM      9  O   UNL A   1      34.758  23.831  24.474  1.00  0.00    -0.250 OA
ATOM     10  N   UNL A   1      33.814  25.752  25.248  1.00  0.00    -0.210 N 
ATOM     11  N   UNL A   1      32.070  26.623  23.939  1.00  0.00    -0.162 N 
ATOM     12  O   UNL A   1      30.898  25.229  22.489  1.00  0.00    -0.249 OA
ATOM     13  C   UNL A   1      33.013  26.730  24.953  1.00  0.00     0.366 C 
ATOM     14  H   UNL A   1      34.454  25.862  25.988  1.00  0.00     0.270 HD
ATOM     15  H   UNL A   1      32.411  28.588  25.487  1.00  0.00     0.260 HD
BRANCH   5  16
ATOM     16  C   UNL A   1      32.394  21.742  24.317  1.00  0.00    -0.024 A 
ATOM     17  C   UNL A   1      33.101  19.154  25.155  1.00  0.00     0.120 A 
ATOM     18  C   UNL A   1      33.039  20.194  26.078  1.00  0.00     0.047 A 
ATOM     19  C   UNL A   1      32.762  19.388  23.827  1.00  0.00     0.047 A 
ATOM     20  C   UNL A   1      32.675  21.480  25.662  1.00  0.00     0.012 A 
ATOM     21  C   UNL A   1      32.425  20.676  23.408  1.00  0.00     0.012 A 
BRANCH  17  22
ATOM     22  O   UNL A   1      33.350  17.895  25.624  1.00  0.00    -0.485 OA
BRANCH  22  23
ATOM     23  C   UNL A   1      32.841  16.842  24.796  1.00  0.00     0.216 C 
ATOM     24  C   UNL A   1      32.177  15.738  25.614  1.00  0.00     0.059 C 
BRANCH  23  25
ATOM     25  C   UNL A   1      34.013  16.210  24.051  1.00  0.00     0.082 C 
ATOM     26  O   UNL A   1      34.223  16.288  22.849  1.00  0.00    -0.546 OA
ATOM     27  O   UNL A   1      34.802  15.433  24.823  1.00  0.00    -0.546 OA
ENDBRANCH  23  25
ENDBRANCH  22  23
ENDBRANCH  17  22
ENDBRANCH   5  16
BRANCH  11  28
ATOM     28  C   UNL A   1      31.318  27.740  23.496  1.00  0.00     0.115 A 
ATOM     29  C   UNL A   1      31.904  28.675  22.614  1.00  0.00     0.048 A 
ATOM     30  C   UNL A   1      29.952  27.796  23.798  1.00  0.00     0.094 A 
ATOM     31  C   UNL A   1      31.109  29.634  21.977  1.00  0.00     0.054 A 
ATOM     32  C   UNL A   1      29.198  28.736  23.140  1.00  0.00     0.169 A 
ATOM     33  C   UNL A   1      29.755  29.616  22.239  1.00  0.00     0.166 A 
ATOM     34  O   UNL A   1      27.847  28.861  23.224  1.00  0.00    -0.453 OA
ATOM     35  O   UNL A   1      28.810  30.386  21.634  1.00  0.00    -0.454 OA
ATOM     36  C   UNL A   1      27.608  29.738  22.105  1.00  0.00     0.468 C 
ENDBRANCH  11  28
ENDBRANCH   3   4
ENDBRANCH   2   3
ENDBRANCH   1   2
BRANCH   1  37
ATOM     37  C   UNL A   1      35.214  31.629  28.179  1.00  0.00     0.002 C 
BRANCH  37  38
ATOM     38  C   UNL A   1      33.856  32.309  27.998  1.00  0.00     0.021 C 
BRANCH  38  39
ATOM     39  C   UNL A   1      33.931  33.783  27.615  1.00  0.00     0.116 C 
BRANCH  39  40
ATOM     40  N   UNL A   1      33.122  34.618  28.488  1.00  0.00    -0.352 N 
ATOM     41  C   UNL A   1      33.228  34.813  29.843  1.00  0.00     0.251 C 
ATOM     42  H   UNL A   1      32.394  35.112  28.045  1.00  0.00     0.163 HD
ATOM     43  O   UNL A   1      32.337  35.401  30.449  1.00  0.00    -0.269 OA
BRANCH  41  44
ATOM     44  C   UNL A   1      34.407  34.295  30.571  1.00  0.00     0.039 A 
ATOM     45  C   UNL A   1      34.220  33.336  31.569  1.00  0.00     0.014 A 
ATOM     46  C   UNL A   1      35.693  34.749  30.265  1.00  0.00     0.014 A 
ATOM     47  C   UNL A   1      35.328  32.790  32.219  1.00  0.00     0.010 A 
ATOM     48  C   UNL A   1      36.800  34.147  30.858  1.00  0.00     0.010 A 
ATOM     49  C   UNL A   1      36.630  33.165  31.845  1.00  0.00    -0.014 A 
BRANCH  49  50
ATOM     50  C   UNL A   1      37.822  32.538  32.471  1.00  0.00     0.031 A 
ATOM     51  C   UNL A   1      38.531  31.403  31.784  1.00  0.00     0.074 A 
ATOM     52  C   UNL A   1      38.225  32.944  33.691  1.00  0.00     0.049 A 
ATOM     53  N   UNL A   1      39.550  30.694  32.197  1.00  0.00    -0.248 NA
ATOM     54  C   UNL A   1      38.007  30.992  30.472  1.00  0.00     0.031 C 
ATOM     55  C   UNL A   1      37.586  33.998  34.483  1.00  0.00     0.029 A 
ATOM     56  N   UNL A   1      39.257  32.513  34.485  1.00  0.00    -0.354 N 
ATOM     57  C   UNL A   1      39.779  29.747  31.207  1.00  0.00     0.074 A 
ATOM     58  C   UNL A   1      38.757  29.935  30.201  1.00  0.00     0.031 C 
ATOM     59  C   UNL A   1      38.251  34.144  35.639  1.00  0.00     0.029 A 
ATOM     60  C   UNL A   1      39.338  33.170  35.690  1.00  0.00     0.049 A 
ATOM     61  H   UNL A   1      39.881  31.801  34.217  1.00  0.00     0.167 HD
ATOM     62  C   UNL A   1      40.765  28.820  31.131  1.00  0.00     0.037 A 
ATOM     63  C   UNL A   1      40.184  33.001  36.726  1.00  0.00     0.037 A 
ATOM     64  C   UNL A   1      41.785  28.647  32.134  1.00  0.00     0.049 A 
ATOM     65  C   UNL A   1      41.270  31.966  36.626  1.00  0.00     0.074 A 
ATOM     66  C   UNL A   1      42.864  27.781  32.123  1.00  0.00     0.029 A 
ATOM     67  N   UNL A   1      41.846  29.346  33.332  1.00  0.00    -0.354 N 
ATOM     68  N   UNL A   1      41.521  31.129  35.647  1.00  0.00    -0.248 NA
ATOM     69  C   UNL A   1      42.193  31.858  37.763  1.00  0.00     0.031 C 
ATOM     70  C   UNL A   1      43.544  27.915  33.340  1.00  0.00     0.029 A 
ATOM     71  C   UNL A   1      42.927  28.910  34.082  1.00  0.00     0.049 A 
ATOM     72  H   UNL A   1      41.214  30.048  33.609  1.00  0.00     0.167 HD
ATOM     73  C   UNL A   1      42.644  30.411  36.039  1.00  0.00     0.074 A 
ATOM     74  C   UNL A   1      43.030  30.920  37.340  1.00  0.00     0.031 C 
ATOM     75  C   UNL A   1      43.299  29.422  35.379  1.00  0.00     0.037 A 
BRANCH  62  76
ATOM     76  C   UNL A   1      40.774  27.914  29.928  1.00  0.00     0.058 A 
ATOM     77  C   UNL A   1      39.824  26.892  29.761  1.00  0.00     0.135 A 
ATOM     78  C   UNL A   1      41.745  28.069  28.924  1.00  0.00     0.135 A 
ATOM     79  F   UNL A   1      38.879  26.689  30.693  1.00  0.00    -0.206 F 
ATOM     80  C   UNL A   1      39.868  26.024  28.674  1.00  0.00     0.059 A 
ATOM     81  C   UNL A   1      41.787  27.235  27.810  1.00  0.00     0.059 A 
ATOM     82  F   UNL A   1      42.675  29.031  29.026  1.00  0.00    -0.206 F 
ATOM     83  C   UNL A   1      40.858  26.200  27.707  1.00  0.00     0.060 A 
BRANCH  83  84
ATOM     84  S   UNL A   1      40.921  25.048  26.319  1.00  0.00     0.124 S 
ATOM     85  O   UNL A   1      41.878  24.059  26.807  1.00  0.00    -0.237 OA
ATOM     86  O   UNL A   1      39.537  24.596  26.224  1.00  0.00    -0.237 OA
ATOM     87  O   UNL A   1      41.384  25.875  25.209  1.00  0.00    -0.744 OA
ENDBRANCH  83  84
ENDBRANCH  62  76
BRANCH  63  88
ATOM     88  C   UNL A   1      40.041  33.859  37.933  1.00  0.00     0.058 A 
ATOM     89  C   UNL A   1      39.195  33.487  38.988  1.00  0.00     0.135 A 
ATOM     90  C   UNL A   1      40.791  35.036  38.080  1.00  0.00     0.135 A 
ATOM     91  F   UNL A   1      38.450  32.374  38.891  1.00  0.00    -0.206 F 
ATOM     92  C   UNL A   1      39.098  34.250  40.147  1.00  0.00     0.059 A 
ATOM     93  C   UNL A   1      40.730  35.802  39.241  1.00  0.00     0.059 A 
ATOM     94  F   UNL A   1      41.627  35.427  37.107  1.00  0.00    -0.206 F 
ATOM     95  C   UNL A   1      39.879  35.400  40.269  1.00  0.00     0.060 A 
BRANCH  95  96
ATOM     96  S   UNL A   1      39.812  36.331  41.815  1.00  0.00     0.124 S 
ATOM     97  O   UNL A   1      39.134  37.552  41.395  1.00  0.00    -0.237 OA
ATOM     98  O   UNL A   1      39.045  35.437  42.676  1.00  0.00    -0.237 OA
ATOM     99  O   UNL A   1      41.219  36.483  42.177  1.00  0.00    -0.744 OA
ENDBRANCH  95  96
ENDBRANCH  63  88
BRANCH  75 100
ATOM    100  C   UNL A   1      44.521  28.839  36.037  1.00  0.00     0.058 A 
ATOM    101  C   UNL A   1      45.800  29.383  35.840  1.00  0.00     0.135 A 
ATOM    102  C   UNL A   1      44.402  27.752  36.920  1.00  0.00     0.135 A 
ATOM    103  F   UNL A   1      45.974  30.416  35.001  1.00  0.00    -0.206 F 
ATOM    104  C   UNL A   1      46.920  28.858  36.478  1.00  0.00     0.059 A 
ATOM    105  C   UNL A   1      45.502  27.231  37.592  1.00  0.00     0.059 A 
ATOM    106  F   UNL A   1      43.201  27.198  37.152  1.00  0.00    -0.206 F 
ATOM    107  C   UNL A   1      46.760  27.784  37.356  1.00  0.00     0.060 A 
BRANCH 107 108
ATOM    108  S   UNL A   1      48.216  27.135  38.205  1.00  0.00     0.124 S 
ATOM    109  O   UNL A   1      48.741  28.336  38.848  1.00  0.00    -0.237 OA
ATOM    110  O   UNL A   1      47.637  26.138  39.099  1.00  0.00    -0.237 OA
ATOM    111  O   UNL A   1      49.031  26.598  37.119  1.00  0.00    -0.744 OA
ENDBRANCH 107 108
ENDBRANCH  75 100
ENDBRANCH  49  50
ENDBRANCH  41  44
ENDBRANCH  39  40
ENDBRANCH  38  39
ENDBRANCH  37  38
ENDBRANCH   1  37
TORSDOF 20
ENDMDL
MODEL 2
REMARK VINA RESULT:     -11.9      5.915     10.157
REMARK SMILES C[C@@H](Oc1ccc(/C=C2\C(=O)[NH+]=C(NCCCCCCNC(=O)c3ccc(-c4c5nc(c(-c6c(F)cc(S(=O)(=O)[O-])cc6F)c6ccc([nH]6)c(-c6c(F)cc(S(=O)(=O)[O-])cc6F)c6nc(c(-c7c(F)cc(S(=O)(=O)[O-])cc7F)c7ccc4[nH]7)C=C6)C=C5)cc3)N(c3ccc4c(c3)OCO4)C2=O)cc1)C(=O)[O-]
REMARK SMILES IDX 17 1 16 2 15 3 14 4 8 5 9 6 10 7 100 8 11 9 12 10 90 11
REMARK SMILES IDX 101 12 13 13 7 16 4 17 5 18 103 19 6 20 102 21 3 22 2 23
REMARK SMILES IDX 1 24 104 25 105 26 106 27 91 28 92 29 96 30 93 31 95 32
REMARK SMILES IDX 94 33 97 34 99 35 98 36 18 37 19 38 20 39 21 40 22 41 23 43
REMARK SMILES IDX 24 44 25 45 89 46 26 47 88 48 27 49 28 50 29 51 82 52 30 53
REMARK SMILES IDX 87 54 81 55 83 56 31 57 86 58 80 59 79 60 32 62 66 63 45 64
REMARK SMILES IDX 65 65 46 66 49 67 64 68 84 69 47 70 48 71 63 73 85 74 50 75
REMARK SMILES IDX 33 76 34 77 43 78 35 79 36 80 42 81 44 82 37 83 38 84 39 85
REMARK SMILES IDX 40 86 41 87 67 88 68 89 77 90 69 91 70 92 76 93 78 94 71 95
REMARK SMILES IDX 72 96 73 97 74 98 75 99 51 100 52 101 61 102 53 103 54 104
REMARK SMILES IDX 60 105 62 106 55 107 56 108 57 109 58 110 59 111
REMARK H PARENT 12 14 14 15 21 42 83 61 49 72
REMARK Flexibility Score: inf
ROOT
ATOM      1  C   UNL A   1      33.365  30.606  27.427  1.00  0.00     0.003 C 
ENDROOT
BRANCH   1   2
ATOM      2  C   UNL A   1      34.278  29.395  27.193  1.00  0.00     0.037 C 
BRANCH   2   3
ATOM      3  C   UNL A   1      34.445  29.016  25.724  1.00  0.00     0.197 C 
BRANCH   3   4
ATOM      4  N   UNL A   1      33.150  28.722  25.146  1.00  0.00    -0.277 N 
ATOM      5  C   UNL A   1      31.352  23.809  24.224  1.00  0.00     0.031 C 
ATOM      6  C   UNL A   1      31.925  25.010  24.023  1.00  0.00     0.138 C 
ATOM      7  C   UNL A   1      33.361  25.320  24.090  1.00  0.00     0.321 C 
ATOM      8  C   UNL A   1      31.024  26.132  23.703  1.00  0.00     0.328 C 
ATOM      9  O   UNL A   1      34.218  24.534  23.704  1.00  0.00    -0.250 OA
ATOM     10  N   UNL A   1      33.654  26.538  24.626  1.00  0.00    -0.210 N 
ATOM     11  N   UNL A   1      31.550  27.380  24.012  1.00  0.00    -0.162 N 
ATOM     12  O   UNL A   1      29.904  25.934  23.227  1.00  0.00    -0.249 OA
ATOM     13  C   UNL A   1      32.809  27.521  24.582  1.00  0.00     0.366 C 
ATOM     14  H   UNL A   1      34.529  26.675  25.059  1.00  0.00     0.270 HD
ATOM     15  H   UNL A   1      32.469  29.433  25.159  1.00  0.00     0.260 HD
BRANCH   5  16
ATOM     16  C   UNL A   1      31.956  22.527  24.616  1.00  0.00    -0.024 A 
ATOM     17  C   UNL A   1      32.938  19.973  25.257  1.00  0.00     0.120 A 
ATOM     18  C   UNL A   1      32.906  20.973  26.226  1.00  0.00     0.047 A 
ATOM     19  C   UNL A   1      32.434  20.228  23.986  1.00  0.00     0.047 A 
ATOM     20  C   UNL A   1      32.406  22.241  25.909  1.00  0.00     0.012 A 
ATOM     21  C   UNL A   1      31.960  21.500  23.664  1.00  0.00     0.012 A 
BRANCH  17  22
ATOM     22  O   UNL A   1      33.328  18.722  25.641  1.00  0.00    -0.485 OA
BRANCH  22  23
ATOM     23  C   UNL A   1      32.904  17.673  24.761  1.00  0.00     0.216 C 
ATOM     24  C   UNL A   1      32.441  16.435  25.526  1.00  0.00     0.059 C 
BRANCH  23  25
ATOM     25  C   UNL A   1      34.095  17.256  23.904  1.00  0.00     0.082 C 
ATOM     26  O   UNL A   1      35.262  17.225  24.267  1.00  0.00    -0.546 OA
ATOM     27  O   UNL A   1      33.785  16.998  22.615  1.00  0.00    -0.546 OA
ENDBRANCH  23  25
ENDBRANCH  22  23
ENDBRANCH  17  22
ENDBRANCH   5  16
BRANCH  11  28
ATOM     28  C   UNL A   1      30.695  28.491  23.802  1.00  0.00     0.115 A 
ATOM     29  C   UNL A   1      30.770  29.606  24.664  1.00  0.00     0.048 A 
ATOM     30  C   UNL A   1      29.922  28.534  22.635  1.00  0.00     0.094 A 
ATOM     31  C   UNL A   1      30.120  30.799  24.327  1.00  0.00     0.054 A 
ATOM     32  C   UNL A   1      29.315  29.726  22.325  1.00  0.00     0.169 A 
ATOM     33  C   UNL A   1      29.427  30.834  23.135  1.00  0.00     0.166 A 
ATOM     34  O   UNL A   1      28.622  29.983  21.183  1.00  0.00    -0.453 OA
ATOM     35  O   UNL A   1      28.832  31.926  22.583  1.00  0.00    -0.454 OA
ATOM     36  C   UNL A   1      28.533  31.420  21.265  1.00  0.00     0.468 C 
ENDBRANCH  11  28
ENDBRANCH   3   4
ENDBRANCH   2   3
ENDBRANCH   1   2
BRANCH   1  37
ATOM     37  C   UNL A   1      34.060  31.843  28.006  1.00  0.00     0.002 C 
BRANCH  37  38
ATOM     38  C   UNL A   1      35.542  31.977  27.652  1.00  0.00     0.021 C 
BRANCH  38  39
ATOM     39  C   UNL A   1      36.437  32.386  28.817  1.00  0.00     0.116 C 
BRANCH  39  40
ATOM     40  N   UNL A   1      36.035  31.755  30.064  1.00  0.00    -0.352 N 
ATOM     41  C   UNL A   1      36.593  30.681  30.712  1.00  0.00     0.251 C 
ATOM     42  H   UNL A   1      35.250  32.155  30.505  1.00  0.00     0.163 HD
ATOM     43  O   UNL A   1      36.005  30.161  31.656  1.00  0.00    -0.269 OA
BRANCH  41  44
ATOM     44  C   UNL A   1      37.893  30.142  30.257  1.00  0.00     0.039 A 
ATOM     45  C   UNL A   1      38.099  29.936  28.891  1.00  0.00     0.014 A 
ATOM     46  C   UNL A   1      38.907  29.848  31.173  1.00  0.00     0.014 A 
ATOM     47  C   UNL A   1      39.343  29.489  28.440  1.00  0.00     0.010 A 
ATOM     48  C   UNL A   1      40.169  29.479  30.716  1.00  0.00     0.010 A 
ATOM     49  C   UNL A   1      40.400  29.290  29.345  1.00  0.00    -0.014 A 
BRANCH  49  50
ATOM     50  C   UNL A   1      41.751  28.891  28.875  1.00  0.00     0.031 A 
ATOM     51  C   UNL A   1      42.847  29.915  28.756  1.00  0.00     0.074 A 
ATOM     52  C   UNL A   1      41.973  27.619  28.490  1.00  0.00     0.049 A 
ATOM     53  N   UNL A   1      44.070  29.770  28.313  1.00  0.00    -0.248 NA
ATOM     54  C   UNL A   1      42.514  31.290  29.160  1.00  0.00     0.031 C 
ATOM     55  C   UNL A   1      40.976  26.546  28.506  1.00  0.00     0.029 A 
ATOM     56  N   UNL A   1      43.102  27.015  27.997  1.00  0.00    -0.354 N 
ATOM     57  C   UNL A   1      44.646  31.033  28.372  1.00  0.00     0.074 A 
ATOM     58  C   UNL A   1      43.621  31.942  28.837  1.00  0.00     0.031 C 
ATOM     59  C   UNL A   1      41.542  25.413  28.064  1.00  0.00     0.029 A 
ATOM     60  C   UNL A   1      42.929  25.685  27.694  1.00  0.00     0.049 A 
ATOM     61  H   UNL A   1      43.956  27.488  27.872  1.00  0.00     0.167 HD
ATOM     62  C   UNL A   1      45.919  31.398  28.086  1.00  0.00     0.037 A 
ATOM     63  C   UNL A   1      43.784  24.786  27.168  1.00  0.00     0.037 A 
ATOM     64  C   UNL A   1      46.935  30.483  27.632  1.00  0.00     0.049 A 
ATOM     65  C   UNL A   1      45.193  25.210  26.855  1.00  0.00     0.074 A 
ATOM     66  C   UNL A   1      48.271  30.740  27.376  1.00  0.00     0.029 A 
ATOM     67  N   UNL A   1      46.727  29.138  27.358  1.00  0.00    -0.354 N 
ATOM     68  N   UNL A   1      45.745  26.392  26.989  1.00  0.00    -0.248 NA
ATOM     69  C   UNL A   1      46.096  24.179  26.329  1.00  0.00     0.031 C 
ATOM     70  C   UNL A   1      48.856  29.564  26.891  1.00  0.00     0.029 A 
ATOM     71  C   UNL A   1      47.902  28.559  26.905  1.00  0.00     0.049 A 
ATOM     72  H   UNL A   1      45.871  28.667  27.467  1.00  0.00     0.167 HD
ATOM     73  C   UNL A   1      47.067  26.242  26.586  1.00  0.00     0.074 A 
ATOM     74  C   UNL A   1      47.233  24.852  26.214  1.00  0.00     0.031 C 
ATOM     75  C   UNL A   1      48.054  27.172  26.533  1.00  0.00     0.037 A 
BRANCH  62  76
ATOM     76  C   UNL A   1      46.275  32.854  28.242  1.00  0.00     0.058 A 
ATOM     77  C   UNL A   1      46.069  33.784  27.209  1.00  0.00     0.135 A 
ATOM     78  C   UNL A   1      46.829  33.329  29.443  1.00  0.00     0.135 A 
ATOM     79  F   UNL A   1      45.552  33.386  26.035  1.00  0.00    -0.206 F 
ATOM     80  C   UNL A   1      46.447  35.117  27.340  1.00  0.00     0.059 A 
ATOM     81  C   UNL A   1      47.183  34.665  29.609  1.00  0.00     0.059 A 
ATOM     82  F   UNL A   1      47.044  32.488  30.467  1.00  0.00    -0.206 F 
ATOM     83  C   UNL A   1      47.009  35.546  28.542  1.00  0.00     0.060 A 
BRANCH  83  84
ATOM     84  S   UNL A   1      47.523  37.270  28.686  1.00  0.00     0.124 S 
ATOM     85  O   UNL A   1      48.536  37.359  27.638  1.00  0.00    -0.237 OA
ATOM     86  O   UNL A   1      46.280  37.990  28.426  1.00  0.00    -0.237 OA
ATOM     87  O   UNL A   1      48.024  37.365  30.053  1.00  0.00    -0.744 OA
ENDBRANCH  83  84
ENDBRANCH  62  76
BRANCH  63  88
ATOM     88  C   UNL A   1      43.325  23.390  26.934  1.00  0.00     0.058 A 
ATOM     89  C   UNL A   1      43.102  22.911  25.635  1.00  0.00     0.135 A 
ATOM     90  C   UNL A   1      43.158  22.493  28.000  1.00  0.00     0.135 A 
ATOM     91  F   UNL A   1      43.241  23.733  24.583  1.00  0.00    -0.206 F 
ATOM     92  C   UNL A   1      42.731  21.592  25.399  1.00  0.00     0.059 A 
ATOM     93  C   UNL A   1      42.812  21.162  27.787  1.00  0.00     0.059 A 
ATOM     94  F   UNL A   1      43.375  22.897  29.260  1.00  0.00    -0.206 F 
ATOM     95  C   UNL A   1      42.599  20.720  26.482  1.00  0.00     0.060 A 
BRANCH  95  96
ATOM     96  S   UNL A   1      42.206  18.989  26.156  1.00  0.00     0.124 S 
ATOM     97  O   UNL A   1      42.517  18.369  27.439  1.00  0.00    -0.237 OA
ATOM     98  O   UNL A   1      40.791  19.059  25.805  1.00  0.00    -0.237 OA
ATOM     99  O   UNL A   1      43.101  18.642  25.055  1.00  0.00    -0.744 OA
ENDBRANCH  95  96
ENDBRANCH  63  88
BRANCH  75 100
ATOM    100  C   UNL A   1      49.416  26.715  26.083  1.00  0.00     0.058 A 
ATOM    101  C   UNL A   1      49.863  26.901  24.766  1.00  0.00     0.135 A 
ATOM    102  C   UNL A   1      50.307  26.132  26.999  1.00  0.00     0.135 A 
ATOM    103  F   UNL A   1      49.051  27.447  23.846  1.00  0.00    -0.206 F 
ATOM    104  C   UNL A   1      51.136  26.507  24.367  1.00  0.00     0.059 A 
ATOM    105  C   UNL A   1      51.595  25.757  26.631  1.00  0.00     0.059 A 
ATOM    106  F   UNL A   1      49.935  25.938  28.275  1.00  0.00    -0.206 F 
ATOM    107  C   UNL A   1      51.998  25.939  25.308  1.00  0.00     0.060 A 
BRANCH 107 108
ATOM    108  S   UNL A   1      53.659  25.463  24.786  1.00  0.00     0.124 S 
ATOM    109  O   UNL A   1      53.567  24.006  24.801  1.00  0.00    -0.237 OA
ATOM    110  O   UNL A   1      53.760  26.079  23.467  1.00  0.00    -0.237 OA
ATOM    111  O   UNL A   1      54.518  26.047  25.812  1.00  0.00    -0.744 OA
ENDBRANCH 107 108
ENDBRANCH  75 100
ENDBRANCH  49  50
ENDBRANCH  41  44
ENDBRANCH  39  40
ENDBRANCH  38  39
ENDBRANCH  37  38
ENDBRANCH   1  37
TORSDOF 20
ENDMDL
MODEL 3
REMARK VINA RESULT:     -11.8      5.836      8.171
REMARK SMILES C[C@@H](Oc1ccc(/C=C2\C(=O)[NH+]=C(NCCCCCCNC(=O)c3ccc(-c4c5nc(c(-c6c(F)cc(S(=O)(=O)[O-])cc6F)c6ccc([nH]6)c(-c6c(F)cc(S(=O)(=O)[O-])cc6F)c6nc(c(-c7c(F)cc(S(=O)(=O)[O-])cc7F)c7ccc4[nH]7)C=C6)C=C5)cc3)N(c3ccc4c(c3)OCO4)C2=O)cc1)C(=O)[O-]
REMARK SMILES IDX 17 1 16 2 15 3 14 4 8 5 9 6 10 7 100 8 11 9 12 10 90 11
REMARK SMILES IDX 101 12 13 13 7 16 4 17 5 18 103 19 6 20 102 21 3 22 2 23
REMARK SMILES IDX 1 24 104 25 105 26 106 27 91 28 92 29 96 30 93 31 95 32
REMARK SMILES IDX 94 33 97 34 99 35 98 36 18 37 19 38 20 39 21 40 22 41 23 43
REMARK SMILES IDX 24 44 25 45 89 46 26 47 88 48 27 49 28 50 29 51 82 52 30 53
REMARK SMILES IDX 87 54 81 55 83 56 31 57 86 58 80 59 79 60 32 62 66 63 45 64
REMARK SMILES IDX 65 65 46 66 49 67 64 68 84 69 47 70 48 71 63 73 85 74 50 75
REMARK SMILES IDX 33 76 34 77 43 78 35 79 36 80 42 81 44 82 37 83 38 84 39 85
REMARK SMILES IDX 40 86 41 87 67 88 68 89 77 90 69 91 70 92 76 93 78 94 71 95
REMARK SMILES IDX 72 96 73 97 74 98 75 99 51 100 52 101 61 102 53 103 54 104
REMARK SMILES IDX 60 105 62 106 55 107 56 108 57 109 58 110 59 111
REMARK H PARENT 12 14 14 15 21 42 83 61 49 72
REMARK Flexibility Score: inf
ROOT
ATOM      1  C   UNL A   1      33.525  30.276  27.322  1.00  0.00     0.003 C 
ENDROOT
BRANCH   1   2
ATOM      2  C   UNL A   1      34.485  29.130  26.973  1.00  0.00     0.037 C 
BRANCH   2   3
ATOM      3  C   UNL A   1      34.589  28.839  25.478  1.00  0.00     0.197 C 
BRANCH   3   4
ATOM      4  N   UNL A   1      33.278  28.527  24.949  1.00  0.00    -0.277 N 
ATOM      5  C   UNL A   1      31.567  23.596  23.961  1.00  0.00     0.031 C 
ATOM      6  C   UNL A   1      32.099  24.817  23.771  1.00  0.00     0.138 C 
ATOM      7  C   UNL A   1      33.528  25.164  23.785  1.00  0.00     0.321 C 
ATOM      8  C   UNL A   1      31.156  25.924  23.525  1.00  0.00     0.328 C 
ATOM      9  O   UNL A   1      34.387  24.413  23.338  1.00  0.00    -0.250 OA
ATOM     10  N   UNL A   1      33.814  26.373  24.343  1.00  0.00    -0.210 N 
ATOM     11  N   UNL A   1      31.664  27.175  23.848  1.00  0.00    -0.162 N 
ATOM     12  O   UNL A   1      30.022  25.709  23.092  1.00  0.00    -0.249 OA
ATOM     13  C   UNL A   1      32.943  27.334  24.366  1.00  0.00     0.366 C 
ATOM     14  H   UNL A   1      34.703  26.521  24.741  1.00  0.00     0.270 HD
ATOM     15  H   UNL A   1      32.580  29.219  25.013  1.00  0.00     0.260 HD
BRANCH   5  16
ATOM     16  C   UNL A   1      32.219  22.320  24.288  1.00  0.00    -0.024 A 
ATOM     17  C   UNL A   1      33.283  19.776  24.831  1.00  0.00     0.120 A 
ATOM     18  C   UNL A   1      33.385  20.792  25.778  1.00  0.00     0.047 A 
ATOM     19  C   UNL A   1      32.608  20.010  23.638  1.00  0.00     0.047 A 
ATOM     20  C   UNL A   1      32.845  22.055  25.511  1.00  0.00     0.012 A 
ATOM     21  C   UNL A   1      32.092  21.277  23.362  1.00  0.00     0.012 A 
BRANCH  17  22
ATOM     22  O   UNL A   1      33.724  18.531  25.178  1.00  0.00    -0.485 OA
BRANCH  22  23
ATOM     23  C   UNL A   1      32.970  17.454  24.606  1.00  0.00     0.216 C 
ATOM     24  C   UNL A   1      32.427  16.505  25.671  1.00  0.00     0.059 C 
BRANCH  23  25
ATOM     25  C   UNL A   1      33.900  16.643  23.709  1.00  0.00     0.082 C 
ATOM     26  O   UNL A   1      34.129  16.864  22.528  1.00  0.00    -0.546 OA
ATOM     27  O   UNL A   1      34.414  15.542  24.298  1.00  0.00    -0.546 OA
ENDBRANCH  23  25
ENDBRANCH  22  23
ENDBRANCH  17  22
ENDBRANCH   5  16
BRANCH  11  28
ATOM     28  C   UNL A   1      30.772  28.269  23.708  1.00  0.00     0.115 A 
ATOM     29  C   UNL A   1      30.830  29.342  24.623  1.00  0.00     0.048 A 
ATOM     30  C   UNL A   1      29.975  28.346  22.559  1.00  0.00     0.094 A 
ATOM     31  C   UNL A   1      30.139  30.530  24.358  1.00  0.00     0.054 A 
ATOM     32  C   UNL A   1      29.327  29.532  22.319  1.00  0.00     0.169 A 
ATOM     33  C   UNL A   1      29.422  30.602  23.182  1.00  0.00     0.166 A 
ATOM     34  O   UNL A   1      28.605  29.824  21.205  1.00  0.00    -0.453 OA
ATOM     35  O   UNL A   1      28.785  31.702  22.696  1.00  0.00    -0.454 OA
ATOM     36  C   UNL A   1      28.475  31.252  21.360  1.00  0.00     0.468 C 
ENDBRANCH  11  28
ENDBRANCH   3   4
ENDBRANCH   2   3
ENDBRANCH   1   2
BRANCH   1  37
ATOM     37  C   UNL A   1      34.199  31.566  27.799  1.00  0.00     0.002 C 
BRANCH  37  38
ATOM     38  C   UNL A   1      35.727  31.519  27.846  1.00  0.00     0.021 C 
BRANCH  38  39
ATOM     39  C   UNL A   1      36.346  32.223  29.049  1.00  0.00     0.116 C 
BRANCH  39  40
ATOM     40  N   UNL A   1      36.050  31.538  30.296  1.00  0.00    -0.352 N 
ATOM     41  C   UNL A   1      36.702  30.480  30.880  1.00  0.00     0.251 C 
ATOM     42  H   UNL A   1      35.271  31.881  30.793  1.00  0.00     0.163 HD
ATOM     43  O   UNL A   1      36.198  29.902  31.838  1.00  0.00    -0.269 OA
BRANCH  41  44
ATOM     44  C   UNL A   1      38.001  30.027  30.337  1.00  0.00     0.039 A 
ATOM     45  C   UNL A   1      38.182  29.994  28.952  1.00  0.00     0.014 A 
ATOM     46  C   UNL A   1      39.040  29.643  31.190  1.00  0.00     0.014 A 
ATOM     47  C   UNL A   1      39.424  29.631  28.426  1.00  0.00     0.010 A 
ATOM     48  C   UNL A   1      40.298  29.358  30.667  1.00  0.00     0.010 A 
ATOM     49  C   UNL A   1      40.503  29.344  29.279  1.00  0.00    -0.014 A 
BRANCH  49  50
ATOM     50  C   UNL A   1      41.851  29.033  28.738  1.00  0.00     0.031 A 
ATOM     51  C   UNL A   1      42.179  27.641  28.270  1.00  0.00     0.074 A 
ATOM     52  C   UNL A   1      42.802  29.987  28.733  1.00  0.00     0.049 A 
ATOM     53  N   UNL A   1      43.312  27.165  27.822  1.00  0.00    -0.248 NA
ATOM     54  C   UNL A   1      41.097  26.646  28.343  1.00  0.00     0.031 C 
ATOM     55  C   UNL A   1      42.623  31.360  29.213  1.00  0.00     0.029 A 
ATOM     56  N   UNL A   1      44.111  29.947  28.325  1.00  0.00    -0.354 N 
ATOM     57  C   UNL A   1      43.085  25.817  27.574  1.00  0.00     0.074 A 
ATOM     58  C   UNL A   1      41.724  25.538  27.978  1.00  0.00     0.031 C 
ATOM     59  C   UNL A   1      43.772  32.034  29.052  1.00  0.00     0.029 A 
ATOM     60  C   UNL A   1      44.780  31.135  28.497  1.00  0.00     0.049 A 
ATOM     61  H   UNL A   1      44.532  29.143  27.943  1.00  0.00     0.167 HD
ATOM     62  C   UNL A   1      43.927  24.900  27.038  1.00  0.00     0.037 A 
ATOM     63  C   UNL A   1      46.063  31.465  28.249  1.00  0.00     0.037 A 
ATOM     64  C   UNL A   1      45.278  25.190  26.631  1.00  0.00     0.049 A 
ATOM     65  C   UNL A   1      46.984  30.433  27.656  1.00  0.00     0.074 A 
ATOM     66  C   UNL A   1      46.191  24.349  26.019  1.00  0.00     0.029 A 
ATOM     67  N   UNL A   1      45.914  26.412  26.802  1.00  0.00    -0.354 N 
ATOM     68  N   UNL A   1      46.732  29.181  27.356  1.00  0.00    -0.248 NA
ATOM     69  C   UNL A   1      48.357  30.859  27.361  1.00  0.00     0.031 C 
ATOM     70  C   UNL A   1      47.397  25.045  25.875  1.00  0.00     0.029 A 
ATOM     71  C   UNL A   1      47.217  26.339  26.337  1.00  0.00     0.049 A 
ATOM     72  H   UNL A   1      45.500  27.212  27.198  1.00  0.00     0.167 HD
ATOM     73  C   UNL A   1      47.907  28.675  26.814  1.00  0.00     0.074 A 
ATOM     74  C   UNL A   1      48.867  29.761  26.818  1.00  0.00     0.031 C 
ATOM     75  C   UNL A   1      48.166  27.427  26.351  1.00  0.00     0.037 A 
BRANCH  62  76
ATOM     76  C   UNL A   1      43.409  23.494  26.879  1.00  0.00     0.058 A 
ATOM     77  C   UNL A   1      43.326  22.606  27.964  1.00  0.00     0.135 A 
ATOM     78  C   UNL A   1      42.989  23.026  25.622  1.00  0.00     0.135 A 
ATOM     79  F   UNL A   1      43.724  22.993  29.187  1.00  0.00    -0.206 F 
ATOM     80  C   UNL A   1      42.897  21.292  27.802  1.00  0.00     0.059 A 
ATOM     81  C   UNL A   1      42.523  21.726  25.443  1.00  0.00     0.059 A 
ATOM     82  F   UNL A   1      43.040  23.830  24.549  1.00  0.00    -0.206 F 
ATOM     83  C   UNL A   1      42.503  20.860  26.535  1.00  0.00     0.060 A 
BRANCH  83  84
ATOM     84  S   UNL A   1      41.979  19.145  26.334  1.00  0.00     0.124 S 
ATOM     85  O   UNL A   1      42.941  18.661  25.349  1.00  0.00    -0.237 OA
ATOM     86  O   UNL A   1      42.132  18.611  27.684  1.00  0.00    -0.237 OA
ATOM     87  O   UNL A   1      40.602  19.261  25.863  1.00  0.00    -0.744 OA
ENDBRANCH  83  84
ENDBRANCH  62  76
BRANCH  63  88
ATOM     88  C   UNL A   1      46.533  32.845  28.541  1.00  0.00     0.058 A 
ATOM     89  C   UNL A   1      47.113  33.165  29.777  1.00  0.00     0.135 A 
ATOM     90  C   UNL A   1      46.466  33.856  27.569  1.00  0.00     0.135 A 
ATOM     91  F   UNL A   1      47.193  32.235  30.742  1.00  0.00    -0.206 F 
ATOM     92  C   UNL A   1      47.611  34.437  30.041  1.00  0.00     0.059 A 
ATOM     93  C   UNL A   1      46.980  35.128  27.800  1.00  0.00     0.059 A 
ATOM     94  F   UNL A   1      45.936  33.596  26.364  1.00  0.00    -0.206 F 
ATOM     95  C   UNL A   1      47.551  35.409  29.041  1.00  0.00     0.060 A 
BRANCH  95  96
ATOM     96  S   UNL A   1      48.282  37.028  29.363  1.00  0.00     0.124 S 
ATOM     97  O   UNL A   1      47.102  37.830  29.666  1.00  0.00    -0.237 OA
ATOM     98  O   UNL A   1      49.168  36.744  30.488  1.00  0.00    -0.237 OA
ATOM     99  O   UNL A   1      48.957  37.348  28.109  1.00  0.00    -0.744 OA
ENDBRANCH  95  96
ENDBRANCH  63  88
BRANCH  75 100
ATOM    100  C   UNL A   1      49.535  27.166  25.781  1.00  0.00     0.058 A 
ATOM    101  C   UNL A   1      50.603  26.736  26.584  1.00  0.00     0.135 A 
ATOM    102  C   UNL A   1      49.766  27.297  24.402  1.00  0.00     0.135 A 
ATOM    103  F   UNL A   1      50.441  26.601  27.910  1.00  0.00    -0.206 F 
ATOM    104  C   UNL A   1      51.856  26.465  26.043  1.00  0.00     0.059 A 
ATOM    105  C   UNL A   1      51.002  27.002  23.834  1.00  0.00     0.059 A 
ATOM    106  F   UNL A   1      48.777  27.697  23.585  1.00  0.00    -0.206 F 
ATOM    107  C   UNL A   1      52.045  26.597  24.666  1.00  0.00     0.060 A 
BRANCH 107 108
ATOM    108  S   UNL A   1      53.666  26.209  23.972  1.00  0.00     0.124 S 
ATOM    109  O   UNL A   1      54.002  24.977  24.680  1.00  0.00    -0.237 OA
ATOM    110  O   UNL A   1      53.370  26.063  22.551  1.00  0.00    -0.237 OA
ATOM    111  O   UNL A   1      54.474  27.373  24.323  1.00  0.00    -0.744 OA
ENDBRANCH 107 108
ENDBRANCH  75 100
ENDBRANCH  49  50
ENDBRANCH  41  44
ENDBRANCH  39  40
ENDBRANCH  38  39
ENDBRANCH  37  38
ENDBRANCH   1  37
TORSDOF 20
ENDMDL
