MODEL 1
REMARK VINA RESULT:     -13.7      0.000      0.000
REMARK SMILES Cc1ccc([C@H](C)Nc2ccc(C(=O)NCCCCCCNC(=O)c3ccc(-c4c5nc(c(-c6c(F)cc(S(=O)(=O)[O-])cc6F)c6ccc([nH]6)c(-c6c(F)cc(S(=O)(=O)[O-])cc6F)c6nc(c(-c7c(F)cc(S(=O)(=O)[O-])cc7F)c7ccc4[nH]7)C=C6)C=C5)cc3)cc2Cl)cc1F
REMARK SMILES IDX 18 1 17 2 16 3 15 4 13 5 14 6 12 8 9 9 10 10 92 11 11 12
REMARK SMILES IDX 91 13 93 14 8 15 6 17 7 18 5 19 1 20 2 21 3 22 95 23 4 24
REMARK SMILES IDX 94 25 96 26 19 27 20 28 21 29 22 30 23 31 24 33 25 34 26 35
REMARK SMILES IDX 90 36 27 37 89 38 28 39 29 40 30 41 83 42 31 43 88 44 82 45
REMARK SMILES IDX 84 46 32 47 87 48 81 49 80 50 33 52 67 53 46 54 66 55 47 56
REMARK SMILES IDX 50 57 65 58 85 59 48 60 49 61 64 63 86 64 51 65 34 66 35 67
REMARK SMILES IDX 44 68 36 69 37 70 43 71 45 72 38 73 39 74 40 75 41 76 42 77
REMARK SMILES IDX 68 78 69 79 78 80 70 81 71 82 77 83 79 84 72 85 73 86 74 87
REMARK SMILES IDX 75 88 76 89 52 90 53 91 62 92 54 93 55 94 61 95 63 96 56 97
REMARK SMILES IDX 57 98 58 99 59 100 60 101
REMARK H PARENT 15 7 8 16 22 32 84 51 50 62
REMARK Flexibility Score: inf
ROOT
ATOM      1  C   UNL A   1      31.469  28.226  26.294  1.00  0.00     0.002 C 
ENDROOT
BRANCH   1   2
ATOM      2  C   UNL A   1      31.421  29.308  25.205  1.00  0.00     0.021 C 
BRANCH   2   3
ATOM      3  C   UNL A   1      31.085  28.764  23.811  1.00  0.00     0.116 C 
BRANCH   3   4
ATOM      4  N   UNL A   1      32.217  28.904  22.915  1.00  0.00    -0.352 N 
ATOM      5  C   UNL A   1      33.266  28.087  22.589  1.00  0.00     0.251 C 
ATOM      6  O   UNL A   1      34.069  28.504  21.751  1.00  0.00    -0.269 OA
ATOM      7  H   UNL A   1      32.234  29.768  22.441  1.00  0.00     0.163 HD
BRANCH   5   8
ATOM      8  C   UNL A   1      33.462  26.714  23.140  1.00  0.00     0.041 A 
ATOM      9  C   UNL A   1      33.986  24.151  24.317  1.00  0.00     0.053 A 
ATOM     10  C   UNL A   1      34.229  25.353  25.007  1.00  0.00     0.028 A 
ATOM     11  C   UNL A   1      33.498  24.279  23.004  1.00  0.00     0.065 A 
ATOM     12  C   UNL A   1      34.001  26.607  24.425  1.00  0.00     0.016 A 
ATOM     13  C   UNL A   1      33.151  25.534  22.477  1.00  0.00     0.036 A 
ATOM     14  Cl  UNL A   1      33.238  22.965  21.907  1.00  0.00    -0.082 Cl
BRANCH   9  15
ATOM     15  N   UNL A   1      34.277  22.989  25.007  1.00  0.00    -0.377 N 
ATOM     16  H   UNL A   1      35.233  22.803  25.147  1.00  0.00     0.161 HD
BRANCH  15  17
ATOM     17  C   UNL A   1      33.353  22.005  25.555  1.00  0.00     0.106 C 
ATOM     18  C   UNL A   1      31.962  22.663  25.532  1.00  0.00     0.036 C 
BRANCH  17  19
ATOM     19  C   UNL A   1      33.473  20.682  24.798  1.00  0.00    -0.023 A 
ATOM     20  C   UNL A   1      33.696  16.575  23.408  1.00  0.00     0.047 C 
ATOM     21  C   UNL A   1      33.633  18.018  23.804  1.00  0.00    -0.015 A 
ATOM     22  C   UNL A   1      32.503  18.804  23.562  1.00  0.00     0.007 A 
ATOM     23  C   UNL A   1      34.694  18.589  24.496  1.00  0.00     0.126 A 
ATOM     24  C   UNL A   1      32.423  20.116  24.056  1.00  0.00     0.006 A 
ATOM     25  C   UNL A   1      34.630  19.899  24.957  1.00  0.00     0.045 A 
ATOM     26  F   UNL A   1      35.791  17.865  24.759  1.00  0.00    -0.207 F 
ENDBRANCH  17  19
ENDBRANCH  15  17
ENDBRANCH   9  15
ENDBRANCH   5   8
ENDBRANCH   3   4
ENDBRANCH   2   3
ENDBRANCH   1   2
BRANCH   1  27
ATOM     27  C   UNL A   1      32.557  28.401  27.368  1.00  0.00     0.002 C 
BRANCH  27  28
ATOM     28  C   UNL A   1      33.536  29.544  27.130  1.00  0.00     0.021 C 
BRANCH  28  29
ATOM     29  C   UNL A   1      34.955  29.219  27.559  1.00  0.00     0.116 C 
BRANCH  29  30
ATOM     30  N   UNL A   1      35.433  30.161  28.572  1.00  0.00    -0.352 N 
ATOM     31  C   UNL A   1      36.406  30.014  29.522  1.00  0.00     0.251 C 
ATOM     32  H   UNL A   1      34.983  31.036  28.572  1.00  0.00     0.163 HD
ATOM     33  O   UNL A   1      36.481  30.733  30.516  1.00  0.00    -0.269 OA
BRANCH  31  34
ATOM     34  C   UNL A   1      37.533  29.110  29.206  1.00  0.00     0.039 A 
ATOM     35  C   UNL A   1      37.882  28.173  30.186  1.00  0.00     0.014 A 
ATOM     36  C   UNL A   1      38.375  29.377  28.133  1.00  0.00     0.014 A 
ATOM     37  C   UNL A   1      39.162  27.648  30.182  1.00  0.00     0.010 A 
ATOM     38  C   UNL A   1      39.689  29.005  28.228  1.00  0.00     0.010 A 
ATOM     39  C   UNL A   1      40.076  28.150  29.257  1.00  0.00    -0.014 A 
BRANCH  39  40
ATOM     40  C   UNL A   1      41.454  27.719  29.208  1.00  0.00     0.031 A 
ATOM     41  C   UNL A   1      41.683  26.354  28.722  1.00  0.00     0.074 A 
ATOM     42  C   UNL A   1      42.434  28.549  29.606  1.00  0.00     0.049 A 
ATOM     43  N   UNL A   1      42.570  25.552  29.186  1.00  0.00    -0.248 NA
ATOM     44  C   UNL A   1      40.828  25.756  27.698  1.00  0.00     0.031 C 
ATOM     45  C   UNL A   1      43.870  28.311  29.591  1.00  0.00     0.029 A 
ATOM     46  N   UNL A   1      42.271  29.713  30.359  1.00  0.00    -0.354 N 
ATOM     47  C   UNL A   1      42.605  24.467  28.336  1.00  0.00     0.074 A 
ATOM     48  C   UNL A   1      41.422  24.578  27.518  1.00  0.00     0.031 C 
ATOM     49  C   UNL A   1      44.427  29.087  30.539  1.00  0.00     0.029 A 
ATOM     50  C   UNL A   1      43.351  29.758  31.260  1.00  0.00     0.049 A 
ATOM     51  H   UNL A   1      41.544  30.372  30.276  1.00  0.00     0.167 HD
ATOM     52  C   UNL A   1      43.729  23.701  28.282  1.00  0.00     0.037 A 
ATOM     53  C   UNL A   1      43.076  29.610  32.591  1.00  0.00     0.037 A 
ATOM     54  C   UNL A   1      44.714  24.179  29.255  1.00  0.00     0.049 A 
ATOM     55  C   UNL A   1      43.520  28.268  33.154  1.00  0.00     0.074 A 
ATOM     56  C   UNL A   1      45.803  25.034  29.179  1.00  0.00     0.029 A 
ATOM     57  N   UNL A   1      44.394  24.110  30.599  1.00  0.00    -0.354 N 
ATOM     58  N   UNL A   1      44.088  27.319  32.453  1.00  0.00    -0.248 NA
ATOM     59  C   UNL A   1      43.338  27.877  34.553  1.00  0.00     0.031 C 
ATOM     60  C   UNL A   1      46.081  25.524  30.492  1.00  0.00     0.029 A 
ATOM     61  C   UNL A   1      45.175  24.955  31.368  1.00  0.00     0.049 A 
ATOM     62  H   UNL A   1      43.692  23.528  30.967  1.00  0.00     0.167 HD
ATOM     63  C   UNL A   1      44.327  26.228  33.247  1.00  0.00     0.074 A 
ATOM     64  C   UNL A   1      43.844  26.629  34.558  1.00  0.00     0.031 C 
ATOM     65  C   UNL A   1      44.881  25.063  32.791  1.00  0.00     0.037 A 
BRANCH  52  66
ATOM     66  C   UNL A   1      44.008  22.783  27.114  1.00  0.00     0.058 A 
ATOM     67  C   UNL A   1      43.182  21.671  26.866  1.00  0.00     0.135 A 
ATOM     68  C   UNL A   1      45.115  22.902  26.246  1.00  0.00     0.135 A 
ATOM     69  F   UNL A   1      42.038  21.488  27.538  1.00  0.00    -0.206 F 
ATOM     70  C   UNL A   1      43.495  20.692  25.922  1.00  0.00     0.059 A 
ATOM     71  C   UNL A   1      45.490  21.903  25.343  1.00  0.00     0.059 A 
ATOM     72  F   UNL A   1      45.853  24.023  26.208  1.00  0.00    -0.206 F 
ATOM     73  C   UNL A   1      44.671  20.795  25.189  1.00  0.00     0.060 A 
BRANCH  73  74
ATOM     74  S   UNL A   1      45.081  19.489  24.017  1.00  0.00     0.124 S 
ATOM     75  O   UNL A   1      44.436  18.323  24.610  1.00  0.00    -0.237 OA
ATOM     76  O   UNL A   1      44.479  19.993  22.787  1.00  0.00    -0.237 OA
ATOM     77  O   UNL A   1      46.543  19.463  24.035  1.00  0.00    -0.744 OA
ENDBRANCH  73  74
ENDBRANCH  52  66
BRANCH  53  78
ATOM     78  C   UNL A   1      41.917  30.464  33.013  1.00  0.00     0.058 A 
ATOM     79  C   UNL A   1      40.667  29.820  33.149  1.00  0.00     0.135 A 
ATOM     80  C   UNL A   1      42.064  31.690  33.680  1.00  0.00     0.135 A 
ATOM     81  F   UNL A   1      40.447  28.652  32.521  1.00  0.00    -0.206 F 
ATOM     82  C   UNL A   1      39.682  30.277  34.021  1.00  0.00     0.059 A 
ATOM     83  C   UNL A   1      41.088  32.165  34.574  1.00  0.00     0.059 A 
ATOM     84  F   UNL A   1      43.201  32.389  33.548  1.00  0.00    -0.206 F 
ATOM     85  C   UNL A   1      39.923  31.422  34.776  1.00  0.00     0.060 A 
BRANCH  85  86
ATOM     86  S   UNL A   1      38.780  31.808  36.133  1.00  0.00     0.124 S 
ATOM     87  O   UNL A   1      37.700  32.491  35.431  1.00  0.00    -0.237 OA
ATOM     88  O   UNL A   1      38.452  30.485  36.661  1.00  0.00    -0.237 OA
ATOM     89  O   UNL A   1      39.572  32.630  37.041  1.00  0.00    -0.744 OA
ENDBRANCH  85  86
ENDBRANCH  53  78
BRANCH  65  90
ATOM     90  C   UNL A   1      45.188  23.892  33.688  1.00  0.00     0.058 A 
ATOM     91  C   UNL A   1      46.486  23.624  34.150  1.00  0.00     0.135 A 
ATOM     92  C   UNL A   1      44.206  22.924  34.001  1.00  0.00     0.135 A 
ATOM     93  F   UNL A   1      47.502  24.451  33.855  1.00  0.00    -0.206 F 
ATOM     94  C   UNL A   1      46.780  22.498  34.921  1.00  0.00     0.059 A 
ATOM     95  C   UNL A   1      44.489  21.765  34.713  1.00  0.00     0.059 A 
ATOM     96  F   UNL A   1      42.920  23.089  33.659  1.00  0.00    -0.206 F 
ATOM     97  C   UNL A   1      45.773  21.577  35.201  1.00  0.00     0.060 A 
BRANCH  97  98
ATOM     98  S   UNL A   1      46.131  20.130  36.212  1.00  0.00     0.124 S 
ATOM     99  O   UNL A   1      45.375  19.075  35.543  1.00  0.00    -0.237 OA
ATOM    100  O   UNL A   1      47.583  20.045  36.086  1.00  0.00    -0.237 OA
ATOM    101  O   UNL A   1      45.633  20.508  37.531  1.00  0.00    -0.744 OA
ENDBRANCH  97  98
ENDBRANCH  65  90
ENDBRANCH  39  40
ENDBRANCH  31  34
ENDBRANCH  29  30
ENDBRANCH  28  29
ENDBRANCH  27  28
ENDBRANCH   1  27
TORSDOF 19
ENDMDL
MODEL 2
REMARK VINA RESULT:     -13.2      1.741      2.279
REMARK SMILES Cc1ccc([C@H](C)Nc2ccc(C(=O)NCCCCCCNC(=O)c3ccc(-c4c5nc(c(-c6c(F)cc(S(=O)(=O)[O-])cc6F)c6ccc([nH]6)c(-c6c(F)cc(S(=O)(=O)[O-])cc6F)c6nc(c(-c7c(F)cc(S(=O)(=O)[O-])cc7F)c7ccc4[nH]7)C=C6)C=C5)cc3)cc2Cl)cc1F
REMARK SMILES IDX 18 1 17 2 16 3 15 4 13 5 14 6 12 8 9 9 10 10 92 11 11 12
REMARK SMILES IDX 91 13 93 14 8 15 6 17 7 18 5 19 1 20 2 21 3 22 95 23 4 24
REMARK SMILES IDX 94 25 96 26 19 27 20 28 21 29 22 30 23 31 24 33 25 34 26 35
REMARK SMILES IDX 90 36 27 37 89 38 28 39 29 40 30 41 83 42 31 43 88 44 82 45
REMARK SMILES IDX 84 46 32 47 87 48 81 49 80 50 33 52 67 53 46 54 66 55 47 56
REMARK SMILES IDX 50 57 65 58 85 59 48 60 49 61 64 63 86 64 51 65 34 66 35 67
REMARK SMILES IDX 44 68 36 69 37 70 43 71 45 72 38 73 39 74 40 75 41 76 42 77
REMARK SMILES IDX 68 78 69 79 78 80 70 81 71 82 77 83 79 84 72 85 73 86 74 87
REMARK SMILES IDX 75 88 76 89 52 90 53 91 62 92 54 93 55 94 61 95 63 96 56 97
REMARK SMILES IDX 57 98 58 99 59 100 60 101
REMARK H PARENT 15 7 8 16 22 32 84 51 50 62
REMARK Flexibility Score: inf
ROOT
ATOM      1  C   UNL A   1      31.790  31.291  26.644  1.00  0.00     0.002 C 
ENDROOT
BRANCH   1   2
ATOM      2  C   UNL A   1      31.436  30.686  25.277  1.00  0.00     0.021 C 
BRANCH   2   3
ATOM      3  C   UNL A   1      30.010  31.002  24.813  1.00  0.00     0.116 C 
BRANCH   3   4
ATOM      4  N   UNL A   1      29.813  30.598  23.433  1.00  0.00    -0.352 N 
ATOM      5  C   UNL A   1      30.291  29.559  22.679  1.00  0.00     0.251 C 
ATOM      6  O   UNL A   1      29.903  29.482  21.511  1.00  0.00    -0.269 OA
ATOM      7  H   UNL A   1      29.210  31.196  22.935  1.00  0.00     0.163 HD
BRANCH   5   8
ATOM      8  C   UNL A   1      31.199  28.494  23.199  1.00  0.00     0.041 A 
ATOM      9  C   UNL A   1      33.060  26.478  24.034  1.00  0.00     0.053 A 
ATOM     10  C   UNL A   1      33.452  27.575  23.245  1.00  0.00     0.028 A 
ATOM     11  C   UNL A   1      31.695  26.411  24.366  1.00  0.00     0.065 A 
ATOM     12  C   UNL A   1      32.541  28.547  22.811  1.00  0.00     0.016 A 
ATOM     13  C   UNL A   1      30.815  27.455  24.037  1.00  0.00     0.036 A 
ATOM     14  Cl  UNL A   1      30.942  25.104  25.216  1.00  0.00    -0.082 Cl
BRANCH   9  15
ATOM     15  N   UNL A   1      34.063  25.587  24.370  1.00  0.00    -0.377 N 
ATOM     16  H   UNL A   1      34.853  25.978  24.807  1.00  0.00     0.161 HD
BRANCH  15  17
ATOM     17  C   UNL A   1      34.101  24.146  24.161  1.00  0.00     0.106 C 
ATOM     18  C   UNL A   1      33.594  23.906  22.728  1.00  0.00     0.036 C 
BRANCH  17  19
ATOM     19  C   UNL A   1      35.496  23.600  24.470  1.00  0.00    -0.023 A 
ATOM     20  C   UNL A   1      39.088  21.734  26.040  1.00  0.00     0.047 C 
ATOM     21  C   UNL A   1      37.897  22.407  25.431  1.00  0.00    -0.015 A 
ATOM     22  C   UNL A   1      37.210  21.856  24.344  1.00  0.00     0.007 A 
ATOM     23  C   UNL A   1      37.405  23.578  25.992  1.00  0.00     0.126 A 
ATOM     24  C   UNL A   1      36.024  22.443  23.874  1.00  0.00     0.006 A 
ATOM     25  C   UNL A   1      36.248  24.178  25.507  1.00  0.00     0.045 A 
ATOM     26  F   UNL A   1      38.026  24.132  27.043  1.00  0.00    -0.207 F 
ENDBRANCH  17  19
ENDBRANCH  15  17
ENDBRANCH   9  15
ENDBRANCH   5   8
ENDBRANCH   3   4
ENDBRANCH   2   3
ENDBRANCH   1   2
BRANCH   1  27
ATOM     27  C   UNL A   1      33.133  30.848  27.248  1.00  0.00     0.002 C 
BRANCH  27  28
ATOM     28  C   UNL A   1      33.557  29.420  26.929  1.00  0.00     0.021 C 
BRANCH  28  29
ATOM     29  C   UNL A   1      34.876  29.027  27.572  1.00  0.00     0.116 C 
BRANCH  29  30
ATOM     30  N   UNL A   1      35.402  30.106  28.408  1.00  0.00    -0.352 N 
ATOM     31  C   UNL A   1      36.437  30.103  29.301  1.00  0.00     0.251 C 
ATOM     32  H   UNL A   1      34.937  30.969  28.315  1.00  0.00     0.163 HD
ATOM     33  O   UNL A   1      36.564  30.956  30.178  1.00  0.00    -0.269 OA
BRANCH  31  34
ATOM     34  C   UNL A   1      37.556  29.173  29.041  1.00  0.00     0.039 A 
ATOM     35  C   UNL A   1      37.924  28.321  30.090  1.00  0.00     0.014 A 
ATOM     36  C   UNL A   1      38.378  29.347  27.933  1.00  0.00     0.014 A 
ATOM     37  C   UNL A   1      39.203  27.794  30.104  1.00  0.00     0.010 A 
ATOM     38  C   UNL A   1      39.693  28.981  28.034  1.00  0.00     0.010 A 
ATOM     39  C   UNL A   1      40.099  28.214  29.123  1.00  0.00    -0.014 A 
BRANCH  39  40
ATOM     40  C   UNL A   1      41.476  27.777  29.083  1.00  0.00     0.031 A 
ATOM     41  C   UNL A   1      41.699  26.402  28.623  1.00  0.00     0.074 A 
ATOM     42  C   UNL A   1      42.459  28.610  29.467  1.00  0.00     0.049 A 
ATOM     43  N   UNL A   1      42.584  25.605  29.103  1.00  0.00    -0.248 NA
ATOM     44  C   UNL A   1      40.844  25.789  27.610  1.00  0.00     0.031 C 
ATOM     45  C   UNL A   1      43.893  28.366  29.458  1.00  0.00     0.029 A 
ATOM     46  N   UNL A   1      42.299  29.789  30.198  1.00  0.00    -0.354 N 
ATOM     47  C   UNL A   1      42.615  24.505  28.274  1.00  0.00     0.074 A 
ATOM     48  C   UNL A   1      41.433  24.605  27.453  1.00  0.00     0.031 C 
ATOM     49  C   UNL A   1      44.452  29.158  30.392  1.00  0.00     0.029 A 
ATOM     50  C   UNL A   1      43.378  29.847  31.099  1.00  0.00     0.049 A 
ATOM     51  H   UNL A   1      41.575  30.449  30.102  1.00  0.00     0.167 HD
ATOM     52  C   UNL A   1      43.736  23.733  28.236  1.00  0.00     0.037 A 
ATOM     53  C   UNL A   1      43.102  29.724  32.433  1.00  0.00     0.037 A 
ATOM     54  C   UNL A   1      44.722  24.226  29.201  1.00  0.00     0.049 A 
ATOM     55  C   UNL A   1      43.540  28.392  33.021  1.00  0.00     0.074 A 
ATOM     56  C   UNL A   1      45.815  25.075  29.110  1.00  0.00     0.029 A 
ATOM     57  N   UNL A   1      44.400  24.184  30.545  1.00  0.00    -0.354 N 
ATOM     58  N   UNL A   1      44.104  27.427  32.339  1.00  0.00    -0.248 NA
ATOM     59  C   UNL A   1      43.355  28.028  34.427  1.00  0.00     0.031 C 
ATOM     60  C   UNL A   1      46.093  25.589  30.414  1.00  0.00     0.029 A 
ATOM     61  C   UNL A   1      45.183  25.039  31.299  1.00  0.00     0.049 A 
ATOM     62  H   UNL A   1      43.695  23.611  30.923  1.00  0.00     0.167 HD
ATOM     63  C   UNL A   1      44.339  26.351  33.153  1.00  0.00     0.074 A 
ATOM     64  C   UNL A   1      43.856  26.779  34.456  1.00  0.00     0.031 C 
ATOM     65  C   UNL A   1      44.888  25.175  32.719  1.00  0.00     0.037 A 
BRANCH  52  66
ATOM     66  C   UNL A   1      44.013  22.793  27.085  1.00  0.00     0.058 A 
ATOM     67  C   UNL A   1      43.186  21.677  26.861  1.00  0.00     0.135 A 
ATOM     68  C   UNL A   1      45.118  22.895  26.213  1.00  0.00     0.135 A 
ATOM     69  F   UNL A   1      42.043  21.506  27.539  1.00  0.00    -0.206 F 
ATOM     70  C   UNL A   1      43.498  20.679  25.936  1.00  0.00     0.059 A 
ATOM     71  C   UNL A   1      45.491  21.878  25.329  1.00  0.00     0.059 A 
ATOM     72  F   UNL A   1      45.855  24.015  26.151  1.00  0.00    -0.206 F 
ATOM     73  C   UNL A   1      44.672  20.767  25.199  1.00  0.00     0.060 A 
BRANCH  73  74
ATOM     74  S   UNL A   1      45.080  19.439  24.052  1.00  0.00     0.124 S 
ATOM     75  O   UNL A   1      44.490  19.911  22.804  1.00  0.00    -0.237 OA
ATOM     76  O   UNL A   1      46.538  19.436  24.106  1.00  0.00    -0.237 OA
ATOM     77  O   UNL A   1      44.429  18.269  24.639  1.00  0.00    -0.744 OA
ENDBRANCH  73  74
ENDBRANCH  52  66
BRANCH  53  78
ATOM     78  C   UNL A   1      41.945  30.592  32.837  1.00  0.00     0.058 A 
ATOM     79  C   UNL A   1      40.726  29.935  33.119  1.00  0.00     0.135 A 
ATOM     80  C   UNL A   1      42.097  31.883  33.362  1.00  0.00     0.135 A 
ATOM     81  F   UNL A   1      40.503  28.704  32.631  1.00  0.00    -0.206 F 
ATOM     82  C   UNL A   1      39.783  30.459  34.001  1.00  0.00     0.059 A 
ATOM     83  C   UNL A   1      41.164  32.427  34.263  1.00  0.00     0.059 A 
ATOM     84  F   UNL A   1      43.201  32.591  33.086  1.00  0.00    -0.206 F 
ATOM     85  C   UNL A   1      40.035  31.683  34.615  1.00  0.00     0.060 A 
BRANCH  85  86
ATOM     86  S   UNL A   1      38.967  32.183  35.996  1.00  0.00     0.124 S 
ATOM     87  O   UNL A   1      39.827  31.934  37.146  1.00  0.00    -0.237 OA
ATOM     88  O   UNL A   1      38.700  33.590  35.700  1.00  0.00    -0.237 OA
ATOM     89  O   UNL A   1      37.799  31.317  35.872  1.00  0.00    -0.744 OA
ENDBRANCH  85  86
ENDBRANCH  53  78
BRANCH  65  90
ATOM     90  C   UNL A   1      45.190  24.020  33.639  1.00  0.00     0.058 A 
ATOM     91  C   UNL A   1      46.488  23.750  34.099  1.00  0.00     0.135 A 
ATOM     92  C   UNL A   1      44.202  23.067  33.976  1.00  0.00     0.135 A 
ATOM     93  F   UNL A   1      47.510  24.561  33.782  1.00  0.00    -0.206 F 
ATOM     94  C   UNL A   1      46.776  22.637  34.892  1.00  0.00     0.059 A 
ATOM     95  C   UNL A   1      44.478  21.921  34.710  1.00  0.00     0.059 A 
ATOM     96  F   UNL A   1      42.915  23.237  33.638  1.00  0.00    -0.206 F 
ATOM     97  C   UNL A   1      45.763  21.731  35.196  1.00  0.00     0.060 A 
BRANCH  97  98
ATOM     98  S   UNL A   1      46.114  20.302  36.234  1.00  0.00     0.124 S 
ATOM     99  O   UNL A   1      45.664  20.744  37.552  1.00  0.00    -0.237 OA
ATOM    100  O   UNL A   1      45.294  19.277  35.598  1.00  0.00    -0.237 OA
ATOM    101  O   UNL A   1      47.557  20.132  36.097  1.00  0.00    -0.744 OA
ENDBRANCH  97  98
ENDBRANCH  65  90
ENDBRANCH  39  40
ENDBRANCH  31  34
ENDBRANCH  29  30
ENDBRANCH  28  29
ENDBRANCH  27  28
ENDBRANCH   1  27
TORSDOF 19
ENDMDL
MODEL 3
REMARK VINA RESULT:     -13.1      1.748      2.401
REMARK SMILES Cc1ccc([C@H](C)Nc2ccc(C(=O)NCCCCCCNC(=O)c3ccc(-c4c5nc(c(-c6c(F)cc(S(=O)(=O)[O-])cc6F)c6ccc([nH]6)c(-c6c(F)cc(S(=O)(=O)[O-])cc6F)c6nc(c(-c7c(F)cc(S(=O)(=O)[O-])cc7F)c7ccc4[nH]7)C=C6)C=C5)cc3)cc2Cl)cc1F
REMARK SMILES IDX 18 1 17 2 16 3 15 4 13 5 14 6 12 8 9 9 10 10 92 11 11 12
REMARK SMILES IDX 91 13 93 14 8 15 6 17 7 18 5 19 1 20 2 21 3 22 95 23 4 24
REMARK SMILES IDX 94 25 96 26 19 27 20 28 21 29 22 30 23 31 24 33 25 34 26 35
REMARK SMILES IDX 90 36 27 37 89 38 28 39 29 40 30 41 83 42 31 43 88 44 82 45
REMARK SMILES IDX 84 46 32 47 87 48 81 49 80 50 33 52 67 53 46 54 66 55 47 56
REMARK SMILES IDX 50 57 65 58 85 59 48 60 49 61 64 63 86 64 51 65 34 66 35 67
REMARK SMILES IDX 44 68 36 69 37 70 43 71 45 72 38 73 39 74 40 75 41 76 42 77
REMARK SMILES IDX 68 78 69 79 78 80 70 81 71 82 77 83 79 84 72 85 73 86 74 87
REMARK SMILES IDX 75 88 76 89 52 90 53 91 62 92 54 93 55 94 61 95 63 96 56 97
REMARK SMILES IDX 57 98 58 99 59 100 60 101
REMARK H PARENT 15 7 8 16 22 32 84 51 50 62
REMARK Flexibility Score: inf
ROOT
ATOM      1  C   UNL A   1      31.692  31.237  26.498  1.00  0.00     0.002 C 
ENDROOT
BRANCH   1   2
ATOM      2  C   UNL A   1      31.250  30.442  25.259  1.00  0.00     0.021 C 
BRANCH   2   3
ATOM      3  C   UNL A   1      29.910  30.905  24.675  1.00  0.00     0.116 C 
BRANCH   3   4
ATOM      4  N   UNL A   1      29.881  30.718  23.237  1.00  0.00    -0.352 N 
ATOM      5  C   UNL A   1      30.027  29.624  22.426  1.00  0.00     0.251 C 
ATOM      6  O   UNL A   1      29.923  29.802  21.211  1.00  0.00    -0.269 OA
ATOM      7  H   UNL A   1      29.723  31.554  22.739  1.00  0.00     0.163 HD
BRANCH   5   8
ATOM      8  C   UNL A   1      30.247  28.235  22.926  1.00  0.00     0.041 A 
ATOM      9  C   UNL A   1      30.532  25.603  24.031  1.00  0.00     0.053 A 
ATOM     10  C   UNL A   1      29.332  26.332  24.137  1.00  0.00     0.028 A 
ATOM     11  C   UNL A   1      31.594  26.252  23.376  1.00  0.00     0.065 A 
ATOM     12  C   UNL A   1      29.198  27.628  23.623  1.00  0.00     0.016 A 
ATOM     13  C   UNL A   1      31.411  27.498  22.753  1.00  0.00     0.036 A 
ATOM     14  Cl  UNL A   1      33.201  25.625  23.227  1.00  0.00    -0.082 Cl
BRANCH   9  15
ATOM     15  N   UNL A   1      30.526  24.344  24.603  1.00  0.00    -0.377 N 
ATOM     16  H   UNL A   1      29.978  23.669  24.143  1.00  0.00     0.161 HD
BRANCH  15  17
ATOM     17  C   UNL A   1      31.226  23.888  25.796  1.00  0.00     0.106 C 
ATOM     18  C   UNL A   1      30.210  23.054  26.597  1.00  0.00     0.036 C 
BRANCH  17  19
ATOM     19  C   UNL A   1      32.519  23.168  25.413  1.00  0.00    -0.023 A 
ATOM     20  C   UNL A   1      36.128  20.775  25.094  1.00  0.00     0.047 C 
ATOM     21  C   UNL A   1      34.900  21.632  25.124  1.00  0.00    -0.015 A 
ATOM     22  C   UNL A   1      33.733  21.279  24.438  1.00  0.00     0.007 A 
ATOM     23  C   UNL A   1      34.879  22.779  25.906  1.00  0.00     0.126 A 
ATOM     24  C   UNL A   1      32.559  22.035  24.585  1.00  0.00     0.006 A 
ATOM     25  C   UNL A   1      33.726  23.547  26.027  1.00  0.00     0.045 A 
ATOM     26  F   UNL A   1      35.973  23.146  26.590  1.00  0.00    -0.207 F 
ENDBRANCH  17  19
ENDBRANCH  15  17
ENDBRANCH   9  15
ENDBRANCH   5   8
ENDBRANCH   3   4
ENDBRANCH   2   3
ENDBRANCH   1   2
BRANCH   1  27
ATOM     27  C   UNL A   1      33.032  30.815  27.124  1.00  0.00     0.002 C 
BRANCH  27  28
ATOM     28  C   UNL A   1      33.435  29.363  26.897  1.00  0.00     0.021 C 
BRANCH  28  29
ATOM     29  C   UNL A   1      34.841  29.047  27.375  1.00  0.00     0.116 C 
BRANCH  29  30
ATOM     30  N   UNL A   1      35.339  30.082  28.282  1.00  0.00    -0.352 N 
ATOM     31  C   UNL A   1      36.331  30.026  29.220  1.00  0.00     0.251 C 
ATOM     32  H   UNL A   1      34.887  30.953  28.207  1.00  0.00     0.163 HD
ATOM     33  O   UNL A   1      36.426  30.838  30.139  1.00  0.00    -0.269 OA
BRANCH  31  34
ATOM     34  C   UNL A   1      37.452  29.095  28.970  1.00  0.00     0.039 A 
ATOM     35  C   UNL A   1      37.838  28.273  30.036  1.00  0.00     0.014 A 
ATOM     36  C   UNL A   1      38.258  29.244  27.847  1.00  0.00     0.014 A 
ATOM     37  C   UNL A   1      39.120  27.753  30.047  1.00  0.00     0.010 A 
ATOM     38  C   UNL A   1      39.576  28.887  27.940  1.00  0.00     0.010 A 
ATOM     39  C   UNL A   1      40.001  28.152  29.044  1.00  0.00    -0.014 A 
BRANCH  39  40
ATOM     40  C   UNL A   1      41.379  27.720  28.997  1.00  0.00     0.031 A 
ATOM     41  C   UNL A   1      41.605  26.341  28.552  1.00  0.00     0.074 A 
ATOM     42  C   UNL A   1      42.361  28.563  29.362  1.00  0.00     0.049 A 
ATOM     43  N   UNL A   1      42.497  25.554  29.034  1.00  0.00    -0.248 NA
ATOM     44  C   UNL A   1      40.744  25.711  27.553  1.00  0.00     0.031 C 
ATOM     45  C   UNL A   1      43.797  28.325  29.344  1.00  0.00     0.029 A 
ATOM     46  N   UNL A   1      42.202  29.750  30.080  1.00  0.00    -0.354 N 
ATOM     47  C   UNL A   1      42.526  24.444  28.217  1.00  0.00     0.074 A 
ATOM     48  C   UNL A   1      41.337  24.529  27.406  1.00  0.00     0.031 C 
ATOM     49  C   UNL A   1      44.360  29.130  30.263  1.00  0.00     0.029 A 
ATOM     50  C   UNL A   1      43.289  29.823  30.972  1.00  0.00     0.049 A 
ATOM     51  H   UNL A   1      41.475  30.405  29.983  1.00  0.00     0.167 HD
ATOM     52  C   UNL A   1      43.651  23.677  28.179  1.00  0.00     0.037 A 
ATOM     53  C   UNL A   1      43.024  29.715  32.309  1.00  0.00     0.037 A 
ATOM     54  C   UNL A   1      44.643  24.186  29.129  1.00  0.00     0.049 A 
ATOM     55  C   UNL A   1      43.474  28.392  32.910  1.00  0.00     0.074 A 
ATOM     56  C   UNL A   1      45.731  25.038  29.019  1.00  0.00     0.029 A 
ATOM     57  N   UNL A   1      44.333  24.158  30.477  1.00  0.00    -0.354 N 
ATOM     58  N   UNL A   1      44.037  27.422  32.234  1.00  0.00    -0.248 NA
ATOM     59  C   UNL A   1      43.303  28.044  34.321  1.00  0.00     0.031 C 
ATOM     60  C   UNL A   1      46.018  25.569  30.314  1.00  0.00     0.029 A 
ATOM     61  C   UNL A   1      45.118  25.026  31.214  1.00  0.00     0.049 A 
ATOM     62  H   UNL A   1      43.634  23.587  30.868  1.00  0.00     0.167 HD
ATOM     63  C   UNL A   1      44.283  26.356  33.059  1.00  0.00     0.074 A 
ATOM     64  C   UNL A   1      43.810  26.798  34.361  1.00  0.00     0.031 C 
ATOM     65  C   UNL A   1      44.835  25.178  32.635  1.00  0.00     0.037 A 
BRANCH  52  66
ATOM     66  C   UNL A   1      43.922  22.724  27.038  1.00  0.00     0.058 A 
ATOM     67  C   UNL A   1      43.120  21.582  26.855  1.00  0.00     0.135 A 
ATOM     68  C   UNL A   1      45.001  22.840  26.134  1.00  0.00     0.135 A 
ATOM     69  F   UNL A   1      42.001  21.394  27.566  1.00  0.00    -0.206 F 
ATOM     70  C   UNL A   1      43.434  20.577  25.938  1.00  0.00     0.059 A 
ATOM     71  C   UNL A   1      45.377  21.817  25.258  1.00  0.00     0.059 A 
ATOM     72  F   UNL A   1      45.706  23.977  26.034  1.00  0.00    -0.206 F 
ATOM     73  C   UNL A   1      44.585  20.683  25.169  1.00  0.00     0.060 A 
BRANCH  73  74
ATOM     74  S   UNL A   1      44.998  19.346  24.034  1.00  0.00     0.124 S 
ATOM     75  O   UNL A   1      44.478  19.842  22.764  1.00  0.00    -0.237 OA
ATOM     76  O   UNL A   1      46.452  19.295  24.150  1.00  0.00    -0.237 OA
ATOM     77  O   UNL A   1      44.285  18.197  24.587  1.00  0.00    -0.744 OA
ENDBRANCH  73  74
ENDBRANCH  52  66
BRANCH  53  78
ATOM     78  C   UNL A   1      41.867  30.582  32.712  1.00  0.00     0.058 A 
ATOM     79  C   UNL A   1      42.068  31.979  32.653  1.00  0.00     0.135 A 
ATOM     80  C   UNL A   1      40.536  30.140  32.710  1.00  0.00     0.135 A 
ATOM     81  F   UNL A   1      43.316  32.475  32.672  1.00  0.00    -0.206 F 
ATOM     82  C   UNL A   1      41.022  32.876  32.441  1.00  0.00     0.059 A 
ATOM     83  C   UNL A   1      39.466  31.025  32.486  1.00  0.00     0.059 A 
ATOM     84  F   UNL A   1      40.266  28.832  32.825  1.00  0.00    -0.206 F 
ATOM     85  C   UNL A   1      39.727  32.385  32.301  1.00  0.00     0.060 A 
BRANCH  85  86
ATOM     86  S   UNL A   1      38.443  33.520  31.700  1.00  0.00     0.124 S 
ATOM     87  O   UNL A   1      38.525  33.329  30.257  1.00  0.00    -0.237 OA
ATOM     88  O   UNL A   1      37.234  33.001  32.338  1.00  0.00    -0.237 OA
ATOM     89  O   UNL A   1      38.863  34.826  32.196  1.00  0.00    -0.744 OA
ENDBRANCH  85  86
ENDBRANCH  53  78
BRANCH  65  90
ATOM     90  C   UNL A   1      45.149  24.036  33.565  1.00  0.00     0.058 A 
ATOM     91  C   UNL A   1      46.392  23.915  34.208  1.00  0.00     0.135 A 
ATOM     92  C   UNL A   1      44.257  22.953  33.733  1.00  0.00     0.135 A 
ATOM     93  F   UNL A   1      47.333  24.861  34.062  1.00  0.00    -0.206 F 
ATOM     94  C   UNL A   1      46.706  22.818  35.012  1.00  0.00     0.059 A 
ATOM     95  C   UNL A   1      44.573  21.823  34.477  1.00  0.00     0.059 A 
ATOM     96  F   UNL A   1      43.022  22.971  33.212  1.00  0.00    -0.206 F 
ATOM     97  C   UNL A   1      45.787  21.779  35.144  1.00  0.00     0.060 A 
BRANCH  97  98
ATOM     98  S   UNL A   1      46.170  20.366  36.194  1.00  0.00     0.124 S 
ATOM     99  O   UNL A   1      45.737  20.821  37.513  1.00  0.00    -0.237 OA
ATOM    100  O   UNL A   1      45.349  19.326  35.584  1.00  0.00    -0.237 OA
ATOM    101  O   UNL A   1      47.612  20.208  36.036  1.00  0.00    -0.744 OA
ENDBRANCH  97  98
ENDBRANCH  65  90
ENDBRANCH  39  40
ENDBRANCH  31  34
ENDBRANCH  29  30
ENDBRANCH  28  29
ENDBRANCH  27  28
ENDBRANCH   1  27
TORSDOF 19
ENDMDL
