MODEL 1
REMARK VINA RESULT:     -12.0      0.000      0.000
REMARK SMILES CC[C@@H](C)[C@@H](NC(=O)Cn1ncc2ccccc2c1=O)C(=O)NCCCCCCNC(=O)c1ccc(-c2c3nc(c(-c4c(F)cc(S(=O)(=O)[O-])cc4F)c4ccc([nH]4)c(-c4c(F)cc(S(=O)(=O)[O-])cc4F)c4nc(c(-c5c(F)cc(S(=O)(=O)[O-])cc5F)c5ccc2[nH]5)C=C4)C=C3)cc1
REMARK SMILES IDX 26 1 25 2 24 3 23 4 21 5 22 6 5 8 3 9 4 10 2 11 1 12 6 13
REMARK SMILES IDX 7 14 8 16 9 17 10 18 11 19 19 20 12 21 18 22 20 23 13 24
REMARK SMILES IDX 17 25 14 26 16 27 15 28 27 29 28 30 29 31 30 32 31 33 32 35
REMARK SMILES IDX 33 36 34 37 98 38 35 39 97 40 36 41 37 42 38 43 91 44 39 45
REMARK SMILES IDX 96 46 90 47 92 48 40 49 95 50 89 51 88 52 41 54 75 55 54 56
REMARK SMILES IDX 74 57 55 58 58 59 73 60 93 61 56 62 57 63 72 65 94 66 59 67
REMARK SMILES IDX 42 68 43 69 52 70 44 71 45 72 51 73 53 74 46 75 47 76 48 77
REMARK SMILES IDX 49 78 50 79 76 80 77 81 86 82 78 83 79 84 85 85 87 86 80 87
REMARK SMILES IDX 81 88 82 89 83 90 84 91 60 92 61 93 70 94 62 95 63 96 69 97
REMARK SMILES IDX 71 98 64 99 65 100 66 101 67 102 68 103
REMARK H PARENT 23 7 6 15 30 34 92 53 58 64
REMARK Flexibility Score: inf
ROOT
ATOM      1  C   UNL A   1      31.639  30.062  26.259  1.00  0.00     0.002 C 
ENDROOT
BRANCH   1   2
ATOM      2  C   UNL A   1      31.449  29.757  24.771  1.00  0.00     0.021 C 
BRANCH   2   3
ATOM      3  C   UNL A   1      31.264  28.155  24.440  1.00  0.00     0.116 C 
BRANCH   3   4
ATOM      4  N   UNL A   1      32.357  26.857  23.282  1.00  0.00    -0.354 N 
ATOM      5  C   UNL A   1      33.161  25.832  22.802  1.00  0.00     0.242 C 
ATOM      6  O   UNL A   1      33.389  25.850  21.583  1.00  0.00    -0.273 OA
ATOM      7  H   UNL A   1      32.165  27.278  22.412  1.00  0.00     0.163 HD
BRANCH   5   8
ATOM      8  C   UNL A   1      33.725  24.642  23.640  1.00  0.00     0.174 C 
BRANCH   8   9
ATOM      9  C   UNL A   1      32.717  23.449  23.510  1.00  0.00     0.018 C 
ATOM     10  C   UNL A   1      33.029  22.620  22.250  1.00  0.00     0.010 C 
BRANCH   9  11
ATOM     11  C   UNL A   1      31.215  23.784  23.573  1.00  0.00     0.002 C 
ATOM     12  C   UNL A   1      30.775  24.077  25.011  1.00  0.00     0.004 C 
ENDBRANCH   9  11
ENDBRANCH   8   9
BRANCH   8  13
ATOM     13  N   UNL A   1      35.151  24.247  23.576  1.00  0.00    -0.342 N 
ATOM     14  C   UNL A   1      36.015  23.469  24.281  1.00  0.00     0.242 C 
ATOM     15  H   UNL A   1      35.600  24.668  22.807  1.00  0.00     0.164 HD
ATOM     16  O   UNL A   1      37.035  23.118  23.670  1.00  0.00    -0.273 OA
BRANCH  14  17
ATOM     17  C   UNL A   1      35.773  22.909  25.682  1.00  0.00     0.248 C 
BRANCH  17  18
ATOM     18  N   UNL A   1      35.574  21.484  25.727  1.00  0.00    -0.220 N 
ATOM     19  N   UNL A   1      36.979  20.393  25.191  1.00  0.00    -0.177 NA
ATOM     20  C   UNL A   1      33.852  20.893  25.706  1.00  0.00     0.275 A 
ATOM     21  C   UNL A   1      36.686  18.960  24.704  1.00  0.00     0.142 A 
ATOM     22  C   UNL A   1      33.592  19.100  25.060  1.00  0.00     0.050 A 
ATOM     23  O   UNL A   1      32.935  21.591  26.137  1.00  0.00    -0.267 OA
ATOM     24  C   UNL A   1      34.960  18.195  24.503  1.00  0.00     0.007 A 
ATOM     25  C   UNL A   1      32.345  18.528  25.033  1.00  0.00     0.014 A 
ATOM     26  C   UNL A   1      34.775  16.933  23.999  1.00  0.00     0.010 A 
ATOM     27  C   UNL A   1      32.297  17.222  24.512  1.00  0.00     0.001 A 
ATOM     28  C   UNL A   1      33.439  16.473  24.022  1.00  0.00     0.001 A 
ENDBRANCH  17  18
ENDBRANCH  14  17
ENDBRANCH   8  13
ENDBRANCH   5   8
ENDBRANCH   3   4
ENDBRANCH   2   3
ENDBRANCH   1   2
BRANCH   1  29
ATOM     29  C   UNL A   1      31.803  28.816  27.137  1.00  0.00     0.002 C 
BRANCH  29  30
ATOM     30  C   UNL A   1      33.238  28.302  27.260  1.00  0.00     0.021 C 
BRANCH  30  31
ATOM     31  C   UNL A   1      34.305  29.377  27.112  1.00  0.00     0.116 C 
BRANCH  31  32
ATOM     32  N   UNL A   1      34.240  30.399  28.151  1.00  0.00    -0.352 N 
ATOM     33  C   UNL A   1      35.252  30.770  29.001  1.00  0.00     0.251 C 
ATOM     34  H   UNL A   1      33.382  30.871  28.254  1.00  0.00     0.163 HD
ATOM     35  O   UNL A   1      35.118  31.656  29.833  1.00  0.00    -0.269 OA
BRANCH  33  36
ATOM     36  C   UNL A   1      36.499  30.006  28.874  1.00  0.00     0.039 A 
ATOM     37  C   UNL A   1      37.041  29.422  30.022  1.00  0.00     0.014 A 
ATOM     38  C   UNL A   1      37.236  30.150  27.699  1.00  0.00     0.014 A 
ATOM     39  C   UNL A   1      38.387  29.093  30.028  1.00  0.00     0.010 A 
ATOM     40  C   UNL A   1      38.566  29.748  27.690  1.00  0.00     0.010 A 
ATOM     41  C   UNL A   1      39.159  29.257  28.864  1.00  0.00    -0.014 A 
BRANCH  41  42
ATOM     42  C   UNL A   1      40.593  28.897  28.866  1.00  0.00     0.031 A 
ATOM     43  C   UNL A   1      41.640  29.909  29.235  1.00  0.00     0.074 A 
ATOM     44  C   UNL A   1      40.939  27.647  28.513  1.00  0.00     0.049 A 
ATOM     45  N   UNL A   1      42.941  29.823  29.141  1.00  0.00    -0.248 NA
ATOM     46  C   UNL A   1      41.159  31.192  29.776  1.00  0.00     0.031 C 
ATOM     47  C   UNL A   1      39.996  26.576  28.182  1.00  0.00     0.029 A 
ATOM     48  N   UNL A   1      42.168  27.066  28.376  1.00  0.00    -0.354 N 
ATOM     49  C   UNL A   1      43.438  31.043  29.585  1.00  0.00     0.074 A 
ATOM     50  C   UNL A   1      42.294  31.862  29.928  1.00  0.00     0.031 C 
ATOM     51  C   UNL A   1      40.681  25.456  27.917  1.00  0.00     0.029 A 
ATOM     52  C   UNL A   1      42.107  25.756  27.970  1.00  0.00     0.049 A 
ATOM     53  H   UNL A   1      43.014  27.538  28.551  1.00  0.00     0.167 HD
ATOM     54  C   UNL A   1      44.731  31.436  29.698  1.00  0.00     0.037 A 
ATOM     55  C   UNL A   1      43.089  24.902  27.637  1.00  0.00     0.037 A 
ATOM     56  C   UNL A   1      45.853  30.599  29.343  1.00  0.00     0.049 A 
ATOM     57  C   UNL A   1      44.505  25.384  27.683  1.00  0.00     0.074 A 
ATOM     58  C   UNL A   1      47.204  30.893  29.396  1.00  0.00     0.029 A 
ATOM     59  N   UNL A   1      45.749  29.296  28.868  1.00  0.00    -0.354 N 
ATOM     60  N   UNL A   1      44.964  26.559  28.046  1.00  0.00    -0.248 NA
ATOM     61  C   UNL A   1      45.536  24.433  27.256  1.00  0.00     0.031 C 
ATOM     62  C   UNL A   1      47.913  29.785  28.913  1.00  0.00     0.029 A 
ATOM     63  C   UNL A   1      47.009  28.781  28.605  1.00  0.00     0.049 A 
ATOM     64  H   UNL A   1      44.903  28.811  28.735  1.00  0.00     0.167 HD
ATOM     65  C   UNL A   1      46.342  26.490  27.894  1.00  0.00     0.074 A 
ATOM     66  C   UNL A   1      46.639  25.146  27.432  1.00  0.00     0.031 C 
ATOM     67  C   UNL A   1      47.276  27.450  28.110  1.00  0.00     0.037 A 
BRANCH  54  68
ATOM     68  C   UNL A   1      44.991  32.837  30.188  1.00  0.00     0.058 A 
ATOM     69  C   UNL A   1      45.069  33.928  29.308  1.00  0.00     0.135 A 
ATOM     70  C   UNL A   1      45.177  33.092  31.557  1.00  0.00     0.135 A 
ATOM     71  F   UNL A   1      44.915  33.743  27.987  1.00  0.00    -0.206 F 
ATOM     72  C   UNL A   1      45.367  35.211  29.759  1.00  0.00     0.059 A 
ATOM     73  C   UNL A   1      45.448  34.373  32.035  1.00  0.00     0.059 A 
ATOM     74  F   UNL A   1      45.112  32.091  32.447  1.00  0.00    -0.206 F 
ATOM     75  C   UNL A   1      45.564  35.422  31.125  1.00  0.00     0.060 A 
BRANCH  75  76
ATOM     76  S   UNL A   1      45.999  37.082  31.690  1.00  0.00     0.124 S 
ATOM     77  O   UNL A   1      45.943  36.918  33.139  1.00  0.00    -0.237 OA
ATOM     78  O   UNL A   1      47.331  37.265  31.123  1.00  0.00    -0.237 OA
ATOM     79  O   UNL A   1      44.955  37.923  31.114  1.00  0.00    -0.744 OA
ENDBRANCH  75  76
ENDBRANCH  54  68
BRANCH  55  80
ATOM     80  C   UNL A   1      42.734  23.517  27.242  1.00  0.00     0.058 A 
ATOM     81  C   UNL A   1      42.772  23.135  25.894  1.00  0.00     0.135 A 
ATOM     82  C   UNL A   1      42.466  22.526  28.200  1.00  0.00     0.135 A 
ATOM     83  F   UNL A   1      43.021  24.050  24.945  1.00  0.00    -0.206 F 
ATOM     84  C   UNL A   1      42.578  21.814  25.510  1.00  0.00     0.059 A 
ATOM     85  C   UNL A   1      42.294  21.194  27.843  1.00  0.00     0.059 A 
ATOM     86  F   UNL A   1      42.440  22.842  29.505  1.00  0.00    -0.206 F 
ATOM     87  C   UNL A   1      42.356  20.847  26.494  1.00  0.00     0.060 A 
BRANCH  87  88
ATOM     88  S   UNL A   1      42.228  19.120  25.986  1.00  0.00     0.124 S 
ATOM     89  O   UNL A   1      40.794  18.988  25.752  1.00  0.00    -0.237 OA
ATOM     90  O   UNL A   1      43.075  19.090  24.797  1.00  0.00    -0.237 OA
ATOM     91  O   UNL A   1      42.750  18.389  27.138  1.00  0.00    -0.744 OA
ENDBRANCH  87  88
ENDBRANCH  55  80
BRANCH  67  92
ATOM     92  C   UNL A   1      48.704  27.066  27.841  1.00  0.00     0.058 A 
ATOM     93  C   UNL A   1      49.536  26.580  28.863  1.00  0.00     0.135 A 
ATOM     94  C   UNL A   1      49.250  27.194  26.555  1.00  0.00     0.135 A 
ATOM     95  F   UNL A   1      49.065  26.448  30.113  1.00  0.00    -0.206 F 
ATOM     96  C   UNL A   1      50.873  26.279  28.628  1.00  0.00     0.059 A 
ATOM     97  C   UNL A   1      50.577  26.870  26.290  1.00  0.00     0.059 A 
ATOM     98  F   UNL A   1      48.495  27.643  25.540  1.00  0.00    -0.206 F 
ATOM     99  C   UNL A   1      51.386  26.433  27.339  1.00  0.00     0.060 A 
BRANCH  99 100
ATOM    100  S   UNL A   1      53.127  26.058  27.052  1.00  0.00     0.124 S 
ATOM    101  O   UNL A   1      53.650  26.037  28.414  1.00  0.00    -0.237 OA
ATOM    102  O   UNL A   1      53.061  24.764  26.379  1.00  0.00    -0.237 OA
ATOM    103  O   UNL A   1      53.583  27.168  26.222  1.00  0.00    -0.744 OA
ENDBRANCH  99 100
ENDBRANCH  67  92
ENDBRANCH  41  42
ENDBRANCH  33  36
ENDBRANCH  31  32
ENDBRANCH  30  31
ENDBRANCH  29  30
ENDBRANCH   1  29
TORSDOF 21
ENDMDL
MODEL 2
REMARK VINA RESULT:     -11.3      2.230      8.649
REMARK SMILES CC[C@@H](C)[C@@H](NC(=O)Cn1ncc2ccccc2c1=O)C(=O)NCCCCCCNC(=O)c1ccc(-c2c3nc(c(-c4c(F)cc(S(=O)(=O)[O-])cc4F)c4ccc([nH]4)c(-c4c(F)cc(S(=O)(=O)[O-])cc4F)c4nc(c(-c5c(F)cc(S(=O)(=O)[O-])cc5F)c5ccc2[nH]5)C=C4)C=C3)cc1
REMARK SMILES IDX 26 1 25 2 24 3 23 4 21 5 22 6 5 8 3 9 4 10 2 11 1 12 6 13
REMARK SMILES IDX 7 14 8 16 9 17 10 18 11 19 19 20 12 21 18 22 20 23 13 24
REMARK SMILES IDX 17 25 14 26 16 27 15 28 27 29 28 30 29 31 30 32 31 33 32 35
REMARK SMILES IDX 33 36 34 37 98 38 35 39 97 40 36 41 37 42 38 43 91 44 39 45
REMARK SMILES IDX 96 46 90 47 92 48 40 49 95 50 89 51 88 52 41 54 75 55 54 56
REMARK SMILES IDX 74 57 55 58 58 59 73 60 93 61 56 62 57 63 72 65 94 66 59 67
REMARK SMILES IDX 42 68 43 69 52 70 44 71 45 72 51 73 53 74 46 75 47 76 48 77
REMARK SMILES IDX 49 78 50 79 76 80 77 81 86 82 78 83 79 84 85 85 87 86 80 87
REMARK SMILES IDX 81 88 82 89 83 90 84 91 60 92 61 93 70 94 62 95 63 96 69 97
REMARK SMILES IDX 71 98 64 99 65 100 66 101 67 102 68 103
REMARK H PARENT 23 7 6 15 30 34 92 53 58 64
REMARK Flexibility Score: inf
ROOT
ATOM      1  C   UNL A   1      35.616  32.004  27.632  1.00  0.00     0.002 C 
ENDROOT
BRANCH   1   2
ATOM      2  C   UNL A   1      34.521  30.982  27.950  1.00  0.00     0.021 C 
BRANCH   2   3
ATOM      3  C   UNL A   1      33.052  31.362  27.311  1.00  0.00     0.116 C 
BRANCH   3   4
ATOM      4  N   UNL A   1      31.918  30.472  25.847  1.00  0.00    -0.354 N 
ATOM      5  C   UNL A   1      31.351  29.599  24.929  1.00  0.00     0.242 C 
ATOM      6  O   UNL A   1      30.466  30.079  24.204  1.00  0.00    -0.273 OA
ATOM      7  H   UNL A   1      31.348  31.249  25.645  1.00  0.00     0.163 HD
BRANCH   5   8
ATOM      8  C   UNL A   1      31.673  28.078  24.791  1.00  0.00     0.174 C 
BRANCH   8   9
ATOM      9  C   UNL A   1      33.038  27.814  25.515  1.00  0.00     0.018 C 
ATOM     10  C   UNL A   1      34.213  28.101  24.560  1.00  0.00     0.010 C 
BRANCH   9  11
ATOM     11  C   UNL A   1      33.223  26.444  26.196  1.00  0.00     0.002 C 
ATOM     12  C   UNL A   1      34.505  25.758  25.714  1.00  0.00     0.004 C 
ENDBRANCH   9  11
ENDBRANCH   8   9
BRANCH   8  13
ATOM     13  N   UNL A   1      30.645  27.037  25.024  1.00  0.00    -0.342 N 
ATOM     14  C   UNL A   1      30.296  25.831  24.503  1.00  0.00     0.242 C 
ATOM     15  H   UNL A   1      30.046  27.291  25.764  1.00  0.00     0.164 HD
ATOM     16  O   UNL A   1      29.596  25.117  25.237  1.00  0.00    -0.273 OA
BRANCH  14  17
ATOM     17  C   UNL A   1      30.786  25.255  23.176  1.00  0.00     0.248 C 
BRANCH  17  18
ATOM     18  N   UNL A   1      31.652  24.113  23.305  1.00  0.00    -0.220 N 
ATOM     19  N   UNL A   1      31.181  22.801  24.535  1.00  0.00    -0.177 NA
ATOM     20  C   UNL A   1      33.372  24.316  22.748  1.00  0.00     0.275 A 
ATOM     21  C   UNL A   1      32.268  21.871  25.109  1.00  0.00     0.142 A 
ATOM     22  C   UNL A   1      34.655  23.122  23.543  1.00  0.00     0.050 A 
ATOM     23  O   UNL A   1      33.666  25.132  21.876  1.00  0.00    -0.267 OA
ATOM     24  C   UNL A   1      34.127  21.991  24.743  1.00  0.00     0.007 A 
ATOM     25  C   UNL A   1      35.977  23.152  23.175  1.00  0.00     0.014 A 
ATOM     26  C   UNL A   1      35.045  21.168  25.345  1.00  0.00     0.010 A 
ATOM     27  C   UNL A   1      36.808  22.243  23.854  1.00  0.00     0.001 A 
ATOM     28  C   UNL A   1      36.371  21.313  24.878  1.00  0.00     0.001 A 
ENDBRANCH  17  18
ENDBRANCH  14  17
ENDBRANCH   8  13
ENDBRANCH   5   8
ENDBRANCH   3   4
ENDBRANCH   2   3
ENDBRANCH   1   2
BRANCH   1  29
ATOM     29  C   UNL A   1      35.679  33.178  28.615  1.00  0.00     0.002 C 
BRANCH  29  30
ATOM     30  C   UNL A   1      35.287  32.832  30.053  1.00  0.00     0.021 C 
BRANCH  30  31
ATOM     31  C   UNL A   1      36.448  32.385  30.929  1.00  0.00     0.116 C 
BRANCH  31  32
ATOM     32  N   UNL A   1      36.190  31.133  31.632  1.00  0.00    -0.352 N 
ATOM     33  C   UNL A   1      37.054  30.074  31.765  1.00  0.00     0.251 C 
ATOM     34  H   UNL A   1      35.305  31.037  32.053  1.00  0.00     0.163 HD
ATOM     35  O   UNL A   1      36.763  29.066  32.392  1.00  0.00    -0.269 OA
BRANCH  33  36
ATOM     36  C   UNL A   1      38.340  30.214  31.073  1.00  0.00     0.039 A 
ATOM     37  C   UNL A   1      38.351  30.161  29.676  1.00  0.00     0.014 A 
ATOM     38  C   UNL A   1      39.505  30.088  31.827  1.00  0.00     0.014 A 
ATOM     39  C   UNL A   1      39.539  29.849  29.033  1.00  0.00     0.010 A 
ATOM     40  C   UNL A   1      40.706  29.850  31.170  1.00  0.00     0.010 A 
ATOM     41  C   UNL A   1      40.723  29.688  29.775  1.00  0.00    -0.014 A 
BRANCH  41  42
ATOM     42  C   UNL A   1      41.993  29.365  29.090  1.00  0.00     0.031 A 
ATOM     43  C   UNL A   1      42.256  27.979  28.573  1.00  0.00     0.074 A 
ATOM     44  C   UNL A   1      42.912  30.336  28.956  1.00  0.00     0.049 A 
ATOM     45  N   UNL A   1      43.362  27.475  28.093  1.00  0.00    -0.248 NA
ATOM     46  C   UNL A   1      41.128  27.034  28.605  1.00  0.00     0.031 C 
ATOM     47  C   UNL A   1      42.734  31.726  29.383  1.00  0.00     0.029 A 
ATOM     48  N   UNL A   1      44.171  30.307  28.425  1.00  0.00    -0.354 N 
ATOM     49  C   UNL A   1      43.076  26.148  27.788  1.00  0.00     0.074 A 
ATOM     50  C   UNL A   1      41.696  25.921  28.160  1.00  0.00     0.031 C 
ATOM     51  C   UNL A   1      43.830  32.426  29.062  1.00  0.00     0.029 A 
ATOM     52  C   UNL A   1      44.816  31.516  28.493  1.00  0.00     0.049 A 
ATOM     53  H   UNL A   1      44.575  29.499  28.032  1.00  0.00     0.167 HD
ATOM     54  C   UNL A   1      43.895  25.213  27.244  1.00  0.00     0.037 A 
ATOM     55  C   UNL A   1      46.078  31.847  28.171  1.00  0.00     0.037 A 
ATOM     56  C   UNL A   1      45.271  25.467  26.888  1.00  0.00     0.049 A 
ATOM     57  C   UNL A   1      46.991  30.779  27.656  1.00  0.00     0.074 A 
ATOM     58  C   UNL A   1      46.201  24.596  26.349  1.00  0.00     0.029 A 
ATOM     59  N   UNL A   1      45.913  26.691  27.036  1.00  0.00    -0.354 N 
ATOM     60  N   UNL A   1      46.731  29.512  27.428  1.00  0.00    -0.248 NA
ATOM     61  C   UNL A   1      48.373  31.178  27.373  1.00  0.00     0.031 C 
ATOM     62  C   UNL A   1      47.415  25.281  26.211  1.00  0.00     0.029 A 
ATOM     63  C   UNL A   1      47.232  26.593  26.618  1.00  0.00     0.049 A 
ATOM     64  H   UNL A   1      45.493  27.509  27.388  1.00  0.00     0.167 HD
ATOM     65  C   UNL A   1      47.919  28.960  26.971  1.00  0.00     0.074 A 
ATOM     66  C   UNL A   1      48.889  30.040  26.930  1.00  0.00     0.031 C 
ATOM     67  C   UNL A   1      48.188  27.676  26.622  1.00  0.00     0.037 A 
BRANCH  54  68
ATOM     68  C   UNL A   1      43.331  23.831  27.041  1.00  0.00     0.058 A 
ATOM     69  C   UNL A   1      43.122  22.950  28.115  1.00  0.00     0.135 A 
ATOM     70  C   UNL A   1      43.004  23.373  25.753  1.00  0.00     0.135 A 
ATOM     71  F   UNL A   1      43.430  23.325  29.367  1.00  0.00    -0.206 F 
ATOM     72  C   UNL A   1      42.655  21.653  27.916  1.00  0.00     0.059 A 
ATOM     73  C   UNL A   1      42.508  22.090  25.534  1.00  0.00     0.059 A 
ATOM     74  F   UNL A   1      43.178  24.170  24.688  1.00  0.00    -0.206 F 
ATOM     75  C   UNL A   1      42.360  21.229  26.620  1.00  0.00     0.060 A 
BRANCH  75  76
ATOM     76  S   UNL A   1      41.803  19.529  26.372  1.00  0.00     0.124 S 
ATOM     77  O   UNL A   1      42.518  19.165  25.153  1.00  0.00    -0.237 OA
ATOM     78  O   UNL A   1      42.257  18.871  27.594  1.00  0.00    -0.237 OA
ATOM     79  O   UNL A   1      40.356  19.660  26.234  1.00  0.00    -0.744 OA
ENDBRANCH  75  76
ENDBRANCH  54  68
BRANCH  55  80
ATOM     80  C   UNL A   1      46.516  33.255  28.334  1.00  0.00     0.058 A 
ATOM     81  C   UNL A   1      47.148  33.667  29.514  1.00  0.00     0.135 A 
ATOM     82  C   UNL A   1      46.418  34.180  27.282  1.00  0.00     0.135 A 
ATOM     83  F   UNL A   1      47.260  32.817  30.546  1.00  0.00    -0.206 F 
ATOM     84  C   UNL A   1      47.689  34.941  29.641  1.00  0.00     0.059 A 
ATOM     85  C   UNL A   1      46.974  35.451  27.374  1.00  0.00     0.059 A 
ATOM     86  F   UNL A   1      45.839  33.824  26.124  1.00  0.00    -0.206 F 
ATOM     87  C   UNL A   1      47.611  35.820  28.558  1.00  0.00     0.060 A 
BRANCH  87  88
ATOM     88  S   UNL A   1      48.426  37.425  28.697  1.00  0.00     0.124 S 
ATOM     89  O   UNL A   1      47.444  38.187  29.461  1.00  0.00    -0.237 OA
ATOM     90  O   UNL A   1      49.656  37.080  29.403  1.00  0.00    -0.237 OA
ATOM     91  O   UNL A   1      48.602  37.836  27.307  1.00  0.00    -0.744 OA
ENDBRANCH  87  88
ENDBRANCH  55  80
BRANCH  67  92
ATOM     92  C   UNL A   1      49.592  27.386  26.171  1.00  0.00     0.058 A 
ATOM     93  C   UNL A   1      50.604  27.067  27.091  1.00  0.00     0.135 A 
ATOM     94  C   UNL A   1      49.933  27.438  24.811  1.00  0.00     0.135 A 
ATOM     95  F   UNL A   1      50.333  27.014  28.405  1.00  0.00    -0.206 F 
ATOM     96  C   UNL A   1      51.916  26.856  26.682  1.00  0.00     0.059 A 
ATOM     97  C   UNL A   1      51.233  27.200  24.376  1.00  0.00     0.059 A 
ATOM     98  F   UNL A   1      49.001  27.727  23.890  1.00  0.00    -0.206 F 
ATOM     99  C   UNL A   1      52.222  26.930  25.321  1.00  0.00     0.060 A 
BRANCH  99 100
ATOM    100  S   UNL A   1      53.932  26.673  24.806  1.00  0.00     0.124 S 
ATOM    101  O   UNL A   1      54.660  27.041  26.015  1.00  0.00    -0.237 OA
ATOM    102  O   UNL A   1      53.945  25.254  24.465  1.00  0.00    -0.237 OA
ATOM    103  O   UNL A   1      54.087  27.584  23.677  1.00  0.00    -0.744 OA
ENDBRANCH  99 100
ENDBRANCH  67  92
ENDBRANCH  41  42
ENDBRANCH  33  36
ENDBRANCH  31  32
ENDBRANCH  30  31
ENDBRANCH  29  30
ENDBRANCH   1  29
TORSDOF 21
ENDMDL
MODEL 3
REMARK VINA RESULT:     -11.2      2.009      8.474
REMARK SMILES CC[C@@H](C)[C@@H](NC(=O)Cn1ncc2ccccc2c1=O)C(=O)NCCCCCCNC(=O)c1ccc(-c2c3nc(c(-c4c(F)cc(S(=O)(=O)[O-])cc4F)c4ccc([nH]4)c(-c4c(F)cc(S(=O)(=O)[O-])cc4F)c4nc(c(-c5c(F)cc(S(=O)(=O)[O-])cc5F)c5ccc2[nH]5)C=C4)C=C3)cc1
REMARK SMILES IDX 26 1 25 2 24 3 23 4 21 5 22 6 5 8 3 9 4 10 2 11 1 12 6 13
REMARK SMILES IDX 7 14 8 16 9 17 10 18 11 19 19 20 12 21 18 22 20 23 13 24
REMARK SMILES IDX 17 25 14 26 16 27 15 28 27 29 28 30 29 31 30 32 31 33 32 35
REMARK SMILES IDX 33 36 34 37 98 38 35 39 97 40 36 41 37 42 38 43 91 44 39 45
REMARK SMILES IDX 96 46 90 47 92 48 40 49 95 50 89 51 88 52 41 54 75 55 54 56
REMARK SMILES IDX 74 57 55 58 58 59 73 60 93 61 56 62 57 63 72 65 94 66 59 67
REMARK SMILES IDX 42 68 43 69 52 70 44 71 45 72 51 73 53 74 46 75 47 76 48 77
REMARK SMILES IDX 49 78 50 79 76 80 77 81 86 82 78 83 79 84 85 85 87 86 80 87
REMARK SMILES IDX 81 88 82 89 83 90 84 91 60 92 61 93 70 94 62 95 63 96 69 97
REMARK SMILES IDX 71 98 64 99 65 100 66 101 67 102 68 103
REMARK H PARENT 23 7 6 15 30 34 92 53 58 64
REMARK Flexibility Score: inf
ROOT
ATOM      1  C   UNL A   1      35.509  31.125  27.835  1.00  0.00     0.002 C 
ENDROOT
BRANCH   1   2
ATOM      2  C   UNL A   1      34.201  30.593  27.242  1.00  0.00     0.021 C 
BRANCH   2   3
ATOM      3  C   UNL A   1      34.248  28.991  26.862  1.00  0.00     0.116 C 
BRANCH   3   4
ATOM      4  N   UNL A   1      33.723  27.968  25.160  1.00  0.00    -0.354 N 
ATOM      5  C   UNL A   1      33.111  27.166  24.206  1.00  0.00     0.242 C 
ATOM      6  O   UNL A   1      33.691  27.088  23.113  1.00  0.00    -0.273 OA
ATOM      7  H   UNL A   1      34.463  28.288  24.593  1.00  0.00     0.163 HD
BRANCH   5   8
ATOM      8  C   UNL A   1      31.741  26.434  24.369  1.00  0.00     0.174 C 
BRANCH   8   9
ATOM      9  C   UNL A   1      30.613  27.520  24.314  1.00  0.00     0.018 C 
ATOM     10  C   UNL A   1      29.279  26.883  23.879  1.00  0.00     0.010 C 
BRANCH   9  11
ATOM     11  C   UNL A   1      30.894  28.791  23.490  1.00  0.00     0.002 C 
ATOM     12  C   UNL A   1      29.692  29.156  22.613  1.00  0.00     0.004 C 
ENDBRANCH   9  11
ENDBRANCH   8   9
BRANCH   8  13
ATOM     13  N   UNL A   1      31.429  25.188  23.631  1.00  0.00    -0.342 N 
ATOM     14  C   UNL A   1      31.045  23.916  23.917  1.00  0.00     0.242 C 
ATOM     15  H   UNL A   1      31.526  25.319  22.659  1.00  0.00     0.164 HD
ATOM     16  O   UNL A   1      30.532  23.291  22.978  1.00  0.00    -0.273 OA
BRANCH  14  17
ATOM     17  C   UNL A   1      31.084  23.261  25.296  1.00  0.00     0.248 C 
BRANCH  17  18
ATOM     18  N   UNL A   1      32.383  22.785  25.692  1.00  0.00    -0.220 N 
ATOM     19  N   UNL A   1      33.705  24.046  26.032  1.00  0.00    -0.177 NA
ATOM     20  C   UNL A   1      32.801  21.069  25.249  1.00  0.00     0.275 A 
ATOM     21  C   UNL A   1      35.189  23.641  25.924  1.00  0.00     0.142 A 
ATOM     22  C   UNL A   1      34.679  20.673  25.119  1.00  0.00     0.050 A 
ATOM     23  O   UNL A   1      31.924  20.219  25.104  1.00  0.00    -0.267 OA
ATOM     24  C   UNL A   1      35.830  21.942  25.371  1.00  0.00     0.007 A 
ATOM     25  C   UNL A   1      35.120  19.406  24.830  1.00  0.00     0.014 A 
ATOM     26  C   UNL A   1      37.169  21.676  25.236  1.00  0.00     0.010 A 
ATOM     27  C   UNL A   1      36.517  19.265  24.740  1.00  0.00     0.001 A 
ATOM     28  C   UNL A   1      37.481  20.333  24.926  1.00  0.00     0.001 A 
ENDBRANCH  17  18
ENDBRANCH  14  17
ENDBRANCH   8  13
ENDBRANCH   5   8
ENDBRANCH   3   4
ENDBRANCH   2   3
ENDBRANCH   1   2
BRANCH   1  29
ATOM     29  C   UNL A   1      35.433  32.579  28.313  1.00  0.00     0.002 C 
BRANCH  29  30
ATOM     30  C   UNL A   1      36.779  33.205  28.679  1.00  0.00     0.021 C 
BRANCH  30  31
ATOM     31  C   UNL A   1      37.631  32.360  29.614  1.00  0.00     0.116 C 
BRANCH  31  32
ATOM     32  N   UNL A   1      36.856  31.697  30.657  1.00  0.00    -0.352 N 
ATOM     33  C   UNL A   1      37.108  30.463  31.206  1.00  0.00     0.251 C 
ATOM     34  H   UNL A   1      36.072  32.181  31.001  1.00  0.00     0.163 HD
ATOM     35  O   UNL A   1      36.417  29.989  32.095  1.00  0.00    -0.269 OA
BRANCH  33  36
ATOM     36  C   UNL A   1      38.242  29.732  30.630  1.00  0.00     0.039 A 
ATOM     37  C   UNL A   1      39.336  29.446  31.452  1.00  0.00     0.014 A 
ATOM     38  C   UNL A   1      38.314  29.626  29.241  1.00  0.00     0.014 A 
ATOM     39  C   UNL A   1      40.558  29.171  30.860  1.00  0.00     0.010 A 
ATOM     40  C   UNL A   1      39.526  29.277  28.658  1.00  0.00     0.010 A 
ATOM     41  C   UNL A   1      40.663  29.088  29.460  1.00  0.00    -0.014 A 
BRANCH  41  42
ATOM     42  C   UNL A   1      41.964  28.786  28.827  1.00  0.00     0.031 A 
ATOM     43  C   UNL A   1      42.279  27.400  28.340  1.00  0.00     0.074 A 
ATOM     44  C   UNL A   1      42.865  29.778  28.714  1.00  0.00     0.049 A 
ATOM     45  N   UNL A   1      43.414  26.916  27.909  1.00  0.00    -0.248 NA
ATOM     46  C   UNL A   1      41.173  26.429  28.345  1.00  0.00     0.031 C 
ATOM     47  C   UNL A   1      42.638  31.169  29.113  1.00  0.00     0.029 A 
ATOM     48  N   UNL A   1      44.143  29.771  28.230  1.00  0.00    -0.354 N 
ATOM     49  C   UNL A   1      43.171  25.579  27.612  1.00  0.00     0.074 A 
ATOM     50  C   UNL A   1      41.783  25.324  27.936  1.00  0.00     0.031 C 
ATOM     51  C   UNL A   1      43.729  31.890  28.823  1.00  0.00     0.029 A 
ATOM     52  C   UNL A   1      44.757  30.996  28.304  1.00  0.00     0.049 A 
ATOM     53  H   UNL A   1      44.580  28.968  27.864  1.00  0.00     0.167 HD
ATOM     54  C   UNL A   1      44.031  24.657  27.113  1.00  0.00     0.037 A 
ATOM     55  C   UNL A   1      46.022  31.354  28.025  1.00  0.00     0.037 A 
ATOM     56  C   UNL A   1      45.413  24.939  26.805  1.00  0.00     0.049 A 
ATOM     57  C   UNL A   1      46.978  30.301  27.560  1.00  0.00     0.074 A 
ATOM     58  C   UNL A   1      46.382  24.083  26.313  1.00  0.00     0.029 A 
ATOM     59  N   UNL A   1      46.021  26.180  26.959  1.00  0.00    -0.354 N 
ATOM     60  N   UNL A   1      46.757  29.025  27.340  1.00  0.00    -0.248 NA
ATOM     61  C   UNL A   1      48.360  30.729  27.322  1.00  0.00     0.031 C 
ATOM     62  C   UNL A   1      47.585  24.795  26.211  1.00  0.00     0.029 A 
ATOM     63  C   UNL A   1      47.355  26.108  26.592  1.00  0.00     0.049 A 
ATOM     64  H   UNL A   1      45.569  26.992  27.283  1.00  0.00     0.167 HD
ATOM     65  C   UNL A   1      47.974  28.495  26.935  1.00  0.00     0.074 A 
ATOM     66  C   UNL A   1      48.919  29.598  26.915  1.00  0.00     0.031 C 
ATOM     67  C   UNL A   1      48.285  27.213  26.615  1.00  0.00     0.037 A 
BRANCH  54  68
ATOM     68  C   UNL A   1      43.507  23.259  26.910  1.00  0.00     0.058 A 
ATOM     69  C   UNL A   1      43.250  22.399  27.989  1.00  0.00     0.135 A 
ATOM     70  C   UNL A   1      43.270  22.765  25.615  1.00  0.00     0.135 A 
ATOM     71  F   UNL A   1      43.473  22.809  29.248  1.00  0.00    -0.206 F 
ATOM     72  C   UNL A   1      42.822  21.088  27.794  1.00  0.00     0.059 A 
ATOM     73  C   UNL A   1      42.813  21.467  25.397  1.00  0.00     0.059 A 
ATOM     74  F   UNL A   1      43.494  23.541  24.544  1.00  0.00    -0.206 F 
ATOM     75  C   UNL A   1      42.615  20.628  26.492  1.00  0.00     0.060 A 
BRANCH  75  76
ATOM     76  S   UNL A   1      42.108  18.912  26.252  1.00  0.00     0.124 S 
ATOM     77  O   UNL A   1      42.289  18.366  27.594  1.00  0.00    -0.237 OA
ATOM     78  O   UNL A   1      40.725  19.054  25.808  1.00  0.00    -0.237 OA
ATOM     79  O   UNL A   1      43.040  18.417  25.244  1.00  0.00    -0.744 OA
ENDBRANCH  75  76
ENDBRANCH  54  68
BRANCH  55  80
ATOM     80  C   UNL A   1      46.420  32.773  28.183  1.00  0.00     0.058 A 
ATOM     81  C   UNL A   1      47.051  33.204  29.358  1.00  0.00     0.135 A 
ATOM     82  C   UNL A   1      46.284  33.695  27.132  1.00  0.00     0.135 A 
ATOM     83  F   UNL A   1      47.198  32.357  30.388  1.00  0.00    -0.206 F 
ATOM     84  C   UNL A   1      47.556  34.492  29.479  1.00  0.00     0.059 A 
ATOM     85  C   UNL A   1      46.804  34.982  27.219  1.00  0.00     0.059 A 
ATOM     86  F   UNL A   1      45.705  33.322  25.981  1.00  0.00    -0.206 F 
ATOM     87  C   UNL A   1      47.442  35.369  28.397  1.00  0.00     0.060 A 
BRANCH  87  88
ATOM     88  S   UNL A   1      48.211  36.997  28.529  1.00  0.00     0.124 S 
ATOM     89  O   UNL A   1      47.259  37.704  29.378  1.00  0.00    -0.237 OA
ATOM     90  O   UNL A   1      49.497  36.677  29.140  1.00  0.00    -0.237 OA
ATOM     91  O   UNL A   1      48.279  37.451  27.142  1.00  0.00    -0.744 OA
ENDBRANCH  87  88
ENDBRANCH  55  80
BRANCH  67  92
ATOM     92  C   UNL A   1      49.712  26.951  26.221  1.00  0.00     0.058 A 
ATOM     93  C   UNL A   1      50.703  26.703  27.184  1.00  0.00     0.135 A 
ATOM     94  C   UNL A   1      50.096  26.959  24.871  1.00  0.00     0.135 A 
ATOM     95  F   UNL A   1      50.390  26.695  28.490  1.00  0.00    -0.206 F 
ATOM     96  C   UNL A   1      52.034  26.518  26.826  1.00  0.00     0.059 A 
ATOM     97  C   UNL A   1      51.415  26.745  24.487  1.00  0.00     0.059 A 
ATOM     98  F   UNL A   1      49.185  27.179  23.910  1.00  0.00    -0.206 F 
ATOM     99  C   UNL A   1      52.381  26.547  25.473  1.00  0.00     0.060 A 
BRANCH  99 100
ATOM    100  S   UNL A   1      54.114  26.325  25.023  1.00  0.00     0.124 S 
ATOM    101  O   UNL A   1      54.422  25.051  25.664  1.00  0.00    -0.237 OA
ATOM    102  O   UNL A   1      54.057  26.304  23.564  1.00  0.00    -0.237 OA
ATOM    103  O   UNL A   1      54.768  27.494  25.602  1.00  0.00    -0.744 OA
ENDBRANCH  99 100
ENDBRANCH  67  92
ENDBRANCH  41  42
ENDBRANCH  33  36
ENDBRANCH  31  32
ENDBRANCH  30  31
ENDBRANCH  29  30
ENDBRANCH   1  29
TORSDOF 21
ENDMDL
