MODEL 1
REMARK VINA RESULT:     -13.8      0.000      0.000
REMARK SMILES C[C@H]1[C@H](C)CC[C@@]2(C(=O)NCCCCCCNC(=O)c3ccc(-c4c5nc(c(-c6c(F)cc(S(=O)(=O)[O-])cc6F)c6ccc([nH]6)c(-c6c(F)cc(S(=O)(=O)[O-])cc6F)c6nc(c(-c7c(F)cc(S(=O)(=O)[O-])cc7F)c7ccc4[nH]7)C=C6)C=C5)cc3)CC[C@@]3(C)C(=CC[C@@H]4[C@@]5(C)CC[C@H](O)C(C)(C)[C@@H]5CC[C@]43C)[C@H]12
REMARK SMILES IDX 14 1 13 2 12 3 11 4 10 5 8 6 9 7 7 9 1 10 2 11 3 12 108 13
REMARK SMILES IDX 4 14 5 15 90 16 6 17 86 18 88 19 91 20 87 21 89 22 106 23
REMARK SMILES IDX 92 24 93 25 105 26 107 27 94 28 104 29 95 30 96 31 103 32
REMARK SMILES IDX 97 33 100 34 98 35 101 36 102 37 99 38 15 40 16 41 17 42
REMARK SMILES IDX 18 43 19 45 20 46 21 47 85 48 22 49 84 50 23 51 24 52 25 53
REMARK SMILES IDX 78 54 26 55 83 56 77 57 79 58 27 59 82 60 76 61 75 62 28 64
REMARK SMILES IDX 62 65 41 66 61 67 42 68 45 69 60 70 80 71 43 72 44 73 59 75
REMARK SMILES IDX 81 76 46 77 29 78 30 79 39 80 31 81 32 82 38 83 40 84 33 85
REMARK SMILES IDX 34 86 35 87 36 88 37 89 63 90 64 91 73 92 65 93 66 94 72 95
REMARK SMILES IDX 74 96 67 97 68 98 69 99 70 100 71 101 47 102 48 103 57 104
REMARK SMILES IDX 49 105 50 106 56 107 58 108 51 109 52 110 53 111 54 112
REMARK SMILES IDX 55 113
REMARK H PARENT 10 8 99 39 17 44 79 63 45 74
REMARK Flexibility Score: inf
ROOT
ATOM      1  C   UNL A   1      35.456  32.001  27.630  1.00  0.00     0.002 C 
ENDROOT
BRANCH   1   2
ATOM      2  C   UNL A   1      34.482  30.825  27.757  1.00  0.00     0.002 C 
BRANCH   2   3
ATOM      3  C   UNL A   1      35.028  29.393  27.649  1.00  0.00     0.021 C 
BRANCH   3   4
ATOM      4  C   UNL A   1      34.352  28.446  26.652  1.00  0.00     0.116 C 
BRANCH   4   5
ATOM      5  N   UNL A   1      34.029  29.044  25.370  1.00  0.00    -0.356 N 
ATOM      6  C   UNL A   1      32.863  29.114  24.660  1.00  0.00     0.226 C 
ATOM      7  O   UNL A   1      33.034  29.127  23.432  1.00  0.00    -0.274 OA
ATOM      8  H   UNL A   1      34.793  29.482  24.929  1.00  0.00     0.163 HD
BRANCH   6   9
ATOM      9  C   UNL A   1      31.411  29.237  25.268  1.00  0.00     0.056 C 
ATOM     10  C   UNL A   1      28.714  29.074  22.376  1.00  0.00     0.008 C 
ATOM     11  C   UNL A   1      29.854  29.662  23.226  1.00  0.00    -0.003 C 
ATOM     12  C   UNL A   1      29.407  31.011  23.876  1.00  0.00    -0.011 C 
ATOM     13  C   UNL A   1      30.299  28.676  24.334  1.00  0.00     0.034 C 
ATOM     14  C   UNL A   1      29.048  32.105  22.861  1.00  0.00     0.008 C 
ATOM     15  C   UNL A   1      30.420  31.625  24.855  1.00  0.00     0.005 C 
ATOM     16  C   UNL A   1      30.755  27.249  23.980  1.00  0.00    -0.063 C 
ATOM     17  C   UNL A   1      31.135  30.663  25.782  1.00  0.00     0.018 C 
ATOM     18  C   UNL A   1      31.337  28.331  26.564  1.00  0.00     0.018 C 
ATOM     19  C   UNL A   1      30.623  26.212  25.130  1.00  0.00    -0.006 C 
ATOM     20  C   UNL A   1      31.483  27.002  22.870  1.00  0.00    -0.027 C 
ATOM     21  C   UNL A   1      31.377  26.803  26.373  1.00  0.00     0.013 C 
ATOM     22  C   UNL A   1      29.128  26.043  25.513  1.00  0.00     0.017 C 
ATOM     23  C   UNL A   1      31.241  24.767  24.704  1.00  0.00    -0.020 C 
ATOM     24  C   UNL A   1      32.396  25.813  22.708  1.00  0.00     0.032 C 
ATOM     25  C   UNL A   1      32.641  25.075  24.050  1.00  0.00     0.006 C 
ATOM     26  C   UNL A   1      31.372  23.807  25.917  1.00  0.00     0.008 C 
ATOM     27  C   UNL A   1      30.294  24.042  23.697  1.00  0.00     0.012 C 
ATOM     28  C   UNL A   1      33.756  23.944  24.037  1.00  0.00    -0.025 C 
ATOM     29  C   UNL A   1      32.279  22.604  25.648  1.00  0.00     0.005 C 
ATOM     30  C   UNL A   1      33.645  23.105  22.749  1.00  0.00     0.012 C 
ATOM     31  C   UNL A   1      35.153  24.648  24.048  1.00  0.00     0.010 C 
ATOM     32  C   UNL A   1      33.700  23.106  25.367  1.00  0.00     0.003 C 
ATOM     33  C   UNL A   1      36.337  23.695  24.218  1.00  0.00     0.033 C 
ATOM     34  C   UNL A   1      34.843  22.041  25.566  1.00  0.00    -0.006 C 
ATOM     35  C   UNL A   1      36.210  22.781  25.439  1.00  0.00     0.120 C 
ATOM     36  C   UNL A   1      34.754  20.821  24.626  1.00  0.00     0.014 C 
ATOM     37  C   UNL A   1      34.779  21.451  27.006  1.00  0.00     0.014 C 
BRANCH  35  38
ATOM     38  O   UNL A   1      37.302  21.858  25.441  1.00  0.00    -0.393 OA
ATOM     39  H   UNL A   1      37.174  21.204  24.738  1.00  0.00     0.210 HD
ENDBRANCH  35  38
ENDBRANCH   6   9
ENDBRANCH   4   5
ENDBRANCH   3   4
ENDBRANCH   2   3
ENDBRANCH   1   2
BRANCH   1  40
ATOM     40  C   UNL A   1      35.448  33.069  28.722  1.00  0.00     0.021 C 
BRANCH  40  41
ATOM     41  C   UNL A   1      36.397  32.906  29.901  1.00  0.00     0.116 C 
BRANCH  41  42
ATOM     42  N   UNL A   1      36.020  31.873  30.842  1.00  0.00    -0.352 N 
ATOM     43  C   UNL A   1      36.712  30.740  31.217  1.00  0.00     0.251 C 
ATOM     44  H   UNL A   1      35.146  31.996  31.276  1.00  0.00     0.163 HD
ATOM     45  O   UNL A   1      36.203  29.963  32.015  1.00  0.00    -0.269 OA
BRANCH  43  46
ATOM     46  C   UNL A   1      38.044  30.430  30.631  1.00  0.00     0.039 A 
ATOM     47  C   UNL A   1      39.124  30.245  31.501  1.00  0.00     0.014 A 
ATOM     48  C   UNL A   1      38.249  30.329  29.252  1.00  0.00     0.014 A 
ATOM     49  C   UNL A   1      40.382  29.898  30.997  1.00  0.00     0.010 A 
ATOM     50  C   UNL A   1      39.484  29.910  28.755  1.00  0.00     0.010 A 
ATOM     51  C   UNL A   1      40.567  29.693  29.620  1.00  0.00    -0.014 A 
BRANCH  51  52
ATOM     52  C   UNL A   1      41.886  29.272  29.072  1.00  0.00     0.031 A 
ATOM     53  C   UNL A   1      43.001  30.276  28.926  1.00  0.00     0.074 A 
ATOM     54  C   UNL A   1      42.070  28.001  28.658  1.00  0.00     0.049 A 
ATOM     55  N   UNL A   1      44.192  30.121  28.407  1.00  0.00    -0.248 NA
ATOM     56  C   UNL A   1      42.730  31.643  29.403  1.00  0.00     0.031 C 
ATOM     57  C   UNL A   1      41.058  26.943  28.699  1.00  0.00     0.029 A 
ATOM     58  N   UNL A   1      43.168  27.385  28.112  1.00  0.00    -0.354 N 
ATOM     59  C   UNL A   1      44.805  31.367  28.481  1.00  0.00     0.074 A 
ATOM     60  C   UNL A   1      43.837  32.279  29.048  1.00  0.00     0.031 C 
ATOM     61  C   UNL A   1      41.587  25.807  28.217  1.00  0.00     0.029 A 
ATOM     62  C   UNL A   1      42.964  26.060  27.802  1.00  0.00     0.049 A 
ATOM     63  H   UNL A   1      44.022  27.848  27.955  1.00  0.00     0.167 HD
ATOM     64  C   UNL A   1      46.068  31.715  28.133  1.00  0.00     0.037 A 
ATOM     65  C   UNL A   1      43.789  25.151  27.244  1.00  0.00     0.037 A 
ATOM     66  C   UNL A   1      47.043  30.796  27.605  1.00  0.00     0.049 A 
ATOM     67  C   UNL A   1      45.193  25.557  26.882  1.00  0.00     0.074 A 
ATOM     68  C   UNL A   1      48.362  31.041  27.270  1.00  0.00     0.029 A 
ATOM     69  N   UNL A   1      46.806  29.455  27.342  1.00  0.00    -0.354 N 
ATOM     70  N   UNL A   1      45.769  26.730  27.008  1.00  0.00    -0.248 NA
ATOM     71  C   UNL A   1      46.062  24.518  26.313  1.00  0.00     0.031 C 
ATOM     72  C   UNL A   1      48.917  29.856  26.776  1.00  0.00     0.029 A 
ATOM     73  C   UNL A   1      47.953  28.862  26.841  1.00  0.00     0.049 A 
ATOM     74  H   UNL A   1      45.950  28.993  27.490  1.00  0.00     0.167 HD
ATOM     75  C   UNL A   1      47.074  26.561  26.557  1.00  0.00     0.074 A 
ATOM     76  C   UNL A   1      47.207  25.172  26.168  1.00  0.00     0.031 C 
ATOM     77  C   UNL A   1      48.073  27.474  26.473  1.00  0.00     0.037 A 
BRANCH  64  78
ATOM     78  C   UNL A   1      46.477  33.149  28.329  1.00  0.00     0.058 A 
ATOM     79  C   UNL A   1      47.055  33.588  29.532  1.00  0.00     0.135 A 
ATOM     80  C   UNL A   1      46.334  34.084  27.292  1.00  0.00     0.135 A 
ATOM     81  F   UNL A   1      47.200  32.739  30.561  1.00  0.00    -0.206 F 
ATOM     82  C   UNL A   1      47.452  34.909  29.707  1.00  0.00     0.059 A 
ATOM     83  C   UNL A   1      46.750  35.405  27.436  1.00  0.00     0.059 A 
ATOM     84  F   UNL A   1      45.788  33.718  26.121  1.00  0.00    -0.206 F 
ATOM     85  C   UNL A   1      47.296  35.811  28.653  1.00  0.00     0.060 A 
BRANCH  85  86
ATOM     86  S   UNL A   1      47.830  37.518  28.894  1.00  0.00     0.124 S 
ATOM     87  O   UNL A   1      47.615  37.691  30.328  1.00  0.00    -0.237 OA
ATOM     88  O   UNL A   1      49.224  37.474  28.464  1.00  0.00    -0.237 OA
ATOM     89  O   UNL A   1      46.934  38.280  28.029  1.00  0.00    -0.744 OA
ENDBRANCH  85  86
ENDBRANCH  64  78
BRANCH  65  90
ATOM     90  C   UNL A   1      43.319  23.760  27.006  1.00  0.00     0.058 A 
ATOM     91  C   UNL A   1      43.007  23.313  25.713  1.00  0.00     0.135 A 
ATOM     92  C   UNL A   1      43.165  22.851  28.065  1.00  0.00     0.135 A 
ATOM     93  F   UNL A   1      43.132  24.146  24.668  1.00  0.00    -0.206 F 
ATOM     94  C   UNL A   1      42.538  22.025  25.479  1.00  0.00     0.059 A 
ATOM     95  C   UNL A   1      42.721  21.550  27.854  1.00  0.00     0.059 A 
ATOM     96  F   UNL A   1      43.466  23.224  29.319  1.00  0.00    -0.206 F 
ATOM     97  C   UNL A   1      42.397  21.150  26.557  1.00  0.00     0.060 A 
BRANCH  97  98
ATOM     98  S   UNL A   1      41.819  19.467  26.242  1.00  0.00     0.124 S 
ATOM     99  O   UNL A   1      42.276  18.771  27.439  1.00  0.00    -0.237 OA
ATOM    100  O   UNL A   1      40.377  19.655  26.122  1.00  0.00    -0.237 OA
ATOM    101  O   UNL A   1      42.500  19.108  25.002  1.00  0.00    -0.744 OA
ENDBRANCH  97  98
ENDBRANCH  65  90
BRANCH  77 102
ATOM    102  C   UNL A   1      49.408  26.997  25.974  1.00  0.00     0.058 A 
ATOM    103  C   UNL A   1      49.775  27.115  24.625  1.00  0.00     0.135 A 
ATOM    104  C   UNL A   1      50.351  26.466  26.869  1.00  0.00     0.135 A 
ATOM    105  F   UNL A   1      48.908  27.611  23.730  1.00  0.00    -0.206 F 
ATOM    106  C   UNL A   1      51.026  26.703  24.175  1.00  0.00     0.059 A 
ATOM    107  C   UNL A   1      51.616  26.070  26.445  1.00  0.00     0.059 A 
ATOM    108  F   UNL A   1      50.051  26.341  28.172  1.00  0.00    -0.206 F 
ATOM    109  C   UNL A   1      51.940  26.184  25.094  1.00  0.00     0.060 A 
BRANCH 109 110
ATOM    110  S   UNL A   1      53.573  25.688  24.505  1.00  0.00     0.124 S 
ATOM    111  O   UNL A   1      53.528  26.125  23.113  1.00  0.00    -0.237 OA
ATOM    112  O   UNL A   1      54.464  26.443  25.378  1.00  0.00    -0.237 OA
ATOM    113  O   UNL A   1      53.583  24.242  24.709  1.00  0.00    -0.744 OA
ENDBRANCH 109 110
ENDBRANCH  77 102
ENDBRANCH  51  52
ENDBRANCH  43  46
ENDBRANCH  41  42
ENDBRANCH  40  41
ENDBRANCH   1  40
TORSDOF 17
ENDMDL
MODEL 2
REMARK VINA RESULT:     -13.8      5.949     11.752
REMARK SMILES C[C@H]1[C@H](C)CC[C@@]2(C(=O)NCCCCCCNC(=O)c3ccc(-c4c5nc(c(-c6c(F)cc(S(=O)(=O)[O-])cc6F)c6ccc([nH]6)c(-c6c(F)cc(S(=O)(=O)[O-])cc6F)c6nc(c(-c7c(F)cc(S(=O)(=O)[O-])cc7F)c7ccc4[nH]7)C=C6)C=C5)cc3)CC[C@@]3(C)C(=CC[C@@H]4[C@@]5(C)CC[C@H](O)C(C)(C)[C@@H]5CC[C@]43C)[C@H]12
REMARK SMILES IDX 14 1 13 2 12 3 11 4 10 5 8 6 9 7 7 9 1 10 2 11 3 12 108 13
REMARK SMILES IDX 4 14 5 15 90 16 6 17 86 18 88 19 91 20 87 21 89 22 106 23
REMARK SMILES IDX 92 24 93 25 105 26 107 27 94 28 104 29 95 30 96 31 103 32
REMARK SMILES IDX 97 33 100 34 98 35 101 36 102 37 99 38 15 40 16 41 17 42
REMARK SMILES IDX 18 43 19 45 20 46 21 47 85 48 22 49 84 50 23 51 24 52 25 53
REMARK SMILES IDX 78 54 26 55 83 56 77 57 79 58 27 59 82 60 76 61 75 62 28 64
REMARK SMILES IDX 62 65 41 66 61 67 42 68 45 69 60 70 80 71 43 72 44 73 59 75
REMARK SMILES IDX 81 76 46 77 29 78 30 79 39 80 31 81 32 82 38 83 40 84 33 85
REMARK SMILES IDX 34 86 35 87 36 88 37 89 63 90 64 91 73 92 65 93 66 94 72 95
REMARK SMILES IDX 74 96 67 97 68 98 69 99 70 100 71 101 47 102 48 103 57 104
REMARK SMILES IDX 49 105 50 106 56 107 58 108 51 109 52 110 53 111 54 112
REMARK SMILES IDX 55 113
REMARK H PARENT 10 8 99 39 17 44 79 63 45 74
REMARK Flexibility Score: inf
ROOT
ATOM      1  C   UNL A   1      40.244  21.397  26.399  1.00  0.00     0.002 C 
ENDROOT
BRANCH   1   2
ATOM      2  C   UNL A   1      38.829  21.845  26.015  1.00  0.00     0.002 C 
BRANCH   2   3
ATOM      3  C   UNL A   1      38.453  23.326  26.161  1.00  0.00     0.021 C 
BRANCH   3   4
ATOM      4  C   UNL A   1      36.967  23.695  26.090  1.00  0.00     0.116 C 
BRANCH   4   5
ATOM      5  N   UNL A   1      36.071  22.715  26.675  1.00  0.00    -0.356 N 
ATOM      6  C   UNL A   1      35.149  21.872  26.121  1.00  0.00     0.226 C 
ATOM      7  O   UNL A   1      34.183  21.640  26.863  1.00  0.00    -0.274 OA
ATOM      8  H   UNL A   1      36.139  22.645  27.655  1.00  0.00     0.163 HD
BRANCH   6   9
ATOM      9  C   UNL A   1      35.262  21.169  24.711  1.00  0.00     0.056 C 
ATOM     10  C   UNL A   1      32.150  18.794  24.130  1.00  0.00     0.008 C 
ATOM     11  C   UNL A   1      33.471  19.280  24.750  1.00  0.00    -0.003 C 
ATOM     12  C   UNL A   1      34.604  18.231  24.505  1.00  0.00    -0.011 C 
ATOM     13  C   UNL A   1      33.899  20.649  24.167  1.00  0.00     0.034 C 
ATOM     14  C   UNL A   1      34.335  16.860  25.140  1.00  0.00     0.008 C 
ATOM     15  C   UNL A   1      36.003  18.670  24.966  1.00  0.00     0.005 C 
ATOM     16  C   UNL A   1      32.952  21.862  24.233  1.00  0.00    -0.063 C 
ATOM     17  C   UNL A   1      36.384  20.113  24.698  1.00  0.00     0.018 C 
ATOM     18  C   UNL A   1      35.727  22.250  23.653  1.00  0.00     0.018 C 
ATOM     19  C   UNL A   1      33.214  22.959  23.165  1.00  0.00    -0.006 C 
ATOM     20  C   UNL A   1      32.170  22.081  25.312  1.00  0.00    -0.027 C 
ATOM     21  C   UNL A   1      34.727  23.359  23.276  1.00  0.00     0.013 C 
ATOM     22  C   UNL A   1      32.976  22.376  21.746  1.00  0.00     0.017 C 
ATOM     23  C   UNL A   1      32.249  24.253  23.389  1.00  0.00    -0.020 C 
ATOM     24  C   UNL A   1      31.640  23.436  25.708  1.00  0.00     0.032 C 
ATOM     25  C   UNL A   1      32.329  24.586  24.927  1.00  0.00     0.006 C 
ATOM     26  C   UNL A   1      32.680  25.461  22.516  1.00  0.00     0.008 C 
ATOM     27  C   UNL A   1      30.785  23.925  22.957  1.00  0.00     0.012 C 
ATOM     28  C   UNL A   1      32.006  26.061  25.419  1.00  0.00    -0.025 C 
ATOM     29  C   UNL A   1      32.058  26.787  22.960  1.00  0.00     0.005 C 
ATOM     30  C   UNL A   1      30.507  26.194  25.746  1.00  0.00     0.012 C 
ATOM     31  C   UNL A   1      32.822  26.320  26.728  1.00  0.00     0.010 C 
ATOM     32  C   UNL A   1      32.542  27.113  24.378  1.00  0.00     0.003 C 
ATOM     33  C   UNL A   1      32.761  27.762  27.233  1.00  0.00     0.033 C 
ATOM     34  C   UNL A   1      32.428  28.626  24.799  1.00  0.00    -0.006 C 
ATOM     35  C   UNL A   1      33.149  28.794  26.172  1.00  0.00     0.120 C 
ATOM     36  C   UNL A   1      30.987  29.177  24.829  1.00  0.00     0.014 C 
ATOM     37  C   UNL A   1      33.186  29.523  23.776  1.00  0.00     0.014 C 
BRANCH  35  38
ATOM     38  O   UNL A   1      32.949  30.104  26.706  1.00  0.00    -0.393 OA
ATOM     39  H   UNL A   1      33.316  30.762  26.096  1.00  0.00     0.210 HD
ENDBRANCH  35  38
ENDBRANCH   6   9
ENDBRANCH   4   5
ENDBRANCH   3   4
ENDBRANCH   2   3
ENDBRANCH   1   2
BRANCH   1  40
ATOM     40  C   UNL A   1      40.896  22.032  27.625  1.00  0.00     0.021 C 
BRANCH  40  41
ATOM     41  C   UNL A   1      42.051  23.000  27.412  1.00  0.00     0.116 C 
BRANCH  41  42
ATOM     42  N   UNL A   1      41.954  23.800  26.211  1.00  0.00    -0.352 N 
ATOM     43  C   UNL A   1      41.743  25.158  26.080  1.00  0.00     0.251 C 
ATOM     44  H   UNL A   1      42.053  23.306  25.366  1.00  0.00     0.163 HD
ATOM     45  O   UNL A   1      41.661  25.647  24.961  1.00  0.00    -0.269 OA
BRANCH  43  46
ATOM     46  C   UNL A   1      41.570  26.022  27.280  1.00  0.00     0.039 A 
ATOM     47  C   UNL A   1      42.530  27.008  27.530  1.00  0.00     0.014 A 
ATOM     48  C   UNL A   1      40.495  25.872  28.160  1.00  0.00     0.014 A 
ATOM     49  C   UNL A   1      42.379  27.878  28.615  1.00  0.00     0.010 A 
ATOM     50  C   UNL A   1      40.305  26.787  29.197  1.00  0.00     0.010 A 
ATOM     51  C   UNL A   1      41.245  27.799  29.440  1.00  0.00    -0.014 A 
BRANCH  51  52
ATOM     52  C   UNL A   1      41.042  28.751  30.567  1.00  0.00     0.031 A 
ATOM     53  C   UNL A   1      41.895  28.651  31.806  1.00  0.00     0.074 A 
ATOM     54  C   UNL A   1      40.059  29.673  30.502  1.00  0.00     0.049 A 
ATOM     55  N   UNL A   1      41.824  29.339  32.917  1.00  0.00    -0.248 NA
ATOM     56  C   UNL A   1      42.950  27.624  31.805  1.00  0.00     0.031 C 
ATOM     57  C   UNL A   1      39.132  29.844  29.381  1.00  0.00     0.029 A 
ATOM     58  N   UNL A   1      39.668  30.634  31.401  1.00  0.00    -0.354 N 
ATOM     59  C   UNL A   1      42.810  28.820  33.749  1.00  0.00     0.074 A 
ATOM     60  C   UNL A   1      43.432  27.727  33.035  1.00  0.00     0.031 C 
ATOM     61  C   UNL A   1      38.294  30.858  29.651  1.00  0.00     0.029 A 
ATOM     62  C   UNL A   1      38.600  31.390  30.976  1.00  0.00     0.049 A 
ATOM     63  H   UNL A   1      40.111  30.770  32.270  1.00  0.00     0.167 HD
ATOM     64  C   UNL A   1      43.183  29.233  34.985  1.00  0.00     0.037 A 
ATOM     65  C   UNL A   1      37.939  32.396  31.584  1.00  0.00     0.037 A 
ATOM     66  C   UNL A   1      42.588  30.346  35.679  1.00  0.00     0.049 A 
ATOM     67  C   UNL A   1      38.383  32.847  32.950  1.00  0.00     0.074 A 
ATOM     68  C   UNL A   1      42.929  30.872  36.912  1.00  0.00     0.029 A 
ATOM     69  N   UNL A   1      41.534  31.108  35.197  1.00  0.00    -0.354 N 
ATOM     70  N   UNL A   1      39.352  32.376  33.699  1.00  0.00    -0.248 NA
ATOM     71  C   UNL A   1      37.653  33.972  33.550  1.00  0.00     0.031 C 
ATOM     72  C   UNL A   1      42.063  31.935  37.190  1.00  0.00     0.029 A 
ATOM     73  C   UNL A   1      41.208  32.095  36.112  1.00  0.00     0.049 A 
ATOM     74  H   UNL A   1      41.085  30.968  34.332  1.00  0.00     0.167 HD
ATOM     75  C   UNL A   1      39.362  33.163  34.845  1.00  0.00     0.074 A 
ATOM     76  C   UNL A   1      38.313  34.148  34.686  1.00  0.00     0.031 C 
ATOM     77  C   UNL A   1      40.169  33.078  35.932  1.00  0.00     0.037 A 
BRANCH  64  78
ATOM     78  C   UNL A   1      44.300  28.488  35.664  1.00  0.00     0.058 A 
ATOM     79  C   UNL A   1      44.044  27.402  36.516  1.00  0.00     0.135 A 
ATOM     80  C   UNL A   1      45.640  28.834  35.427  1.00  0.00     0.135 A 
ATOM     81  F   UNL A   1      42.781  27.040  36.789  1.00  0.00    -0.206 F 
ATOM     82  C   UNL A   1      45.077  26.700  37.128  1.00  0.00     0.059 A 
ATOM     83  C   UNL A   1      46.690  28.128  36.007  1.00  0.00     0.059 A 
ATOM     84  F   UNL A   1      45.940  29.864  34.621  1.00  0.00    -0.206 F 
ATOM     85  C   UNL A   1      46.397  27.069  36.867  1.00  0.00     0.060 A 
BRANCH  85  86
ATOM     86  S   UNL A   1      47.726  26.138  37.659  1.00  0.00     0.124 S 
ATOM     87  O   UNL A   1      47.037  24.903  38.024  1.00  0.00    -0.237 OA
ATOM     88  O   UNL A   1      48.709  26.022  36.588  1.00  0.00    -0.237 OA
ATOM     89  O   UNL A   1      48.118  26.991  38.778  1.00  0.00    -0.744 OA
ENDBRANCH  85  86
ENDBRANCH  64  78
BRANCH  65  90
ATOM     90  C   UNL A   1      36.795  33.059  30.902  1.00  0.00     0.058 A 
ATOM     91  C   UNL A   1      37.007  33.974  29.860  1.00  0.00     0.135 A 
ATOM     92  C   UNL A   1      35.469  32.797  31.281  1.00  0.00     0.135 A 
ATOM     93  F   UNL A   1      38.257  34.263  29.465  1.00  0.00    -0.206 F 
ATOM     94  C   UNL A   1      35.949  34.625  29.233  1.00  0.00     0.059 A 
ATOM     95  C   UNL A   1      34.393  33.416  30.653  1.00  0.00     0.059 A 
ATOM     96  F   UNL A   1      35.211  31.917  32.261  1.00  0.00    -0.206 F 
ATOM     97  C   UNL A   1      34.645  34.339  29.638  1.00  0.00     0.060 A 
BRANCH  97  98
ATOM     98  S   UNL A   1      33.274  35.162  28.796  1.00  0.00     0.124 S 
ATOM     99  O   UNL A   1      32.485  35.644  29.924  1.00  0.00    -0.237 OA
ATOM    100  O   UNL A   1      33.962  36.184  28.013  1.00  0.00    -0.237 OA
ATOM    101  O   UNL A   1      32.670  34.087  28.014  1.00  0.00    -0.744 OA
ENDBRANCH  97  98
ENDBRANCH  65  90
BRANCH  77 102
ATOM    102  C   UNL A   1      39.975  34.095  37.021  1.00  0.00     0.058 A 
ATOM    103  C   UNL A   1      40.562  35.367  36.953  1.00  0.00     0.135 A 
ATOM    104  C   UNL A   1      39.146  33.810  38.119  1.00  0.00     0.135 A 
ATOM    105  F   UNL A   1      41.366  35.687  35.928  1.00  0.00    -0.206 F 
ATOM    106  C   UNL A   1      40.352  36.317  37.947  1.00  0.00     0.059 A 
ATOM    107  C   UNL A   1      38.903  34.753  39.112  1.00  0.00     0.059 A 
ATOM    108  F   UNL A   1      38.553  32.610  38.224  1.00  0.00    -0.206 F 
ATOM    109  C   UNL A   1      39.518  36.001  39.023  1.00  0.00     0.060 A 
BRANCH 109 110
ATOM    110  S   UNL A   1      39.222  37.254  40.288  1.00  0.00     0.124 S 
ATOM    111  O   UNL A   1      40.585  37.647  40.636  1.00  0.00    -0.237 OA
ATOM    112  O   UNL A   1      38.440  38.251  39.565  1.00  0.00    -0.237 OA
ATOM    113  O   UNL A   1      38.494  36.526  41.323  1.00  0.00    -0.744 OA
ENDBRANCH 109 110
ENDBRANCH  77 102
ENDBRANCH  51  52
ENDBRANCH  43  46
ENDBRANCH  41  42
ENDBRANCH  40  41
ENDBRANCH   1  40
TORSDOF 17
ENDMDL
MODEL 3
REMARK VINA RESULT:     -13.7      0.418      7.590
REMARK SMILES C[C@H]1[C@H](C)CC[C@@]2(C(=O)NCCCCCCNC(=O)c3ccc(-c4c5nc(c(-c6c(F)cc(S(=O)(=O)[O-])cc6F)c6ccc([nH]6)c(-c6c(F)cc(S(=O)(=O)[O-])cc6F)c6nc(c(-c7c(F)cc(S(=O)(=O)[O-])cc7F)c7ccc4[nH]7)C=C6)C=C5)cc3)CC[C@@]3(C)C(=CC[C@@H]4[C@@]5(C)CC[C@H](O)C(C)(C)[C@@H]5CC[C@]43C)[C@H]12
REMARK SMILES IDX 14 1 13 2 12 3 11 4 10 5 8 6 9 7 7 9 1 10 2 11 3 12 108 13
REMARK SMILES IDX 4 14 5 15 90 16 6 17 86 18 88 19 91 20 87 21 89 22 106 23
REMARK SMILES IDX 92 24 93 25 105 26 107 27 94 28 104 29 95 30 96 31 103 32
REMARK SMILES IDX 97 33 100 34 98 35 101 36 102 37 99 38 15 40 16 41 17 42
REMARK SMILES IDX 18 43 19 45 20 46 21 47 85 48 22 49 84 50 23 51 24 52 25 53
REMARK SMILES IDX 78 54 26 55 83 56 77 57 79 58 27 59 82 60 76 61 75 62 28 64
REMARK SMILES IDX 62 65 41 66 61 67 42 68 45 69 60 70 80 71 43 72 44 73 59 75
REMARK SMILES IDX 81 76 46 77 29 78 30 79 39 80 31 81 32 82 38 83 40 84 33 85
REMARK SMILES IDX 34 86 35 87 36 88 37 89 63 90 64 91 73 92 65 93 66 94 72 95
REMARK SMILES IDX 74 96 67 97 68 98 69 99 70 100 71 101 47 102 48 103 57 104
REMARK SMILES IDX 49 105 50 106 56 107 58 108 51 109 52 110 53 111 54 112
REMARK SMILES IDX 55 113
REMARK H PARENT 10 8 99 39 17 44 79 63 45 74
REMARK Flexibility Score: inf
ROOT
ATOM      1  C   UNL A   1      35.489  32.128  27.700  1.00  0.00     0.002 C 
ENDROOT
BRANCH   1   2
ATOM      2  C   UNL A   1      34.470  30.983  27.701  1.00  0.00     0.002 C 
BRANCH   2   3
ATOM      3  C   UNL A   1      34.979  29.535  27.750  1.00  0.00     0.021 C 
BRANCH   3   4
ATOM      4  C   UNL A   1      34.365  28.530  26.769  1.00  0.00     0.116 C 
BRANCH   4   5
ATOM      5  N   UNL A   1      34.064  29.069  25.456  1.00  0.00    -0.356 N 
ATOM      6  C   UNL A   1      32.916  29.089  24.715  1.00  0.00     0.226 C 
ATOM      7  O   UNL A   1      33.119  29.055  23.492  1.00  0.00    -0.274 OA
ATOM      8  H   UNL A   1      34.832  29.503  25.017  1.00  0.00     0.163 HD
BRANCH   6   9
ATOM      9  C   UNL A   1      31.447  29.209  25.281  1.00  0.00     0.056 C 
ATOM     10  C   UNL A   1      28.837  29.067  22.309  1.00  0.00     0.008 C 
ATOM     11  C   UNL A   1      29.951  29.649  23.196  1.00  0.00    -0.003 C 
ATOM     12  C   UNL A   1      29.486  30.994  23.841  1.00  0.00    -0.011 C 
ATOM     13  C   UNL A   1      30.363  28.655  24.310  1.00  0.00     0.034 C 
ATOM     14  C   UNL A   1      29.158  32.095  22.823  1.00  0.00     0.008 C 
ATOM     15  C   UNL A   1      30.470  31.600  24.853  1.00  0.00     0.005 C 
ATOM     16  C   UNL A   1      30.828  27.229  23.961  1.00  0.00    -0.063 C 
ATOM     17  C   UNL A   1      31.157  30.632  25.796  1.00  0.00     0.018 C 
ATOM     18  C   UNL A   1      31.334  28.295  26.568  1.00  0.00     0.018 C 
ATOM     19  C   UNL A   1      30.661  26.186  25.100  1.00  0.00    -0.006 C 
ATOM     20  C   UNL A   1      31.588  26.989  22.871  1.00  0.00    -0.027 C 
ATOM     21  C   UNL A   1      31.378  26.768  26.368  1.00  0.00     0.013 C 
ATOM     22  C   UNL A   1      29.155  26.016  25.437  1.00  0.00     0.017 C 
ATOM     23  C   UNL A   1      31.290  24.742  24.683  1.00  0.00    -0.020 C 
ATOM     24  C   UNL A   1      32.504  25.800  22.728  1.00  0.00     0.032 C 
ATOM     25  C   UNL A   1      32.709  25.053  24.073  1.00  0.00     0.006 C 
ATOM     26  C   UNL A   1      31.384  23.775  25.893  1.00  0.00     0.008 C 
ATOM     27  C   UNL A   1      30.372  24.025  23.644  1.00  0.00     0.012 C 
ATOM     28  C   UNL A   1      33.823  23.922  24.085  1.00  0.00    -0.025 C 
ATOM     29  C   UNL A   1      32.298  22.573  25.643  1.00  0.00     0.005 C 
ATOM     30  C   UNL A   1      33.749  23.091  22.789  1.00  0.00     0.012 C 
ATOM     31  C   UNL A   1      35.220  24.624  24.142  1.00  0.00     0.010 C 
ATOM     32  C   UNL A   1      33.727  23.076  25.408  1.00  0.00     0.003 C 
ATOM     33  C   UNL A   1      36.397  23.669  24.341  1.00  0.00     0.033 C 
ATOM     34  C   UNL A   1      34.863  22.008  25.634  1.00  0.00    -0.006 C 
ATOM     35  C   UNL A   1      36.234  22.747  25.551  1.00  0.00     0.120 C 
ATOM     36  C   UNL A   1      34.801  20.794  24.683  1.00  0.00     0.014 C 
ATOM     37  C   UNL A   1      34.756  21.409  27.067  1.00  0.00     0.014 C 
BRANCH  35  38
ATOM     38  O   UNL A   1      37.324  21.824  25.581  1.00  0.00    -0.393 OA
ATOM     39  H   UNL A   1      38.157  22.301  25.446  1.00  0.00     0.210 HD
ENDBRANCH  35  38
ENDBRANCH   6   9
ENDBRANCH   4   5
ENDBRANCH   3   4
ENDBRANCH   2   3
ENDBRANCH   1   2
BRANCH   1  40
ATOM     40  C   UNL A   1      35.533  33.059  28.909  1.00  0.00     0.021 C 
BRANCH  40  41
ATOM     41  C   UNL A   1      36.499  32.734  30.039  1.00  0.00     0.116 C 
BRANCH  41  42
ATOM     42  N   UNL A   1      36.122  31.594  30.847  1.00  0.00    -0.352 N 
ATOM     43  C   UNL A   1      36.826  30.436  31.106  1.00  0.00     0.251 C 
ATOM     44  H   UNL A   1      35.237  31.653  31.272  1.00  0.00     0.163 HD
ATOM     45  O   UNL A   1      36.315  29.565  31.798  1.00  0.00    -0.269 OA
BRANCH  43  46
ATOM     46  C   UNL A   1      38.176  30.216  30.519  1.00  0.00     0.039 A 
ATOM     47  C   UNL A   1      39.259  30.051  31.389  1.00  0.00     0.014 A 
ATOM     48  C   UNL A   1      38.393  30.181  29.138  1.00  0.00     0.014 A 
ATOM     49  C   UNL A   1      40.536  29.788  30.881  1.00  0.00     0.010 A 
ATOM     50  C   UNL A   1      39.651  29.844  28.635  1.00  0.00     0.010 A 
ATOM     51  C   UNL A   1      40.739  29.647  29.499  1.00  0.00    -0.014 A 
BRANCH  51  52
ATOM     52  C   UNL A   1      42.080  29.315  28.945  1.00  0.00     0.031 A 
ATOM     53  C   UNL A   1      42.372  27.921  28.452  1.00  0.00     0.074 A 
ATOM     54  C   UNL A   1      43.054  30.249  28.931  1.00  0.00     0.049 A 
ATOM     55  N   UNL A   1      43.494  27.420  28.003  1.00  0.00    -0.248 NA
ATOM     56  C   UNL A   1      41.261  26.956  28.494  1.00  0.00     0.031 C 
ATOM     57  C   UNL A   1      42.918  31.622  29.423  1.00  0.00     0.029 A 
ATOM     58  N   UNL A   1      44.354  30.184  28.496  1.00  0.00    -0.354 N 
ATOM     59  C   UNL A   1      43.230  26.084  27.724  1.00  0.00     0.074 A 
ATOM     60  C   UNL A   1      41.856  25.838  28.102  1.00  0.00     0.031 C 
ATOM     61  C   UNL A   1      44.079  32.272  29.246  1.00  0.00     0.029 A 
ATOM     62  C   UNL A   1      45.053  31.358  28.658  1.00  0.00     0.049 A 
ATOM     63  H   UNL A   1      44.751  29.372  28.104  1.00  0.00     0.167 HD
ATOM     64  C   UNL A   1      44.048  25.151  27.178  1.00  0.00     0.037 A 
ATOM     65  C   UNL A   1      46.335  31.664  28.371  1.00  0.00     0.037 A 
ATOM     66  C   UNL A   1      45.404  25.407  26.767  1.00  0.00     0.049 A 
ATOM     67  C   UNL A   1      47.219  30.616  27.749  1.00  0.00     0.074 A 
ATOM     68  C   UNL A   1      46.296  24.542  26.158  1.00  0.00     0.029 A 
ATOM     69  N   UNL A   1      46.061  26.619  26.915  1.00  0.00    -0.354 N 
ATOM     70  N   UNL A   1      46.934  29.371  27.446  1.00  0.00    -0.248 NA
ATOM     71  C   UNL A   1      48.595  31.014  27.420  1.00  0.00     0.031 C 
ATOM     72  C   UNL A   1      47.504  25.222  25.965  1.00  0.00     0.029 A 
ATOM     73  C   UNL A   1      47.350  26.523  26.417  1.00  0.00     0.049 A 
ATOM     74  H   UNL A   1      45.669  27.429  27.315  1.00  0.00     0.167 HD
ATOM     75  C   UNL A   1      48.086  28.847  26.869  1.00  0.00     0.074 A 
ATOM     76  C   UNL A   1      49.067  29.912  26.853  1.00  0.00     0.031 C 
ATOM     77  C   UNL A   1      48.310  27.597  26.395  1.00  0.00     0.037 A 
BRANCH  64  78
ATOM     78  C   UNL A   1      43.495  23.767  26.976  1.00  0.00     0.058 A 
ATOM     79  C   UNL A   1      43.380  22.861  28.042  1.00  0.00     0.135 A 
ATOM     80  C   UNL A   1      43.032  23.357  25.715  1.00  0.00     0.135 A 
ATOM     81  F   UNL A   1      43.822  23.196  29.265  1.00  0.00    -0.206 F 
ATOM     82  C   UNL A   1      42.850  21.588  27.861  1.00  0.00     0.059 A 
ATOM     83  C   UNL A   1      42.473  22.097  25.517  1.00  0.00     0.059 A 
ATOM     84  F   UNL A   1      43.118  24.184  24.661  1.00  0.00    -0.206 F 
ATOM     85  C   UNL A   1      42.398  21.215  26.594  1.00  0.00     0.060 A 
BRANCH  85  86
ATOM     86  S   UNL A   1      41.699  19.564  26.379  1.00  0.00     0.124 S 
ATOM     87  O   UNL A   1      42.082  18.922  27.634  1.00  0.00    -0.237 OA
ATOM     88  O   UNL A   1      40.277  19.844  26.219  1.00  0.00    -0.237 OA
ATOM     89  O   UNL A   1      42.375  19.062  25.186  1.00  0.00    -0.744 OA
ENDBRANCH  85  86
ENDBRANCH  64  78
BRANCH  65  90
ATOM     90  C   UNL A   1      46.859  33.027  28.651  1.00  0.00     0.058 A 
ATOM     91  C   UNL A   1      46.809  34.036  27.676  1.00  0.00     0.135 A 
ATOM     92  C   UNL A   1      47.427  33.349  29.894  1.00  0.00     0.135 A 
ATOM     93  F   UNL A   1      46.282  33.776  26.470  1.00  0.00    -0.206 F 
ATOM     94  C   UNL A   1      47.322  35.307  27.914  1.00  0.00     0.059 A 
ATOM     95  C   UNL A   1      47.924  34.620  30.164  1.00  0.00     0.059 A 
ATOM     96  F   UNL A   1      47.484  32.425  30.866  1.00  0.00    -0.206 F 
ATOM     97  C   UNL A   1      47.879  35.589  29.162  1.00  0.00     0.060 A 
BRANCH  97  98
ATOM     98  S   UNL A   1      48.513  37.252  29.475  1.00  0.00     0.124 S 
ATOM     99  O   UNL A   1      48.597  37.265  30.930  1.00  0.00    -0.237 OA
ATOM    100  O   UNL A   1      49.786  37.235  28.761  1.00  0.00    -0.237 OA
ATOM    101  O   UNL A   1      47.490  38.114  28.891  1.00  0.00    -0.744 OA
ENDBRANCH  97  98
ENDBRANCH  65  90
BRANCH  77 102
ATOM    102  C   UNL A   1      49.655  27.318  25.787  1.00  0.00     0.058 A 
ATOM    103  C   UNL A   1      50.746  26.908  26.568  1.00  0.00     0.135 A 
ATOM    104  C   UNL A   1      49.839  27.410  24.397  1.00  0.00     0.135 A 
ATOM    105  F   UNL A   1      50.625  26.810  27.900  1.00  0.00    -0.206 F 
ATOM    106  C   UNL A   1      51.981  26.618  25.994  1.00  0.00     0.059 A 
ATOM    107  C   UNL A   1      51.057  27.101  23.800  1.00  0.00     0.059 A 
ATOM    108  F   UNL A   1      48.822  27.788  23.605  1.00  0.00    -0.206 F 
ATOM    109  C   UNL A   1      52.125  26.716  24.609  1.00  0.00     0.060 A 
BRANCH 109 110
ATOM    110  S   UNL A   1      53.720  26.300  23.872  1.00  0.00     0.124 S 
ATOM    111  O   UNL A   1      54.481  27.523  24.110  1.00  0.00    -0.237 OA
ATOM    112  O   UNL A   1      54.131  25.137  24.650  1.00  0.00    -0.237 OA
ATOM    113  O   UNL A   1      53.389  26.028  22.476  1.00  0.00    -0.744 OA
ENDBRANCH 109 110
ENDBRANCH  77 102
ENDBRANCH  51  52
ENDBRANCH  43  46
ENDBRANCH  41  42
ENDBRANCH  40  41
ENDBRANCH   1  40
TORSDOF 17
ENDMDL
