MODEL 1
REMARK VINA RESULT:      -7.1      0.000      0.000
REMARK SMILES CCCC[C@@H](Sc1nc(OCCC2CCCCC2)cc(OCCC2CCCCC2)n1)C(=O)NCCCCCCNC(=O)c1ccc(-c2c3nc(c(-c4c(F)cc(S(=O)(=O)[O-])cc4F)c4ccc([nH]4)c(-c4c(F)cc(S(=O)(=O)[O-])cc4F)c4nc(c(-c5c(F)cc(S(=O)(=O)[O-])cc5F)c5ccc2[nH]5)C=C4)C=C3)cc1
REMARK SMILES IDX 35 1 34 2 33 3 31 4 32 5 5 7 4 8 3 9 2 10 1 11 6 12 7 13
REMARK SMILES IDX 8 14 30 15 9 16 20 17 19 18 10 19 11 20 12 21 13 22 14 23
REMARK SMILES IDX 18 24 15 25 17 26 16 27 21 28 22 29 23 30 24 31 25 32 29 33
REMARK SMILES IDX 26 34 28 35 27 36 36 37 37 38 38 39 39 40 40 41 41 42 42 44
REMARK SMILES IDX 43 45 44 46 108 47 45 48 107 49 46 50 47 51 48 52 101 53
REMARK SMILES IDX 49 54 106 55 100 56 102 57 50 58 105 59 99 60 98 61 51 63
REMARK SMILES IDX 85 64 64 65 84 66 65 67 68 68 83 69 103 70 66 71 67 72 82 74
REMARK SMILES IDX 104 75 69 76 52 77 53 78 62 79 54 80 55 81 61 82 63 83 56 84
REMARK SMILES IDX 57 85 58 86 59 87 60 88 86 89 87 90 96 91 88 92 89 93 95 94
REMARK SMILES IDX 97 95 90 96 91 97 92 98 93 99 94 100 70 101 71 102 80 103
REMARK SMILES IDX 72 104 73 105 79 106 81 107 74 108 75 109 76 110 77 111
REMARK SMILES IDX 78 112
REMARK H PARENT 33 6 40 43 102 62 68 73
REMARK Flexibility Score: inf
ROOT
ATOM      1  C   UNL A   1      47.104  26.059  28.183  1.00  0.00     0.021 C 
ENDROOT
BRANCH   1   2
ATOM      2  C   UNL A   1      48.374  26.392  28.961  1.00  0.00     0.116 C 
BRANCH   2   3
ATOM      3  N   UNL A   1      49.554  26.159  28.137  1.00  0.00    -0.355 N 
ATOM      4  C   UNL A   1      50.509  27.040  27.700  1.00  0.00     0.233 C 
ATOM      5  O   UNL A   1      51.401  26.617  26.961  1.00  0.00    -0.274 OA
ATOM      6  H   UNL A   1      49.684  25.226  27.850  1.00  0.00     0.163 HD
BRANCH   4   7
ATOM      7  C   UNL A   1      50.458  28.525  28.132  1.00  0.00     0.144 C 
BRANCH   7   8
ATOM      8  C   UNL A   1      51.824  28.841  28.796  1.00  0.00     0.025 C 
BRANCH   8   9
ATOM      9  C   UNL A   1      52.004  29.956  29.831  1.00  0.00     0.001 C 
BRANCH   9  10
ATOM     10  C   UNL A   1      51.218  31.245  29.635  1.00  0.00    -0.003 C 
ATOM     11  C   UNL A   1      51.759  32.067  28.478  1.00  0.00     0.004 C 
ENDBRANCH   9  10
ENDBRANCH   8   9
ENDBRANCH   7   8
BRANCH   7  12
ATOM     12  S   UNL A   1      49.716  29.330  26.621  1.00  0.00    -0.073 SA
BRANCH  12  13
ATOM     13  C   UNL A   1      48.285  30.161  27.171  1.00  0.00     0.195 A 
ATOM     14  N   UNL A   1      47.454  30.667  26.267  1.00  0.00    -0.187 NA
ATOM     15  N   UNL A   1      48.049  30.116  28.485  1.00  0.00    -0.187 NA
ATOM     16  C   UNL A   1      46.377  31.309  26.721  1.00  0.00     0.221 A 
ATOM     17  C   UNL A   1      46.937  30.710  28.918  1.00  0.00     0.221 A 
ATOM     18  C   UNL A   1      46.115  31.400  28.064  1.00  0.00     0.136 A 
BRANCH  16  19
ATOM     19  O   UNL A   1      45.550  31.704  25.710  1.00  0.00    -0.477 OA
BRANCH  19  20
ATOM     20  C   UNL A   1      44.591  32.742  25.861  1.00  0.00     0.231 C 
BRANCH  20  21
ATOM     21  C   UNL A   1      45.018  34.158  25.405  1.00  0.00     0.045 C 
BRANCH  21  22
ATOM     22  C   UNL A   1      44.423  35.322  26.194  1.00  0.00    -0.008 C 
ATOM     23  C   UNL A   1      42.894  35.361  26.271  1.00  0.00     0.004 C 
ATOM     24  C   UNL A   1      44.992  35.454  27.611  1.00  0.00     0.004 C 
ATOM     25  C   UNL A   1      42.464  36.722  26.848  1.00  0.00     0.000 C 
ATOM     26  C   UNL A   1      44.660  36.838  28.149  1.00  0.00     0.000 C 
ATOM     27  C   UNL A   1      43.150  37.056  28.178  1.00  0.00     0.000 C 
ENDBRANCH  21  22
ENDBRANCH  20  21
ENDBRANCH  19  20
ENDBRANCH  16  19
BRANCH  17  28
ATOM     28  O   UNL A   1      46.777  30.599  30.266  1.00  0.00    -0.477 OA
BRANCH  28  29
ATOM     29  C   UNL A   1      45.701  29.849  30.822  1.00  0.00     0.231 C 
BRANCH  29  30
ATOM     30  C   UNL A   1      46.046  28.352  30.903  1.00  0.00     0.045 C 
BRANCH  30  31
ATOM     31  C   UNL A   1      46.715  27.825  32.201  1.00  0.00    -0.008 C 
ATOM     32  C   UNL A   1      46.346  26.362  32.521  1.00  0.00     0.004 C 
ATOM     33  C   UNL A   1      48.200  28.215  32.267  1.00  0.00     0.004 C 
ATOM     34  C   UNL A   1      47.410  25.449  33.128  1.00  0.00     0.000 C 
ATOM     35  C   UNL A   1      49.002  27.396  33.266  1.00  0.00     0.000 C 
ATOM     36  C   UNL A   1      48.838  25.923  32.973  1.00  0.00     0.000 C 
ENDBRANCH  30  31
ENDBRANCH  29  30
ENDBRANCH  28  29
ENDBRANCH  17  28
ENDBRANCH  12  13
ENDBRANCH   7  12
ENDBRANCH   4   7
ENDBRANCH   2   3
ENDBRANCH   1   2
BRANCH   1  37
ATOM     37  C   UNL A   1      47.205  24.735  27.424  1.00  0.00     0.002 C 
BRANCH  37  38
ATOM     38  C   UNL A   1      45.898  23.937  27.379  1.00  0.00     0.002 C 
BRANCH  38  39
ATOM     39  C   UNL A   1      44.630  24.775  27.578  1.00  0.00     0.021 C 
BRANCH  39  40
ATOM     40  C   UNL A   1      43.330  23.998  27.392  1.00  0.00     0.116 C 
BRANCH  40  41
ATOM     41  N   UNL A   1      42.606  24.442  26.212  1.00  0.00    -0.352 N 
ATOM     42  C   UNL A   1      41.635  25.400  26.091  1.00  0.00     0.251 C 
ATOM     43  H   UNL A   1      42.851  23.986  25.375  1.00  0.00     0.163 HD
ATOM     44  O   UNL A   1      40.971  25.469  25.062  1.00  0.00    -0.269 OA
BRANCH  42  45
ATOM     45  C   UNL A   1      41.383  26.340  27.204  1.00  0.00     0.039 A 
ATOM     46  C   UNL A   1      40.385  26.031  28.129  1.00  0.00     0.014 A 
ATOM     47  C   UNL A   1      42.108  27.531  27.319  1.00  0.00     0.014 A 
ATOM     48  C   UNL A   1      40.145  26.895  29.197  1.00  0.00     0.010 A 
ATOM     49  C   UNL A   1      41.916  28.355  28.425  1.00  0.00     0.010 A 
ATOM     50  C   UNL A   1      40.930  28.049  29.372  1.00  0.00    -0.014 A 
BRANCH  50  51
ATOM     51  C   UNL A   1      40.730  28.920  30.558  1.00  0.00     0.031 A 
ATOM     52  C   UNL A   1      41.585  28.757  31.785  1.00  0.00     0.074 A 
ATOM     53  C   UNL A   1      39.749  29.844  30.532  1.00  0.00     0.049 A 
ATOM     54  N   UNL A   1      41.565  29.444  32.900  1.00  0.00    -0.248 NA
ATOM     55  C   UNL A   1      42.573  27.667  31.772  1.00  0.00     0.031 C 
ATOM     56  C   UNL A   1      38.814  30.050  29.423  1.00  0.00     0.029 A 
ATOM     57  N   UNL A   1      39.376  30.784  31.458  1.00  0.00    -0.354 N 
ATOM     58  C   UNL A   1      42.531  28.870  33.717  1.00  0.00     0.074 A 
ATOM     59  C   UNL A   1      43.080  27.743  32.995  1.00  0.00     0.031 C 
ATOM     60  C   UNL A   1      37.998  31.074  29.719  1.00  0.00     0.029 A 
ATOM     61  C   UNL A   1      38.329  31.575  31.048  1.00  0.00     0.049 A 
ATOM     62  H   UNL A   1      39.815  30.881  32.334  1.00  0.00     0.167 HD
ATOM     63  C   UNL A   1      42.939  29.262  34.949  1.00  0.00     0.037 A 
ATOM     64  C   UNL A   1      37.708  32.594  31.672  1.00  0.00     0.037 A 
ATOM     65  C   UNL A   1      42.397  30.396  35.654  1.00  0.00     0.049 A 
ATOM     66  C   UNL A   1      38.192  33.021  33.031  1.00  0.00     0.074 A 
ATOM     67  C   UNL A   1      42.784  30.915  36.878  1.00  0.00     0.029 A 
ATOM     68  N   UNL A   1      41.346  31.183  35.203  1.00  0.00    -0.354 N 
ATOM     69  N   UNL A   1      39.161  32.517  33.757  1.00  0.00    -0.248 NA
ATOM     70  C   UNL A   1      37.506  34.162  33.648  1.00  0.00     0.031 C 
ATOM     71  C   UNL A   1      41.936  31.983  37.190  1.00  0.00     0.029 A 
ATOM     72  C   UNL A   1      41.054  32.167  36.136  1.00  0.00     0.049 A 
ATOM     73  H   UNL A   1      40.876  31.061  34.347  1.00  0.00     0.167 HD
ATOM     74  C   UNL A   1      39.214  33.291  34.910  1.00  0.00     0.074 A 
ATOM     75  C   UNL A   1      38.195  34.314  34.770  1.00  0.00     0.031 C 
ATOM     76  C   UNL A   1      40.027  33.168  35.989  1.00  0.00     0.037 A 
BRANCH  63  77
ATOM     77  C   UNL A   1      44.029  28.463  35.612  1.00  0.00     0.058 A 
ATOM     78  C   UNL A   1      43.742  27.353  36.425  1.00  0.00     0.135 A 
ATOM     79  C   UNL A   1      45.381  28.781  35.397  1.00  0.00     0.135 A 
ATOM     80  F   UNL A   1      42.468  27.012  36.677  1.00  0.00    -0.206 F 
ATOM     81  C   UNL A   1      44.751  26.606  37.023  1.00  0.00     0.059 A 
ATOM     82  C   UNL A   1      46.408  28.029  35.961  1.00  0.00     0.059 A 
ATOM     83  F   UNL A   1      45.715  29.830  34.630  1.00  0.00    -0.206 F 
ATOM     84  C   UNL A   1      46.083  26.952  36.784  1.00  0.00     0.060 A 
BRANCH  84  85
ATOM     85  S   UNL A   1      47.382  25.964  37.558  1.00  0.00     0.124 S 
ATOM     86  O   UNL A   1      47.425  24.800  36.677  1.00  0.00    -0.237 OA
ATOM     87  O   UNL A   1      48.535  26.855  37.488  1.00  0.00    -0.237 OA
ATOM     88  O   UNL A   1      46.865  25.714  38.900  1.00  0.00    -0.744 OA
ENDBRANCH  84  85
ENDBRANCH  63  77
BRANCH  64  89
ATOM     89  C   UNL A   1      36.579  33.295  31.005  1.00  0.00     0.058 A 
ATOM     90  C   UNL A   1      36.807  34.232  29.986  1.00  0.00     0.135 A 
ATOM     91  C   UNL A   1      35.247  33.031  31.362  1.00  0.00     0.135 A 
ATOM     92  F   UNL A   1      38.062  34.522  29.611  1.00  0.00    -0.206 F 
ATOM     93  C   UNL A   1      35.758  34.898  29.359  1.00  0.00     0.059 A 
ATOM     94  C   UNL A   1      34.181  33.662  30.730  1.00  0.00     0.059 A 
ATOM     95  F   UNL A   1      34.974  32.128  32.318  1.00  0.00    -0.206 F 
ATOM     96  C   UNL A   1      34.448  34.603  29.738  1.00  0.00     0.060 A 
BRANCH  96  97
ATOM     97  S   UNL A   1      33.092  35.440  28.888  1.00  0.00     0.124 S 
ATOM     98  O   UNL A   1      32.352  36.011  30.007  1.00  0.00    -0.237 OA
ATOM     99  O   UNL A   1      33.801  36.391  28.039  1.00  0.00    -0.237 OA
ATOM    100  O   UNL A   1      32.422  34.354  28.176  1.00  0.00    -0.744 OA
ENDBRANCH  96  97
ENDBRANCH  64  89
BRANCH  76 101
ATOM    101  C   UNL A   1      39.853  34.175  37.094  1.00  0.00     0.058 A 
ATOM    102  C   UNL A   1      40.494  35.423  37.062  1.00  0.00     0.135 A 
ATOM    103  C   UNL A   1      39.032  33.888  38.197  1.00  0.00     0.135 A 
ATOM    104  F   UNL A   1      41.294  35.747  36.034  1.00  0.00    -0.206 F 
ATOM    105  C   UNL A   1      40.367  36.332  38.107  1.00  0.00     0.059 A 
ATOM    106  C   UNL A   1      38.863  34.796  39.237  1.00  0.00     0.059 A 
ATOM    107  F   UNL A   1      38.382  32.715  38.271  1.00  0.00    -0.206 F 
ATOM    108  C   UNL A   1      39.553  36.007  39.194  1.00  0.00     0.060 A 
BRANCH 108 109
ATOM    109  S   UNL A   1      39.404  37.189  40.549  1.00  0.00     0.124 S 
ATOM    110  O   UNL A   1      40.805  37.493  40.829  1.00  0.00    -0.237 OA
ATOM    111  O   UNL A   1      38.632  38.268  39.941  1.00  0.00    -0.237 OA
ATOM    112  O   UNL A   1      38.707  36.434  41.585  1.00  0.00    -0.744 OA
ENDBRANCH 108 109
ENDBRANCH  76 101
ENDBRANCH  50  51
ENDBRANCH  42  45
ENDBRANCH  40  41
ENDBRANCH  39  40
ENDBRANCH  38  39
ENDBRANCH  37  38
ENDBRANCH   1  37
TORSDOF 29
ENDMDL
MODEL 2
REMARK VINA RESULT:      -7.0      1.342      2.060
REMARK SMILES CCCC[C@@H](Sc1nc(OCCC2CCCCC2)cc(OCCC2CCCCC2)n1)C(=O)NCCCCCCNC(=O)c1ccc(-c2c3nc(c(-c4c(F)cc(S(=O)(=O)[O-])cc4F)c4ccc([nH]4)c(-c4c(F)cc(S(=O)(=O)[O-])cc4F)c4nc(c(-c5c(F)cc(S(=O)(=O)[O-])cc5F)c5ccc2[nH]5)C=C4)C=C3)cc1
REMARK SMILES IDX 35 1 34 2 33 3 31 4 32 5 5 7 4 8 3 9 2 10 1 11 6 12 7 13
REMARK SMILES IDX 8 14 30 15 9 16 20 17 19 18 10 19 11 20 12 21 13 22 14 23
REMARK SMILES IDX 18 24 15 25 17 26 16 27 21 28 22 29 23 30 24 31 25 32 29 33
REMARK SMILES IDX 26 34 28 35 27 36 36 37 37 38 38 39 39 40 40 41 41 42 42 44
REMARK SMILES IDX 43 45 44 46 108 47 45 48 107 49 46 50 47 51 48 52 101 53
REMARK SMILES IDX 49 54 106 55 100 56 102 57 50 58 105 59 99 60 98 61 51 63
REMARK SMILES IDX 85 64 64 65 84 66 65 67 68 68 83 69 103 70 66 71 67 72 82 74
REMARK SMILES IDX 104 75 69 76 52 77 53 78 62 79 54 80 55 81 61 82 63 83 56 84
REMARK SMILES IDX 57 85 58 86 59 87 60 88 86 89 87 90 96 91 88 92 89 93 95 94
REMARK SMILES IDX 97 95 90 96 91 97 92 98 93 99 94 100 70 101 71 102 80 103
REMARK SMILES IDX 72 104 73 105 79 106 81 107 74 108 75 109 76 110 77 111
REMARK SMILES IDX 78 112
REMARK H PARENT 33 6 40 43 102 62 68 73
REMARK Flexibility Score: inf
ROOT
ATOM      1  C   UNL A   1      46.898  25.558  27.978  1.00  0.00     0.021 C 
ENDROOT
BRANCH   1   2
ATOM      2  C   UNL A   1      48.335  26.056  28.105  1.00  0.00     0.116 C 
BRANCH   2   3
ATOM      3  N   UNL A   1      48.760  26.709  26.873  1.00  0.00    -0.355 N 
ATOM      4  C   UNL A   1      48.753  28.038  26.536  1.00  0.00     0.233 C 
ATOM      5  O   UNL A   1      49.119  28.355  25.402  1.00  0.00    -0.274 OA
ATOM      6  H   UNL A   1      49.104  26.104  26.177  1.00  0.00     0.163 HD
BRANCH   4   7
ATOM      7  C   UNL A   1      48.296  29.102  27.561  1.00  0.00     0.144 C 
BRANCH   7   8
ATOM      8  C   UNL A   1      49.397  30.195  27.587  1.00  0.00     0.025 C 
BRANCH   8   9
ATOM      9  C   UNL A   1      49.532  31.209  28.728  1.00  0.00     0.001 C 
BRANCH   9  10
ATOM     10  C   UNL A   1      48.702  32.483  28.651  1.00  0.00    -0.003 C 
ATOM     11  C   UNL A   1      48.248  32.777  27.231  1.00  0.00     0.004 C 
ENDBRANCH   9  10
ENDBRANCH   8   9
ENDBRANCH   7   8
BRANCH   7  12
ATOM     12  S   UNL A   1      46.498  29.312  27.108  1.00  0.00    -0.073 SA
BRANCH  12  13
ATOM     13  C   UNL A   1      45.671  29.716  28.590  1.00  0.00     0.195 A 
ATOM     14  N   UNL A   1      44.560  30.440  28.523  1.00  0.00    -0.187 NA
ATOM     15  N   UNL A   1      46.149  29.149  29.701  1.00  0.00    -0.187 NA
ATOM     16  C   UNL A   1      43.961  30.744  29.675  1.00  0.00     0.221 A 
ATOM     17  C   UNL A   1      45.502  29.413  30.837  1.00  0.00     0.221 A 
ATOM     18  C   UNL A   1      44.446  30.287  30.873  1.00  0.00     0.136 A 
BRANCH  16  19
ATOM     19  O   UNL A   1      42.783  31.406  29.483  1.00  0.00    -0.477 OA
BRANCH  19  20
ATOM     20  C   UNL A   1      42.414  32.555  30.234  1.00  0.00     0.231 C 
BRANCH  20  21
ATOM     21  C   UNL A   1      43.265  33.830  30.023  1.00  0.00     0.045 C 
BRANCH  21  22
ATOM     22  C   UNL A   1      42.998  34.606  28.735  1.00  0.00    -0.008 C 
ATOM     23  C   UNL A   1      41.894  35.665  28.813  1.00  0.00     0.004 C 
ATOM     24  C   UNL A   1      44.255  35.248  28.138  1.00  0.00     0.004 C 
ATOM     25  C   UNL A   1      41.569  36.143  27.386  1.00  0.00     0.000 C 
ATOM     26  C   UNL A   1      43.974  35.630  26.692  1.00  0.00     0.000 C 
ATOM     27  C   UNL A   1      42.807  36.610  26.612  1.00  0.00     0.000 C 
ENDBRANCH  21  22
ENDBRANCH  20  21
ENDBRANCH  19  20
ENDBRANCH  16  19
BRANCH  17  28
ATOM     28  O   UNL A   1      46.053  28.779  31.910  1.00  0.00    -0.477 OA
BRANCH  28  29
ATOM     29  C   UNL A   1      47.276  28.058  31.793  1.00  0.00     0.231 C 
BRANCH  29  30
ATOM     30  C   UNL A   1      48.456  28.862  32.367  1.00  0.00     0.045 C 
BRANCH  30  31
ATOM     31  C   UNL A   1      48.856  28.619  33.847  1.00  0.00    -0.008 C 
ATOM     32  C   UNL A   1      49.814  27.424  34.027  1.00  0.00     0.004 C 
ATOM     33  C   UNL A   1      49.218  29.933  34.556  1.00  0.00     0.004 C 
ATOM     34  C   UNL A   1      50.915  27.513  35.081  1.00  0.00     0.000 C 
ATOM     35  C   UNL A   1      50.008  29.738  35.840  1.00  0.00     0.000 C 
ATOM     36  C   UNL A   1      51.241  28.910  35.564  1.00  0.00     0.000 C 
ENDBRANCH  30  31
ENDBRANCH  29  30
ENDBRANCH  28  29
ENDBRANCH  17  28
ENDBRANCH  12  13
ENDBRANCH   7  12
ENDBRANCH   4   7
ENDBRANCH   2   3
ENDBRANCH   1   2
BRANCH   1  37
ATOM     37  C   UNL A   1      46.757  24.404  26.984  1.00  0.00     0.002 C 
BRANCH  37  38
ATOM     38  C   UNL A   1      45.617  23.434  27.306  1.00  0.00     0.002 C 
BRANCH  38  39
ATOM     39  C   UNL A   1      44.536  24.002  28.232  1.00  0.00     0.021 C 
BRANCH  39  40
ATOM     40  C   UNL A   1      43.136  23.453  27.973  1.00  0.00     0.116 C 
BRANCH  40  41
ATOM     41  N   UNL A   1      42.592  23.946  26.718  1.00  0.00    -0.352 N 
ATOM     42  C   UNL A   1      41.752  25.003  26.484  1.00  0.00     0.251 C 
ATOM     43  H   UNL A   1      42.869  23.446  25.917  1.00  0.00     0.163 HD
ATOM     44  O   UNL A   1      41.210  25.120  25.390  1.00  0.00    -0.269 OA
BRANCH  42  45
ATOM     45  C   UNL A   1      41.495  25.991  27.552  1.00  0.00     0.039 A 
ATOM     46  C   UNL A   1      40.383  25.812  28.377  1.00  0.00     0.014 A 
ATOM     47  C   UNL A   1      42.329  27.101  27.724  1.00  0.00     0.014 A 
ATOM     48  C   UNL A   1      40.132  26.723  29.403  1.00  0.00     0.010 A 
ATOM     49  C   UNL A   1      42.118  27.968  28.794  1.00  0.00     0.010 A 
ATOM     50  C   UNL A   1      41.016  27.791  29.640  1.00  0.00    -0.014 A 
BRANCH  50  51
ATOM     51  C   UNL A   1      40.795  28.707  30.787  1.00  0.00     0.031 A 
ATOM     52  C   UNL A   1      41.617  28.582  32.042  1.00  0.00     0.074 A 
ATOM     53  C   UNL A   1      39.824  29.638  30.702  1.00  0.00     0.049 A 
ATOM     54  N   UNL A   1      41.575  29.310  33.129  1.00  0.00    -0.248 NA
ATOM     55  C   UNL A   1      42.594  27.483  32.093  1.00  0.00     0.031 C 
ATOM     56  C   UNL A   1      38.919  29.811  29.562  1.00  0.00     0.029 A 
ATOM     57  N   UNL A   1      39.437  30.615  31.583  1.00  0.00    -0.354 N 
ATOM     58  C   UNL A   1      42.515  28.758  33.992  1.00  0.00     0.074 A 
ATOM     59  C   UNL A   1      43.070  27.600  33.325  1.00  0.00     0.031 C 
ATOM     60  C   UNL A   1      38.106  30.853  29.800  1.00  0.00     0.029 A 
ATOM     61  C   UNL A   1      38.409  31.400  31.118  1.00  0.00     0.049 A 
ATOM     62  H   UNL A   1      39.855  30.741  32.466  1.00  0.00     0.167 HD
ATOM     63  C   UNL A   1      42.895  29.192  35.218  1.00  0.00     0.037 A 
ATOM     64  C   UNL A   1      37.782  32.447  31.688  1.00  0.00     0.037 A 
ATOM     65  C   UNL A   1      42.346  30.356  35.867  1.00  0.00     0.049 A 
ATOM     66  C   UNL A   1      38.236  32.920  33.041  1.00  0.00     0.074 A 
ATOM     67  C   UNL A   1      42.708  30.917  37.080  1.00  0.00     0.029 A 
ATOM     68  N   UNL A   1      41.316  31.136  35.360  1.00  0.00    -0.354 N 
ATOM     69  N   UNL A   1      39.181  32.434  33.810  1.00  0.00    -0.248 NA
ATOM     70  C   UNL A   1      37.545  34.089  33.599  1.00  0.00     0.031 C 
ATOM     71  C   UNL A   1      41.863  32.003  37.331  1.00  0.00     0.029 A 
ATOM     72  C   UNL A   1      41.010  32.155  36.249  1.00  0.00     0.049 A 
ATOM     73  H   UNL A   1      40.866  30.986  34.498  1.00  0.00     0.167 HD
ATOM     74  C   UNL A   1      39.212  33.250  34.935  1.00  0.00     0.074 A 
ATOM     75  C   UNL A   1      38.208  34.276  34.732  1.00  0.00     0.031 C 
ATOM     76  C   UNL A   1      39.997  33.159  36.038  1.00  0.00     0.037 A 
BRANCH  63  77
ATOM     77  C   UNL A   1      43.960  28.408  35.938  1.00  0.00     0.058 A 
ATOM     78  C   UNL A   1      43.640  27.351  36.806  1.00  0.00     0.135 A 
ATOM     79  C   UNL A   1      45.321  28.686  35.724  1.00  0.00     0.135 A 
ATOM     80  F   UNL A   1      42.357  27.049  37.059  1.00  0.00    -0.206 F 
ATOM     81  C   UNL A   1      44.627  26.617  37.457  1.00  0.00     0.059 A 
ATOM     82  C   UNL A   1      46.325  27.946  36.342  1.00  0.00     0.059 A 
ATOM     83  F   UNL A   1      45.686  29.685  34.906  1.00  0.00    -0.206 F 
ATOM     84  C   UNL A   1      45.968  26.922  37.218  1.00  0.00     0.060 A 
BRANCH  84  85
ATOM     85  S   UNL A   1      47.236  25.951  38.060  1.00  0.00     0.124 S 
ATOM     86  O   UNL A   1      48.400  26.823  37.936  1.00  0.00    -0.237 OA
ATOM     87  O   UNL A   1      46.684  25.818  39.405  1.00  0.00    -0.237 OA
ATOM     88  O   UNL A   1      47.292  24.717  37.283  1.00  0.00    -0.744 OA
ENDBRANCH  84  85
ENDBRANCH  63  77
BRANCH  64  89
ATOM     89  C   UNL A   1      36.677  33.132  30.966  1.00  0.00     0.058 A 
ATOM     90  C   UNL A   1      35.343  32.985  31.374  1.00  0.00     0.135 A 
ATOM     91  C   UNL A   1      36.935  33.961  29.862  1.00  0.00     0.135 A 
ATOM     92  F   UNL A   1      35.045  32.202  32.421  1.00  0.00    -0.206 F 
ATOM     93  C   UNL A   1      34.301  33.617  30.701  1.00  0.00     0.059 A 
ATOM     94  C   UNL A   1      35.914  34.626  29.192  1.00  0.00     0.059 A 
ATOM     95  F   UNL A   1      38.196  34.150  29.443  1.00  0.00    -0.206 F 
ATOM     96  C   UNL A   1      34.598  34.438  29.612  1.00  0.00     0.060 A 
BRANCH  96  97
ATOM     97  S   UNL A   1      33.244  35.289  28.774  1.00  0.00     0.124 S 
ATOM     98  O   UNL A   1      33.963  36.291  27.997  1.00  0.00    -0.237 OA
ATOM     99  O   UNL A   1      32.628  34.209  28.010  1.00  0.00    -0.237 OA
ATOM    100  O   UNL A   1      32.439  35.805  29.878  1.00  0.00    -0.744 OA
ENDBRANCH  96  97
ENDBRANCH  64  89
BRANCH  76 101
ATOM    101  C   UNL A   1      39.804  34.208  37.101  1.00  0.00     0.058 A 
ATOM    102  C   UNL A   1      40.478  35.439  37.053  1.00  0.00     0.135 A 
ATOM    103  C   UNL A   1      38.933  33.980  38.178  1.00  0.00     0.135 A 
ATOM    104  F   UNL A   1      41.327  35.707  36.048  1.00  0.00    -0.206 F 
ATOM    105  C   UNL A   1      40.333  36.387  38.061  1.00  0.00     0.059 A 
ATOM    106  C   UNL A   1      38.747  34.928  39.179  1.00  0.00     0.059 A 
ATOM    107  F   UNL A   1      38.251  32.827  38.265  1.00  0.00    -0.206 F 
ATOM    108  C   UNL A   1      39.469  36.119  39.124  1.00  0.00     0.060 A 
BRANCH 108 109
ATOM    109  S   UNL A   1      39.297  37.351  40.431  1.00  0.00     0.124 S 
ATOM    110  O   UNL A   1      40.667  37.841  40.554  1.00  0.00    -0.237 OA
ATOM    111  O   UNL A   1      38.338  38.289  39.854  1.00  0.00    -0.237 OA
ATOM    112  O   UNL A   1      38.803  36.577  41.565  1.00  0.00    -0.744 OA
ENDBRANCH 108 109
ENDBRANCH  76 101
ENDBRANCH  50  51
ENDBRANCH  42  45
ENDBRANCH  40  41
ENDBRANCH  39  40
ENDBRANCH  38  39
ENDBRANCH  37  38
ENDBRANCH   1  37
TORSDOF 29
ENDMDL
MODEL 3
REMARK VINA RESULT:      -6.9      6.152     13.170
REMARK SMILES CCCC[C@@H](Sc1nc(OCCC2CCCCC2)cc(OCCC2CCCCC2)n1)C(=O)NCCCCCCNC(=O)c1ccc(-c2c3nc(c(-c4c(F)cc(S(=O)(=O)[O-])cc4F)c4ccc([nH]4)c(-c4c(F)cc(S(=O)(=O)[O-])cc4F)c4nc(c(-c5c(F)cc(S(=O)(=O)[O-])cc5F)c5ccc2[nH]5)C=C4)C=C3)cc1
REMARK SMILES IDX 35 1 34 2 33 3 31 4 32 5 5 7 4 8 3 9 2 10 1 11 6 12 7 13
REMARK SMILES IDX 8 14 30 15 9 16 20 17 19 18 10 19 11 20 12 21 13 22 14 23
REMARK SMILES IDX 18 24 15 25 17 26 16 27 21 28 22 29 23 30 24 31 25 32 29 33
REMARK SMILES IDX 26 34 28 35 27 36 36 37 37 38 38 39 39 40 40 41 41 42 42 44
REMARK SMILES IDX 43 45 44 46 108 47 45 48 107 49 46 50 47 51 48 52 101 53
REMARK SMILES IDX 49 54 106 55 100 56 102 57 50 58 105 59 99 60 98 61 51 63
REMARK SMILES IDX 85 64 64 65 84 66 65 67 68 68 83 69 103 70 66 71 67 72 82 74
REMARK SMILES IDX 104 75 69 76 52 77 53 78 62 79 54 80 55 81 61 82 63 83 56 84
REMARK SMILES IDX 57 85 58 86 59 87 60 88 86 89 87 90 96 91 88 92 89 93 95 94
REMARK SMILES IDX 97 95 90 96 91 97 92 98 93 99 94 100 70 101 71 102 80 103
REMARK SMILES IDX 72 104 73 105 79 106 81 107 74 108 75 109 76 110 77 111
REMARK SMILES IDX 78 112
REMARK H PARENT 33 6 40 43 102 62 68 73
REMARK Flexibility Score: inf
ROOT
ATOM      1  C   UNL A   1      44.882  40.592  26.484  1.00  0.00     0.021 C 
ENDROOT
BRANCH   1   2
ATOM      2  C   UNL A   1      44.427  41.576  27.558  1.00  0.00     0.116 C 
BRANCH   2   3
ATOM      3  N   UNL A   1      45.395  41.628  28.646  1.00  0.00    -0.355 N 
ATOM      4  C   UNL A   1      45.483  42.495  29.705  1.00  0.00     0.233 C 
ATOM      5  O   UNL A   1      46.430  42.372  30.484  1.00  0.00    -0.274 OA
ATOM      6  H   UNL A   1      46.092  40.933  28.617  1.00  0.00     0.163 HD
BRANCH   4   7
ATOM      7  C   UNL A   1      44.413  43.594  29.905  1.00  0.00     0.144 C 
BRANCH   7   8
ATOM      8  C   UNL A   1      43.845  43.405  31.335  1.00  0.00     0.025 C 
BRANCH   8   9
ATOM      9  C   UNL A   1      42.360  43.143  31.610  1.00  0.00     0.001 C 
BRANCH   9  10
ATOM     10  C   UNL A   1      41.944  41.732  31.999  1.00  0.00    -0.003 C 
ATOM     11  C   UNL A   1      42.902  40.689  31.448  1.00  0.00     0.004 C 
ENDBRANCH   9  10
ENDBRANCH   8   9
ENDBRANCH   7   8
BRANCH   7  12
ATOM     12  S   UNL A   1      45.283  45.094  29.217  1.00  0.00    -0.073 SA
BRANCH  12  13
ATOM     13  C   UNL A   1      46.402  44.497  28.020  1.00  0.00     0.195 A 
ATOM     14  N   UNL A   1      47.549  43.966  28.428  1.00  0.00    -0.187 NA
ATOM     15  N   UNL A   1      45.964  44.495  26.758  1.00  0.00    -0.187 NA
ATOM     16  C   UNL A   1      48.388  43.532  27.487  1.00  0.00     0.221 A 
ATOM     17  C   UNL A   1      46.791  44.001  25.836  1.00  0.00     0.221 A 
ATOM     18  C   UNL A   1      48.058  43.589  26.157  1.00  0.00     0.136 A 
BRANCH  16  19
ATOM     19  O   UNL A   1      49.487  42.923  28.019  1.00  0.00    -0.477 OA
BRANCH  19  20
ATOM     20  C   UNL A   1      49.451  41.611  28.565  1.00  0.00     0.231 C 
BRANCH  20  21
ATOM     21  C   UNL A   1      48.619  40.557  27.795  1.00  0.00     0.045 C 
BRANCH  21  22
ATOM     22  C   UNL A   1      49.411  39.427  27.140  1.00  0.00    -0.008 C 
ATOM     23  C   UNL A   1      50.670  38.977  27.888  1.00  0.00     0.004 C 
ATOM     24  C   UNL A   1      48.561  38.194  26.817  1.00  0.00     0.004 C 
ATOM     25  C   UNL A   1      51.483  38.048  26.968  1.00  0.00     0.000 C 
ATOM     26  C   UNL A   1      49.316  37.320  25.826  1.00  0.00     0.000 C 
ATOM     27  C   UNL A   1      50.658  36.884  26.407  1.00  0.00     0.000 C 
ENDBRANCH  21  22
ENDBRANCH  20  21
ENDBRANCH  19  20
ENDBRANCH  16  19
BRANCH  17  28
ATOM     28  O   UNL A   1      46.251  44.027  24.584  1.00  0.00    -0.477 OA
BRANCH  28  29
ATOM     29  C   UNL A   1      45.792  45.244  24.004  1.00  0.00     0.231 C 
BRANCH  29  30
ATOM     30  C   UNL A   1      44.402  45.071  23.369  1.00  0.00     0.045 C 
BRANCH  30  31
ATOM     31  C   UNL A   1      43.956  43.640  22.961  1.00  0.00    -0.008 C 
ATOM     32  C   UNL A   1      42.930  43.026  23.935  1.00  0.00     0.004 C 
ATOM     33  C   UNL A   1      43.651  43.553  21.458  1.00  0.00     0.004 C 
ATOM     34  C   UNL A   1      41.813  42.150  23.373  1.00  0.00     0.000 C 
ATOM     35  C   UNL A   1      42.823  42.337  21.073  1.00  0.00     0.000 C 
ATOM     36  C   UNL A   1      41.553  42.299  21.890  1.00  0.00     0.000 C 
ENDBRANCH  30  31
ENDBRANCH  29  30
ENDBRANCH  28  29
ENDBRANCH  17  28
ENDBRANCH  12  13
ENDBRANCH   7  12
ENDBRANCH   4   7
ENDBRANCH   2   3
ENDBRANCH   1   2
BRANCH   1  37
ATOM     37  C   UNL A   1      44.280  39.198  26.665  1.00  0.00     0.002 C 
BRANCH  37  38
ATOM     38  C   UNL A   1      45.230  38.183  27.308  1.00  0.00     0.002 C 
BRANCH  38  39
ATOM     39  C   UNL A   1      44.571  37.248  28.328  1.00  0.00     0.021 C 
BRANCH  39  40
ATOM     40  C   UNL A   1      45.056  37.443  29.762  1.00  0.00     0.116 C 
BRANCH  40  41
ATOM     41  N   UNL A   1      46.498  37.616  29.820  1.00  0.00    -0.352 N 
ATOM     42  C   UNL A   1      47.493  36.675  29.794  1.00  0.00     0.251 C 
ATOM     43  H   UNL A   1      46.806  38.548  29.888  1.00  0.00     0.163 HD
ATOM     44  O   UNL A   1      48.640  36.991  30.095  1.00  0.00    -0.269 OA
BRANCH  42  45
ATOM     45  C   UNL A   1      47.180  35.281  29.415  1.00  0.00     0.039 A 
ATOM     46  C   UNL A   1      46.985  34.339  30.427  1.00  0.00     0.014 A 
ATOM     47  C   UNL A   1      47.107  34.898  28.071  1.00  0.00     0.014 A 
ATOM     48  C   UNL A   1      46.670  33.023  30.090  1.00  0.00     0.010 A 
ATOM     49  C   UNL A   1      46.721  33.602  27.739  1.00  0.00     0.010 A 
ATOM     50  C   UNL A   1      46.505  32.650  28.744  1.00  0.00    -0.014 A 
BRANCH  50  51
ATOM     51  C   UNL A   1      46.083  31.270  28.393  1.00  0.00     0.031 A 
ATOM     52  C   UNL A   1      47.090  30.254  27.926  1.00  0.00     0.074 A 
ATOM     53  C   UNL A   1      44.778  30.946  28.472  1.00  0.00     0.049 A 
ATOM     54  N   UNL A   1      46.903  29.000  27.601  1.00  0.00    -0.248 NA
ATOM     55  C   UNL A   1      48.481  30.709  27.779  1.00  0.00     0.031 C 
ATOM     56  C   UNL A   1      43.701  31.866  28.849  1.00  0.00     0.029 A 
ATOM     57  N   UNL A   1      44.133  29.758  28.244  1.00  0.00    -0.354 N 
ATOM     58  C   UNL A   1      48.147  28.518  27.211  1.00  0.00     0.074 A 
ATOM     59  C   UNL A   1      49.071  29.630  27.284  1.00  0.00     0.031 C 
ATOM     60  C   UNL A   1      42.536  31.200  28.859  1.00  0.00     0.029 A 
ATOM     61  C   UNL A   1      42.776  29.818  28.459  1.00  0.00     0.049 A 
ATOM     62  H   UNL A   1      44.596  28.939  27.952  1.00  0.00     0.167 HD
ATOM     63  C   UNL A   1      48.492  27.259  26.848  1.00  0.00     0.037 A 
ATOM     64  C   UNL A   1      41.831  28.864  28.351  1.00  0.00     0.037 A 
ATOM     65  C   UNL A   1      47.567  26.154  26.793  1.00  0.00     0.049 A 
ATOM     66  C   UNL A   1      42.243  27.470  27.963  1.00  0.00     0.074 A 
ATOM     67  C   UNL A   1      47.828  24.827  26.499  1.00  0.00     0.029 A 
ATOM     68  N   UNL A   1      46.203  26.249  27.031  1.00  0.00    -0.354 N 
ATOM     69  N   UNL A   1      43.438  27.014  27.675  1.00  0.00    -0.248 NA
ATOM     70  C   UNL A   1      41.179  26.461  27.898  1.00  0.00     0.031 C 
ATOM     71  C   UNL A   1      46.614  24.129  26.509  1.00  0.00     0.029 A 
ATOM     72  C   UNL A   1      45.604  25.009  26.864  1.00  0.00     0.049 A 
ATOM     73  H   UNL A   1      45.729  27.075  27.280  1.00  0.00     0.167 HD
ATOM     74  C   UNL A   1      43.273  25.659  27.412  1.00  0.00     0.074 A 
ATOM     75  C   UNL A   1      41.866  25.367  27.603  1.00  0.00     0.031 C 
ATOM     76  C   UNL A   1      44.199  24.739  27.043  1.00  0.00     0.037 A 
BRANCH  63  77
ATOM     77  C   UNL A   1      49.931  27.005  26.486  1.00  0.00     0.058 A 
ATOM     78  C   UNL A   1      50.879  26.619  27.448  1.00  0.00     0.135 A 
ATOM     79  C   UNL A   1      50.360  27.103  25.152  1.00  0.00     0.135 A 
ATOM     80  F   UNL A   1      50.529  26.522  28.741  1.00  0.00    -0.206 F 
ATOM     81  C   UNL A   1      52.204  26.368  27.108  1.00  0.00     0.059 A 
ATOM     82  C   UNL A   1      51.675  26.828  24.783  1.00  0.00     0.059 A 
ATOM     83  F   UNL A   1      49.499  27.468  24.189  1.00  0.00    -0.206 F 
ATOM     84  C   UNL A   1      52.593  26.475  25.771  1.00  0.00     0.060 A 
BRANCH  84  85
ATOM     85  S   UNL A   1      54.314  26.133  25.344  1.00  0.00     0.124 S 
ATOM     86  O   UNL A   1      54.161  25.093  24.330  1.00  0.00    -0.237 OA
ATOM     87  O   UNL A   1      54.777  27.429  24.858  1.00  0.00    -0.237 OA
ATOM     88  O   UNL A   1      54.897  25.695  26.608  1.00  0.00    -0.744 OA
ENDBRANCH  84  85
ENDBRANCH  63  77
BRANCH  64  89
ATOM     89  C   UNL A   1      40.409  29.193  28.639  1.00  0.00     0.058 A 
ATOM     90  C   UNL A   1      39.502  29.459  27.602  1.00  0.00     0.135 A 
ATOM     91  C   UNL A   1      39.926  29.233  29.956  1.00  0.00     0.135 A 
ATOM     92  F   UNL A   1      39.916  29.437  26.327  1.00  0.00    -0.206 F 
ATOM     93  C   UNL A   1      38.171  29.774  27.861  1.00  0.00     0.059 A 
ATOM     94  C   UNL A   1      38.594  29.516  30.239  1.00  0.00     0.059 A 
ATOM     95  F   UNL A   1      40.749  28.967  30.983  1.00  0.00    -0.206 F 
ATOM     96  C   UNL A   1      37.727  29.797  29.184  1.00  0.00     0.060 A 
BRANCH  96  97
ATOM     97  S   UNL A   1      35.988  30.163  29.507  1.00  0.00     0.124 S 
ATOM     98  O   UNL A   1      35.974  31.618  29.427  1.00  0.00    -0.237 OA
ATOM     99  O   UNL A   1      35.318  29.456  28.420  1.00  0.00    -0.237 OA
ATOM    100  O   UNL A   1      35.770  29.602  30.838  1.00  0.00    -0.744 OA
ENDBRANCH  96  97
ENDBRANCH  64  89
BRANCH  76 101
ATOM    101  C   UNL A   1      43.716  23.328  26.837  1.00  0.00     0.058 A 
ATOM    102  C   UNL A   1      43.357  22.506  27.916  1.00  0.00     0.135 A 
ATOM    103  C   UNL A   1      43.607  22.794  25.542  1.00  0.00     0.135 A 
ATOM    104  F   UNL A   1      43.447  22.964  29.175  1.00  0.00    -0.206 F 
ATOM    105  C   UNL A   1      42.955  21.188  27.725  1.00  0.00     0.059 A 
ATOM    106  C   UNL A   1      43.175  21.490  25.325  1.00  0.00     0.059 A 
ATOM    107  F   UNL A   1      43.922  23.542  24.472  1.00  0.00    -0.206 F 
ATOM    108  C   UNL A   1      42.873  20.687  26.424  1.00  0.00     0.060 A 
BRANCH 108 109
ATOM    109  S   UNL A   1      42.360  18.973  26.188  1.00  0.00     0.124 S 
ATOM    110  O   UNL A   1      40.979  19.139  25.743  1.00  0.00    -0.237 OA
ATOM    111  O   UNL A   1      43.299  18.501  25.175  1.00  0.00    -0.237 OA
ATOM    112  O   UNL A   1      42.526  18.382  27.512  1.00  0.00    -0.744 OA
ENDBRANCH 108 109
ENDBRANCH  76 101
ENDBRANCH  50  51
ENDBRANCH  42  45
ENDBRANCH  40  41
ENDBRANCH  39  40
ENDBRANCH  38  39
ENDBRANCH  37  38
ENDBRANCH   1  37
TORSDOF 29
ENDMDL
