MODEL 1
REMARK VINA RESULT:     -12.3      0.000      0.000
REMARK SMILES C[C@@H](C(=O)NCCCCCCNC(=O)c1ccc(-c2c3nc(c(-c4c(F)cc(S(=O)(=O)[O-])cc4F)c4ccc([nH]4)c(-c4c(F)cc(S(=O)(=O)[O-])cc4F)c4nc(c(-c5c(F)cc(S(=O)(=O)[O-])cc5F)c5ccc2[nH]5)C=C4)C=C3)cc1)c1ccc2c3cc(Cl)ccc3n(C(=O)c3cocn3)c2c1
REMARK SMILES IDX 8 1 7 2 6 3 5 4 3 5 4 6 2 8 1 9 81 10 82 11 101 12 83 13
REMARK SMILES IDX 100 14 84 15 92 16 85 17 91 18 86 19 90 20 87 21 89 22 88 23
REMARK SMILES IDX 93 24 94 25 95 26 96 27 99 28 97 29 98 30 9 31 10 32 11 33
REMARK SMILES IDX 12 34 13 35 14 37 15 38 16 39 80 40 17 41 79 42 18 43 19 44
REMARK SMILES IDX 20 45 73 46 21 47 78 48 72 49 74 50 22 51 77 52 71 53 70 54
REMARK SMILES IDX 23 56 57 57 36 58 56 59 37 60 40 61 55 62 75 63 38 64 39 65
REMARK SMILES IDX 54 67 76 68 41 69 24 70 25 71 34 72 26 73 27 74 33 75 35 76
REMARK SMILES IDX 28 77 29 78 30 79 31 80 32 81 58 82 59 83 68 84 60 85 61 86
REMARK SMILES IDX 67 87 69 88 62 89 63 90 64 91 65 92 66 93 42 94 43 95 52 96
REMARK SMILES IDX 44 97 45 98 51 99 53 100 46 101 47 102 48 103 49 104 50 105
REMARK H PARENT 5 7 12 36 74 55 40 66
REMARK Flexibility Score: inf
ROOT
ATOM      1  C   UNL A   1      31.576  29.640  24.381  1.00  0.00     0.002 C 
ENDROOT
BRANCH   1   2
ATOM      2  C   UNL A   1      30.140  29.745  23.848  1.00  0.00     0.021 C 
BRANCH   2   3
ATOM      3  C   UNL A   1      29.501  28.394  23.515  1.00  0.00     0.116 C 
BRANCH   3   4
ATOM      4  N   UNL A   1      30.155  27.805  22.366  1.00  0.00    -0.356 N 
ATOM      5  C   UNL A   1      30.795  26.607  22.249  1.00  0.00     0.227 C 
ATOM      6  O   UNL A   1      31.496  26.444  21.247  1.00  0.00    -0.274 OA
ATOM      7  H   UNL A   1      30.135  28.351  21.546  1.00  0.00     0.163 HD
BRANCH   5   8
ATOM      8  C   UNL A   1      30.590  25.524  23.321  1.00  0.00     0.105 C 
ATOM      9  C   UNL A   1      29.835  26.034  24.555  1.00  0.00     0.023 C 
BRANCH   8  10
ATOM     10  C   UNL A   1      31.917  24.888  23.731  1.00  0.00    -0.034 A 
ATOM     11  C   UNL A   1      33.017  25.673  24.085  1.00  0.00     0.005 A 
ATOM     12  C   UNL A   1      32.046  23.488  23.716  1.00  0.00     0.032 A 
ATOM     13  C   UNL A   1      34.209  25.090  24.510  1.00  0.00     0.011 A 
ATOM     14  C   UNL A   1      33.274  22.901  24.088  1.00  0.00     0.058 A 
ATOM     15  C   UNL A   1      34.332  23.687  24.533  1.00  0.00     0.008 A 
ATOM     16  N   UNL A   1      33.680  21.557  24.123  1.00  0.00    -0.274 N 
ATOM     17  C   UNL A   1      35.381  22.818  24.926  1.00  0.00     0.009 A 
ATOM     18  C   UNL A   1      34.998  21.508  24.611  1.00  0.00     0.057 A 
ATOM     19  C   UNL A   1      36.653  23.067  25.485  1.00  0.00     0.031 A 
ATOM     20  C   UNL A   1      35.926  20.454  24.741  1.00  0.00     0.029 A 
ATOM     21  C   UNL A   1      37.536  22.009  25.677  1.00  0.00     0.041 A 
ATOM     22  C   UNL A   1      37.187  20.723  25.292  1.00  0.00     0.023 A 
ATOM     23  Cl  UNL A   1      39.086  22.313  26.360  1.00  0.00    -0.084 Cl
BRANCH  16  24
ATOM     24  C   UNL A   1      32.873  20.472  23.683  1.00  0.00     0.284 C 
ATOM     25  O   UNL A   1      32.122  20.711  22.732  1.00  0.00    -0.266 OA
BRANCH  24  26
ATOM     26  C   UNL A   1      32.849  19.142  24.283  1.00  0.00     0.167 A 
ATOM     27  C   UNL A   1      33.304  17.947  23.765  1.00  0.00     0.231 A 
ATOM     28  N   UNL A   1      32.452  18.924  25.597  1.00  0.00    -0.211 NA
ATOM     29  O   UNL A   1      33.181  16.984  24.724  1.00  0.00    -0.451 OA
ATOM     30  C   UNL A   1      32.685  17.650  25.800  1.00  0.00     0.308 A 
ENDBRANCH  24  26
ENDBRANCH  16  24
ENDBRANCH   8  10
ENDBRANCH   5   8
ENDBRANCH   3   4
ENDBRANCH   2   3
ENDBRANCH   1   2
BRANCH   1  31
ATOM     31  C   UNL A   1      31.705  28.992  25.763  1.00  0.00     0.002 C 
BRANCH  31  32
ATOM     32  C   UNL A   1      32.996  28.202  25.984  1.00  0.00     0.021 C 
BRANCH  32  33
ATOM     33  C   UNL A   1      33.690  28.479  27.315  1.00  0.00     0.116 C 
BRANCH  33  34
ATOM     34  N   UNL A   1      33.651  29.890  27.667  1.00  0.00    -0.352 N 
ATOM     35  C   UNL A   1      34.613  30.653  28.282  1.00  0.00     0.251 C 
ATOM     36  H   UNL A   1      32.821  30.363  27.432  1.00  0.00     0.163 HD
ATOM     37  O   UNL A   1      34.346  31.781  28.684  1.00  0.00    -0.269 OA
BRANCH  35  38
ATOM     38  C   UNL A   1      35.967  30.094  28.479  1.00  0.00     0.039 A 
ATOM     39  C   UNL A   1      36.864  30.094  27.409  1.00  0.00     0.014 A 
ATOM     40  C   UNL A   1      36.353  29.594  29.727  1.00  0.00     0.014 A 
ATOM     41  C   UNL A   1      38.178  29.664  27.610  1.00  0.00     0.010 A 
ATOM     42  C   UNL A   1      37.677  29.221  29.939  1.00  0.00     0.010 A 
ATOM     43  C   UNL A   1      38.605  29.264  28.888  1.00  0.00    -0.014 A 
BRANCH  43  44
ATOM     44  C   UNL A   1      40.028  28.931  29.159  1.00  0.00     0.031 A 
ATOM     45  C   UNL A   1      40.975  29.994  29.643  1.00  0.00     0.074 A 
ATOM     46  C   UNL A   1      40.483  27.696  28.868  1.00  0.00     0.049 A 
ATOM     47  N   UNL A   1      42.269  29.924  29.818  1.00  0.00    -0.248 NA
ATOM     48  C   UNL A   1      40.399  31.314  29.944  1.00  0.00     0.031 C 
ATOM     49  C   UNL A   1      39.670  26.597  28.340  1.00  0.00     0.029 A 
ATOM     50  N   UNL A   1      41.746  27.162  28.946  1.00  0.00    -0.354 N 
ATOM     51  C   UNL A   1      42.666  31.192  30.224  1.00  0.00     0.074 A 
ATOM     52  C   UNL A   1      41.480  32.021  30.244  1.00  0.00     0.031 C 
ATOM     53  C   UNL A   1      40.453  25.525  28.139  1.00  0.00     0.029 A 
ATOM     54  C   UNL A   1      41.828  25.869  28.485  1.00  0.00     0.049 A 
ATOM     55  H   UNL A   1      42.519  27.659  29.300  1.00  0.00     0.167 HD
ATOM     56  C   UNL A   1      43.906  31.619  30.562  1.00  0.00     0.037 A 
ATOM     57  C   UNL A   1      42.895  25.059  28.331  1.00  0.00     0.037 A 
ATOM     58  C   UNL A   1      45.071  30.775  30.583  1.00  0.00     0.049 A 
ATOM     59  C   UNL A   1      44.260  25.560  28.718  1.00  0.00     0.074 A 
ATOM     60  C   UNL A   1      46.347  31.086  31.025  1.00  0.00     0.029 A 
ATOM     61  N   UNL A   1      45.110  29.463  30.138  1.00  0.00    -0.354 N 
ATOM     62  N   UNL A   1      44.599  26.732  29.200  1.00  0.00    -0.248 NA
ATOM     63  C   UNL A   1      45.387  24.634  28.537  1.00  0.00     0.031 C 
ATOM     64  C   UNL A   1      47.168  29.978  30.797  1.00  0.00     0.029 A 
ATOM     65  C   UNL A   1      46.396  28.963  30.255  1.00  0.00     0.049 A 
ATOM     66  H   UNL A   1      44.339  28.961  29.790  1.00  0.00     0.167 HD
ATOM     67  C   UNL A   1      45.975  26.678  29.393  1.00  0.00     0.074 A 
ATOM     68  C   UNL A   1      46.403  25.354  28.994  1.00  0.00     0.031 C 
ATOM     69  C   UNL A   1      46.808  27.641  29.856  1.00  0.00     0.037 A 
BRANCH  56  70
ATOM     70  C   UNL A   1      44.080  33.061  30.942  1.00  0.00     0.058 A 
ATOM     71  C   UNL A   1      44.338  34.052  29.981  1.00  0.00     0.135 A 
ATOM     72  C   UNL A   1      43.904  33.469  32.275  1.00  0.00     0.135 A 
ATOM     73  F   UNL A   1      44.529  33.715  28.697  1.00  0.00    -0.206 F 
ATOM     74  C   UNL A   1      44.422  35.395  30.330  1.00  0.00     0.059 A 
ATOM     75  C   UNL A   1      43.960  34.810  32.642  1.00  0.00     0.059 A 
ATOM     76  F   UNL A   1      43.658  32.561  33.232  1.00  0.00    -0.206 F 
ATOM     77  C   UNL A   1      44.226  35.766  31.662  1.00  0.00     0.060 A 
BRANCH  77  78
ATOM     78  S   UNL A   1      44.299  37.519  32.090  1.00  0.00     0.124 S 
ATOM     79  O   UNL A   1      43.862  38.140  30.844  1.00  0.00    -0.237 OA
ATOM     80  O   UNL A   1      43.363  37.607  33.205  1.00  0.00    -0.237 OA
ATOM     81  O   UNL A   1      45.702  37.727  32.434  1.00  0.00    -0.744 OA
ENDBRANCH  77  78
ENDBRANCH  56  70
BRANCH  57  82
ATOM     82  C   UNL A   1      42.721  23.695  27.763  1.00  0.00     0.058 A 
ATOM     83  C   UNL A   1      42.767  23.476  26.379  1.00  0.00     0.135 A 
ATOM     84  C   UNL A   1      42.493  22.587  28.594  1.00  0.00     0.135 A 
ATOM     85  F   UNL A   1      42.975  24.505  25.544  1.00  0.00    -0.206 F 
ATOM     86  C   UNL A   1      42.567  22.210  25.834  1.00  0.00     0.059 A 
ATOM     87  C   UNL A   1      42.315  21.309  28.075  1.00  0.00     0.059 A 
ATOM     88  F   UNL A   1      42.457  22.740  29.927  1.00  0.00    -0.206 F 
ATOM     89  C   UNL A   1      42.339  21.133  26.693  1.00  0.00     0.060 A 
BRANCH  89  90
ATOM     90  S   UNL A   1      42.103  19.490  25.981  1.00  0.00     0.124 S 
ATOM     91  O   UNL A   1      42.579  18.633  27.059  1.00  0.00    -0.237 OA
ATOM     92  O   UNL A   1      40.665  19.465  25.731  1.00  0.00    -0.237 OA
ATOM     93  O   UNL A   1      42.938  19.524  24.783  1.00  0.00    -0.744 OA
ENDBRANCH  89  90
ENDBRANCH  57  82
BRANCH  69  94
ATOM     94  C   UNL A   1      48.267  27.304  29.966  1.00  0.00     0.058 A 
ATOM     95  C   UNL A   1      49.167  27.610  28.933  1.00  0.00     0.135 A 
ATOM     96  C   UNL A   1      48.784  26.745  31.145  1.00  0.00     0.135 A 
ATOM     97  F   UNL A   1      48.720  28.136  27.782  1.00  0.00    -0.206 F 
ATOM     98  C   UNL A   1      50.530  27.365  29.062  1.00  0.00     0.059 A 
ATOM     99  C   UNL A   1      50.147  26.514  31.306  1.00  0.00     0.059 A 
ATOM    100  F   UNL A   1      47.966  26.442  32.166  1.00  0.00    -0.206 F 
ATOM    101  C   UNL A   1      51.011  26.824  30.256  1.00  0.00     0.060 A 
BRANCH 101 102
ATOM    102  S   UNL A   1      52.790  26.571  30.435  1.00  0.00     0.124 S 
ATOM    103  O   UNL A   1      53.179  26.244  29.068  1.00  0.00    -0.237 OA
ATOM    104  O   UNL A   1      53.242  27.867  30.930  1.00  0.00    -0.237 OA
ATOM    105  O   UNL A   1      52.883  25.474  31.394  1.00  0.00    -0.744 OA
ENDBRANCH 101 102
ENDBRANCH  69  94
ENDBRANCH  43  44
ENDBRANCH  35  38
ENDBRANCH  33  34
ENDBRANCH  32  33
ENDBRANCH  31  32
ENDBRANCH   1  31
TORSDOF 19
ENDMDL
MODEL 2
REMARK VINA RESULT:     -12.2      2.587      8.338
REMARK SMILES C[C@@H](C(=O)NCCCCCCNC(=O)c1ccc(-c2c3nc(c(-c4c(F)cc(S(=O)(=O)[O-])cc4F)c4ccc([nH]4)c(-c4c(F)cc(S(=O)(=O)[O-])cc4F)c4nc(c(-c5c(F)cc(S(=O)(=O)[O-])cc5F)c5ccc2[nH]5)C=C4)C=C3)cc1)c1ccc2c3cc(Cl)ccc3n(C(=O)c3cocn3)c2c1
REMARK SMILES IDX 8 1 7 2 6 3 5 4 3 5 4 6 2 8 1 9 81 10 82 11 101 12 83 13
REMARK SMILES IDX 100 14 84 15 92 16 85 17 91 18 86 19 90 20 87 21 89 22 88 23
REMARK SMILES IDX 93 24 94 25 95 26 96 27 99 28 97 29 98 30 9 31 10 32 11 33
REMARK SMILES IDX 12 34 13 35 14 37 15 38 16 39 80 40 17 41 79 42 18 43 19 44
REMARK SMILES IDX 20 45 73 46 21 47 78 48 72 49 74 50 22 51 77 52 71 53 70 54
REMARK SMILES IDX 23 56 57 57 36 58 56 59 37 60 40 61 55 62 75 63 38 64 39 65
REMARK SMILES IDX 54 67 76 68 41 69 24 70 25 71 34 72 26 73 27 74 33 75 35 76
REMARK SMILES IDX 28 77 29 78 30 79 31 80 32 81 58 82 59 83 68 84 60 85 61 86
REMARK SMILES IDX 67 87 69 88 62 89 63 90 64 91 65 92 66 93 42 94 43 95 52 96
REMARK SMILES IDX 44 97 45 98 51 99 53 100 46 101 47 102 48 103 49 104 50 105
REMARK H PARENT 5 7 12 36 74 55 40 66
REMARK Flexibility Score: inf
ROOT
ATOM      1  C   UNL A   1      32.245  30.505  26.428  1.00  0.00     0.002 C 
ENDROOT
BRANCH   1   2
ATOM      2  C   UNL A   1      32.695  29.516  25.344  1.00  0.00     0.021 C 
BRANCH   2   3
ATOM      3  C   UNL A   1      31.543  28.749  24.687  1.00  0.00     0.116 C 
BRANCH   3   4
ATOM      4  N   UNL A   1      31.013  27.767  25.609  1.00  0.00    -0.356 N 
ATOM      5  C   UNL A   1      30.632  26.477  25.381  1.00  0.00     0.227 C 
ATOM      6  O   UNL A   1      29.970  25.927  26.265  1.00  0.00    -0.274 OA
ATOM      7  H   UNL A   1      30.912  28.075  26.539  1.00  0.00     0.163 HD
BRANCH   5   8
ATOM      8  C   UNL A   1      31.067  25.770  24.087  1.00  0.00     0.105 C 
ATOM      9  C   UNL A   1      29.978  24.864  23.501  1.00  0.00     0.023 C 
BRANCH   8  10
ATOM     10  C   UNL A   1      32.363  24.987  24.291  1.00  0.00    -0.034 A 
ATOM     11  C   UNL A   1      33.603  25.632  24.309  1.00  0.00     0.005 A 
ATOM     12  C   UNL A   1      32.311  23.588  24.426  1.00  0.00     0.032 A 
ATOM     13  C   UNL A   1      34.778  24.922  24.549  1.00  0.00     0.011 A 
ATOM     14  C   UNL A   1      33.509  22.865  24.607  1.00  0.00     0.058 A 
ATOM     15  C   UNL A   1      34.728  23.525  24.722  1.00  0.00     0.008 A 
ATOM     16  N   UNL A   1      33.743  21.486  24.726  1.00  0.00    -0.274 N 
ATOM     17  C   UNL A   1      35.723  22.552  24.996  1.00  0.00     0.009 A 
ATOM     18  C   UNL A   1      35.120  21.289  24.933  1.00  0.00     0.057 A 
ATOM     19  C   UNL A   1      37.107  22.663  25.245  1.00  0.00     0.031 A 
ATOM     20  C   UNL A   1      35.917  20.127  25.001  1.00  0.00     0.029 A 
ATOM     21  C   UNL A   1      37.873  21.510  25.382  1.00  0.00     0.041 A 
ATOM     22  C   UNL A   1      37.292  20.258  25.242  1.00  0.00     0.023 A 
ATOM     23  Cl  UNL A   1      39.562  21.646  25.687  1.00  0.00    -0.084 Cl
BRANCH  16  24
ATOM     24  C   UNL A   1      32.731  20.494  24.601  1.00  0.00     0.284 C 
ATOM     25  O   UNL A   1      31.776  20.599  25.377  1.00  0.00    -0.266 OA
BRANCH  24  26
ATOM     26  C   UNL A   1      32.760  19.375  23.665  1.00  0.00     0.167 A 
ATOM     27  C   UNL A   1      33.235  18.094  23.858  1.00  0.00     0.231 A 
ATOM     28  N   UNL A   1      32.153  19.431  22.417  1.00  0.00    -0.211 NA
ATOM     29  O   UNL A   1      32.952  17.355  22.746  1.00  0.00    -0.451 OA
ATOM     30  C   UNL A   1      32.283  18.218  21.937  1.00  0.00     0.308 A 
ENDBRANCH  24  26
ENDBRANCH  16  24
ENDBRANCH   8  10
ENDBRANCH   5   8
ENDBRANCH   3   4
ENDBRANCH   2   3
ENDBRANCH   1   2
BRANCH   1  31
ATOM     31  C   UNL A   1      33.198  30.632  27.621  1.00  0.00     0.002 C 
BRANCH  31  32
ATOM     32  C   UNL A   1      34.678  30.750  27.251  1.00  0.00     0.021 C 
BRANCH  32  33
ATOM     33  C   UNL A   1      35.576  29.688  27.879  1.00  0.00     0.116 C 
BRANCH  33  34
ATOM     34  N   UNL A   1      35.522  29.720  29.333  1.00  0.00    -0.352 N 
ATOM     35  C   UNL A   1      36.538  29.528  30.238  1.00  0.00     0.251 C 
ATOM     36  H   UNL A   1      34.637  29.905  29.721  1.00  0.00     0.163 HD
ATOM     37  O   UNL A   1      36.286  29.394  31.431  1.00  0.00    -0.269 OA
BRANCH  35  38
ATOM     38  C   UNL A   1      37.934  29.459  29.759  1.00  0.00     0.039 A 
ATOM     39  C   UNL A   1      38.945  29.116  30.659  1.00  0.00     0.014 A 
ATOM     40  C   UNL A   1      38.236  29.708  28.416  1.00  0.00     0.014 A 
ATOM     41  C   UNL A   1      40.252  28.946  30.197  1.00  0.00     0.010 A 
ATOM     42  C   UNL A   1      39.527  29.482  27.947  1.00  0.00     0.010 A 
ATOM     43  C   UNL A   1      40.545  29.086  28.829  1.00  0.00    -0.014 A 
BRANCH  43  44
ATOM     44  C   UNL A   1      41.895  28.781  28.291  1.00  0.00     0.031 A 
ATOM     45  C   UNL A   1      42.236  27.384  27.850  1.00  0.00     0.074 A 
ATOM     46  C   UNL A   1      42.841  29.741  28.300  1.00  0.00     0.049 A 
ATOM     47  N   UNL A   1      43.391  26.901  27.469  1.00  0.00    -0.248 NA
ATOM     48  C   UNL A   1      41.147  26.395  27.865  1.00  0.00     0.031 C 
ATOM     49  C   UNL A   1      42.644  31.120  28.756  1.00  0.00     0.029 A 
ATOM     50  N   UNL A   1      44.166  29.700  27.940  1.00  0.00    -0.354 N 
ATOM     51  C   UNL A   1      43.174  25.551  27.223  1.00  0.00     0.074 A 
ATOM     52  C   UNL A   1      41.784  25.283  27.524  1.00  0.00     0.031 C 
ATOM     53  C   UNL A   1      43.803  31.789  28.654  1.00  0.00     0.029 A 
ATOM     54  C   UNL A   1      44.835  30.882  28.162  1.00  0.00     0.049 A 
ATOM     55  H   UNL A   1      44.596  28.901  27.559  1.00  0.00     0.167 HD
ATOM     56  C   UNL A   1      44.053  24.624  26.775  1.00  0.00     0.037 A 
ATOM     57  C   UNL A   1      46.138  31.193  28.014  1.00  0.00     0.037 A 
ATOM     58  C   UNL A   1      45.422  24.910  26.435  1.00  0.00     0.049 A 
ATOM     59  C   UNL A   1      47.092  30.144  27.510  1.00  0.00     0.074 A 
ATOM     60  C   UNL A   1      46.357  24.065  25.860  1.00  0.00     0.029 A 
ATOM     61  N   UNL A   1      46.056  26.125  26.645  1.00  0.00    -0.354 N 
ATOM     62  N   UNL A   1      46.844  28.898  27.183  1.00  0.00    -0.248 NA
ATOM     63  C   UNL A   1      48.499  30.538  27.359  1.00  0.00     0.031 C 
ATOM     64  C   UNL A   1      47.570  24.754  25.772  1.00  0.00     0.029 A 
ATOM     65  C   UNL A   1      47.380  26.040  26.250  1.00  0.00     0.049 A 
ATOM     66  H   UNL A   1      45.628  26.928  27.019  1.00  0.00     0.167 HD
ATOM     67  C   UNL A   1      48.062  28.365  26.774  1.00  0.00     0.074 A 
ATOM     68  C   UNL A   1      49.041  29.427  26.877  1.00  0.00     0.031 C 
ATOM     69  C   UNL A   1      48.343  27.108  26.356  1.00  0.00     0.037 A 
BRANCH  56  70
ATOM     70  C   UNL A   1      43.575  23.209  26.617  1.00  0.00     0.058 A 
ATOM     71  C   UNL A   1      43.410  22.623  25.352  1.00  0.00     0.135 A 
ATOM     72  C   UNL A   1      43.361  22.404  27.747  1.00  0.00     0.135 A 
ATOM     73  F   UNL A   1      43.588  23.353  24.241  1.00  0.00    -0.206 F 
ATOM     74  C   UNL A   1      43.041  21.290  25.214  1.00  0.00     0.059 A 
ATOM     75  C   UNL A   1      43.014  21.060  27.632  1.00  0.00     0.059 A 
ATOM     76  F   UNL A   1      43.503  22.916  28.979  1.00  0.00    -0.206 F 
ATOM     77  C   UNL A   1      42.851  20.514  26.359  1.00  0.00     0.060 A 
BRANCH  77  78
ATOM     78  S   UNL A   1      42.411  18.774  26.160  1.00  0.00     0.124 S 
ATOM     79  O   UNL A   1      42.652  18.258  27.504  1.00  0.00    -0.237 OA
ATOM     80  O   UNL A   1      41.013  18.850  25.751  1.00  0.00    -0.237 OA
ATOM     81  O   UNL A   1      43.337  18.305  25.134  1.00  0.00    -0.744 OA
ENDBRANCH  77  78
ENDBRANCH  56  70
BRANCH  57  82
ATOM     82  C   UNL A   1      46.626  32.554  28.367  1.00  0.00     0.058 A 
ATOM     83  C   UNL A   1      46.655  33.582  27.416  1.00  0.00     0.135 A 
ATOM     84  C   UNL A   1      47.085  32.845  29.661  1.00  0.00     0.135 A 
ATOM     85  F   UNL A   1      46.234  33.349  26.163  1.00  0.00    -0.206 F 
ATOM     86  C   UNL A   1      47.146  34.848  27.725  1.00  0.00     0.059 A 
ATOM     87  C   UNL A   1      47.557  34.109  30.002  1.00  0.00     0.059 A 
ATOM     88  F   UNL A   1      47.063  31.900  30.614  1.00  0.00    -0.206 F 
ATOM     89  C   UNL A   1      47.598  35.100  29.022  1.00  0.00     0.060 A 
BRANCH  89  90
ATOM     90  S   UNL A   1      48.212  36.750  29.423  1.00  0.00     0.124 S 
ATOM     91  O   UNL A   1      49.384  36.843  28.561  1.00  0.00    -0.237 OA
ATOM     92  O   UNL A   1      47.081  37.598  29.059  1.00  0.00    -0.237 OA
ATOM     93  O   UNL A   1      48.485  36.665  30.855  1.00  0.00    -0.744 OA
ENDBRANCH  89  90
ENDBRANCH  57  82
BRANCH  69  94
ATOM     94  C   UNL A   1      49.762  26.804  25.968  1.00  0.00     0.058 A 
ATOM     95  C   UNL A   1      50.648  26.187  26.864  1.00  0.00     0.135 A 
ATOM     96  C   UNL A   1      50.217  27.061  24.665  1.00  0.00     0.135 A 
ATOM     97  F   UNL A   1      50.263  25.930  28.125  1.00  0.00    -0.206 F 
ATOM     98  C   UNL A   1      51.939  25.839  26.484  1.00  0.00     0.059 A 
ATOM     99  C   UNL A   1      51.497  26.700  24.255  1.00  0.00     0.059 A 
ATOM    100  F   UNL A   1      49.406  27.643  23.767  1.00  0.00    -0.206 F 
ATOM    101  C   UNL A   1      52.352  26.094  25.175  1.00  0.00     0.060 A 
BRANCH 101 102
ATOM    102  S   UNL A   1      54.010  25.579  24.676  1.00  0.00     0.124 S 
ATOM    103  O   UNL A   1      53.965  24.146  24.942  1.00  0.00    -0.237 OA
ATOM    104  O   UNL A   1      54.046  25.962  23.269  1.00  0.00    -0.237 OA
ATOM    105  O   UNL A   1      54.884  26.353  25.553  1.00  0.00    -0.744 OA
ENDBRANCH 101 102
ENDBRANCH  69  94
ENDBRANCH  43  44
ENDBRANCH  35  38
ENDBRANCH  33  34
ENDBRANCH  32  33
ENDBRANCH  31  32
ENDBRANCH   1  31
TORSDOF 19
ENDMDL
MODEL 3
REMARK VINA RESULT:     -12.2      2.456      3.196
REMARK SMILES C[C@@H](C(=O)NCCCCCCNC(=O)c1ccc(-c2c3nc(c(-c4c(F)cc(S(=O)(=O)[O-])cc4F)c4ccc([nH]4)c(-c4c(F)cc(S(=O)(=O)[O-])cc4F)c4nc(c(-c5c(F)cc(S(=O)(=O)[O-])cc5F)c5ccc2[nH]5)C=C4)C=C3)cc1)c1ccc2c3cc(Cl)ccc3n(C(=O)c3cocn3)c2c1
REMARK SMILES IDX 8 1 7 2 6 3 5 4 3 5 4 6 2 8 1 9 81 10 82 11 101 12 83 13
REMARK SMILES IDX 100 14 84 15 92 16 85 17 91 18 86 19 90 20 87 21 89 22 88 23
REMARK SMILES IDX 93 24 94 25 95 26 96 27 99 28 97 29 98 30 9 31 10 32 11 33
REMARK SMILES IDX 12 34 13 35 14 37 15 38 16 39 80 40 17 41 79 42 18 43 19 44
REMARK SMILES IDX 20 45 73 46 21 47 78 48 72 49 74 50 22 51 77 52 71 53 70 54
REMARK SMILES IDX 23 56 57 57 36 58 56 59 37 60 40 61 55 62 75 63 38 64 39 65
REMARK SMILES IDX 54 67 76 68 41 69 24 70 25 71 34 72 26 73 27 74 33 75 35 76
REMARK SMILES IDX 28 77 29 78 30 79 31 80 32 81 58 82 59 83 68 84 60 85 61 86
REMARK SMILES IDX 67 87 69 88 62 89 63 90 64 91 65 92 66 93 42 94 43 95 52 96
REMARK SMILES IDX 44 97 45 98 51 99 53 100 46 101 47 102 48 103 49 104 50 105
REMARK H PARENT 5 7 12 36 74 55 40 66
REMARK Flexibility Score: inf
ROOT
ATOM      1  C   UNL A   1      33.742  29.060  25.802  1.00  0.00     0.002 C 
ENDROOT
BRANCH   1   2
ATOM      2  C   UNL A   1      32.330  29.652  25.690  1.00  0.00     0.021 C 
BRANCH   2   3
ATOM      3  C   UNL A   1      31.236  28.608  25.447  1.00  0.00     0.116 C 
BRANCH   3   4
ATOM      4  N   UNL A   1      31.010  28.448  24.026  1.00  0.00    -0.356 N 
ATOM      5  C   UNL A   1      30.944  27.309  23.279  1.00  0.00     0.227 C 
ATOM      6  O   UNL A   1      31.004  27.441  22.054  1.00  0.00    -0.274 OA
ATOM      7  H   UNL A   1      30.885  29.286  23.524  1.00  0.00     0.163 HD
BRANCH   5   8
ATOM      8  C   UNL A   1      30.762  25.950  23.974  1.00  0.00     0.105 C 
ATOM      9  C   UNL A   1      29.915  26.035  25.250  1.00  0.00     0.023 C 
BRANCH   8  10
ATOM     10  C   UNL A   1      32.109  25.292  24.270  1.00  0.00    -0.034 A 
ATOM     11  C   UNL A   1      33.220  26.053  24.643  1.00  0.00     0.005 A 
ATOM     12  C   UNL A   1      32.243  23.899  24.128  1.00  0.00     0.032 A 
ATOM     13  C   UNL A   1      34.432  25.445  24.965  1.00  0.00     0.011 A 
ATOM     14  C   UNL A   1      33.489  23.293  24.394  1.00  0.00     0.058 A 
ATOM     15  C   UNL A   1      34.562  24.046  24.860  1.00  0.00     0.008 A 
ATOM     16  N   UNL A   1      33.903  21.955  24.295  1.00  0.00    -0.274 N 
ATOM     17  C   UNL A   1      35.631  23.155  25.130  1.00  0.00     0.009 A 
ATOM     18  C   UNL A   1      35.240  21.874  24.719  1.00  0.00     0.057 A 
ATOM     19  C   UNL A   1      36.925  23.365  25.655  1.00  0.00     0.031 A 
ATOM     20  C   UNL A   1      36.179  20.821  24.718  1.00  0.00     0.029 A 
ATOM     21  C   UNL A   1      37.820  22.302  25.716  1.00  0.00     0.041 A 
ATOM     22  C   UNL A   1      37.461  21.051  25.235  1.00  0.00     0.023 A 
ATOM     23  Cl  UNL A   1      39.397  22.559  26.356  1.00  0.00    -0.084 Cl
BRANCH  16  24
ATOM     24  C   UNL A   1      33.082  20.905  23.796  1.00  0.00     0.284 C 
ATOM     25  O   UNL A   1      32.510  21.131  22.726  1.00  0.00    -0.266 OA
BRANCH  24  26
ATOM     26  C   UNL A   1      32.852  19.628  24.463  1.00  0.00     0.167 A 
ATOM     27  C   UNL A   1      32.848  19.341  25.813  1.00  0.00     0.231 A 
ATOM     28  N   UNL A   1      32.456  18.488  23.774  1.00  0.00    -0.211 NA
ATOM     29  O   UNL A   1      32.475  18.039  25.978  1.00  0.00    -0.451 OA
ATOM     30  C   UNL A   1      32.234  17.600  24.713  1.00  0.00     0.308 A 
ENDBRANCH  24  26
ENDBRANCH  16  24
ENDBRANCH   8  10
ENDBRANCH   5   8
ENDBRANCH   3   4
ENDBRANCH   2   3
ENDBRANCH   1   2
BRANCH   1  31
ATOM     31  C   UNL A   1      34.440  29.304  27.143  1.00  0.00     0.002 C 
BRANCH  31  32
ATOM     32  C   UNL A   1      34.493  30.769  27.582  1.00  0.00     0.021 C 
BRANCH  32  33
ATOM     33  C   UNL A   1      35.779  31.171  28.297  1.00  0.00     0.116 C 
BRANCH  33  34
ATOM     34  N   UNL A   1      35.647  31.090  29.744  1.00  0.00    -0.352 N 
ATOM     35  C   UNL A   1      36.442  30.428  30.647  1.00  0.00     0.251 C 
ATOM     36  H   UNL A   1      34.883  31.577  30.128  1.00  0.00     0.163 HD
ATOM     37  O   UNL A   1      36.079  30.298  31.812  1.00  0.00    -0.269 OA
BRANCH  35  38
ATOM     38  C   UNL A   1      37.726  29.850  30.198  1.00  0.00     0.039 A 
ATOM     39  C   UNL A   1      38.040  29.867  28.838  1.00  0.00     0.014 A 
ATOM     40  C   UNL A   1      38.627  29.317  31.126  1.00  0.00     0.014 A 
ATOM     41  C   UNL A   1      39.292  29.419  28.413  1.00  0.00     0.010 A 
ATOM     42  C   UNL A   1      39.895  28.926  30.707  1.00  0.00     0.010 A 
ATOM     43  C   UNL A   1      40.245  28.985  29.350  1.00  0.00    -0.014 A 
BRANCH  43  44
ATOM     44  C   UNL A   1      41.629  28.631  28.940  1.00  0.00     0.031 A 
ATOM     45  C   UNL A   1      42.675  29.703  28.804  1.00  0.00     0.074 A 
ATOM     46  C   UNL A   1      41.908  27.359  28.591  1.00  0.00     0.049 A 
ATOM     47  N   UNL A   1      43.896  29.606  28.345  1.00  0.00    -0.248 NA
ATOM     48  C   UNL A   1      42.293  31.064  29.211  1.00  0.00     0.031 C 
ATOM     49  C   UNL A   1      40.960  26.243  28.628  1.00  0.00     0.029 A 
ATOM     50  N   UNL A   1      43.063  26.793  28.109  1.00  0.00    -0.354 N 
ATOM     51  C   UNL A   1      44.419  30.893  28.383  1.00  0.00     0.074 A 
ATOM     52  C   UNL A   1      43.374  31.760  28.885  1.00  0.00     0.031 C 
ATOM     53  C   UNL A   1      41.568  25.132  28.185  1.00  0.00     0.029 A 
ATOM     54  C   UNL A   1      42.935  25.460  27.796  1.00  0.00     0.049 A 
ATOM     55  H   UNL A   1      43.903  27.295  27.999  1.00  0.00     0.167 HD
ATOM     56  C   UNL A   1      45.662  31.308  28.043  1.00  0.00     0.037 A 
ATOM     57  C   UNL A   1      43.811  24.604  27.232  1.00  0.00     0.037 A 
ATOM     58  C   UNL A   1      46.709  30.431  27.588  1.00  0.00     0.049 A 
ATOM     59  C   UNL A   1      45.186  25.093  26.867  1.00  0.00     0.074 A 
ATOM     60  C   UNL A   1      48.034  30.739  27.333  1.00  0.00     0.029 A 
ATOM     61  N   UNL A   1      46.550  29.082  27.311  1.00  0.00    -0.354 N 
ATOM     62  N   UNL A   1      45.695  26.293  27.009  1.00  0.00    -0.248 NA
ATOM     63  C   UNL A   1      46.103  24.116  26.263  1.00  0.00     0.031 C 
ATOM     64  C   UNL A   1      48.664  29.587  26.852  1.00  0.00     0.029 A 
ATOM     65  C   UNL A   1      47.743  28.552  26.849  1.00  0.00     0.049 A 
ATOM     66  H   UNL A   1      45.715  28.575  27.426  1.00  0.00     0.167 HD
ATOM     67  C   UNL A   1      46.997  26.211  26.526  1.00  0.00     0.074 A 
ATOM     68  C   UNL A   1      47.203  24.841  26.104  1.00  0.00     0.031 C 
ATOM     69  C   UNL A   1      47.934  27.185  26.435  1.00  0.00     0.037 A 
BRANCH  56  70
ATOM     70  C   UNL A   1      45.975  32.773  28.148  1.00  0.00     0.058 A 
ATOM     71  C   UNL A   1      46.506  33.332  29.321  1.00  0.00     0.135 A 
ATOM     72  C   UNL A   1      45.820  33.612  27.032  1.00  0.00     0.135 A 
ATOM     73  F   UNL A   1      46.661  32.577  30.419  1.00  0.00    -0.206 F 
ATOM     74  C   UNL A   1      46.866  34.673  29.387  1.00  0.00     0.059 A 
ATOM     75  C   UNL A   1      46.194  34.953  27.069  1.00  0.00     0.059 A 
ATOM     76  F   UNL A   1      45.313  33.128  25.888  1.00  0.00    -0.206 F 
ATOM     77  C   UNL A   1      46.711  35.475  28.253  1.00  0.00     0.060 A 
BRANCH  77  78
ATOM     78  S   UNL A   1      47.221  37.205  28.345  1.00  0.00     0.124 S 
ATOM     79  O   UNL A   1      47.794  37.269  29.686  1.00  0.00    -0.237 OA
ATOM     80  O   UNL A   1      48.171  37.309  27.243  1.00  0.00    -0.237 OA
ATOM     81  O   UNL A   1      45.972  37.938  28.163  1.00  0.00    -0.744 OA
ENDBRANCH  77  78
ENDBRANCH  56  70
BRANCH  57  82
ATOM     82  C   UNL A   1      43.408  23.198  26.955  1.00  0.00     0.058 A 
ATOM     83  C   UNL A   1      43.256  22.270  27.994  1.00  0.00     0.135 A 
ATOM     84  C   UNL A   1      43.180  22.755  25.642  1.00  0.00     0.135 A 
ATOM     85  F   UNL A   1      43.471  22.646  29.264  1.00  0.00    -0.206 F 
ATOM     86  C   UNL A   1      42.918  20.944  27.743  1.00  0.00     0.059 A 
ATOM     87  C   UNL A   1      42.816  21.441  25.368  1.00  0.00     0.059 A 
ATOM     88  F   UNL A   1      43.295  23.608  24.612  1.00  0.00    -0.206 F 
ATOM     89  C   UNL A   1      42.702  20.538  26.424  1.00  0.00     0.060 A 
BRANCH  89  90
ATOM     90  S   UNL A   1      42.241  18.821  26.107  1.00  0.00     0.124 S 
ATOM     91  O   UNL A   1      42.465  18.213  27.413  1.00  0.00    -0.237 OA
ATOM     92  O   UNL A   1      40.848  18.947  25.690  1.00  0.00    -0.237 OA
ATOM     93  O   UNL A   1      43.168  18.417  25.054  1.00  0.00    -0.744 OA
ENDBRANCH  89  90
ENDBRANCH  57  82
BRANCH  69  94
ATOM     94  C   UNL A   1      49.274  26.811  25.867  1.00  0.00     0.058 A 
ATOM     95  C   UNL A   1      49.588  27.052  24.521  1.00  0.00     0.135 A 
ATOM     96  C   UNL A   1      50.277  26.282  26.693  1.00  0.00     0.135 A 
ATOM     97  F   UNL A   1      48.659  27.547  23.688  1.00  0.00    -0.206 F 
ATOM     98  C   UNL A   1      50.851  26.774  24.011  1.00  0.00     0.059 A 
ATOM     99  C   UNL A   1      51.555  26.019  26.211  1.00  0.00     0.059 A 
ATOM    100  F   UNL A   1      50.029  26.041  27.991  1.00  0.00    -0.206 F 
ATOM    101  C   UNL A   1      51.831  26.264  24.865  1.00  0.00     0.060 A 
BRANCH 101 102
ATOM    102  S   UNL A   1      53.485  25.968  24.205  1.00  0.00     0.124 S 
ATOM    103  O   UNL A   1      53.241  26.015  22.768  1.00  0.00    -0.237 OA
ATOM    104  O   UNL A   1      54.246  27.084  24.756  1.00  0.00    -0.237 OA
ATOM    105  O   UNL A   1      53.834  24.655  24.739  1.00  0.00    -0.744 OA
ENDBRANCH 101 102
ENDBRANCH  69  94
ENDBRANCH  43  44
ENDBRANCH  35  38
ENDBRANCH  33  34
ENDBRANCH  32  33
ENDBRANCH  31  32
ENDBRANCH   1  31
TORSDOF 19
ENDMDL
