MODEL 1
REMARK VINA RESULT:     -12.5      0.000      0.000
REMARK SMILES O=C(NCCCCCCNC(=O)c1ccc(-c2c3nc(c(-c4c(F)cc(S(=O)(=O)[O-])cc4F)c4ccc([nH]4)c(-c4c(F)cc(S(=O)(=O)[O-])cc4F)c4nc(c(-c5c(F)cc(S(=O)(=O)[O-])cc5F)c5ccc2[nH]5)C=C4)C=C3)cc1)C1=Cc2cc(Cl)cc(-c3ccc(CO)cc3)c2O[C@@H]1C(F)(F)F
REMARK SMILES IDX 6 1 5 2 4 3 3 4 1 5 2 6 79 8 80 9 97 10 81 11 96 12 82 13
REMARK SMILES IDX 95 14 83 15 86 16 84 17 85 18 98 19 99 20 100 21 101 22
REMARK SMILES IDX 87 23 88 24 94 25 89 26 93 27 90 28 91 29 92 30 7 32 8 33
REMARK SMILES IDX 9 34 10 35 11 36 12 38 13 39 14 40 78 41 15 42 77 43 16 44
REMARK SMILES IDX 17 45 18 46 71 47 19 48 76 49 70 50 72 51 20 52 75 53 69 54
REMARK SMILES IDX 68 55 21 57 55 58 34 59 54 60 35 61 38 62 53 63 73 64 36 65
REMARK SMILES IDX 37 66 52 68 74 69 39 70 22 71 23 72 32 73 24 74 25 75 31 76
REMARK SMILES IDX 33 77 26 78 27 79 28 80 29 81 30 82 56 83 57 84 66 85 58 86
REMARK SMILES IDX 59 87 65 88 67 89 60 90 61 91 62 92 63 93 64 94 40 95 41 96
REMARK SMILES IDX 50 97 42 98 43 99 49 100 51 101 44 102 45 103 46 104 47 105
REMARK SMILES IDX 48 106
REMARK H PARENT 3 7 92 31 10 37 72 56 38 67
REMARK Flexibility Score: inf
ROOT
ATOM      1  C   UNL A   1      31.004  26.924  26.468  1.00  0.00     0.002 C 
ENDROOT
BRANCH   1   2
ATOM      2  C   UNL A   1      30.391  25.791  25.639  1.00  0.00     0.021 C 
BRANCH   2   3
ATOM      3  C   UNL A   1      29.788  24.611  26.398  1.00  0.00     0.116 C 
BRANCH   3   4
ATOM      4  N   UNL A   1      30.710  23.792  27.164  1.00  0.00    -0.352 N 
ATOM      5  O   UNL A   1      32.639  22.799  27.725  1.00  0.00    -0.270 OA
ATOM      6  C   UNL A   1      31.990  23.405  26.870  1.00  0.00     0.251 C 
ATOM      7  H   UNL A   1      30.363  23.465  28.026  1.00  0.00     0.163 HD
BRANCH   6   8
ATOM      8  C   UNL A   1      32.679  23.734  25.578  1.00  0.00     0.067 C 
ATOM      9  C   UNL A   1      33.974  24.088  25.492  1.00  0.00     0.025 C 
ATOM     10  C   UNL A   1      32.133  22.910  24.426  1.00  0.00     0.314 C 
ATOM     11  C   UNL A   1      34.813  22.921  25.092  1.00  0.00     0.019 A 
ATOM     12  O   UNL A   1      32.868  21.656  24.332  1.00  0.00    -0.475 OA
ATOM     13  C   UNL A   1      36.172  22.964  25.419  1.00  0.00     0.032 A 
ATOM     14  C   UNL A   1      34.201  21.712  24.684  1.00  0.00     0.135 A 
ATOM     15  C   UNL A   1      36.898  21.783  25.443  1.00  0.00     0.042 A 
ATOM     16  C   UNL A   1      34.920  20.507  24.763  1.00  0.00     0.026 A 
ATOM     17  Cl  UNL A   1      38.514  21.795  26.029  1.00  0.00    -0.084 Cl
ATOM     18  C   UNL A   1      36.280  20.570  25.138  1.00  0.00     0.033 A 
BRANCH  10  19
ATOM     19  C   UNL A   1      32.099  23.685  23.093  1.00  0.00     0.429 C 
ATOM     20  F   UNL A   1      32.781  24.851  23.174  1.00  0.00    -0.167 F 
ATOM     21  F   UNL A   1      32.675  22.966  22.096  1.00  0.00    -0.167 F 
ATOM     22  F   UNL A   1      30.844  23.983  22.683  1.00  0.00    -0.167 F 
ENDBRANCH  10  19
BRANCH  16  23
ATOM     23  C   UNL A   1      34.292  19.173  24.732  1.00  0.00    -0.015 A 
ATOM     24  C   UNL A   1      33.001  19.013  25.259  1.00  0.00     0.009 A 
ATOM     25  C   UNL A   1      35.000  18.019  24.385  1.00  0.00     0.009 A 
ATOM     26  C   UNL A   1      32.481  17.753  25.564  1.00  0.00     0.007 A 
ATOM     27  C   UNL A   1      34.462  16.748  24.638  1.00  0.00     0.007 A 
ATOM     28  C   UNL A   1      33.215  16.604  25.263  1.00  0.00    -0.023 A 
BRANCH  28  29
ATOM     29  C   UNL A   1      32.685  15.251  25.656  1.00  0.00     0.191 C 
BRANCH  29  30
ATOM     30  O   UNL A   1      33.668  14.247  25.449  1.00  0.00    -0.392 OA
ATOM     31  H   UNL A   1      33.862  13.806  26.291  1.00  0.00     0.211 HD
ENDBRANCH  29  30
ENDBRANCH  28  29
ENDBRANCH  16  23
ENDBRANCH   6   8
ENDBRANCH   3   4
ENDBRANCH   2   3
ENDBRANCH   1   2
BRANCH   1  32
ATOM     32  C   UNL A   1      31.772  28.009  25.711  1.00  0.00     0.002 C 
BRANCH  32  33
ATOM     33  C   UNL A   1      33.245  27.741  25.405  1.00  0.00     0.021 C 
BRANCH  33  34
ATOM     34  C   UNL A   1      34.219  28.175  26.494  1.00  0.00     0.116 C 
BRANCH  34  35
ATOM     35  N   UNL A   1      33.895  29.481  27.049  1.00  0.00    -0.352 N 
ATOM     36  C   UNL A   1      34.624  30.311  27.870  1.00  0.00     0.251 C 
ATOM     37  H   UNL A   1      33.010  29.828  26.795  1.00  0.00     0.163 HD
ATOM     38  O   UNL A   1      34.088  31.301  28.352  1.00  0.00    -0.269 OA
BRANCH  36  39
ATOM     39  C   UNL A   1      36.038  30.004  28.185  1.00  0.00     0.039 A 
ATOM     40  C   UNL A   1      36.362  29.543  29.465  1.00  0.00     0.014 A 
ATOM     41  C   UNL A   1      37.047  30.185  27.238  1.00  0.00     0.014 A 
ATOM     42  C   UNL A   1      37.685  29.210  29.769  1.00  0.00     0.010 A 
ATOM     43  C   UNL A   1      38.340  29.749  27.506  1.00  0.00     0.010 A 
ATOM     44  C   UNL A   1      38.679  29.275  28.779  1.00  0.00    -0.014 A 
BRANCH  44  45
ATOM     45  C   UNL A   1      40.088  28.892  29.065  1.00  0.00     0.031 A 
ATOM     46  C   UNL A   1      41.030  29.902  29.671  1.00  0.00     0.074 A 
ATOM     47  C   UNL A   1      40.532  27.666  28.728  1.00  0.00     0.049 A 
ATOM     48  N   UNL A   1      42.310  29.793  29.919  1.00  0.00    -0.248 NA
ATOM     49  C   UNL A   1      40.467  31.220  30.013  1.00  0.00     0.031 C 
ATOM     50  C   UNL A   1      39.731  26.623  28.081  1.00  0.00     0.029 A 
ATOM     51  N   UNL A   1      41.769  27.088  28.871  1.00  0.00    -0.354 N 
ATOM     52  C   UNL A   1      42.703  31.026  30.429  1.00  0.00     0.074 A 
ATOM     53  C   UNL A   1      41.546  31.890  30.387  1.00  0.00     0.031 C 
ATOM     54  C   UNL A   1      40.488  25.527  27.909  1.00  0.00     0.029 A 
ATOM     55  C   UNL A   1      41.838  25.801  28.390  1.00  0.00     0.049 A 
ATOM     56  H   UNL A   1      42.535  27.552  29.280  1.00  0.00     0.167 HD
ATOM     57  C   UNL A   1      43.909  31.393  30.923  1.00  0.00     0.037 A 
ATOM     58  C   UNL A   1      42.875  24.943  28.334  1.00  0.00     0.037 A 
ATOM     59  C   UNL A   1      45.047  30.515  30.992  1.00  0.00     0.049 A 
ATOM     60  C   UNL A   1      44.206  25.374  28.891  1.00  0.00     0.074 A 
ATOM     61  C   UNL A   1      46.300  30.771  31.518  1.00  0.00     0.029 A 
ATOM     62  N   UNL A   1      45.066  29.209  30.524  1.00  0.00    -0.354 N 
ATOM     63  N   UNL A   1      44.543  26.524  29.425  1.00  0.00    -0.248 NA
ATOM     64  C   UNL A   1      45.296  24.390  28.848  1.00  0.00     0.031 C 
ATOM     65  C   UNL A   1      47.093  29.636  31.326  1.00  0.00     0.029 A 
ATOM     66  C   UNL A   1      46.316  28.652  30.735  1.00  0.00     0.049 A 
ATOM     67  H   UNL A   1      44.305  28.746  30.106  1.00  0.00     0.167 HD
ATOM     68  C   UNL A   1      45.874  26.392  29.806  1.00  0.00     0.074 A 
ATOM     69  C   UNL A   1      46.275  25.045  29.457  1.00  0.00     0.031 C 
ATOM     70  C   UNL A   1      46.691  27.303  30.391  1.00  0.00     0.037 A 
BRANCH  57  71
ATOM     71  C   UNL A   1      44.053  32.797  31.448  1.00  0.00     0.058 A 
ATOM     72  C   UNL A   1      44.233  33.891  30.584  1.00  0.00     0.135 A 
ATOM     73  C   UNL A   1      43.968  33.061  32.825  1.00  0.00     0.135 A 
ATOM     74  F   UNL A   1      44.341  33.696  29.260  1.00  0.00    -0.206 F 
ATOM     75  C   UNL A   1      44.350  35.189  31.066  1.00  0.00     0.059 A 
ATOM     76  C   UNL A   1      44.049  34.357  33.327  1.00  0.00     0.059 A 
ATOM     77  F   UNL A   1      43.800  32.055  33.698  1.00  0.00    -0.206 F 
ATOM     78  C   UNL A   1      44.252  35.413  32.440  1.00  0.00     0.060 A 
BRANCH  78  79
ATOM     79  S   UNL A   1      44.381  37.109  33.046  1.00  0.00     0.124 S 
ATOM     80  O   UNL A   1      43.033  37.338  33.560  1.00  0.00    -0.237 OA
ATOM     81  O   UNL A   1      45.433  37.001  34.052  1.00  0.00    -0.237 OA
ATOM     82  O   UNL A   1      44.734  37.872  31.853  1.00  0.00    -0.744 OA
ENDBRANCH  78  79
ENDBRANCH  57  71
BRANCH  58  83
ATOM     83  C   UNL A   1      42.695  23.590  27.739  1.00  0.00     0.058 A 
ATOM     84  C   UNL A   1      42.404  22.475  28.541  1.00  0.00     0.135 A 
ATOM     85  C   UNL A   1      42.811  23.383  26.355  1.00  0.00     0.135 A 
ATOM     86  F   UNL A   1      42.287  22.618  29.869  1.00  0.00    -0.206 F 
ATOM     87  C   UNL A   1      42.260  21.202  27.996  1.00  0.00     0.059 A 
ATOM     88  C   UNL A   1      42.641  22.125  25.785  1.00  0.00     0.059 A 
ATOM     89  F   UNL A   1      43.069  24.417  25.539  1.00  0.00    -0.206 F 
ATOM     90  C   UNL A   1      42.381  21.038  26.616  1.00  0.00     0.060 A 
BRANCH  90  91
ATOM     91  S   UNL A   1      42.161  19.387  25.917  1.00  0.00     0.124 S 
ATOM     92  O   UNL A   1      42.975  19.470  24.710  1.00  0.00    -0.237 OA
ATOM     93  O   UNL A   1      42.680  18.532  26.980  1.00  0.00    -0.237 OA
ATOM     94  O   UNL A   1      40.719  19.303  25.702  1.00  0.00    -0.744 OA
ENDBRANCH  90  91
ENDBRANCH  58  83
BRANCH  70  95
ATOM     95  C   UNL A   1      48.090  26.863  30.729  1.00  0.00     0.058 A 
ATOM     96  C   UNL A   1      49.174  27.128  29.880  1.00  0.00     0.135 A 
ATOM     97  C   UNL A   1      48.353  26.219  31.949  1.00  0.00     0.135 A 
ATOM     98  F   UNL A   1      48.976  27.736  28.699  1.00  0.00    -0.206 F 
ATOM     99  C   UNL A   1      50.469  26.747  30.216  1.00  0.00     0.059 A 
ATOM    100  C   UNL A   1      49.644  25.858  32.321  1.00  0.00     0.059 A 
ATOM    101  F   UNL A   1      47.352  25.954  32.804  1.00  0.00    -0.206 F 
ATOM    102  C   UNL A   1      50.694  26.116  31.442  1.00  0.00     0.060 A 
BRANCH 102 103
ATOM    103  S   UNL A   1      52.384  25.659  31.879  1.00  0.00     0.124 S 
ATOM    104  O   UNL A   1      53.081  25.862  30.614  1.00  0.00    -0.237 OA
ATOM    105  O   UNL A   1      52.700  26.613  32.938  1.00  0.00    -0.237 OA
ATOM    106  O   UNL A   1      52.260  24.270  32.313  1.00  0.00    -0.744 OA
ENDBRANCH 102 103
ENDBRANCH  70  95
ENDBRANCH  44  45
ENDBRANCH  36  39
ENDBRANCH  34  35
ENDBRANCH  33  34
ENDBRANCH  32  33
ENDBRANCH   1  32
TORSDOF 20
ENDMDL
MODEL 2
REMARK VINA RESULT:     -12.4      4.906     10.631
REMARK SMILES O=C(NCCCCCCNC(=O)c1ccc(-c2c3nc(c(-c4c(F)cc(S(=O)(=O)[O-])cc4F)c4ccc([nH]4)c(-c4c(F)cc(S(=O)(=O)[O-])cc4F)c4nc(c(-c5c(F)cc(S(=O)(=O)[O-])cc5F)c5ccc2[nH]5)C=C4)C=C3)cc1)C1=Cc2cc(Cl)cc(-c3ccc(CO)cc3)c2O[C@@H]1C(F)(F)F
REMARK SMILES IDX 6 1 5 2 4 3 3 4 1 5 2 6 79 8 80 9 97 10 81 11 96 12 82 13
REMARK SMILES IDX 95 14 83 15 86 16 84 17 85 18 98 19 99 20 100 21 101 22
REMARK SMILES IDX 87 23 88 24 94 25 89 26 93 27 90 28 91 29 92 30 7 32 8 33
REMARK SMILES IDX 9 34 10 35 11 36 12 38 13 39 14 40 78 41 15 42 77 43 16 44
REMARK SMILES IDX 17 45 18 46 71 47 19 48 76 49 70 50 72 51 20 52 75 53 69 54
REMARK SMILES IDX 68 55 21 57 55 58 34 59 54 60 35 61 38 62 53 63 73 64 36 65
REMARK SMILES IDX 37 66 52 68 74 69 39 70 22 71 23 72 32 73 24 74 25 75 31 76
REMARK SMILES IDX 33 77 26 78 27 79 28 80 29 81 30 82 56 83 57 84 66 85 58 86
REMARK SMILES IDX 59 87 65 88 67 89 60 90 61 91 62 92 63 93 64 94 40 95 41 96
REMARK SMILES IDX 50 97 42 98 43 99 49 100 51 101 44 102 45 103 46 104 47 105
REMARK SMILES IDX 48 106
REMARK H PARENT 3 7 92 31 10 37 72 56 38 67
REMARK Flexibility Score: inf
ROOT
ATOM      1  C   UNL A   1      35.470  22.021  25.800  1.00  0.00     0.002 C 
ENDROOT
BRANCH   1   2
ATOM      2  C   UNL A   1      34.307  21.574  26.691  1.00  0.00     0.021 C 
BRANCH   2   3
ATOM      3  C   UNL A   1      32.943  21.392  26.028  1.00  0.00     0.116 C 
BRANCH   3   4
ATOM      4  N   UNL A   1      31.881  22.277  26.473  1.00  0.00    -0.352 N 
ATOM      5  O   UNL A   1      30.300  23.860  26.344  1.00  0.00    -0.270 OA
ATOM      6  C   UNL A   1      31.270  23.311  25.817  1.00  0.00     0.251 C 
ATOM      7  H   UNL A   1      31.549  22.106  27.384  1.00  0.00     0.163 HD
BRANCH   6   8
ATOM      8  C   UNL A   1      31.675  23.780  24.449  1.00  0.00     0.067 C 
ATOM      9  C   UNL A   1      30.813  24.285  23.548  1.00  0.00     0.025 C 
ATOM     10  C   UNL A   1      33.068  24.384  24.454  1.00  0.00     0.314 C 
ATOM     11  C   UNL A   1      30.858  25.776  23.553  1.00  0.00     0.019 A 
ATOM     12  O   UNL A   1      32.982  25.806  24.758  1.00  0.00    -0.475 OA
ATOM     13  C   UNL A   1      29.738  26.455  23.068  1.00  0.00     0.032 A 
ATOM     14  C   UNL A   1      31.855  26.454  24.295  1.00  0.00     0.135 A 
ATOM     15  C   UNL A   1      29.554  27.786  23.412  1.00  0.00     0.042 A 
ATOM     16  C   UNL A   1      31.643  27.785  24.692  1.00  0.00     0.026 A 
ATOM     17  Cl  UNL A   1      28.088  28.576  22.984  1.00  0.00    -0.084 Cl
ATOM     18  C   UNL A   1      30.481  28.438  24.226  1.00  0.00     0.033 A 
BRANCH  10  19
ATOM     19  C   UNL A   1      33.853  24.095  23.159  1.00  0.00     0.429 C 
ATOM     20  F   UNL A   1      33.464  24.904  22.146  1.00  0.00    -0.167 F 
ATOM     21  F   UNL A   1      35.183  24.308  23.337  1.00  0.00    -0.167 F 
ATOM     22  F   UNL A   1      33.718  22.819  22.728  1.00  0.00    -0.167 F 
ENDBRANCH  10  19
BRANCH  16  23
ATOM     23  C   UNL A   1      32.410  28.457  25.757  1.00  0.00    -0.015 A 
ATOM     24  C   UNL A   1      31.839  29.555  26.420  1.00  0.00     0.009 A 
ATOM     25  C   UNL A   1      33.756  28.178  26.002  1.00  0.00     0.009 A 
ATOM     26  C   UNL A   1      32.607  30.431  27.189  1.00  0.00     0.007 A 
ATOM     27  C   UNL A   1      34.525  29.024  26.817  1.00  0.00     0.007 A 
ATOM     28  C   UNL A   1      33.966  30.177  27.388  1.00  0.00    -0.023 A 
BRANCH  28  29
ATOM     29  C   UNL A   1      34.808  31.159  28.158  1.00  0.00     0.191 C 
BRANCH  29  30
ATOM     30  O   UNL A   1      35.492  32.036  27.274  1.00  0.00    -0.392 OA
ATOM     31  H   UNL A   1      35.650  32.884  27.718  1.00  0.00     0.211 HD
ENDBRANCH  29  30
ENDBRANCH  28  29
ENDBRANCH  16  23
ENDBRANCH   6   8
ENDBRANCH   3   4
ENDBRANCH   2   3
ENDBRANCH   1   2
BRANCH   1  32
ATOM     32  C   UNL A   1      36.170  23.332  26.166  1.00  0.00     0.002 C 
BRANCH  32  33
ATOM     33  C   UNL A   1      37.598  23.528  25.659  1.00  0.00     0.021 C 
BRANCH  33  34
ATOM     34  C   UNL A   1      38.623  23.863  26.736  1.00  0.00     0.116 C 
BRANCH  34  35
ATOM     35  N   UNL A   1      39.977  23.960  26.211  1.00  0.00    -0.352 N 
ATOM     36  C   UNL A   1      40.966  24.887  26.451  1.00  0.00     0.251 C 
ATOM     37  H   UNL A   1      40.227  23.247  25.582  1.00  0.00     0.163 HD
ATOM     38  O   UNL A   1      41.985  24.869  25.772  1.00  0.00    -0.269 OA
BRANCH  36  39
ATOM     39  C   UNL A   1      40.796  25.912  27.508  1.00  0.00     0.039 A 
ATOM     40  C   UNL A   1      39.869  25.685  28.530  1.00  0.00     0.014 A 
ATOM     41  C   UNL A   1      41.529  27.100  27.489  1.00  0.00     0.014 A 
ATOM     42  C   UNL A   1      39.724  26.621  29.557  1.00  0.00     0.010 A 
ATOM     43  C   UNL A   1      41.464  27.975  28.567  1.00  0.00     0.010 A 
ATOM     44  C   UNL A   1      40.547  27.757  29.604  1.00  0.00    -0.014 A 
BRANCH  44  45
ATOM     45  C   UNL A   1      40.439  28.751  30.705  1.00  0.00     0.031 A 
ATOM     46  C   UNL A   1      41.315  28.616  31.924  1.00  0.00     0.074 A 
ATOM     47  C   UNL A   1      39.519  29.733  30.634  1.00  0.00     0.049 A 
ATOM     48  N   UNL A   1      41.317  29.326  33.023  1.00  0.00    -0.248 NA
ATOM     49  C   UNL A   1      42.297  27.517  31.924  1.00  0.00     0.031 C 
ATOM     50  C   UNL A   1      38.574  29.932  29.532  1.00  0.00     0.029 A 
ATOM     51  N   UNL A   1      39.218  30.746  31.511  1.00  0.00    -0.354 N 
ATOM     52  C   UNL A   1      42.283  28.752  33.843  1.00  0.00     0.074 A 
ATOM     53  C   UNL A   1      42.795  27.594  33.148  1.00  0.00     0.031 C 
ATOM     54  C   UNL A   1      37.819  31.013  29.787  1.00  0.00     0.029 A 
ATOM     55  C   UNL A   1      38.193  31.559  31.087  1.00  0.00     0.049 A 
ATOM     56  H   UNL A   1      39.693  30.877  32.364  1.00  0.00     0.167 HD
ATOM     57  C   UNL A   1      42.731  29.174  35.049  1.00  0.00     0.037 A 
ATOM     58  C   UNL A   1      37.613  32.619  31.684  1.00  0.00     0.037 A 
ATOM     59  C   UNL A   1      42.238  30.348  35.720  1.00  0.00     0.049 A 
ATOM     60  C   UNL A   1      38.129  33.070  33.025  1.00  0.00     0.074 A 
ATOM     61  C   UNL A   1      42.656  30.891  36.921  1.00  0.00     0.029 A 
ATOM     62  N   UNL A   1      41.222  31.163  35.242  1.00  0.00    -0.354 N 
ATOM     63  N   UNL A   1      39.085  32.550  33.758  1.00  0.00    -0.248 NA
ATOM     64  C   UNL A   1      37.496  34.256  33.618  1.00  0.00     0.031 C 
ATOM     65  C   UNL A   1      41.861  32.009  37.194  1.00  0.00     0.029 A 
ATOM     66  C   UNL A   1      40.988  32.196  36.133  1.00  0.00     0.049 A 
ATOM     67  H   UNL A   1      40.740  31.028  34.394  1.00  0.00     0.167 HD
ATOM     68  C   UNL A   1      39.187  33.361  34.883  1.00  0.00     0.074 A 
ATOM     69  C   UNL A   1      38.206  34.416  34.726  1.00  0.00     0.031 C 
ATOM     70  C   UNL A   1      40.015  33.245  35.951  1.00  0.00     0.037 A 
BRANCH  57  71
ATOM     71  C   UNL A   1      43.821  28.373  35.712  1.00  0.00     0.058 A 
ATOM     72  C   UNL A   1      45.178  28.617  35.446  1.00  0.00     0.135 A 
ATOM     73  C   UNL A   1      43.509  27.380  36.656  1.00  0.00     0.135 A 
ATOM     74  F   UNL A   1      45.535  29.541  34.539  1.00  0.00    -0.206 F 
ATOM     75  C   UNL A   1      46.186  27.890  36.070  1.00  0.00     0.059 A 
ATOM     76  C   UNL A   1      44.502  26.663  37.317  1.00  0.00     0.059 A 
ATOM     77  F   UNL A   1      42.229  27.102  36.947  1.00  0.00    -0.206 F 
ATOM     78  C   UNL A   1      45.837  26.917  37.008  1.00  0.00     0.060 A 
BRANCH  78  79
ATOM     79  S   UNL A   1      47.160  26.001  37.826  1.00  0.00     0.124 S 
ATOM     80  O   UNL A   1      48.317  26.847  37.547  1.00  0.00    -0.237 OA
ATOM     81  O   UNL A   1      46.711  25.981  39.215  1.00  0.00    -0.237 OA
ATOM     82  O   UNL A   1      47.151  24.708  37.148  1.00  0.00    -0.744 OA
ENDBRANCH  78  79
ENDBRANCH  57  71
BRANCH  58  83
ATOM     83  C   UNL A   1      36.490  33.332  31.016  1.00  0.00     0.058 A 
ATOM     84  C   UNL A   1      36.708  34.142  29.890  1.00  0.00     0.135 A 
ATOM     85  C   UNL A   1      35.172  33.218  31.490  1.00  0.00     0.135 A 
ATOM     86  F   UNL A   1      37.948  34.287  29.401  1.00  0.00    -0.206 F 
ATOM     87  C   UNL A   1      35.668  34.833  29.276  1.00  0.00     0.059 A 
ATOM     88  C   UNL A   1      34.113  33.875  30.873  1.00  0.00     0.059 A 
ATOM     89  F   UNL A   1      34.904  32.441  32.550  1.00  0.00    -0.206 F 
ATOM     90  C   UNL A   1      34.373  34.692  29.775  1.00  0.00     0.060 A 
BRANCH  90  91
ATOM     91  S   UNL A   1      33.026  35.568  28.951  1.00  0.00     0.124 S 
ATOM     92  O   UNL A   1      32.494  34.531  28.075  1.00  0.00    -0.237 OA
ATOM     93  O   UNL A   1      32.177  35.952  30.075  1.00  0.00    -0.237 OA
ATOM     94  O   UNL A   1      33.705  36.674  28.282  1.00  0.00    -0.744 OA
ENDBRANCH  90  91
ENDBRANCH  58  83
BRANCH  70  95
ATOM     95  C   UNL A   1      39.928  34.304  37.015  1.00  0.00     0.058 A 
ATOM     96  C   UNL A   1      40.617  35.521  36.906  1.00  0.00     0.135 A 
ATOM     97  C   UNL A   1      39.093  34.119  38.129  1.00  0.00     0.135 A 
ATOM     98  F   UNL A   1      41.433  35.746  35.863  1.00  0.00    -0.206 F 
ATOM     99  C   UNL A   1      40.504  36.508  37.879  1.00  0.00     0.059 A 
ATOM    100  C   UNL A   1      38.940  35.106  39.098  1.00  0.00     0.059 A 
ATOM    101  F   UNL A   1      38.401  32.979  38.275  1.00  0.00    -0.206 F 
ATOM    102  C   UNL A   1      39.658  36.292  38.970  1.00  0.00     0.060 A 
BRANCH 102 103
ATOM    103  S   UNL A   1      39.494  37.597  40.205  1.00  0.00     0.124 S 
ATOM    104  O   UNL A   1      38.547  38.498  39.559  1.00  0.00    -0.237 OA
ATOM    105  O   UNL A   1      38.987  36.868  41.363  1.00  0.00    -0.237 OA
ATOM    106  O   UNL A   1      40.855  38.110  40.343  1.00  0.00    -0.744 OA
ENDBRANCH 102 103
ENDBRANCH  70  95
ENDBRANCH  44  45
ENDBRANCH  36  39
ENDBRANCH  34  35
ENDBRANCH  33  34
ENDBRANCH  32  33
ENDBRANCH   1  32
TORSDOF 20
ENDMDL
MODEL 3
REMARK VINA RESULT:     -12.4      2.490      3.257
REMARK SMILES O=C(NCCCCCCNC(=O)c1ccc(-c2c3nc(c(-c4c(F)cc(S(=O)(=O)[O-])cc4F)c4ccc([nH]4)c(-c4c(F)cc(S(=O)(=O)[O-])cc4F)c4nc(c(-c5c(F)cc(S(=O)(=O)[O-])cc5F)c5ccc2[nH]5)C=C4)C=C3)cc1)C1=Cc2cc(Cl)cc(-c3ccc(CO)cc3)c2O[C@@H]1C(F)(F)F
REMARK SMILES IDX 6 1 5 2 4 3 3 4 1 5 2 6 79 8 80 9 97 10 81 11 96 12 82 13
REMARK SMILES IDX 95 14 83 15 86 16 84 17 85 18 98 19 99 20 100 21 101 22
REMARK SMILES IDX 87 23 88 24 94 25 89 26 93 27 90 28 91 29 92 30 7 32 8 33
REMARK SMILES IDX 9 34 10 35 11 36 12 38 13 39 14 40 78 41 15 42 77 43 16 44
REMARK SMILES IDX 17 45 18 46 71 47 19 48 76 49 70 50 72 51 20 52 75 53 69 54
REMARK SMILES IDX 68 55 21 57 55 58 34 59 54 60 35 61 38 62 53 63 73 64 36 65
REMARK SMILES IDX 37 66 52 68 74 69 39 70 22 71 23 72 32 73 24 74 25 75 31 76
REMARK SMILES IDX 33 77 26 78 27 79 28 80 29 81 30 82 56 83 57 84 66 85 58 86
REMARK SMILES IDX 59 87 65 88 67 89 60 90 61 91 62 92 63 93 64 94 40 95 41 96
REMARK SMILES IDX 50 97 42 98 43 99 49 100 51 101 44 102 45 103 46 104 47 105
REMARK SMILES IDX 48 106
REMARK H PARENT 3 7 92 31 10 37 72 56 38 67
REMARK Flexibility Score: inf
ROOT
ATOM      1  C   UNL A   1      32.086  28.118  27.225  1.00  0.00     0.002 C 
ENDROOT
BRANCH   1   2
ATOM      2  C   UNL A   1      31.676  27.380  25.947  1.00  0.00     0.021 C 
BRANCH   2   3
ATOM      3  C   UNL A   1      30.789  26.147  26.101  1.00  0.00     0.116 C 
BRANCH   3   4
ATOM      4  N   UNL A   1      31.372  25.010  26.791  1.00  0.00    -0.352 N 
ATOM      5  O   UNL A   1      32.851  23.390  27.252  1.00  0.00    -0.270 OA
ATOM      6  C   UNL A   1      32.456  24.243  26.455  1.00  0.00     0.251 C 
ATOM      7  H   UNL A   1      30.921  24.751  27.627  1.00  0.00     0.163 HD
BRANCH   6   8
ATOM      8  C   UNL A   1      33.237  24.423  25.186  1.00  0.00     0.067 C 
ATOM      9  C   UNL A   1      34.563  24.651  25.153  1.00  0.00     0.025 C 
ATOM     10  C   UNL A   1      32.675  23.580  24.056  1.00  0.00     0.314 C 
ATOM     11  C   UNL A   1      35.307  23.388  24.871  1.00  0.00     0.019 A 
ATOM     12  O   UNL A   1      33.292  22.261  24.079  1.00  0.00    -0.475 OA
ATOM     13  C   UNL A   1      36.645  23.328  25.271  1.00  0.00     0.032 A 
ATOM     14  C   UNL A   1      34.604  22.217  24.502  1.00  0.00     0.135 A 
ATOM     15  C   UNL A   1      37.253  22.089  25.406  1.00  0.00     0.042 A 
ATOM     16  C   UNL A   1      35.200  20.959  24.692  1.00  0.00     0.026 A 
ATOM     17  Cl  UNL A   1      38.832  21.991  26.081  1.00  0.00    -0.084 Cl
ATOM     18  C   UNL A   1      36.539  20.921  25.140  1.00  0.00     0.033 A 
BRANCH  10  19
ATOM     19  C   UNL A   1      32.782  24.269  22.680  1.00  0.00     0.429 C 
ATOM     20  F   UNL A   1      31.597  24.788  22.286  1.00  0.00    -0.167 F 
ATOM     21  F   UNL A   1      33.665  25.300  22.719  1.00  0.00    -0.167 F 
ATOM     22  F   UNL A   1      33.202  23.435  21.700  1.00  0.00    -0.167 F 
ENDBRANCH  10  19
BRANCH  16  23
ATOM     23  C   UNL A   1      34.451  19.688  24.705  1.00  0.00    -0.015 A 
ATOM     24  C   UNL A   1      33.177  19.653  25.294  1.00  0.00     0.009 A 
ATOM     25  C   UNL A   1      35.031  18.472  24.338  1.00  0.00     0.009 A 
ATOM     26  C   UNL A   1      32.558  18.449  25.636  1.00  0.00     0.007 A 
ATOM     27  C   UNL A   1      34.391  17.258  24.630  1.00  0.00     0.007 A 
ATOM     28  C   UNL A   1      33.167  17.235  25.313  1.00  0.00    -0.023 A 
BRANCH  28  29
ATOM     29  C   UNL A   1      32.533  15.940  25.745  1.00  0.00     0.191 C 
BRANCH  29  30
ATOM     30  O   UNL A   1      32.527  15.002  24.677  1.00  0.00    -0.392 OA
ATOM     31  H   UNL A   1      31.610  14.799  24.432  1.00  0.00     0.211 HD
ENDBRANCH  29  30
ENDBRANCH  28  29
ENDBRANCH  16  23
ENDBRANCH   6   8
ENDBRANCH   3   4
ENDBRANCH   2   3
ENDBRANCH   1   2
BRANCH   1  32
ATOM     32  C   UNL A   1      33.035  29.309  27.074  1.00  0.00     0.002 C 
BRANCH  32  33
ATOM     33  C   UNL A   1      34.495  29.096  27.471  1.00  0.00     0.021 C 
BRANCH  33  34
ATOM     34  C   UNL A   1      35.287  30.373  27.724  1.00  0.00     0.116 C 
BRANCH  34  35
ATOM     35  N   UNL A   1      35.304  30.754  29.128  1.00  0.00    -0.352 N 
ATOM     36  C   UNL A   1      36.279  30.595  30.087  1.00  0.00     0.251 C 
ATOM     37  H   UNL A   1      34.486  31.199  29.444  1.00  0.00     0.163 HD
ATOM     38  O   UNL A   1      36.017  30.846  31.257  1.00  0.00    -0.269 OA
BRANCH  36  39
ATOM     39  C   UNL A   1      37.627  30.107  29.716  1.00  0.00     0.039 A 
ATOM     40  C   UNL A   1      37.999  30.103  28.368  1.00  0.00     0.014 A 
ATOM     41  C   UNL A   1      38.518  29.636  30.682  1.00  0.00     0.014 A 
ATOM     42  C   UNL A   1      39.281  29.684  28.003  1.00  0.00     0.010 A 
ATOM     43  C   UNL A   1      39.827  29.327  30.330  1.00  0.00     0.010 A 
ATOM     44  C   UNL A   1      40.219  29.327  28.985  1.00  0.00    -0.014 A 
BRANCH  44  45
ATOM     45  C   UNL A   1      41.601  28.912  28.626  1.00  0.00     0.031 A 
ATOM     46  C   UNL A   1      42.705  29.938  28.586  1.00  0.00     0.074 A 
ATOM     47  C   UNL A   1      41.850  27.633  28.282  1.00  0.00     0.049 A 
ATOM     48  N   UNL A   1      43.952  29.797  28.219  1.00  0.00    -0.248 NA
ATOM     49  C   UNL A   1      42.352  31.314  28.978  1.00  0.00     0.031 C 
ATOM     50  C   UNL A   1      40.853  26.561  28.225  1.00  0.00     0.029 A 
ATOM     51  N   UNL A   1      43.017  27.016  27.904  1.00  0.00    -0.354 N 
ATOM     52  C   UNL A   1      44.523  31.061  28.323  1.00  0.00     0.074 A 
ATOM     53  C   UNL A   1      43.472  31.970  28.715  1.00  0.00     0.031 C 
ATOM     54  C   UNL A   1      41.454  25.417  27.863  1.00  0.00     0.029 A 
ATOM     55  C   UNL A   1      42.868  25.679  27.617  1.00  0.00     0.049 A 
ATOM     56  H   UNL A   1      43.879  27.487  27.844  1.00  0.00     0.167 HD
ATOM     57  C   UNL A   1      45.815  31.425  28.144  1.00  0.00     0.037 A 
ATOM     58  C   UNL A   1      43.768  24.770  27.194  1.00  0.00     0.037 A 
ATOM     59  C   UNL A   1      46.863  30.506  27.786  1.00  0.00     0.049 A 
ATOM     60  C   UNL A   1      45.200  25.198  27.004  1.00  0.00     0.074 A 
ATOM     61  C   UNL A   1      48.213  30.761  27.627  1.00  0.00     0.029 A 
ATOM     62  N   UNL A   1      46.678  29.154  27.537  1.00  0.00    -0.354 N 
ATOM     63  N   UNL A   1      45.733  26.386  27.165  1.00  0.00    -0.248 NA
ATOM     64  C   UNL A   1      46.155  24.163  26.584  1.00  0.00     0.031 C 
ATOM     65  C   UNL A   1      48.838  29.573  27.236  1.00  0.00     0.029 A 
ATOM     66  C   UNL A   1      47.887  28.565  27.209  1.00  0.00     0.049 A 
ATOM     67  H   UNL A   1      45.815  28.683  27.586  1.00  0.00     0.167 HD
ATOM     68  C   UNL A   1      47.089  26.235  26.895  1.00  0.00     0.074 A 
ATOM     69  C   UNL A   1      47.296  24.837  26.575  1.00  0.00     0.031 C 
ATOM     70  C   UNL A   1      48.074  27.167  26.907  1.00  0.00     0.037 A 
BRANCH  57  71
ATOM     71  C   UNL A   1      46.171  32.873  28.354  1.00  0.00     0.058 A 
ATOM     72  C   UNL A   1      46.115  33.805  27.305  1.00  0.00     0.135 A 
ATOM     73  C   UNL A   1      46.532  33.346  29.627  1.00  0.00     0.135 A 
ATOM     74  F   UNL A   1      45.795  33.406  26.063  1.00  0.00    -0.206 F 
ATOM     75  C   UNL A   1      46.427  35.145  27.501  1.00  0.00     0.059 A 
ATOM     76  C   UNL A   1      46.817  34.690  29.854  1.00  0.00     0.059 A 
ATOM     77  F   UNL A   1      46.607  32.500  30.667  1.00  0.00    -0.206 F 
ATOM     78  C   UNL A   1      46.773  35.579  28.782  1.00  0.00     0.060 A 
BRANCH  78  79
ATOM     79  S   UNL A   1      47.151  37.328  29.023  1.00  0.00     0.124 S 
ATOM     80  O   UNL A   1      46.567  37.920  27.822  1.00  0.00    -0.237 OA
ATOM     81  O   UNL A   1      46.461  37.625  30.274  1.00  0.00    -0.237 OA
ATOM     82  O   UNL A   1      48.608  37.356  29.091  1.00  0.00    -0.744 OA
ENDBRANCH  78  79
ENDBRANCH  57  71
BRANCH  58  83
ATOM     83  C   UNL A   1      43.348  23.366  26.933  1.00  0.00     0.058 A 
ATOM     84  C   UNL A   1      43.216  22.877  25.623  1.00  0.00     0.135 A 
ATOM     85  C   UNL A   1      43.069  22.482  27.988  1.00  0.00     0.135 A 
ATOM     86  F   UNL A   1      43.467  23.681  24.580  1.00  0.00    -0.206 F 
ATOM     87  C   UNL A   1      42.798  21.574  25.369  1.00  0.00     0.059 A 
ATOM     88  C   UNL A   1      42.679  21.166  27.758  1.00  0.00     0.059 A 
ATOM     89  F   UNL A   1      43.198  22.890  29.259  1.00  0.00    -0.206 F 
ATOM     90  C   UNL A   1      42.532  20.726  26.444  1.00  0.00     0.060 A 
BRANCH  90  91
ATOM     91  S   UNL A   1      42.021  19.028  26.104  1.00  0.00     0.124 S 
ATOM     92  O   UNL A   1      42.912  18.667  25.007  1.00  0.00    -0.237 OA
ATOM     93  O   UNL A   1      42.278  18.369  27.380  1.00  0.00    -0.237 OA
ATOM     94  O   UNL A   1      40.610  19.166  25.753  1.00  0.00    -0.744 OA
ENDBRANCH  90  91
ENDBRANCH  58  83
BRANCH  70  95
ATOM     95  C   UNL A   1      49.472  26.702  26.606  1.00  0.00     0.058 A 
ATOM     96  C   UNL A   1      50.341  26.267  27.618  1.00  0.00     0.135 A 
ATOM     97  C   UNL A   1      49.925  26.636  25.278  1.00  0.00     0.135 A 
ATOM     98  F   UNL A   1      49.960  26.314  28.905  1.00  0.00    -0.206 F 
ATOM     99  C   UNL A   1      51.621  25.807  27.326  1.00  0.00     0.059 A 
ATOM    100  C   UNL A   1      51.189  26.150  24.961  1.00  0.00     0.059 A 
ATOM    101  F   UNL A   1      49.128  27.028  24.271  1.00  0.00    -0.206 F 
ATOM    102  C   UNL A   1      52.034  25.749  25.993  1.00  0.00     0.060 A 
BRANCH 102 103
ATOM    103  S   UNL A   1      53.684  25.116  25.628  1.00  0.00     0.124 S 
ATOM    104  O   UNL A   1      54.396  25.418  26.865  1.00  0.00    -0.237 OA
ATOM    105  O   UNL A   1      53.427  23.703  25.373  1.00  0.00    -0.237 OA
ATOM    106  O   UNL A   1      54.096  25.893  24.462  1.00  0.00    -0.744 OA
ENDBRANCH 102 103
ENDBRANCH  70  95
ENDBRANCH  44  45
ENDBRANCH  36  39
ENDBRANCH  34  35
ENDBRANCH  33  34
ENDBRANCH  32  33
ENDBRANCH   1  32
TORSDOF 20
ENDMDL
