MODEL 1
REMARK VINA RESULT:     -12.2      0.000      0.000
REMARK SMILES Cc1nn(C)c(=O)c(C(=O)N2CCCC[C@H]2C(=O)NCCCCCCNC(=O)c2ccc(-c3c4nc(c(-c5c(F)cc(S(=O)(=O)[O-])cc5F)c5ccc([nH]5)c(-c5c(F)cc(S(=O)(=O)[O-])cc5F)c5nc(c(-c6c(F)cc(S(=O)(=O)[O-])cc6F)c6ccc3[nH]6)C=C5)C=C4)cc2)c1C
REMARK SMILES IDX 23 1 22 2 21 3 20 4 19 5 17 6 18 7 16 9 11 10 12 11 13 12
REMARK SMILES IDX 15 13 14 14 9 15 10 16 8 17 1 18 2 19 3 20 95 21 4 22 96 23
REMARK SMILES IDX 5 24 6 25 7 26 24 27 25 28 26 29 27 30 28 32 29 33 30 34
REMARK SMILES IDX 94 35 31 36 93 37 32 38 33 39 34 40 87 41 35 42 92 43 86 44
REMARK SMILES IDX 88 45 36 46 91 47 85 48 84 49 37 51 71 52 50 53 70 54 51 55
REMARK SMILES IDX 54 56 69 57 89 58 52 59 53 60 68 62 90 63 55 64 38 65 39 66
REMARK SMILES IDX 48 67 40 68 41 69 47 70 49 71 42 72 43 73 44 74 45 75 46 76
REMARK SMILES IDX 72 77 73 78 82 79 74 80 75 81 81 82 83 83 76 84 77 85 78 86
REMARK SMILES IDX 79 87 80 88 56 89 57 90 66 91 58 92 59 93 65 94 67 95 60 96
REMARK SMILES IDX 61 97 62 98 63 99 64 100
REMARK H PARENT 19 8 26 31 88 50 54 61
REMARK Flexibility Score: inf
ROOT
ATOM      1  C   UNL A   1      33.101  29.856  26.114  1.00  0.00     0.002 C 
ENDROOT
BRANCH   1   2
ATOM      2  C   UNL A   1      32.742  29.172  24.788  1.00  0.00     0.002 C 
BRANCH   2   3
ATOM      3  C   UNL A   1      33.940  28.768  23.924  1.00  0.00     0.021 C 
BRANCH   3   4
ATOM      4  C   UNL A   1      33.554  28.151  22.581  1.00  0.00     0.116 C 
BRANCH   4   5
ATOM      5  N   UNL A   1      32.131  28.101  22.347  1.00  0.00    -0.354 N 
ATOM      6  C   UNL A   1      31.169  27.202  22.676  1.00  0.00     0.242 C 
ATOM      7  O   UNL A   1      30.010  27.643  22.611  1.00  0.00    -0.273 OA
ATOM      8  H   UNL A   1      31.788  28.877  21.848  1.00  0.00     0.163 HD
BRANCH   6   9
ATOM      9  C   UNL A   1      31.383  25.746  23.224  1.00  0.00     0.174 C 
ATOM     10  N   UNL A   1      32.694  25.156  23.611  1.00  0.00    -0.326 N 
ATOM     11  C   UNL A   1      33.171  25.406  24.983  1.00  0.00     0.120 C 
ATOM     12  C   UNL A   1      32.113  25.495  26.082  1.00  0.00     0.022 C 
ATOM     13  C   UNL A   1      30.334  25.517  24.330  1.00  0.00     0.035 C 
ATOM     14  C   UNL A   1      30.778  26.089  25.666  1.00  0.00     0.004 C 
BRANCH  10  15
ATOM     15  C   UNL A   1      33.482  24.249  22.879  1.00  0.00     0.260 C 
ATOM     16  O   UNL A   1      33.711  24.497  21.687  1.00  0.00    -0.269 OA
BRANCH  15  17
ATOM     17  C   UNL A   1      34.049  22.929  23.372  1.00  0.00     0.111 A 
ATOM     18  C   UNL A   1      36.934  21.066  24.996  1.00  0.00     0.069 C 
ATOM     19  C   UNL A   1      35.514  21.447  24.633  1.00  0.00     0.062 A 
ATOM     20  N   UNL A   1      34.594  20.614  24.983  1.00  0.00    -0.175 NA
ATOM     21  C   UNL A   1      35.257  22.751  23.945  1.00  0.00    -0.010 A 
ATOM     22  N   UNL A   1      33.328  20.875  24.559  1.00  0.00    -0.232 N 
ATOM     23  C   UNL A   1      36.329  23.759  24.141  1.00  0.00     0.047 C 
ATOM     24  C   UNL A   1      32.313  19.957  25.050  1.00  0.00     0.178 C 
ATOM     25  C   UNL A   1      33.034  21.814  23.571  1.00  0.00     0.279 A 
ATOM     26  O   UNL A   1      31.995  21.765  22.913  1.00  0.00    -0.267 OA
ENDBRANCH  15  17
ENDBRANCH  10  15
ENDBRANCH   6   9
ENDBRANCH   4   5
ENDBRANCH   3   4
ENDBRANCH   2   3
ENDBRANCH   1   2
BRANCH   1  27
ATOM     27  C   UNL A   1      33.785  28.954  27.146  1.00  0.00     0.021 C 
BRANCH  27  28
ATOM     28  C   UNL A   1      35.208  29.377  27.498  1.00  0.00     0.116 C 
BRANCH  28  29
ATOM     29  N   UNL A   1      35.240  30.141  28.736  1.00  0.00    -0.352 N 
ATOM     30  C   UNL A   1      36.235  30.230  29.676  1.00  0.00     0.251 C 
ATOM     31  H   UNL A   1      34.430  30.669  28.927  1.00  0.00     0.163 HD
ATOM     32  O   UNL A   1      35.988  30.666  30.793  1.00  0.00    -0.269 OA
BRANCH  30  33
ATOM     33  C   UNL A   1      37.604  29.801  29.324  1.00  0.00     0.039 A 
ATOM     34  C   UNL A   1      38.009  29.836  27.988  1.00  0.00     0.014 A 
ATOM     35  C   UNL A   1      38.475  29.343  30.317  1.00  0.00     0.014 A 
ATOM     36  C   UNL A   1      39.309  29.453  27.655  1.00  0.00     0.010 A 
ATOM     37  C   UNL A   1      39.791  29.032  29.994  1.00  0.00     0.010 A 
ATOM     38  C   UNL A   1      40.216  29.071  28.659  1.00  0.00    -0.014 A 
BRANCH  38  39
ATOM     39  C   UNL A   1      41.608  28.685  28.327  1.00  0.00     0.031 A 
ATOM     40  C   UNL A   1      42.696  29.723  28.339  1.00  0.00     0.074 A 
ATOM     41  C   UNL A   1      41.880  27.413  27.979  1.00  0.00     0.049 A 
ATOM     42  N   UNL A   1      43.963  29.593  28.040  1.00  0.00    -0.248 NA
ATOM     43  C   UNL A   1      42.307  31.092  28.716  1.00  0.00     0.031 C 
ATOM     44  C   UNL A   1      40.897  26.329  27.902  1.00  0.00     0.029 A 
ATOM     45  N   UNL A   1      43.062  26.812  27.625  1.00  0.00    -0.354 N 
ATOM     46  C   UNL A   1      44.520  30.856  28.195  1.00  0.00     0.074 A 
ATOM     47  C   UNL A   1      43.443  31.754  28.549  1.00  0.00     0.031 C 
ATOM     48  C   UNL A   1      41.522  25.193  27.559  1.00  0.00     0.029 A 
ATOM     49  C   UNL A   1      42.940  25.470  27.352  1.00  0.00     0.049 A 
ATOM     50  H   UNL A   1      43.917  27.297  27.572  1.00  0.00     0.167 HD
ATOM     51  C   UNL A   1      45.816  31.227  28.083  1.00  0.00     0.037 A 
ATOM     52  C   UNL A   1      43.868  24.567  26.978  1.00  0.00     0.037 A 
ATOM     53  C   UNL A   1      46.883  30.322  27.745  1.00  0.00     0.049 A 
ATOM     54  C   UNL A   1      45.297  25.012  26.825  1.00  0.00     0.074 A 
ATOM     55  C   UNL A   1      48.236  30.591  27.638  1.00  0.00     0.029 A 
ATOM     56  N   UNL A   1      46.718  28.973  27.461  1.00  0.00    -0.354 N 
ATOM     57  N   UNL A   1      45.814  26.203  27.018  1.00  0.00    -0.248 NA
ATOM     58  C   UNL A   1      46.269  23.994  26.405  1.00  0.00     0.031 C 
ATOM     59  C   UNL A   1      48.882  29.416  27.242  1.00  0.00     0.029 A 
ATOM     60  C   UNL A   1      47.941  28.402  27.157  1.00  0.00     0.049 A 
ATOM     61  H   UNL A   1      45.858  28.495  27.475  1.00  0.00     0.167 HD
ATOM     62  C   UNL A   1      47.175  26.071  26.768  1.00  0.00     0.074 A 
ATOM     63  C   UNL A   1      47.404  24.683  26.423  1.00  0.00     0.031 C 
ATOM     64  C   UNL A   1      48.149  27.015  26.820  1.00  0.00     0.037 A 
BRANCH  51  65
ATOM     65  C   UNL A   1      46.158  32.670  28.344  1.00  0.00     0.058 A 
ATOM     66  C   UNL A   1      46.085  33.635  27.327  1.00  0.00     0.135 A 
ATOM     67  C   UNL A   1      46.512  33.102  29.632  1.00  0.00     0.135 A 
ATOM     68  F   UNL A   1      45.769  33.275  26.072  1.00  0.00    -0.206 F 
ATOM     69  C   UNL A   1      46.371  34.974  27.572  1.00  0.00     0.059 A 
ATOM     70  C   UNL A   1      46.774  34.441  29.906  1.00  0.00     0.059 A 
ATOM     71  F   UNL A   1      46.602  32.220  30.641  1.00  0.00    -0.206 F 
ATOM     72  C   UNL A   1      46.710  35.368  28.868  1.00  0.00     0.060 A 
BRANCH  72  73
ATOM     73  S   UNL A   1      47.057  37.114  29.168  1.00  0.00     0.124 S 
ATOM     74  O   UNL A   1      45.950  37.485  30.044  1.00  0.00    -0.237 OA
ATOM     75  O   UNL A   1      48.373  37.063  29.799  1.00  0.00    -0.237 OA
ATOM     76  O   UNL A   1      47.025  37.704  27.834  1.00  0.00    -0.744 OA
ENDBRANCH  72  73
ENDBRANCH  51  65
BRANCH  52  77
ATOM     77  C   UNL A   1      43.475  23.149  26.758  1.00  0.00     0.058 A 
ATOM     78  C   UNL A   1      43.480  22.594  25.471  1.00  0.00     0.135 A 
ATOM     79  C   UNL A   1      43.120  22.314  27.829  1.00  0.00     0.135 A 
ATOM     80  F   UNL A   1      43.806  23.354  24.413  1.00  0.00    -0.206 F 
ATOM     81  C   UNL A   1      43.139  21.264  25.249  1.00  0.00     0.059 A 
ATOM     82  C   UNL A   1      42.801  20.972  27.636  1.00  0.00     0.059 A 
ATOM     83  F   UNL A   1      43.116  22.791  29.083  1.00  0.00    -0.206 F 
ATOM     84  C   UNL A   1      42.808  20.458  26.339  1.00  0.00     0.060 A 
BRANCH  84  85
ATOM     85  S   UNL A   1      42.428  18.718  26.044  1.00  0.00     0.124 S 
ATOM     86  O   UNL A   1      42.745  18.122  27.337  1.00  0.00    -0.237 OA
ATOM     87  O   UNL A   1      41.012  18.773  25.697  1.00  0.00    -0.237 OA
ATOM     88  O   UNL A   1      43.322  18.359  24.947  1.00  0.00    -0.744 OA
ENDBRANCH  84  85
ENDBRANCH  52  77
BRANCH  64  89
ATOM     89  C   UNL A   1      49.556  26.582  26.515  1.00  0.00     0.058 A 
ATOM     90  C   UNL A   1      50.364  25.973  27.488  1.00  0.00     0.135 A 
ATOM     91  C   UNL A   1      50.072  26.702  25.215  1.00  0.00     0.135 A 
ATOM     92  F   UNL A   1      49.922  25.840  28.748  1.00  0.00    -0.206 F 
ATOM     93  C   UNL A   1      51.641  25.512  27.183  1.00  0.00     0.059 A 
ATOM     94  C   UNL A   1      51.334  26.221  24.881  1.00  0.00     0.059 A 
ATOM     95  F   UNL A   1      49.335  27.267  24.244  1.00  0.00    -0.206 F 
ATOM     96  C   UNL A   1      52.114  25.634  25.875  1.00  0.00     0.060 A 
BRANCH  96  97
ATOM     97  S   UNL A   1      53.753  24.985  25.489  1.00  0.00     0.124 S 
ATOM     98  O   UNL A   1      54.498  25.328  26.695  1.00  0.00    -0.237 OA
ATOM     99  O   UNL A   1      53.485  23.563  25.293  1.00  0.00    -0.237 OA
ATOM    100  O   UNL A   1      54.135  25.718  24.286  1.00  0.00    -0.744 OA
ENDBRANCH  96  97
ENDBRANCH  64  89
ENDBRANCH  38  39
ENDBRANCH  30  33
ENDBRANCH  28  29
ENDBRANCH  27  28
ENDBRANCH   1  27
TORSDOF 18
ENDMDL
MODEL 2
REMARK VINA RESULT:     -12.2      1.073      3.028
REMARK SMILES Cc1nn(C)c(=O)c(C(=O)N2CCCC[C@H]2C(=O)NCCCCCCNC(=O)c2ccc(-c3c4nc(c(-c5c(F)cc(S(=O)(=O)[O-])cc5F)c5ccc([nH]5)c(-c5c(F)cc(S(=O)(=O)[O-])cc5F)c5nc(c(-c6c(F)cc(S(=O)(=O)[O-])cc6F)c6ccc3[nH]6)C=C5)C=C4)cc2)c1C
REMARK SMILES IDX 23 1 22 2 21 3 20 4 19 5 17 6 18 7 16 9 11 10 12 11 13 12
REMARK SMILES IDX 15 13 14 14 9 15 10 16 8 17 1 18 2 19 3 20 95 21 4 22 96 23
REMARK SMILES IDX 5 24 6 25 7 26 24 27 25 28 26 29 27 30 28 32 29 33 30 34
REMARK SMILES IDX 94 35 31 36 93 37 32 38 33 39 34 40 87 41 35 42 92 43 86 44
REMARK SMILES IDX 88 45 36 46 91 47 85 48 84 49 37 51 71 52 50 53 70 54 51 55
REMARK SMILES IDX 54 56 69 57 89 58 52 59 53 60 68 62 90 63 55 64 38 65 39 66
REMARK SMILES IDX 48 67 40 68 41 69 47 70 49 71 42 72 43 73 44 74 45 75 46 76
REMARK SMILES IDX 72 77 73 78 82 79 74 80 75 81 81 82 83 83 76 84 77 85 78 86
REMARK SMILES IDX 79 87 80 88 56 89 57 90 66 91 58 92 59 93 65 94 67 95 60 96
REMARK SMILES IDX 61 97 62 98 63 99 64 100
REMARK H PARENT 19 8 26 31 88 50 54 61
REMARK Flexibility Score: inf
ROOT
ATOM      1  C   UNL A   1      33.108  28.990  27.311  1.00  0.00     0.002 C 
ENDROOT
BRANCH   1   2
ATOM      2  C   UNL A   1      33.555  27.977  26.248  1.00  0.00     0.002 C 
BRANCH   2   3
ATOM      3  C   UNL A   1      32.901  26.596  26.356  1.00  0.00     0.021 C 
BRANCH   3   4
ATOM      4  C   UNL A   1      33.823  25.443  25.963  1.00  0.00     0.116 C 
BRANCH   4   5
ATOM      5  N   UNL A   1      33.448  24.172  26.535  1.00  0.00    -0.354 N 
ATOM      6  C   UNL A   1      33.482  22.900  26.066  1.00  0.00     0.242 C 
ATOM      7  O   UNL A   1      33.402  22.026  26.946  1.00  0.00    -0.273 OA
ATOM      8  H   UNL A   1      33.096  24.243  27.452  1.00  0.00     0.163 HD
BRANCH   6   9
ATOM      9  C   UNL A   1      33.721  22.443  24.583  1.00  0.00     0.174 C 
ATOM     10  N   UNL A   1      34.129  23.336  23.463  1.00  0.00    -0.326 N 
ATOM     11  C   UNL A   1      35.571  23.590  23.288  1.00  0.00     0.120 C 
ATOM     12  C   UNL A   1      36.524  22.445  23.629  1.00  0.00     0.022 C 
ATOM     13  C   UNL A   1      34.614  21.187  24.631  1.00  0.00     0.035 C 
ATOM     14  C   UNL A   1      36.087  21.537  24.765  1.00  0.00     0.004 C 
BRANCH  10  15
ATOM     15  C   UNL A   1      33.320  23.860  22.439  1.00  0.00     0.260 C 
ATOM     16  O   UNL A   1      33.427  23.382  21.301  1.00  0.00    -0.269 OA
BRANCH  15  17
ATOM     17  C   UNL A   1      32.349  25.023  22.549  1.00  0.00     0.111 A 
ATOM     18  C   UNL A   1      29.073  26.367  23.926  1.00  0.00     0.069 C 
ATOM     19  C   UNL A   1      30.517  26.337  23.471  1.00  0.00     0.062 A 
ATOM     20  N   UNL A   1      31.100  27.482  23.354  1.00  0.00    -0.175 NA
ATOM     21  C   UNL A   1      31.184  25.020  23.229  1.00  0.00    -0.010 A 
ATOM     22  N   UNL A   1      32.355  27.486  22.829  1.00  0.00    -0.232 N 
ATOM     23  C   UNL A   1      30.546  23.881  23.937  1.00  0.00     0.047 C 
ATOM     24  C   UNL A   1      33.004  28.788  22.797  1.00  0.00     0.178 C 
ATOM     25  C   UNL A   1      32.914  26.386  22.180  1.00  0.00     0.279 A 
ATOM     26  O   UNL A   1      33.836  26.503  21.374  1.00  0.00    -0.267 OA
ENDBRANCH  15  17
ENDBRANCH  10  15
ENDBRANCH   6   9
ENDBRANCH   4   5
ENDBRANCH   3   4
ENDBRANCH   2   3
ENDBRANCH   1   2
BRANCH   1  27
ATOM     27  C   UNL A   1      33.933  30.279  27.367  1.00  0.00     0.021 C 
BRANCH  27  28
ATOM     28  C   UNL A   1      35.302  30.115  28.021  1.00  0.00     0.116 C 
BRANCH  28  29
ATOM     29  N   UNL A   1      35.310  30.656  29.371  1.00  0.00    -0.352 N 
ATOM     30  C   UNL A   1      36.290  30.587  30.328  1.00  0.00     0.251 C 
ATOM     31  H   UNL A   1      34.494  31.141  29.636  1.00  0.00     0.163 HD
ATOM     32  O   UNL A   1      36.023  30.825  31.499  1.00  0.00    -0.269 OA
BRANCH  30  33
ATOM     33  C   UNL A   1      37.667  30.229  29.931  1.00  0.00     0.039 A 
ATOM     34  C   UNL A   1      38.581  29.838  30.912  1.00  0.00     0.014 A 
ATOM     35  C   UNL A   1      38.055  30.303  28.590  1.00  0.00     0.014 A 
ATOM     36  C   UNL A   1      39.875  29.476  30.538  1.00  0.00     0.010 A 
ATOM     37  C   UNL A   1      39.322  29.874  28.211  1.00  0.00     0.010 A 
ATOM     38  C   UNL A   1      40.248  29.469  29.182  1.00  0.00    -0.014 A 
BRANCH  38  39
ATOM     39  C   UNL A   1      41.611  29.064  28.764  1.00  0.00     0.031 A 
ATOM     40  C   UNL A   1      42.721  30.078  28.749  1.00  0.00     0.074 A 
ATOM     41  C   UNL A   1      41.836  27.798  28.365  1.00  0.00     0.049 A 
ATOM     42  N   UNL A   1      43.967  29.931  28.379  1.00  0.00    -0.248 NA
ATOM     43  C   UNL A   1      42.384  31.442  29.187  1.00  0.00     0.031 C 
ATOM     44  C   UNL A   1      40.826  26.737  28.308  1.00  0.00     0.029 A 
ATOM     45  N   UNL A   1      42.983  27.184  27.931  1.00  0.00    -0.354 N 
ATOM     46  C   UNL A   1      44.559  31.177  28.540  1.00  0.00     0.074 A 
ATOM     47  C   UNL A   1      43.524  32.086  28.978  1.00  0.00     0.031 C 
ATOM     48  C   UNL A   1      41.406  25.599  27.899  1.00  0.00     0.029 A 
ATOM     49  C   UNL A   1      42.817  25.853  27.624  1.00  0.00     0.049 A 
ATOM     50  H   UNL A   1      43.845  27.652  27.846  1.00  0.00     0.167 HD
ATOM     51  C   UNL A   1      45.856  31.524  28.369  1.00  0.00     0.037 A 
ATOM     52  C   UNL A   1      43.703  24.943  27.174  1.00  0.00     0.037 A 
ATOM     53  C   UNL A   1      46.883  30.608  27.949  1.00  0.00     0.049 A 
ATOM     54  C   UNL A   1      45.132  25.363  26.958  1.00  0.00     0.074 A 
ATOM     55  C   UNL A   1      48.234  30.852  27.777  1.00  0.00     0.029 A 
ATOM     56  N   UNL A   1      46.673  29.272  27.633  1.00  0.00    -0.354 N 
ATOM     57  N   UNL A   1      45.685  26.536  27.159  1.00  0.00    -0.248 NA
ATOM     58  C   UNL A   1      46.057  24.339  26.457  1.00  0.00     0.031 C 
ATOM     59  C   UNL A   1      48.832  29.676  27.312  1.00  0.00     0.029 A 
ATOM     60  C   UNL A   1      47.865  28.685  27.248  1.00  0.00     0.049 A 
ATOM     61  H   UNL A   1      45.804  28.812  27.680  1.00  0.00     0.167 HD
ATOM     62  C   UNL A   1      47.027  26.384  26.831  1.00  0.00     0.074 A 
ATOM     63  C   UNL A   1      47.206  25.003  26.433  1.00  0.00     0.031 C 
ATOM     64  C   UNL A   1      48.023  27.305  26.859  1.00  0.00     0.037 A 
BRANCH  51  65
ATOM     65  C   UNL A   1      46.244  32.950  28.655  1.00  0.00     0.058 A 
ATOM     66  C   UNL A   1      46.168  33.942  27.663  1.00  0.00     0.135 A 
ATOM     67  C   UNL A   1      46.646  33.342  29.942  1.00  0.00     0.135 A 
ATOM     68  F   UNL A   1      45.807  33.621  26.410  1.00  0.00    -0.206 F 
ATOM     69  C   UNL A   1      46.496  35.267  27.931  1.00  0.00     0.059 A 
ATOM     70  C   UNL A   1      46.951  34.667  30.240  1.00  0.00     0.059 A 
ATOM     71  F   UNL A   1      46.740  32.434  30.926  1.00  0.00    -0.206 F 
ATOM     72  C   UNL A   1      46.882  35.620  29.225  1.00  0.00     0.060 A 
BRANCH  72  73
ATOM     73  S   UNL A   1      47.284  37.348  29.557  1.00  0.00     0.124 S 
ATOM     74  O   UNL A   1      48.605  37.463  28.945  1.00  0.00    -0.237 OA
ATOM     75  O   UNL A   1      46.206  38.054  28.872  1.00  0.00    -0.237 OA
ATOM     76  O   UNL A   1      47.260  37.432  31.013  1.00  0.00    -0.744 OA
ENDBRANCH  72  73
ENDBRANCH  51  65
BRANCH  52  77
ATOM     77  C   UNL A   1      43.267  23.542  26.934  1.00  0.00     0.058 A 
ATOM     78  C   UNL A   1      42.977  23.091  25.639  1.00  0.00     0.135 A 
ATOM     79  C   UNL A   1      43.164  22.617  27.986  1.00  0.00     0.135 A 
ATOM     80  F   UNL A   1      43.055  23.939  24.601  1.00  0.00    -0.206 F 
ATOM     81  C   UNL A   1      42.592  21.778  25.392  1.00  0.00     0.059 A 
ATOM     82  C   UNL A   1      42.806  21.290  27.761  1.00  0.00     0.059 A 
ATOM     83  F   UNL A   1      43.447  22.991  29.243  1.00  0.00    -0.206 F 
ATOM     84  C   UNL A   1      42.517  20.882  26.459  1.00  0.00     0.060 A 
BRANCH  84  85
ATOM     85  S   UNL A   1      42.075  19.165  26.116  1.00  0.00     0.124 S 
ATOM     86  O   UNL A   1      42.924  18.865  24.968  1.00  0.00    -0.237 OA
ATOM     87  O   UNL A   1      42.436  18.505  27.367  1.00  0.00    -0.237 OA
ATOM     88  O   UNL A   1      40.643  19.233  25.841  1.00  0.00    -0.744 OA
ENDBRANCH  84  85
ENDBRANCH  52  77
BRANCH  64  89
ATOM     89  C   UNL A   1      49.403  26.853  26.466  1.00  0.00     0.058 A 
ATOM     90  C   UNL A   1      50.262  26.234  27.386  1.00  0.00     0.135 A 
ATOM     91  C   UNL A   1      49.836  26.965  25.135  1.00  0.00     0.135 A 
ATOM     92  F   UNL A   1      49.899  26.107  28.673  1.00  0.00    -0.206 F 
ATOM     93  C   UNL A   1      51.511  25.755  27.002  1.00  0.00     0.059 A 
ATOM     94  C   UNL A   1      51.068  26.467  24.723  1.00  0.00     0.059 A 
ATOM     95  F   UNL A   1      49.047  27.539  24.213  1.00  0.00    -0.206 F 
ATOM     96  C   UNL A   1      51.901  25.869  25.667  1.00  0.00     0.060 A 
BRANCH  96  97
ATOM     97  S   UNL A   1      53.504  25.197  25.178  1.00  0.00     0.124 S 
ATOM     98  O   UNL A   1      53.281  23.764  25.328  1.00  0.00    -0.237 OA
ATOM     99  O   UNL A   1      53.634  25.678  23.806  1.00  0.00    -0.237 OA
ATOM    100  O   UNL A   1      54.430  25.792  26.137  1.00  0.00    -0.744 OA
ENDBRANCH  96  97
ENDBRANCH  64  89
ENDBRANCH  38  39
ENDBRANCH  30  33
ENDBRANCH  28  29
ENDBRANCH  27  28
ENDBRANCH   1  27
TORSDOF 18
ENDMDL
MODEL 3
REMARK VINA RESULT:     -12.0      0.464      8.080
REMARK SMILES Cc1nn(C)c(=O)c(C(=O)N2CCCC[C@H]2C(=O)NCCCCCCNC(=O)c2ccc(-c3c4nc(c(-c5c(F)cc(S(=O)(=O)[O-])cc5F)c5ccc([nH]5)c(-c5c(F)cc(S(=O)(=O)[O-])cc5F)c5nc(c(-c6c(F)cc(S(=O)(=O)[O-])cc6F)c6ccc3[nH]6)C=C5)C=C4)cc2)c1C
REMARK SMILES IDX 23 1 22 2 21 3 20 4 19 5 17 6 18 7 16 9 11 10 12 11 13 12
REMARK SMILES IDX 15 13 14 14 9 15 10 16 8 17 1 18 2 19 3 20 95 21 4 22 96 23
REMARK SMILES IDX 5 24 6 25 7 26 24 27 25 28 26 29 27 30 28 32 29 33 30 34
REMARK SMILES IDX 94 35 31 36 93 37 32 38 33 39 34 40 87 41 35 42 92 43 86 44
REMARK SMILES IDX 88 45 36 46 91 47 85 48 84 49 37 51 71 52 50 53 70 54 51 55
REMARK SMILES IDX 54 56 69 57 89 58 52 59 53 60 68 62 90 63 55 64 38 65 39 66
REMARK SMILES IDX 48 67 40 68 41 69 47 70 49 71 42 72 43 73 44 74 45 75 46 76
REMARK SMILES IDX 72 77 73 78 82 79 74 80 75 81 81 82 83 83 76 84 77 85 78 86
REMARK SMILES IDX 79 87 80 88 56 89 57 90 66 91 58 92 59 93 65 94 67 95 60 96
REMARK SMILES IDX 61 97 62 98 63 99 64 100
REMARK H PARENT 19 8 26 31 88 50 54 61
REMARK Flexibility Score: inf
ROOT
ATOM      1  C   UNL A   1      33.272  29.789  26.205  1.00  0.00     0.002 C 
ENDROOT
BRANCH   1   2
ATOM      2  C   UNL A   1      32.907  29.277  24.805  1.00  0.00     0.002 C 
BRANCH   2   3
ATOM      3  C   UNL A   1      34.009  28.479  24.101  1.00  0.00     0.021 C 
BRANCH   3   4
ATOM      4  C   UNL A   1      33.657  28.066  22.673  1.00  0.00     0.116 C 
BRANCH   4   5
ATOM      5  N   UNL A   1      32.240  28.056  22.399  1.00  0.00    -0.354 N 
ATOM      6  C   UNL A   1      31.249  27.172  22.678  1.00  0.00     0.242 C 
ATOM      7  O   UNL A   1      30.102  27.643  22.592  1.00  0.00    -0.273 OA
ATOM      8  H   UNL A   1      31.929  28.852  21.910  1.00  0.00     0.163 HD
BRANCH   6   9
ATOM      9  C   UNL A   1      31.413  25.699  23.195  1.00  0.00     0.174 C 
ATOM     10  N   UNL A   1      32.700  25.066  23.597  1.00  0.00    -0.326 N 
ATOM     11  C   UNL A   1      33.151  25.271  24.985  1.00  0.00     0.120 C 
ATOM     12  C   UNL A   1      32.070  25.361  26.062  1.00  0.00     0.022 C 
ATOM     13  C   UNL A   1      30.333  25.470  24.271  1.00  0.00     0.035 C 
ATOM     14  C   UNL A   1      30.760  25.998  25.631  1.00  0.00     0.004 C 
BRANCH  10  15
ATOM     15  C   UNL A   1      33.483  24.158  22.861  1.00  0.00     0.260 C 
ATOM     16  O   UNL A   1      33.694  24.398  21.664  1.00  0.00    -0.269 OA
BRANCH  15  17
ATOM     17  C   UNL A   1      34.061  22.844  23.356  1.00  0.00     0.111 A 
ATOM     18  C   UNL A   1      36.965  21.009  24.980  1.00  0.00     0.069 C 
ATOM     19  C   UNL A   1      35.541  21.377  24.618  1.00  0.00     0.062 A 
ATOM     20  N   UNL A   1      34.629  20.536  24.970  1.00  0.00    -0.175 NA
ATOM     21  C   UNL A   1      35.271  22.678  23.927  1.00  0.00    -0.010 A 
ATOM     22  N   UNL A   1      33.360  20.786  24.547  1.00  0.00    -0.232 N 
ATOM     23  C   UNL A   1      36.335  23.695  24.121  1.00  0.00     0.047 C 
ATOM     24  C   UNL A   1      32.353  19.860  25.041  1.00  0.00     0.178 C 
ATOM     25  C   UNL A   1      33.057  21.720  23.558  1.00  0.00     0.279 A 
ATOM     26  O   UNL A   1      32.018  21.661  22.902  1.00  0.00    -0.267 OA
ENDBRANCH  15  17
ENDBRANCH  10  15
ENDBRANCH   6   9
ENDBRANCH   4   5
ENDBRANCH   3   4
ENDBRANCH   2   3
ENDBRANCH   1   2
BRANCH   1  27
ATOM     27  C   UNL A   1      34.058  28.802  27.073  1.00  0.00     0.021 C 
BRANCH  27  28
ATOM     28  C   UNL A   1      35.416  29.323  27.537  1.00  0.00     0.116 C 
BRANCH  28  29
ATOM     29  N   UNL A   1      35.350  29.828  28.900  1.00  0.00    -0.352 N 
ATOM     30  C   UNL A   1      36.307  29.803  29.881  1.00  0.00     0.251 C 
ATOM     31  H   UNL A   1      34.494  30.246  29.153  1.00  0.00     0.163 HD
ATOM     32  O   UNL A   1      35.993  29.991  31.050  1.00  0.00    -0.269 OA
BRANCH  30  33
ATOM     33  C   UNL A   1      37.716  29.555  29.514  1.00  0.00     0.039 A 
ATOM     34  C   UNL A   1      38.613  29.130  30.496  1.00  0.00     0.014 A 
ATOM     35  C   UNL A   1      38.149  29.765  28.202  1.00  0.00     0.014 A 
ATOM     36  C   UNL A   1      39.939  28.872  30.148  1.00  0.00     0.010 A 
ATOM     37  C   UNL A   1      39.452  29.438  27.842  1.00  0.00     0.010 A 
ATOM     38  C   UNL A   1      40.362  29.001  28.814  1.00  0.00    -0.014 A 
BRANCH  38  39
ATOM     39  C   UNL A   1      41.761  28.707  28.421  1.00  0.00     0.031 A 
ATOM     40  C   UNL A   1      42.153  27.307  28.038  1.00  0.00     0.074 A 
ATOM     41  C   UNL A   1      42.680  29.692  28.448  1.00  0.00     0.049 A 
ATOM     42  N   UNL A   1      43.329  26.842  27.705  1.00  0.00    -0.248 NA
ATOM     43  C   UNL A   1      41.089  26.290  28.051  1.00  0.00     0.031 C 
ATOM     44  C   UNL A   1      42.419  31.081  28.835  1.00  0.00     0.029 A 
ATOM     45  N   UNL A   1      44.018  29.679  28.145  1.00  0.00    -0.354 N 
ATOM     46  C   UNL A   1      43.146  25.486  27.468  1.00  0.00     0.074 A 
ATOM     47  C   UNL A   1      41.762  25.187  27.759  1.00  0.00     0.031 C 
ATOM     48  C   UNL A   1      43.550  31.791  28.712  1.00  0.00     0.029 A 
ATOM     49  C   UNL A   1      44.626  30.905  28.278  1.00  0.00     0.049 A 
ATOM     50  H   UNL A   1      44.497  28.868  27.859  1.00  0.00     0.167 HD
ATOM     51  C   UNL A   1      44.044  24.578  27.017  1.00  0.00     0.037 A 
ATOM     52  C   UNL A   1      45.907  31.271  28.073  1.00  0.00     0.037 A 
ATOM     53  C   UNL A   1      45.416  24.890  26.716  1.00  0.00     0.049 A 
ATOM     54  C   UNL A   1      46.894  30.236  27.606  1.00  0.00     0.074 A 
ATOM     55  C   UNL A   1      46.399  24.051  26.223  1.00  0.00     0.029 A 
ATOM     56  N   UNL A   1      45.999  26.140  26.877  1.00  0.00    -0.354 N 
ATOM     57  N   UNL A   1      46.694  28.966  27.344  1.00  0.00    -0.248 NA
ATOM     58  C   UNL A   1      48.280  30.681  27.406  1.00  0.00     0.031 C 
ATOM     59  C   UNL A   1      47.588  24.781  26.132  1.00  0.00     0.029 A 
ATOM     60  C   UNL A   1      47.334  26.088  26.514  1.00  0.00     0.049 A 
ATOM     61  H   UNL A   1      45.532  26.943  27.201  1.00  0.00     0.167 HD
ATOM     62  C   UNL A   1      47.922  28.466  26.925  1.00  0.00     0.074 A 
ATOM     63  C   UNL A   1      48.855  29.574  26.955  1.00  0.00     0.031 C 
ATOM     64  C   UNL A   1      48.247  27.204  26.548  1.00  0.00     0.037 A 
BRANCH  51  65
ATOM     65  C   UNL A   1      43.568  23.166  26.806  1.00  0.00     0.058 A 
ATOM     66  C   UNL A   1      43.406  22.634  25.517  1.00  0.00     0.135 A 
ATOM     67  C   UNL A   1      43.319  22.321  27.899  1.00  0.00     0.135 A 
ATOM     68  F   UNL A   1      43.612  23.403  24.435  1.00  0.00    -0.206 F 
ATOM     69  C   UNL A   1      42.995  21.320  25.318  1.00  0.00     0.059 A 
ATOM     70  C   UNL A   1      42.935  20.994  27.723  1.00  0.00     0.059 A 
ATOM     71  F   UNL A   1      43.454  22.780  29.153  1.00  0.00    -0.206 F 
ATOM     72  C   UNL A   1      42.767  20.506  26.429  1.00  0.00     0.060 A 
BRANCH  72  73
ATOM     73  S   UNL A   1      42.254  18.799  26.148  1.00  0.00     0.124 S 
ATOM     74  O   UNL A   1      43.187  18.381  25.105  1.00  0.00    -0.237 OA
ATOM     75  O   UNL A   1      42.460  18.194  27.460  1.00  0.00    -0.237 OA
ATOM     76  O   UNL A   1      40.862  18.924  25.729  1.00  0.00    -0.744 OA
ENDBRANCH  72  73
ENDBRANCH  51  65
BRANCH  52  77
ATOM     77  C   UNL A   1      46.313  32.688  28.273  1.00  0.00     0.058 A 
ATOM     78  C   UNL A   1      46.782  33.131  29.518  1.00  0.00     0.135 A 
ATOM     79  C   UNL A   1      46.273  33.617  27.222  1.00  0.00     0.135 A 
ATOM     80  F   UNL A   1      46.833  32.283  30.557  1.00  0.00    -0.206 F 
ATOM     81  C   UNL A   1      47.189  34.446  29.718  1.00  0.00     0.059 A 
ATOM     82  C   UNL A   1      46.700  34.931  27.390  1.00  0.00     0.059 A 
ATOM     83  F   UNL A   1      45.849  33.240  26.005  1.00  0.00    -0.206 F 
ATOM     84  C   UNL A   1      47.152  35.338  28.645  1.00  0.00     0.060 A 
BRANCH  84  85
ATOM     85  S   UNL A   1      47.741  37.025  28.903  1.00  0.00     0.124 S 
ATOM     86  O   UNL A   1      48.316  36.936  30.241  1.00  0.00    -0.237 OA
ATOM     87  O   UNL A   1      48.693  37.183  27.808  1.00  0.00    -0.237 OA
ATOM     88  O   UNL A   1      46.527  37.827  28.790  1.00  0.00    -0.744 OA
ENDBRANCH  84  85
ENDBRANCH  52  77
BRANCH  64  89
ATOM     89  C   UNL A   1      49.665  26.949  26.118  1.00  0.00     0.058 A 
ATOM     90  C   UNL A   1      50.637  26.496  27.023  1.00  0.00     0.135 A 
ATOM     91  C   UNL A   1      50.034  27.079  24.769  1.00  0.00     0.135 A 
ATOM     92  F   UNL A   1      50.339  26.361  28.325  1.00  0.00    -0.206 F 
ATOM     93  C   UNL A   1      51.930  26.196  26.607  1.00  0.00     0.059 A 
ATOM     94  C   UNL A   1      51.312  26.756  24.326  1.00  0.00     0.059 A 
ATOM     95  F   UNL A   1      49.138  27.497  23.860  1.00  0.00    -0.206 F 
ATOM     96  C   UNL A   1      52.256  26.321  25.255  1.00  0.00     0.060 A 
BRANCH  96  97
ATOM     97  S   UNL A   1      53.925  25.880  24.727  1.00  0.00     0.124 S 
ATOM     98  O   UNL A   1      53.909  24.430  24.883  1.00  0.00    -0.237 OA
ATOM     99  O   UNL A   1      53.953  26.368  23.352  1.00  0.00    -0.237 OA
ATOM    100  O   UNL A   1      54.781  26.603  25.662  1.00  0.00    -0.744 OA
ENDBRANCH  96  97
ENDBRANCH  64  89
ENDBRANCH  38  39
ENDBRANCH  30  33
ENDBRANCH  28  29
ENDBRANCH  27  28
ENDBRANCH   1  27
TORSDOF 18
ENDMDL
