MODEL 1
REMARK VINA RESULT:     -11.9      0.000      0.000
REMARK SMILES CC1(C)CSC[C@H]([NH2+][C@H](C(=O)NCCCCCCNC(=O)c2ccc(-c3c4nc(c(-c5c(F)cc(S(=O)(=O)[O-])cc5F)c5ccc([nH]5)c(-c5c(F)cc(S(=O)(=O)[O-])cc5F)c5nc(c(-c6c(F)cc(S(=O)(=O)[O-])cc6F)c6ccc3[nH]6)C=C5)C=C4)cc2)c2ccccc2)C1
REMARK SMILES IDX 16 1 15 2 14 3 13 4 12 5 10 6 11 7 9 9 8 10 7 13 1 14 2 15
REMARK SMILES IDX 3 16 4 17 94 18 5 19 6 20 88 21 89 22 93 23 90 24 92 25
REMARK SMILES IDX 91 26 17 27 18 28 19 29 20 30 21 32 22 33 23 34 87 35 24 36
REMARK SMILES IDX 86 37 25 38 26 39 27 40 80 41 28 42 85 43 79 44 81 45 29 46
REMARK SMILES IDX 84 47 78 48 77 49 30 51 64 52 43 53 63 54 44 55 47 56 62 57
REMARK SMILES IDX 82 58 45 59 46 60 61 62 83 63 48 64 31 65 32 66 41 67 33 68
REMARK SMILES IDX 34 69 40 70 42 71 35 72 36 73 37 74 38 75 39 76 65 77 66 78
REMARK SMILES IDX 75 79 67 80 68 81 74 82 76 83 69 84 70 85 71 86 72 87 73 88
REMARK SMILES IDX 49 89 50 90 59 91 51 92 52 93 58 94 60 95 53 96 54 97 55 98
REMARK SMILES IDX 56 99 57 100
REMARK H PARENT 12 8 8 11 8 12 19 31 81 50 47 61
REMARK Flexibility Score: inf
ROOT
ATOM      1  C   UNL A   1      36.107  23.382  26.103  1.00  0.00     0.002 C 
ENDROOT
BRANCH   1   2
ATOM      2  C   UNL A   1      35.250  24.489  25.489  1.00  0.00     0.002 C 
BRANCH   2   3
ATOM      3  C   UNL A   1      33.802  24.570  25.996  1.00  0.00     0.021 C 
BRANCH   3   4
ATOM      4  C   UNL A   1      33.145  25.944  25.872  1.00  0.00     0.116 C 
BRANCH   4   5
ATOM      5  N   UNL A   1      31.842  25.968  26.504  1.00  0.00    -0.351 N 
ATOM      6  C   UNL A   1      30.598  25.926  25.943  1.00  0.00     0.283 C 
ATOM      7  O   UNL A   1      29.643  25.849  26.723  1.00  0.00    -0.268 OA
ATOM      8  H   UNL A   1      31.855  26.024  27.486  1.00  0.00     0.163 HD
BRANCH   6   9
ATOM      9  C   UNL A   1      30.437  25.984  24.408  1.00  0.00     0.304 C 
BRANCH   9  10
ATOM     10  N   UNL A   1      29.926  24.736  23.786  1.00  0.00    -0.329 N 
ATOM     11  H   UNL A   1      29.499  24.197  24.540  1.00  0.00     0.347 HD
ATOM     12  H   UNL A   1      29.336  25.099  23.037  1.00  0.00     0.347 HD
BRANCH  10  13
ATOM     13  C   UNL A   1      30.809  23.795  23.053  1.00  0.00     0.193 C 
ATOM     14  C   UNL A   1      31.972  20.900  22.214  1.00  0.00     0.012 C 
ATOM     15  C   UNL A   1      32.485  21.761  23.386  1.00  0.00    -0.021 C 
ATOM     16  C   UNL A   1      32.906  20.793  24.518  1.00  0.00     0.012 C 
ATOM     17  C   UNL A   1      33.705  22.600  22.983  1.00  0.00     0.076 C 
ATOM     18  C   UNL A   1      31.364  22.664  23.946  1.00  0.00     0.073 C 
ATOM     19  S   UNL A   1      33.317  23.792  21.671  1.00  0.00    -0.155 SA
ATOM     20  C   UNL A   1      31.965  24.677  22.503  1.00  0.00     0.134 C 
ENDBRANCH  10  13
ENDBRANCH   9  10
BRANCH   9  21
ATOM     21  C   UNL A   1      29.813  27.309  23.977  1.00  0.00     0.019 A 
ATOM     22  C   UNL A   1      28.452  27.290  23.591  1.00  0.00     0.010 A 
ATOM     23  C   UNL A   1      30.496  28.526  23.909  1.00  0.00     0.010 A 
ATOM     24  C   UNL A   1      27.810  28.431  23.116  1.00  0.00     0.001 A 
ATOM     25  C   UNL A   1      29.849  29.676  23.437  1.00  0.00     0.001 A 
ATOM     26  C   UNL A   1      28.513  29.627  23.034  1.00  0.00     0.000 A 
ENDBRANCH   9  21
ENDBRANCH   6   9
ENDBRANCH   4   5
ENDBRANCH   3   4
ENDBRANCH   2   3
ENDBRANCH   1   2
BRANCH   1  27
ATOM     27  C   UNL A   1      37.569  23.356  25.660  1.00  0.00     0.021 C 
BRANCH  27  28
ATOM     28  C   UNL A   1      38.531  24.146  26.539  1.00  0.00     0.116 C 
BRANCH  28  29
ATOM     29  N   UNL A   1      39.930  23.928  26.211  1.00  0.00    -0.352 N 
ATOM     30  C   UNL A   1      41.020  24.668  26.621  1.00  0.00     0.251 C 
ATOM     31  H   UNL A   1      40.122  23.160  25.627  1.00  0.00     0.163 HD
ATOM     32  O   UNL A   1      42.135  24.427  26.193  1.00  0.00    -0.269 OA
BRANCH  30  33
ATOM     33  C   UNL A   1      40.797  25.791  27.562  1.00  0.00     0.039 A 
ATOM     34  C   UNL A   1      39.758  25.701  28.490  1.00  0.00     0.014 A 
ATOM     35  C   UNL A   1      41.656  26.892  27.562  1.00  0.00     0.014 A 
ATOM     36  C   UNL A   1      39.625  26.686  29.472  1.00  0.00     0.010 A 
ATOM     37  C   UNL A   1      41.567  27.831  28.583  1.00  0.00     0.010 A 
ATOM     38  C   UNL A   1      40.551  27.740  29.549  1.00  0.00    -0.014 A 
BRANCH  38  39
ATOM     39  C   UNL A   1      40.476  28.777  30.610  1.00  0.00     0.031 A 
ATOM     40  C   UNL A   1      41.364  28.662  31.818  1.00  0.00     0.074 A 
ATOM     41  C   UNL A   1      39.554  29.757  30.534  1.00  0.00     0.049 A 
ATOM     42  N   UNL A   1      41.349  29.358  32.925  1.00  0.00    -0.248 NA
ATOM     43  C   UNL A   1      42.379  27.597  31.792  1.00  0.00     0.031 C 
ATOM     44  C   UNL A   1      38.608  29.952  29.434  1.00  0.00     0.029 A 
ATOM     45  N   UNL A   1      39.247  30.764  31.416  1.00  0.00    -0.354 N 
ATOM     46  C   UNL A   1      42.326  28.795  33.737  1.00  0.00     0.074 A 
ATOM     47  C   UNL A   1      42.884  27.672  33.014  1.00  0.00     0.031 C 
ATOM     48  C   UNL A   1      37.837  31.019  29.700  1.00  0.00     0.029 A 
ATOM     49  C   UNL A   1      38.205  31.561  31.004  1.00  0.00     0.049 A 
ATOM     50  H   UNL A   1      39.729  30.903  32.263  1.00  0.00     0.167 HD
ATOM     51  C   UNL A   1      42.738  29.190  34.966  1.00  0.00     0.037 A 
ATOM     52  C   UNL A   1      37.607  32.603  31.616  1.00  0.00     0.037 A 
ATOM     53  C   UNL A   1      42.212  30.335  35.659  1.00  0.00     0.049 A 
ATOM     54  C   UNL A   1      38.100  33.043  32.968  1.00  0.00     0.074 A 
ATOM     55  C   UNL A   1      42.599  30.853  36.883  1.00  0.00     0.029 A 
ATOM     56  N   UNL A   1      41.196  31.150  35.183  1.00  0.00    -0.354 N 
ATOM     57  N   UNL A   1      39.050  32.522  33.706  1.00  0.00    -0.248 NA
ATOM     58  C   UNL A   1      37.444  34.212  33.569  1.00  0.00     0.031 C 
ATOM     59  C   UNL A   1      41.797  31.965  37.159  1.00  0.00     0.029 A 
ATOM     60  C   UNL A   1      40.938  32.163  36.089  1.00  0.00     0.049 A 
ATOM     61  H   UNL A   1      40.726  31.025  34.326  1.00  0.00     0.167 HD
ATOM     62  C   UNL A   1      39.130  33.319  34.843  1.00  0.00     0.074 A 
ATOM     63  C   UNL A   1      38.133  34.359  34.693  1.00  0.00     0.031 C 
ATOM     64  C   UNL A   1      39.957  33.204  35.911  1.00  0.00     0.037 A 
BRANCH  51  65
ATOM     65  C   UNL A   1      43.812  28.376  35.631  1.00  0.00     0.058 A 
ATOM     66  C   UNL A   1      45.175  28.654  35.432  1.00  0.00     0.135 A 
ATOM     67  C   UNL A   1      43.478  27.318  36.491  1.00  0.00     0.135 A 
ATOM     68  F   UNL A   1      45.549  29.645  34.607  1.00  0.00    -0.206 F 
ATOM     69  C   UNL A   1      46.167  27.888  36.031  1.00  0.00     0.059 A 
ATOM     70  C   UNL A   1      44.456  26.555  37.124  1.00  0.00     0.059 A 
ATOM     71  F   UNL A   1      42.191  27.010  36.716  1.00  0.00    -0.206 F 
ATOM     72  C   UNL A   1      45.798  26.838  36.873  1.00  0.00     0.060 A 
BRANCH  72  73
ATOM     73  S   UNL A   1      47.097  25.845  37.639  1.00  0.00     0.124 S 
ATOM     74  O   UNL A   1      47.393  24.888  36.577  1.00  0.00    -0.237 OA
ATOM     75  O   UNL A   1      48.135  26.837  37.902  1.00  0.00    -0.237 OA
ATOM     76  O   UNL A   1      46.449  25.291  38.822  1.00  0.00    -0.744 OA
ENDBRANCH  72  73
ENDBRANCH  51  65
BRANCH  52  77
ATOM     77  C   UNL A   1      36.491  33.320  30.943  1.00  0.00     0.058 A 
ATOM     78  C   UNL A   1      35.178  33.220  31.426  1.00  0.00     0.135 A 
ATOM     79  C   UNL A   1      36.713  34.126  29.815  1.00  0.00     0.135 A 
ATOM     80  F   UNL A   1      34.915  32.456  32.498  1.00  0.00    -0.206 F 
ATOM     81  C   UNL A   1      34.120  33.878  30.808  1.00  0.00     0.059 A 
ATOM     82  C   UNL A   1      35.674  34.812  29.193  1.00  0.00     0.059 A 
ATOM     83  F   UNL A   1      37.953  34.268  29.325  1.00  0.00    -0.206 F 
ATOM     84  C   UNL A   1      34.380  34.674  29.692  1.00  0.00     0.060 A 
BRANCH  84  85
ATOM     85  S   UNL A   1      33.008  35.565  28.925  1.00  0.00     0.124 S 
ATOM     86  O   UNL A   1      32.214  35.941  30.088  1.00  0.00    -0.237 OA
ATOM     87  O   UNL A   1      33.696  36.656  28.239  1.00  0.00    -0.237 OA
ATOM     88  O   UNL A   1      32.410  34.564  28.046  1.00  0.00    -0.744 OA
ENDBRANCH  84  85
ENDBRANCH  52  77
BRANCH  64  89
ATOM     89  C   UNL A   1      39.858  34.252  36.983  1.00  0.00     0.058 A 
ATOM     90  C   UNL A   1      40.537  35.475  36.885  1.00  0.00     0.135 A 
ATOM     91  C   UNL A   1      39.013  34.053  38.086  1.00  0.00     0.135 A 
ATOM     92  F   UNL A   1      41.362  35.709  35.852  1.00  0.00    -0.206 F 
ATOM     93  C   UNL A   1      40.390  36.463  37.851  1.00  0.00     0.059 A 
ATOM     94  C   UNL A   1      38.833  35.037  39.053  1.00  0.00     0.059 A 
ATOM     95  F   UNL A   1      38.334  32.902  38.220  1.00  0.00    -0.206 F 
ATOM     96  C   UNL A   1      39.533  36.237  38.930  1.00  0.00     0.060 A 
BRANCH  96  97
ATOM     97  S   UNL A   1      39.308  37.548  40.150  1.00  0.00     0.124 S 
ATOM     98  O   UNL A   1      38.927  36.786  41.334  1.00  0.00    -0.237 OA
ATOM     99  O   UNL A   1      40.630  38.167  40.194  1.00  0.00    -0.237 OA
ATOM    100  O   UNL A   1      38.256  38.376  39.569  1.00  0.00    -0.744 OA
ENDBRANCH  96  97
ENDBRANCH  64  89
ENDBRANCH  38  39
ENDBRANCH  30  33
ENDBRANCH  28  29
ENDBRANCH  27  28
ENDBRANCH   1  27
TORSDOF 19
ENDMDL
MODEL 2
REMARK VINA RESULT:     -11.8      6.485     11.795
REMARK SMILES CC1(C)CSC[C@H]([NH2+][C@H](C(=O)NCCCCCCNC(=O)c2ccc(-c3c4nc(c(-c5c(F)cc(S(=O)(=O)[O-])cc5F)c5ccc([nH]5)c(-c5c(F)cc(S(=O)(=O)[O-])cc5F)c5nc(c(-c6c(F)cc(S(=O)(=O)[O-])cc6F)c6ccc3[nH]6)C=C5)C=C4)cc2)c2ccccc2)C1
REMARK SMILES IDX 16 1 15 2 14 3 13 4 12 5 10 6 11 7 9 9 8 10 7 13 1 14 2 15
REMARK SMILES IDX 3 16 4 17 94 18 5 19 6 20 88 21 89 22 93 23 90 24 92 25
REMARK SMILES IDX 91 26 17 27 18 28 19 29 20 30 21 32 22 33 23 34 87 35 24 36
REMARK SMILES IDX 86 37 25 38 26 39 27 40 80 41 28 42 85 43 79 44 81 45 29 46
REMARK SMILES IDX 84 47 78 48 77 49 30 51 64 52 43 53 63 54 44 55 47 56 62 57
REMARK SMILES IDX 82 58 45 59 46 60 61 62 83 63 48 64 31 65 32 66 41 67 33 68
REMARK SMILES IDX 34 69 40 70 42 71 35 72 36 73 37 74 38 75 39 76 65 77 66 78
REMARK SMILES IDX 75 79 67 80 68 81 74 82 76 83 69 84 70 85 71 86 72 87 73 88
REMARK SMILES IDX 49 89 50 90 59 91 51 92 52 93 58 94 60 95 53 96 54 97 55 98
REMARK SMILES IDX 56 99 57 100
REMARK H PARENT 12 8 8 11 8 12 19 31 81 50 47 61
REMARK Flexibility Score: inf
ROOT
ATOM      1  C   UNL A   1      34.413  32.875  28.279  1.00  0.00     0.002 C 
ENDROOT
BRANCH   1   2
ATOM      2  C   UNL A   1      33.863  31.591  27.656  1.00  0.00     0.002 C 
BRANCH   2   3
ATOM      3  C   UNL A   1      34.866  30.437  27.513  1.00  0.00     0.021 C 
BRANCH   3   4
ATOM      4  C   UNL A   1      34.268  29.109  27.053  1.00  0.00     0.116 C 
BRANCH   4   5
ATOM      5  N   UNL A   1      33.004  28.841  27.707  1.00  0.00    -0.351 N 
ATOM      6  C   UNL A   1      32.041  27.923  27.404  1.00  0.00     0.283 C 
ATOM      7  O   UNL A   1      31.099  27.828  28.198  1.00  0.00    -0.268 OA
ATOM      8  H   UNL A   1      32.809  29.408  28.488  1.00  0.00     0.163 HD
BRANCH   6   9
ATOM      9  C   UNL A   1      32.156  27.074  26.118  1.00  0.00     0.304 C 
BRANCH   9  10
ATOM     10  N   UNL A   1      32.175  25.605  26.341  1.00  0.00    -0.329 N 
ATOM     11  H   UNL A   1      32.255  25.471  27.349  1.00  0.00     0.347 HD
ATOM     12  H   UNL A   1      31.323  25.308  25.865  1.00  0.00     0.347 HD
BRANCH  10  13
ATOM     13  C   UNL A   1      33.196  24.723  25.724  1.00  0.00     0.193 C 
ATOM     14  C   UNL A   1      35.018  23.563  23.320  1.00  0.00     0.012 C 
ATOM     15  C   UNL A   1      33.616  23.050  23.703  1.00  0.00    -0.021 C 
ATOM     16  C   UNL A   1      32.905  22.631  22.394  1.00  0.00     0.012 C 
ATOM     17  C   UNL A   1      33.691  21.828  24.630  1.00  0.00     0.076 C 
ATOM     18  C   UNL A   1      32.768  24.170  24.347  1.00  0.00     0.073 C 
ATOM     19  S   UNL A   1      34.489  22.215  26.213  1.00  0.00    -0.155 SA
ATOM     20  C   UNL A   1      33.394  23.566  26.743  1.00  0.00     0.134 C 
ENDBRANCH  10  13
ENDBRANCH   9  10
BRANCH   9  21
ATOM     21  C   UNL A   1      31.247  27.622  25.022  1.00  0.00     0.019 A 
ATOM     22  C   UNL A   1      30.180  26.799  24.591  1.00  0.00     0.010 A 
ATOM     23  C   UNL A   1      31.411  28.861  24.397  1.00  0.00     0.010 A 
ATOM     24  C   UNL A   1      29.338  27.178  23.549  1.00  0.00     0.001 A 
ATOM     25  C   UNL A   1      30.560  29.245  23.352  1.00  0.00     0.001 A 
ATOM     26  C   UNL A   1      29.532  28.403  22.924  1.00  0.00     0.000 A 
ENDBRANCH   9  21
ENDBRANCH   6   9
ENDBRANCH   4   5
ENDBRANCH   3   4
ENDBRANCH   2   3
ENDBRANCH   1   2
BRANCH   1  27
ATOM     27  C   UNL A   1      35.929  33.047  28.207  1.00  0.00     0.021 C 
BRANCH  27  28
ATOM     28  C   UNL A   1      36.653  33.018  29.548  1.00  0.00     0.116 C 
BRANCH  28  29
ATOM     29  N   UNL A   1      36.134  32.017  30.466  1.00  0.00    -0.352 N 
ATOM     30  C   UNL A   1      36.745  30.851  30.879  1.00  0.00     0.251 C 
ATOM     31  H   UNL A   1      35.240  32.193  30.837  1.00  0.00     0.163 HD
ATOM     32  O   UNL A   1      36.153  30.052  31.585  1.00  0.00    -0.269 OA
BRANCH  30  33
ATOM     33  C   UNL A   1      38.122  30.572  30.411  1.00  0.00     0.039 A 
ATOM     34  C   UNL A   1      39.160  30.527  31.344  1.00  0.00     0.014 A 
ATOM     35  C   UNL A   1      38.366  30.293  29.064  1.00  0.00     0.014 A 
ATOM     36  C   UNL A   1      40.435  30.128  30.937  1.00  0.00     0.010 A 
ATOM     37  C   UNL A   1      39.617  29.826  28.676  1.00  0.00     0.010 A 
ATOM     38  C   UNL A   1      40.665  29.739  29.606  1.00  0.00    -0.014 A 
BRANCH  38  39
ATOM     39  C   UNL A   1      41.993  29.258  29.147  1.00  0.00     0.031 A 
ATOM     40  C   UNL A   1      43.131  30.235  29.027  1.00  0.00     0.074 A 
ATOM     41  C   UNL A   1      42.151  27.979  28.752  1.00  0.00     0.049 A 
ATOM     42  N   UNL A   1      44.315  30.065  28.499  1.00  0.00    -0.248 NA
ATOM     43  C   UNL A   1      42.888  31.596  29.533  1.00  0.00     0.031 C 
ATOM     44  C   UNL A   1      41.115  26.946  28.782  1.00  0.00     0.029 A 
ATOM     45  N   UNL A   1      43.244  27.336  28.225  1.00  0.00    -0.354 N 
ATOM     46  C   UNL A   1      44.944  31.302  28.581  1.00  0.00     0.074 A 
ATOM     47  C   UNL A   1      43.995  32.223  29.166  1.00  0.00     0.031 C 
ATOM     48  C   UNL A   1      41.624  25.797  28.308  1.00  0.00     0.029 A 
ATOM     49  C   UNL A   1      43.009  26.019  27.904  1.00  0.00     0.049 A 
ATOM     50  H   UNL A   1      44.114  27.776  28.090  1.00  0.00     0.167 HD
ATOM     51  C   UNL A   1      46.206  31.636  28.219  1.00  0.00     0.037 A 
ATOM     52  C   UNL A   1      43.816  25.101  27.337  1.00  0.00     0.037 A 
ATOM     53  C   UNL A   1      47.161  30.704  27.681  1.00  0.00     0.049 A 
ATOM     54  C   UNL A   1      45.224  25.485  26.971  1.00  0.00     0.074 A 
ATOM     55  C   UNL A   1      48.482  30.927  27.335  1.00  0.00     0.029 A 
ATOM     56  N   UNL A   1      46.901  29.366  27.424  1.00  0.00    -0.354 N 
ATOM     57  N   UNL A   1      45.816  26.650  27.089  1.00  0.00    -0.248 NA
ATOM     58  C   UNL A   1      46.076  24.434  26.400  1.00  0.00     0.031 C 
ATOM     59  C   UNL A   1      49.013  29.731  26.843  1.00  0.00     0.029 A 
ATOM     60  C   UNL A   1      48.034  28.753  26.920  1.00  0.00     0.049 A 
ATOM     61  H   UNL A   1      46.037  28.918  27.577  1.00  0.00     0.167 HD
ATOM     62  C   UNL A   1      47.118  26.463  26.638  1.00  0.00     0.074 A 
ATOM     63  C   UNL A   1      47.229  25.073  26.248  1.00  0.00     0.031 C 
ATOM     64  C   UNL A   1      48.131  27.360  26.559  1.00  0.00     0.037 A 
BRANCH  51  65
ATOM     65  C   UNL A   1      46.624  33.068  28.402  1.00  0.00     0.058 A 
ATOM     66  C   UNL A   1      46.460  34.018  27.381  1.00  0.00     0.135 A 
ATOM     67  C   UNL A   1      47.179  33.500  29.617  1.00  0.00     0.135 A 
ATOM     68  F   UNL A   1      45.948  33.654  26.194  1.00  0.00    -0.206 F 
ATOM     69  C   UNL A   1      46.866  35.337  27.544  1.00  0.00     0.059 A 
ATOM     70  C   UNL A   1      47.567  34.823  29.812  1.00  0.00     0.059 A 
ATOM     71  F   UNL A   1      47.359  32.633  30.625  1.00  0.00    -0.206 F 
ATOM     72  C   UNL A   1      47.422  35.730  28.762  1.00  0.00     0.060 A 
BRANCH  72  73
ATOM     73  S   UNL A   1      47.953  37.444  28.958  1.00  0.00     0.124 S 
ATOM     74  O   UNL A   1      47.012  38.140  28.084  1.00  0.00    -0.237 OA
ATOM     75  O   UNL A   1      47.770  37.668  30.388  1.00  0.00    -0.237 OA
ATOM     76  O   UNL A   1      49.338  37.425  28.502  1.00  0.00    -0.744 OA
ENDBRANCH  72  73
ENDBRANCH  51  65
BRANCH  52  77
ATOM     77  C   UNL A   1      43.321  23.718  27.105  1.00  0.00     0.058 A 
ATOM     78  C   UNL A   1      42.985  23.283  25.814  1.00  0.00     0.135 A 
ATOM     79  C   UNL A   1      43.184  22.802  28.159  1.00  0.00     0.135 A 
ATOM     80  F   UNL A   1      43.094  24.125  24.774  1.00  0.00    -0.206 F 
ATOM     81  C   UNL A   1      42.516  21.995  25.576  1.00  0.00     0.059 A 
ATOM     82  C   UNL A   1      42.737  21.502  27.943  1.00  0.00     0.059 A 
ATOM     83  F   UNL A   1      43.508  23.164  29.410  1.00  0.00    -0.206 F 
ATOM     84  C   UNL A   1      42.397  21.111  26.649  1.00  0.00     0.060 A 
BRANCH  84  85
ATOM     85  S   UNL A   1      41.832  19.426  26.325  1.00  0.00     0.124 S 
ATOM     86  O   UNL A   1      40.386  19.602  26.286  1.00  0.00    -0.237 OA
ATOM     87  O   UNL A   1      42.476  19.127  25.048  1.00  0.00    -0.237 OA
ATOM     88  O   UNL A   1      42.348  18.676  27.466  1.00  0.00    -0.744 OA
ENDBRANCH  84  85
ENDBRANCH  52  77
BRANCH  64  89
ATOM     89  C   UNL A   1      49.464  26.863  26.079  1.00  0.00     0.058 A 
ATOM     90  C   UNL A   1      49.858  26.979  24.738  1.00  0.00     0.135 A 
ATOM     91  C   UNL A   1      50.388  26.330  26.994  1.00  0.00     0.135 A 
ATOM     92  F   UNL A   1      49.007  27.475  23.826  1.00  0.00    -0.206 F 
ATOM     93  C   UNL A   1      51.119  26.572  24.316  1.00  0.00     0.059 A 
ATOM     94  C   UNL A   1      51.663  25.938  26.597  1.00  0.00     0.059 A 
ATOM     95  F   UNL A   1      50.063  26.207  28.290  1.00  0.00    -0.206 F 
ATOM     96  C   UNL A   1      52.016  26.056  25.253  1.00  0.00     0.060 A 
BRANCH  96  97
ATOM     97  S   UNL A   1      53.668  25.582  24.703  1.00  0.00     0.124 S 
ATOM     98  O   UNL A   1      54.504  26.174  25.742  1.00  0.00    -0.237 OA
ATOM     99  O   UNL A   1      53.594  24.123  24.704  1.00  0.00    -0.237 OA
ATOM    100  O   UNL A   1      53.776  26.196  23.383  1.00  0.00    -0.744 OA
ENDBRANCH  96  97
ENDBRANCH  64  89
ENDBRANCH  38  39
ENDBRANCH  30  33
ENDBRANCH  28  29
ENDBRANCH  27  28
ENDBRANCH   1  27
TORSDOF 19
ENDMDL
MODEL 3
REMARK VINA RESULT:     -11.7      6.327     11.648
REMARK SMILES CC1(C)CSC[C@H]([NH2+][C@H](C(=O)NCCCCCCNC(=O)c2ccc(-c3c4nc(c(-c5c(F)cc(S(=O)(=O)[O-])cc5F)c5ccc([nH]5)c(-c5c(F)cc(S(=O)(=O)[O-])cc5F)c5nc(c(-c6c(F)cc(S(=O)(=O)[O-])cc6F)c6ccc3[nH]6)C=C5)C=C4)cc2)c2ccccc2)C1
REMARK SMILES IDX 16 1 15 2 14 3 13 4 12 5 10 6 11 7 9 9 8 10 7 13 1 14 2 15
REMARK SMILES IDX 3 16 4 17 94 18 5 19 6 20 88 21 89 22 93 23 90 24 92 25
REMARK SMILES IDX 91 26 17 27 18 28 19 29 20 30 21 32 22 33 23 34 87 35 24 36
REMARK SMILES IDX 86 37 25 38 26 39 27 40 80 41 28 42 85 43 79 44 81 45 29 46
REMARK SMILES IDX 84 47 78 48 77 49 30 51 64 52 43 53 63 54 44 55 47 56 62 57
REMARK SMILES IDX 82 58 45 59 46 60 61 62 83 63 48 64 31 65 32 66 41 67 33 68
REMARK SMILES IDX 34 69 40 70 42 71 35 72 36 73 37 74 38 75 39 76 65 77 66 78
REMARK SMILES IDX 75 79 67 80 68 81 74 82 76 83 69 84 70 85 71 86 72 87 73 88
REMARK SMILES IDX 49 89 50 90 59 91 51 92 52 93 58 94 60 95 53 96 54 97 55 98
REMARK SMILES IDX 56 99 57 100
REMARK H PARENT 12 8 8 11 8 12 19 31 81 50 47 61
REMARK Flexibility Score: inf
ROOT
ATOM      1  C   UNL A   1      33.522  29.862  27.315  1.00  0.00     0.002 C 
ENDROOT
BRANCH   1   2
ATOM      2  C   UNL A   1      32.895  28.470  27.218  1.00  0.00     0.002 C 
BRANCH   2   3
ATOM      3  C   UNL A   1      33.480  27.548  26.137  1.00  0.00     0.021 C 
BRANCH   3   4
ATOM      4  C   UNL A   1      33.028  26.092  26.211  1.00  0.00     0.116 C 
BRANCH   4   5
ATOM      5  N   UNL A   1      31.674  25.981  26.713  1.00  0.00    -0.351 N 
ATOM      6  C   UNL A   1      30.507  25.769  26.038  1.00  0.00     0.283 C 
ATOM      7  O   UNL A   1      29.494  25.604  26.725  1.00  0.00    -0.268 OA
ATOM      8  H   UNL A   1      31.581  26.073  27.688  1.00  0.00     0.163 HD
BRANCH   6   9
ATOM      9  C   UNL A   1      30.496  25.753  24.493  1.00  0.00     0.304 C 
BRANCH   9  10
ATOM     10  N   UNL A   1      30.113  24.453  23.885  1.00  0.00    -0.329 N 
ATOM     11  H   UNL A   1      29.503  23.992  24.561  1.00  0.00     0.347 HD
ATOM     12  H   UNL A   1      29.730  24.744  22.986  1.00  0.00     0.347 HD
BRANCH  10  13
ATOM     13  C   UNL A   1      31.119  23.441  23.478  1.00  0.00     0.193 C 
ATOM     14  C   UNL A   1      32.432  20.492  23.327  1.00  0.00     0.012 C 
ATOM     15  C   UNL A   1      32.721  21.542  24.418  1.00  0.00    -0.021 C 
ATOM     16  C   UNL A   1      32.940  20.778  25.745  1.00  0.00     0.012 C 
ATOM     17  C   UNL A   1      33.989  22.351  24.107  1.00  0.00     0.076 C 
ATOM     18  C   UNL A   1      31.513  22.482  24.622  1.00  0.00     0.073 C 
ATOM     19  S   UNL A   1      33.833  23.310  22.574  1.00  0.00    -0.155 SA
ATOM     20  C   UNL A   1      32.348  24.266  23.005  1.00  0.00     0.134 C 
ENDBRANCH  10  13
ENDBRANCH   9  10
BRANCH   9  21
ATOM     21  C   UNL A   1      29.851  27.021  23.941  1.00  0.00     0.019 A 
ATOM     22  C   UNL A   1      30.652  28.185  23.884  1.00  0.00     0.010 A 
ATOM     23  C   UNL A   1      28.522  27.120  23.518  1.00  0.00     0.010 A 
ATOM     24  C   UNL A   1      30.137  29.409  23.462  1.00  0.00     0.001 A 
ATOM     25  C   UNL A   1      28.005  28.349  23.089  1.00  0.00     0.001 A 
ATOM     26  C   UNL A   1      28.808  29.492  23.069  1.00  0.00     0.000 A 
ENDBRANCH   9  21
ENDBRANCH   6   9
ENDBRANCH   4   5
ENDBRANCH   3   4
ENDBRANCH   2   3
ENDBRANCH   1   2
BRANCH   1  27
ATOM     27  C   UNL A   1      35.049  29.902  27.279  1.00  0.00     0.021 C 
BRANCH  27  28
ATOM     28  C   UNL A   1      35.683  31.124  27.932  1.00  0.00     0.116 C 
BRANCH  28  29
ATOM     29  N   UNL A   1      35.494  31.178  29.372  1.00  0.00    -0.352 N 
ATOM     30  C   UNL A   1      36.334  30.695  30.355  1.00  0.00     0.251 C 
ATOM     31  H   UNL A   1      34.667  31.612  29.684  1.00  0.00     0.163 HD
ATOM     32  O   UNL A   1      36.005  30.726  31.527  1.00  0.00    -0.269 OA
BRANCH  30  33
ATOM     33  C   UNL A   1      37.627  30.101  29.946  1.00  0.00     0.039 A 
ATOM     34  C   UNL A   1      38.010  30.165  28.605  1.00  0.00     0.014 A 
ATOM     35  C   UNL A   1      38.480  29.543  30.902  1.00  0.00     0.014 A 
ATOM     36  C   UNL A   1      39.286  29.734  28.232  1.00  0.00     0.010 A 
ATOM     37  C   UNL A   1      39.774  29.184  30.540  1.00  0.00     0.010 A 
ATOM     38  C   UNL A   1      40.191  29.275  29.203  1.00  0.00    -0.014 A 
BRANCH  38  39
ATOM     39  C   UNL A   1      41.574  28.859  28.853  1.00  0.00     0.031 A 
ATOM     40  C   UNL A   1      42.667  29.893  28.810  1.00  0.00     0.074 A 
ATOM     41  C   UNL A   1      41.827  27.588  28.486  1.00  0.00     0.049 A 
ATOM     42  N   UNL A   1      43.895  29.780  28.378  1.00  0.00    -0.248 NA
ATOM     43  C   UNL A   1      42.316  31.243  29.280  1.00  0.00     0.031 C 
ATOM     44  C   UNL A   1      40.845  26.503  28.448  1.00  0.00     0.029 A 
ATOM     45  N   UNL A   1      42.988  26.997  28.054  1.00  0.00    -0.354 N 
ATOM     46  C   UNL A   1      44.453  31.048  28.494  1.00  0.00     0.074 A 
ATOM     47  C   UNL A   1      43.415  31.924  28.993  1.00  0.00     0.031 C 
ATOM     48  C   UNL A   1      41.447  25.378  28.029  1.00  0.00     0.029 A 
ATOM     49  C   UNL A   1      42.846  25.668  27.732  1.00  0.00     0.049 A 
ATOM     50  H   UNL A   1      43.843  27.480  27.982  1.00  0.00     0.167 HD
ATOM     51  C   UNL A   1      45.721  31.443  28.228  1.00  0.00     0.037 A 
ATOM     52  C   UNL A   1      43.741  24.787  27.239  1.00  0.00     0.037 A 
ATOM     53  C   UNL A   1      46.761  30.557  27.776  1.00  0.00     0.049 A 
ATOM     54  C   UNL A   1      45.152  25.241  26.979  1.00  0.00     0.074 A 
ATOM     55  C   UNL A   1      48.092  30.845  27.532  1.00  0.00     0.029 A 
ATOM     56  N   UNL A   1      46.589  29.206  27.516  1.00  0.00    -0.354 N 
ATOM     57  N   UNL A   1      45.673  26.435  27.129  1.00  0.00    -0.248 NA
ATOM     58  C   UNL A   1      46.098  24.230  26.489  1.00  0.00     0.031 C 
ATOM     59  C   UNL A   1      48.720  29.674  27.096  1.00  0.00     0.029 A 
ATOM     60  C   UNL A   1      47.789  28.647  27.108  1.00  0.00     0.049 A 
ATOM     61  H   UNL A   1      45.740  28.716  27.606  1.00  0.00     0.167 HD
ATOM     62  C   UNL A   1      47.014  26.312  26.783  1.00  0.00     0.074 A 
ATOM     63  C   UNL A   1      47.225  24.926  26.419  1.00  0.00     0.031 C 
ATOM     64  C   UNL A   1      47.983  27.259  26.773  1.00  0.00     0.037 A 
BRANCH  51  65
ATOM     65  C   UNL A   1      46.050  32.896  28.426  1.00  0.00     0.058 A 
ATOM     66  C   UNL A   1      46.505  33.386  29.661  1.00  0.00     0.135 A 
ATOM     67  C   UNL A   1      45.925  33.807  27.365  1.00  0.00     0.135 A 
ATOM     68  F   UNL A   1      46.626  32.560  30.713  1.00  0.00    -0.206 F 
ATOM     69  C   UNL A   1      46.788  34.734  29.848  1.00  0.00     0.059 A 
ATOM     70  C   UNL A   1      46.230  35.157  27.522  1.00  0.00     0.059 A 
ATOM     71  F   UNL A   1      45.494  33.392  26.163  1.00  0.00    -0.206 F 
ATOM     72  C   UNL A   1      46.644  35.612  28.773  1.00  0.00     0.060 A 
BRANCH  72  73
ATOM     73  S   UNL A   1      47.008  37.362  29.033  1.00  0.00     0.124 S 
ATOM     74  O   UNL A   1      48.362  37.298  29.576  1.00  0.00    -0.237 OA
ATOM     75  O   UNL A   1      46.894  37.909  27.684  1.00  0.00    -0.237 OA
ATOM     76  O   UNL A   1      45.974  37.788  29.969  1.00  0.00    -0.744 OA
ENDBRANCH  72  73
ENDBRANCH  51  65
BRANCH  52  77
ATOM     77  C   UNL A   1      43.336  23.379  26.985  1.00  0.00     0.058 A 
ATOM     78  C   UNL A   1      43.141  22.913  25.677  1.00  0.00     0.135 A 
ATOM     79  C   UNL A   1      43.146  22.470  28.038  1.00  0.00     0.135 A 
ATOM     80  F   UNL A   1      43.305  23.746  24.637  1.00  0.00    -0.206 F 
ATOM     81  C   UNL A   1      42.758  21.601  25.418  1.00  0.00     0.059 A 
ATOM     82  C   UNL A   1      42.784  21.147  27.804  1.00  0.00     0.059 A 
ATOM     83  F   UNL A   1      43.336  22.863  29.307  1.00  0.00    -0.206 F 
ATOM     84  C   UNL A   1      42.583  20.725  26.490  1.00  0.00     0.060 A 
BRANCH  84  85
ATOM     85  S   UNL A   1      42.132  19.010  26.144  1.00  0.00     0.124 S 
ATOM     86  O   UNL A   1      40.727  19.143  25.780  1.00  0.00    -0.237 OA
ATOM     87  O   UNL A   1      43.045  18.666  25.057  1.00  0.00    -0.237 OA
ATOM     88  O   UNL A   1      42.397  18.333  27.410  1.00  0.00    -0.744 OA
ENDBRANCH  84  85
ENDBRANCH  52  77
BRANCH  64  89
ATOM     89  C   UNL A   1      49.374  26.827  26.403  1.00  0.00     0.058 A 
ATOM     90  C   UNL A   1      50.224  26.203  27.328  1.00  0.00     0.135 A 
ATOM     91  C   UNL A   1      49.830  26.974  25.083  1.00  0.00     0.135 A 
ATOM     92  F   UNL A   1      49.836  26.045  28.603  1.00  0.00    -0.206 F 
ATOM     93  C   UNL A   1      51.486  25.750  26.959  1.00  0.00     0.059 A 
ATOM     94  C   UNL A   1      51.079  26.508  24.687  1.00  0.00     0.059 A 
ATOM     95  F   UNL A   1      49.050  27.557  24.159  1.00  0.00    -0.206 F 
ATOM     96  C   UNL A   1      51.903  25.903  25.636  1.00  0.00     0.060 A 
BRANCH  96  97
ATOM     97  S   UNL A   1      53.521  25.262  25.157  1.00  0.00     0.124 S 
ATOM     98  O   UNL A   1      53.577  25.632  23.747  1.00  0.00    -0.237 OA
ATOM     99  O   UNL A   1      54.424  25.995  26.040  1.00  0.00    -0.237 OA
ATOM    100  O   UNL A   1      53.414  23.832  25.428  1.00  0.00    -0.744 OA
ENDBRANCH  96  97
ENDBRANCH  64  89
ENDBRANCH  38  39
ENDBRANCH  30  33
ENDBRANCH  28  29
ENDBRANCH  27  28
ENDBRANCH   1  27
TORSDOF 19
ENDMDL
