MODEL 1
REMARK VINA RESULT:     -11.2      0.000      0.000
REMARK SMILES C/C(=N\O)[C@@H]1C[C@@H](CC(=O)NCCCCCCNC(=O)c2ccc(-c3c4nc(c(-c5c(F)cc(S(=O)(=O)[O-])cc5F)c5ccc([nH]5)c(-c5c(F)cc(S(=O)(=O)[O-])cc5F)c5nc(c(-c6c(F)cc(S(=O)(=O)[O-])cc6F)c6ccc3[nH]6)C=C5)C=C4)cc2)C1(C)C
REMARK SMILES IDX 14 1 13 2 12 3 11 4 9 5 10 6 8 8 7 9 5 10 6 11 87 12 88 13
REMARK SMILES IDX 89 14 2 15 1 16 3 17 4 18 15 20 16 21 17 22 18 23 19 24
REMARK SMILES IDX 20 26 21 27 22 28 86 29 23 30 85 31 24 32 25 33 26 34 79 35
REMARK SMILES IDX 27 36 84 37 78 38 80 39 28 40 83 41 77 42 76 43 29 45 63 46
REMARK SMILES IDX 42 47 62 48 43 49 46 50 61 51 81 52 44 53 45 54 60 56 82 57
REMARK SMILES IDX 47 58 30 59 31 60 40 61 32 62 33 63 39 64 41 65 34 66 35 67
REMARK SMILES IDX 36 68 37 69 38 70 64 71 65 72 74 73 66 74 67 75 73 76 75 77
REMARK SMILES IDX 68 78 69 79 70 80 71 81 72 82 48 83 49 84 58 85 50 86 51 87
REMARK SMILES IDX 57 88 59 89 52 90 53 91 54 92 55 93 56 94
REMARK H PARENT 11 7 4 19 18 25 80 44 46 55
REMARK Flexibility Score: inf
ROOT
ATOM      1  C   UNL A   1      35.493  23.012  24.078  1.00  0.00     0.002 C 
ENDROOT
BRANCH   1   2
ATOM      2  C   UNL A   1      34.376  24.018  24.350  1.00  0.00     0.021 C 
BRANCH   2   3
ATOM      3  C   UNL A   1      34.109  24.286  25.833  1.00  0.00     0.116 C 
BRANCH   3   4
ATOM      4  N   UNL A   1      32.685  24.290  26.104  1.00  0.00    -0.356 N 
ATOM      5  C   UNL A   1      31.780  25.305  26.061  1.00  0.00     0.220 C 
ATOM      6  O   UNL A   1      30.629  25.067  26.437  1.00  0.00    -0.275 OA
ATOM      7  H   UNL A   1      32.311  23.416  26.359  1.00  0.00     0.163 HD
BRANCH   5   8
ATOM      8  C   UNL A   1      32.162  26.685  25.561  1.00  0.00     0.104 C 
BRANCH   8   9
ATOM      9  C   UNL A   1      31.047  27.413  24.807  1.00  0.00     0.005 C 
ATOM     10  C   UNL A   1      30.416  28.127  22.841  1.00  0.00     0.043 C 
ATOM     11  C   UNL A   1      30.578  26.737  23.497  1.00  0.00     0.015 C 
ATOM     12  C   UNL A   1      31.342  28.716  23.968  1.00  0.00    -0.024 C 
ATOM     13  C   UNL A   1      32.740  28.944  23.386  1.00  0.00     0.012 C 
ATOM     14  C   UNL A   1      30.841  29.963  24.702  1.00  0.00     0.012 C 
BRANCH  10  15
ATOM     15  C   UNL A   1      28.999  28.772  22.667  1.00  0.00     0.058 C 
ATOM     16  C   UNL A   1      28.947  30.077  21.901  1.00  0.00     0.066 C 
ATOM     17  N   UNL A   1      27.981  28.201  23.241  1.00  0.00    -0.099 NA
BRANCH  17  18
ATOM     18  O   UNL A   1      26.814  28.955  23.096  1.00  0.00    -0.411 OA
ATOM     19  H   UNL A   1      26.511  29.491  23.803  1.00  0.00     0.330 HD
ENDBRANCH  17  18
ENDBRANCH  10  15
ENDBRANCH   8   9
ENDBRANCH   5   8
ENDBRANCH   3   4
ENDBRANCH   2   3
ENDBRANCH   1   2
BRANCH   1  20
ATOM     20  C   UNL A   1      36.900  23.491  24.438  1.00  0.00     0.002 C 
BRANCH  20  21
ATOM     21  C   UNL A   1      37.411  23.089  25.826  1.00  0.00     0.021 C 
BRANCH  21  22
ATOM     22  C   UNL A   1      38.289  24.122  26.533  1.00  0.00     0.116 C 
BRANCH  22  23
ATOM     23  N   UNL A   1      39.695  23.977  26.197  1.00  0.00    -0.352 N 
ATOM     24  C   UNL A   1      40.774  24.749  26.548  1.00  0.00     0.251 C 
ATOM     25  H   UNL A   1      39.908  23.203  25.627  1.00  0.00     0.163 HD
ATOM     26  O   UNL A   1      41.855  24.569  25.995  1.00  0.00    -0.269 OA
BRANCH  24  27
ATOM     27  C   UNL A   1      40.637  25.804  27.576  1.00  0.00     0.039 A 
ATOM     28  C   UNL A   1      39.661  25.657  28.566  1.00  0.00     0.014 A 
ATOM     29  C   UNL A   1      41.440  26.947  27.549  1.00  0.00     0.014 A 
ATOM     30  C   UNL A   1      39.531  26.627  29.562  1.00  0.00     0.010 A 
ATOM     31  C   UNL A   1      41.353  27.882  28.579  1.00  0.00     0.010 A 
ATOM     32  C   UNL A   1      40.397  27.733  29.595  1.00  0.00    -0.014 A 
BRANCH  32  33
ATOM     33  C   UNL A   1      40.316  28.741  30.684  1.00  0.00     0.031 A 
ATOM     34  C   UNL A   1      41.195  28.615  31.899  1.00  0.00     0.074 A 
ATOM     35  C   UNL A   1      39.410  29.736  30.605  1.00  0.00     0.049 A 
ATOM     36  N   UNL A   1      41.216  29.348  32.982  1.00  0.00    -0.248 NA
ATOM     37  C   UNL A   1      42.160  27.504  31.907  1.00  0.00     0.031 C 
ATOM     38  C   UNL A   1      38.475  29.942  29.496  1.00  0.00     0.029 A 
ATOM     39  N   UNL A   1      39.117  30.754  31.476  1.00  0.00    -0.354 N 
ATOM     40  C   UNL A   1      42.187  28.786  33.803  1.00  0.00     0.074 A 
ATOM     41  C   UNL A   1      42.695  27.618  33.115  1.00  0.00     0.031 C 
ATOM     42  C   UNL A   1      37.727  31.029  29.746  1.00  0.00     0.029 A 
ATOM     43  C   UNL A   1      38.102  31.576  31.047  1.00  0.00     0.049 A 
ATOM     44  H   UNL A   1      39.591  30.885  32.330  1.00  0.00     0.167 HD
ATOM     45  C   UNL A   1      42.632  29.215  35.009  1.00  0.00     0.037 A 
ATOM     46  C   UNL A   1      37.529  32.643  31.638  1.00  0.00     0.037 A 
ATOM     47  C   UNL A   1      42.136  30.390  35.679  1.00  0.00     0.049 A 
ATOM     48  C   UNL A   1      38.032  33.094  32.982  1.00  0.00     0.074 A 
ATOM     49  C   UNL A   1      42.550  30.932  36.884  1.00  0.00     0.029 A 
ATOM     50  N   UNL A   1      41.120  31.205  35.203  1.00  0.00    -0.354 N 
ATOM     51  N   UNL A   1      38.985  32.578  33.721  1.00  0.00    -0.248 NA
ATOM     52  C   UNL A   1      37.387  34.276  33.571  1.00  0.00     0.031 C 
ATOM     53  C   UNL A   1      41.758  32.053  37.154  1.00  0.00     0.029 A 
ATOM     54  C   UNL A   1      40.881  32.237  36.096  1.00  0.00     0.049 A 
ATOM     55  H   UNL A   1      40.638  31.070  34.355  1.00  0.00     0.167 HD
ATOM     56  C   UNL A   1      39.074  33.388  34.848  1.00  0.00     0.074 A 
ATOM     57  C   UNL A   1      38.085  34.435  34.688  1.00  0.00     0.031 C 
ATOM     58  C   UNL A   1      39.900  33.277  35.917  1.00  0.00     0.037 A 
BRANCH  45  59
ATOM     59  C   UNL A   1      43.714  28.413  35.677  1.00  0.00     0.058 A 
ATOM     60  C   UNL A   1      45.073  28.654  35.418  1.00  0.00     0.135 A 
ATOM     61  C   UNL A   1      43.394  27.416  36.613  1.00  0.00     0.135 A 
ATOM     62  F   UNL A   1      45.436  29.586  34.521  1.00  0.00    -0.206 F 
ATOM     63  C   UNL A   1      46.076  27.914  36.037  1.00  0.00     0.059 A 
ATOM     64  C   UNL A   1      44.382  26.682  37.265  1.00  0.00     0.059 A 
ATOM     65  F   UNL A   1      42.112  27.145  36.901  1.00  0.00    -0.206 F 
ATOM     66  C   UNL A   1      45.719  26.928  36.958  1.00  0.00     0.060 A 
BRANCH  66  67
ATOM     67  S   UNL A   1      47.031  25.977  37.753  1.00  0.00     0.124 S 
ATOM     68  O   UNL A   1      48.158  26.898  37.654  1.00  0.00    -0.237 OA
ATOM     69  O   UNL A   1      46.499  25.769  39.096  1.00  0.00    -0.237 OA
ATOM     70  O   UNL A   1      47.128  24.776  36.928  1.00  0.00    -0.744 OA
ENDBRANCH  66  67
ENDBRANCH  45  59
BRANCH  46  71
ATOM     71  C   UNL A   1      36.429  33.372  30.953  1.00  0.00     0.058 A 
ATOM     72  C   UNL A   1      35.104  33.267  31.405  1.00  0.00     0.135 A 
ATOM     73  C   UNL A   1      36.677  34.191  29.840  1.00  0.00     0.135 A 
ATOM     74  F   UNL A   1      34.817  32.493  32.462  1.00  0.00    -0.206 F 
ATOM     75  C   UNL A   1      34.061  33.930  30.765  1.00  0.00     0.059 A 
ATOM     76  C   UNL A   1      35.655  34.884  29.199  1.00  0.00     0.059 A 
ATOM     77  F   UNL A   1      37.929  34.339  29.379  1.00  0.00    -0.206 F 
ATOM     78  C   UNL A   1      34.347  34.737  29.662  1.00  0.00     0.060 A 
BRANCH  78  79
ATOM     79  S   UNL A   1      32.993  35.625  28.863  1.00  0.00     0.124 S 
ATOM     80  O   UNL A   1      33.715  36.643  28.110  1.00  0.00    -0.237 OA
ATOM     81  O   UNL A   1      32.360  34.573  28.073  1.00  0.00    -0.237 OA
ATOM     82  O   UNL A   1      32.203  36.112  29.990  1.00  0.00    -0.744 OA
ENDBRANCH  78  79
ENDBRANCH  46  71
BRANCH  58  83
ATOM     83  C   UNL A   1      39.801  34.335  36.981  1.00  0.00     0.058 A 
ATOM     84  C   UNL A   1      40.466  35.564  36.864  1.00  0.00     0.135 A 
ATOM     85  C   UNL A   1      38.987  34.132  38.108  1.00  0.00     0.135 A 
ATOM     86  F   UNL A   1      41.262  35.805  35.810  1.00  0.00    -0.206 F 
ATOM     87  C   UNL A   1      40.346  36.550  37.839  1.00  0.00     0.059 A 
ATOM     88  C   UNL A   1      38.833  35.114  39.081  1.00  0.00     0.059 A 
ATOM     89  F   UNL A   1      38.322  32.976  38.264  1.00  0.00    -0.206 F 
ATOM     90  C   UNL A   1      39.525  36.316  38.944  1.00  0.00     0.060 A 
BRANCH  90  91
ATOM     91  S   UNL A   1      39.348  37.617  40.183  1.00  0.00     0.124 S 
ATOM     92  O   UNL A   1      38.278  38.425  39.609  1.00  0.00    -0.237 OA
ATOM     93  O   UNL A   1      38.998  36.861  41.382  1.00  0.00    -0.237 OA
ATOM     94  O   UNL A   1      40.666  38.244  40.208  1.00  0.00    -0.744 OA
ENDBRANCH  90  91
ENDBRANCH  58  83
ENDBRANCH  32  33
ENDBRANCH  24  27
ENDBRANCH  22  23
ENDBRANCH  21  22
ENDBRANCH  20  21
ENDBRANCH   1  20
TORSDOF 19
ENDMDL
MODEL 2
REMARK VINA RESULT:     -11.0      6.718     12.336
REMARK SMILES C/C(=N\O)[C@@H]1C[C@@H](CC(=O)NCCCCCCNC(=O)c2ccc(-c3c4nc(c(-c5c(F)cc(S(=O)(=O)[O-])cc5F)c5ccc([nH]5)c(-c5c(F)cc(S(=O)(=O)[O-])cc5F)c5nc(c(-c6c(F)cc(S(=O)(=O)[O-])cc6F)c6ccc3[nH]6)C=C5)C=C4)cc2)C1(C)C
REMARK SMILES IDX 14 1 13 2 12 3 11 4 9 5 10 6 8 8 7 9 5 10 6 11 87 12 88 13
REMARK SMILES IDX 89 14 2 15 1 16 3 17 4 18 15 20 16 21 17 22 18 23 19 24
REMARK SMILES IDX 20 26 21 27 22 28 86 29 23 30 85 31 24 32 25 33 26 34 79 35
REMARK SMILES IDX 27 36 84 37 78 38 80 39 28 40 83 41 77 42 76 43 29 45 63 46
REMARK SMILES IDX 42 47 62 48 43 49 46 50 61 51 81 52 44 53 45 54 60 56 82 57
REMARK SMILES IDX 47 58 30 59 31 60 40 61 32 62 33 63 39 64 41 65 34 66 35 67
REMARK SMILES IDX 36 68 37 69 38 70 64 71 65 72 74 73 66 74 67 75 73 76 75 77
REMARK SMILES IDX 68 78 69 79 70 80 71 81 72 82 48 83 49 84 58 85 50 86 51 87
REMARK SMILES IDX 57 88 59 89 52 90 53 91 54 92 55 93 56 94
REMARK H PARENT 11 7 4 19 18 25 80 44 46 55
REMARK Flexibility Score: inf
ROOT
ATOM      1  C   UNL A   1      32.462  28.277  26.510  1.00  0.00     0.002 C 
ENDROOT
BRANCH   1   2
ATOM      2  C   UNL A   1      32.335  26.903  25.855  1.00  0.00     0.021 C 
BRANCH   2   3
ATOM      3  C   UNL A   1      30.894  26.450  25.605  1.00  0.00     0.116 C 
BRANCH   3   4
ATOM      4  N   UNL A   1      30.513  25.417  26.548  1.00  0.00    -0.356 N 
ATOM      5  C   UNL A   1      30.553  24.061  26.439  1.00  0.00     0.220 C 
ATOM      6  O   UNL A   1      30.072  23.394  27.359  1.00  0.00    -0.275 OA
ATOM      7  H   UNL A   1      30.171  25.750  27.409  1.00  0.00     0.163 HD
BRANCH   5   8
ATOM      8  C   UNL A   1      31.173  23.383  25.233  1.00  0.00     0.104 C 
BRANCH   8   9
ATOM      9  C   UNL A   1      32.660  23.056  25.389  1.00  0.00     0.005 C 
ATOM     10  C   UNL A   1      34.438  22.357  24.328  1.00  0.00     0.043 C 
ATOM     11  C   UNL A   1      33.589  23.648  24.303  1.00  0.00     0.015 C 
ATOM     12  C   UNL A   1      33.228  21.630  25.023  1.00  0.00    -0.024 C 
ATOM     13  C   UNL A   1      32.507  20.771  23.980  1.00  0.00     0.012 C 
ATOM     14  C   UNL A   1      33.532  20.823  26.288  1.00  0.00     0.012 C 
BRANCH  10  15
ATOM     15  C   UNL A   1      35.818  22.319  25.068  1.00  0.00     0.058 C 
ATOM     16  C   UNL A   1      36.658  21.078  24.853  1.00  0.00     0.066 C 
ATOM     17  N   UNL A   1      36.124  23.299  25.865  1.00  0.00    -0.099 NA
BRANCH  17  18
ATOM     18  O   UNL A   1      37.325  23.064  26.539  1.00  0.00    -0.411 OA
ATOM     19  H   UNL A   1      37.488  22.228  26.929  1.00  0.00     0.330 HD
ENDBRANCH  17  18
ENDBRANCH  10  15
ENDBRANCH   8   9
ENDBRANCH   5   8
ENDBRANCH   3   4
ENDBRANCH   2   3
ENDBRANCH   1   2
BRANCH   1  20
ATOM     20  C   UNL A   1      33.834  28.940  26.367  1.00  0.00     0.002 C 
BRANCH  20  21
ATOM     21  C   UNL A   1      34.696  28.977  27.633  1.00  0.00     0.021 C 
BRANCH  21  22
ATOM     22  C   UNL A   1      35.385  30.309  27.926  1.00  0.00     0.116 C 
BRANCH  22  23
ATOM     23  N   UNL A   1      35.348  30.655  29.337  1.00  0.00    -0.352 N 
ATOM     24  C   UNL A   1      36.317  30.544  30.302  1.00  0.00     0.251 C 
ATOM     25  H   UNL A   1      34.493  31.028  29.650  1.00  0.00     0.163 HD
ATOM     26  O   UNL A   1      36.020  30.707  31.483  1.00  0.00    -0.269 OA
BRANCH  24  27
ATOM     27  C   UNL A   1      37.710  30.213  29.931  1.00  0.00     0.039 A 
ATOM     28  C   UNL A   1      38.524  29.573  30.870  1.00  0.00     0.014 A 
ATOM     29  C   UNL A   1      38.225  30.559  28.678  1.00  0.00     0.014 A 
ATOM     30  C   UNL A   1      39.834  29.227  30.532  1.00  0.00     0.010 A 
ATOM     31  C   UNL A   1      39.510  30.156  28.320  1.00  0.00     0.010 A 
ATOM     32  C   UNL A   1      40.329  29.488  29.243  1.00  0.00    -0.014 A 
BRANCH  32  33
ATOM     33  C   UNL A   1      41.698  29.069  28.846  1.00  0.00     0.031 A 
ATOM     34  C   UNL A   1      42.815  30.075  28.800  1.00  0.00     0.074 A 
ATOM     35  C   UNL A   1      41.921  27.794  28.470  1.00  0.00     0.049 A 
ATOM     36  N   UNL A   1      44.053  29.918  28.408  1.00  0.00    -0.248 NA
ATOM     37  C   UNL A   1      42.491  31.445  29.229  1.00  0.00     0.031 C 
ATOM     38  C   UNL A   1      40.911  26.733  28.434  1.00  0.00     0.029 A 
ATOM     39  N   UNL A   1      43.065  27.173  28.036  1.00  0.00    -0.354 N 
ATOM     40  C   UNL A   1      44.653  31.166  28.535  1.00  0.00     0.074 A 
ATOM     41  C   UNL A   1      43.629  32.081  28.989  1.00  0.00     0.031 C 
ATOM     42  C   UNL A   1      41.484  25.591  28.020  1.00  0.00     0.029 A 
ATOM     43  C   UNL A   1      42.891  25.845  27.725  1.00  0.00     0.049 A 
ATOM     44  H   UNL A   1      43.931  27.637  27.954  1.00  0.00     0.167 HD
ATOM     45  C   UNL A   1      45.945  31.512  28.314  1.00  0.00     0.037 A 
ATOM     46  C   UNL A   1      43.763  24.936  27.247  1.00  0.00     0.037 A 
ATOM     47  C   UNL A   1      46.964  30.591  27.881  1.00  0.00     0.049 A 
ATOM     48  C   UNL A   1      45.189  25.347  27.000  1.00  0.00     0.074 A 
ATOM     49  C   UNL A   1      48.311  30.835  27.670  1.00  0.00     0.029 A 
ATOM     50  N   UNL A   1      46.751  29.251  27.595  1.00  0.00    -0.354 N 
ATOM     51  N   UNL A   1      45.750  26.521  27.172  1.00  0.00    -0.248 NA
ATOM     52  C   UNL A   1      46.103  24.311  26.499  1.00  0.00     0.031 C 
ATOM     53  C   UNL A   1      48.904  29.651  27.220  1.00  0.00     0.029 A 
ATOM     54  C   UNL A   1      47.937  28.658  27.194  1.00  0.00     0.049 A 
ATOM     55  H   UNL A   1      45.886  28.789  27.666  1.00  0.00     0.167 HD
ATOM     56  C   UNL A   1      47.087  26.356  26.829  1.00  0.00     0.074 A 
ATOM     57  C   UNL A   1      47.253  24.968  26.449  1.00  0.00     0.031 C 
ATOM     58  C   UNL A   1      48.088  27.271  26.830  1.00  0.00     0.037 A 
BRANCH  45  59
ATOM     59  C   UNL A   1      46.330  32.947  28.546  1.00  0.00     0.058 A 
ATOM     60  C   UNL A   1      46.782  33.394  29.798  1.00  0.00     0.135 A 
ATOM     61  C   UNL A   1      46.279  33.882  27.499  1.00  0.00     0.135 A 
ATOM     62  F   UNL A   1      46.837  32.546  30.839  1.00  0.00    -0.206 F 
ATOM     63  C   UNL A   1      47.140  34.721  30.014  1.00  0.00     0.059 A 
ATOM     64  C   UNL A   1      46.658  35.209  27.684  1.00  0.00     0.059 A 
ATOM     65  F   UNL A   1      45.856  33.510  26.281  1.00  0.00    -0.206 F 
ATOM     66  C   UNL A   1      47.072  35.622  28.950  1.00  0.00     0.060 A 
BRANCH  66  67
ATOM     67  S   UNL A   1      47.540  37.340  29.246  1.00  0.00     0.124 S 
ATOM     68  O   UNL A   1      47.123  37.520  30.633  1.00  0.00    -0.237 OA
ATOM     69  O   UNL A   1      48.981  37.317  29.015  1.00  0.00    -0.237 OA
ATOM     70  O   UNL A   1      46.762  38.079  28.256  1.00  0.00    -0.744 OA
ENDBRANCH  66  67
ENDBRANCH  45  59
BRANCH  46  71
ATOM     71  C   UNL A   1      43.318  23.540  26.991  1.00  0.00     0.058 A 
ATOM     72  C   UNL A   1      43.153  23.066  25.680  1.00  0.00     0.135 A 
ATOM     73  C   UNL A   1      43.055  22.652  28.045  1.00  0.00     0.135 A 
ATOM     74  F   UNL A   1      43.388  23.879  24.639  1.00  0.00    -0.206 F 
ATOM     75  C   UNL A   1      42.721  21.769  25.423  1.00  0.00     0.059 A 
ATOM     76  C   UNL A   1      42.646  21.342  27.813  1.00  0.00     0.059 A 
ATOM     77  F   UNL A   1      43.214  23.051  29.317  1.00  0.00    -0.206 F 
ATOM     78  C   UNL A   1      42.471  20.913  26.498  1.00  0.00     0.060 A 
BRANCH  78  79
ATOM     79  S   UNL A   1      41.950  19.219  26.154  1.00  0.00     0.124 S 
ATOM     80  O   UNL A   1      42.703  18.921  24.942  1.00  0.00    -0.237 OA
ATOM     81  O   UNL A   1      42.377  18.516  27.361  1.00  0.00    -0.237 OA
ATOM     82  O   UNL A   1      40.505  19.341  25.988  1.00  0.00    -0.744 OA
ENDBRANCH  78  79
ENDBRANCH  46  71
BRANCH  58  83
ATOM     83  C   UNL A   1      49.462  26.795  26.446  1.00  0.00     0.058 A 
ATOM     84  C   UNL A   1      50.299  26.143  27.363  1.00  0.00     0.135 A 
ATOM     85  C   UNL A   1      49.923  26.950  25.128  1.00  0.00     0.135 A 
ATOM     86  F   UNL A   1      49.909  25.976  28.636  1.00  0.00    -0.206 F 
ATOM     87  C   UNL A   1      51.557  25.678  26.993  1.00  0.00     0.059 A 
ATOM     88  C   UNL A   1      51.167  26.470  24.731  1.00  0.00     0.059 A 
ATOM     89  F   UNL A   1      49.157  27.558  24.209  1.00  0.00    -0.206 F 
ATOM     90  C   UNL A   1      51.983  25.845  25.673  1.00  0.00     0.060 A 
BRANCH  90  91
ATOM     91  S   UNL A   1      53.602  25.206  25.196  1.00  0.00     0.124 S 
ATOM     92  O   UNL A   1      54.469  25.835  26.187  1.00  0.00    -0.237 OA
ATOM     93  O   UNL A   1      53.423  23.764  25.337  1.00  0.00    -0.237 OA
ATOM     94  O   UNL A   1      53.765  25.681  23.826  1.00  0.00    -0.744 OA
ENDBRANCH  90  91
ENDBRANCH  58  83
ENDBRANCH  32  33
ENDBRANCH  24  27
ENDBRANCH  22  23
ENDBRANCH  21  22
ENDBRANCH  20  21
ENDBRANCH   1  20
TORSDOF 19
ENDMDL
MODEL 3
REMARK VINA RESULT:     -11.0      5.054      6.239
REMARK SMILES C/C(=N\O)[C@@H]1C[C@@H](CC(=O)NCCCCCCNC(=O)c2ccc(-c3c4nc(c(-c5c(F)cc(S(=O)(=O)[O-])cc5F)c5ccc([nH]5)c(-c5c(F)cc(S(=O)(=O)[O-])cc5F)c5nc(c(-c6c(F)cc(S(=O)(=O)[O-])cc6F)c6ccc3[nH]6)C=C5)C=C4)cc2)C1(C)C
REMARK SMILES IDX 14 1 13 2 12 3 11 4 9 5 10 6 8 8 7 9 5 10 6 11 87 12 88 13
REMARK SMILES IDX 89 14 2 15 1 16 3 17 4 18 15 20 16 21 17 22 18 23 19 24
REMARK SMILES IDX 20 26 21 27 22 28 86 29 23 30 85 31 24 32 25 33 26 34 79 35
REMARK SMILES IDX 27 36 84 37 78 38 80 39 28 40 83 41 77 42 76 43 29 45 63 46
REMARK SMILES IDX 42 47 62 48 43 49 46 50 61 51 81 52 44 53 45 54 60 56 82 57
REMARK SMILES IDX 47 58 30 59 31 60 40 61 32 62 33 63 39 64 41 65 34 66 35 67
REMARK SMILES IDX 36 68 37 69 38 70 64 71 65 72 74 73 66 74 67 75 73 76 75 77
REMARK SMILES IDX 68 78 69 79 70 80 71 81 72 82 48 83 49 84 58 85 50 86 51 87
REMARK SMILES IDX 57 88 59 89 52 90 53 91 54 92 55 93 56 94
REMARK H PARENT 11 7 4 19 18 25 80 44 46 55
REMARK Flexibility Score: inf
ROOT
ATOM      1  C   UNL A   1      33.500  22.062  23.893  1.00  0.00     0.002 C 
ENDROOT
BRANCH   1   2
ATOM      2  C   UNL A   1      32.438  22.940  24.553  1.00  0.00     0.021 C 
BRANCH   2   3
ATOM      3  C   UNL A   1      31.508  23.658  23.571  1.00  0.00     0.116 C 
BRANCH   3   4
ATOM      4  N   UNL A   1      32.222  24.020  22.363  1.00  0.00    -0.356 N 
ATOM      5  C   UNL A   1      32.767  25.207  21.980  1.00  0.00     0.220 C 
ATOM      6  O   UNL A   1      33.241  25.283  20.843  1.00  0.00    -0.275 OA
ATOM      7  H   UNL A   1      32.331  23.289  21.713  1.00  0.00     0.163 HD
BRANCH   5   8
ATOM      8  C   UNL A   1      32.802  26.399  22.916  1.00  0.00     0.104 C 
BRANCH   8   9
ATOM      9  C   UNL A   1      31.645  27.383  22.729  1.00  0.00     0.005 C 
ATOM     10  C   UNL A   1      30.748  29.223  23.491  1.00  0.00     0.043 C 
ATOM     11  C   UNL A   1      32.039  28.879  22.716  1.00  0.00     0.015 C 
ATOM     12  C   UNL A   1      30.648  27.709  23.907  1.00  0.00    -0.024 C 
ATOM     13  C   UNL A   1      31.117  27.568  25.359  1.00  0.00     0.012 C 
ATOM     14  C   UNL A   1      29.302  27.013  23.692  1.00  0.00     0.012 C 
BRANCH  10  15
ATOM     15  C   UNL A   1      29.513  29.847  22.756  1.00  0.00     0.058 C 
ATOM     16  C   UNL A   1      28.679  30.823  23.559  1.00  0.00     0.066 C 
ATOM     17  N   UNL A   1      29.237  29.443  21.551  1.00  0.00    -0.099 NA
BRANCH  17  18
ATOM     18  O   UNL A   1      28.045  29.998  21.078  1.00  0.00    -0.411 OA
ATOM     19  H   UNL A   1      27.464  30.435  21.670  1.00  0.00     0.330 HD
ENDBRANCH  17  18
ENDBRANCH  10  15
ENDBRANCH   8   9
ENDBRANCH   5   8
ENDBRANCH   3   4
ENDBRANCH   2   3
ENDBRANCH   1   2
BRANCH   1  20
ATOM     20  C   UNL A   1      34.904  22.186  24.486  1.00  0.00     0.002 C 
BRANCH  20  21
ATOM     21  C   UNL A   1      35.080  23.247  25.578  1.00  0.00     0.021 C 
BRANCH  21  22
ATOM     22  C   UNL A   1      36.496  23.797  25.745  1.00  0.00     0.116 C 
BRANCH  22  23
ATOM     23  N   UNL A   1      37.460  22.759  26.068  1.00  0.00    -0.352 N 
ATOM     24  C   UNL A   1      38.762  22.859  26.490  1.00  0.00     0.251 C 
ATOM     25  H   UNL A   1      37.126  21.838  25.968  1.00  0.00     0.163 HD
ATOM     26  O   UNL A   1      39.470  21.856  26.517  1.00  0.00    -0.269 OA
BRANCH  24  27
ATOM     27  C   UNL A   1      39.319  24.167  26.896  1.00  0.00     0.039 A 
ATOM     28  C   UNL A   1      39.167  24.582  28.223  1.00  0.00     0.014 A 
ATOM     29  C   UNL A   1      39.959  24.998  25.972  1.00  0.00     0.014 A 
ATOM     30  C   UNL A   1      39.708  25.802  28.635  1.00  0.00     0.010 A 
ATOM     31  C   UNL A   1      40.553  26.184  26.399  1.00  0.00     0.010 A 
ATOM     32  C   UNL A   1      40.433  26.599  27.734  1.00  0.00    -0.014 A 
BRANCH  32  33
ATOM     33  C   UNL A   1      41.071  27.868  28.171  1.00  0.00     0.031 A 
ATOM     34  C   UNL A   1      42.563  28.038  28.074  1.00  0.00     0.074 A 
ATOM     35  C   UNL A   1      40.313  28.843  28.711  1.00  0.00     0.049 A 
ATOM     36  N   UNL A   1      43.308  29.037  28.472  1.00  0.00    -0.248 NA
ATOM     37  C   UNL A   1      43.318  26.929  27.470  1.00  0.00     0.031 C 
ATOM     38  C   UNL A   1      38.861  28.781  28.895  1.00  0.00     0.029 A 
ATOM     39  N   UNL A   1      40.657  30.072  29.213  1.00  0.00    -0.354 N 
ATOM     40  C   UNL A   1      44.618  28.676  28.176  1.00  0.00     0.074 A 
ATOM     41  C   UNL A   1      44.570  27.343  27.614  1.00  0.00     0.031 C 
ATOM     42  C   UNL A   1      38.438  29.928  29.452  1.00  0.00     0.029 A 
ATOM     43  C   UNL A   1      39.590  30.791  29.699  1.00  0.00     0.049 A 
ATOM     44  H   UNL A   1      41.583  30.409  29.226  1.00  0.00     0.167 HD
ATOM     45  C   UNL A   1      45.754  29.396  28.338  1.00  0.00     0.037 A 
ATOM     46  C   UNL A   1      39.544  32.003  30.285  1.00  0.00     0.037 A 
ATOM     47  C   UNL A   1      45.792  30.730  28.880  1.00  0.00     0.049 A 
ATOM     48  C   UNL A   1      40.820  32.780  30.463  1.00  0.00     0.074 A 
ATOM     49  C   UNL A   1      46.887  31.561  29.046  1.00  0.00     0.029 A 
ATOM     50  N   UNL A   1      44.687  31.430  29.343  1.00  0.00    -0.354 N 
ATOM     51  N   UNL A   1      42.044  32.442  30.133  1.00  0.00    -0.248 NA
ATOM     52  C   UNL A   1      40.710  34.105  31.089  1.00  0.00     0.031 C 
ATOM     53  C   UNL A   1      46.450  32.747  29.643  1.00  0.00     0.029 A 
ATOM     54  C   UNL A   1      45.076  32.675  29.809  1.00  0.00     0.049 A 
ATOM     55  H   UNL A   1      43.763  31.091  29.341  1.00  0.00     0.167 HD
ATOM     56  C   UNL A   1      42.844  33.524  30.483  1.00  0.00     0.074 A 
ATOM     57  C   UNL A   1      41.965  34.530  31.041  1.00  0.00     0.031 C 
ATOM     58  C   UNL A   1      44.186  33.671  30.352  1.00  0.00     0.037 A 
BRANCH  45  59
ATOM     59  C   UNL A   1      47.048  28.759  27.915  1.00  0.00     0.058 A 
ATOM     60  C   UNL A   1      47.520  28.860  26.595  1.00  0.00     0.135 A 
ATOM     61  C   UNL A   1      47.845  28.069  28.842  1.00  0.00     0.135 A 
ATOM     62  F   UNL A   1      46.792  29.496  25.663  1.00  0.00    -0.206 F 
ATOM     63  C   UNL A   1      48.719  28.272  26.203  1.00  0.00     0.059 A 
ATOM     64  C   UNL A   1      49.061  27.496  28.478  1.00  0.00     0.059 A 
ATOM     65  F   UNL A   1      47.444  27.943  30.117  1.00  0.00    -0.206 F 
ATOM     66  C   UNL A   1      49.481  27.590  27.153  1.00  0.00     0.060 A 
BRANCH  66  67
ATOM     67  S   UNL A   1      51.033  26.833  26.627  1.00  0.00     0.124 S 
ATOM     68  O   UNL A   1      50.556  25.781  25.735  1.00  0.00    -0.237 OA
ATOM     69  O   UNL A   1      51.723  27.946  25.982  1.00  0.00    -0.237 OA
ATOM     70  O   UNL A   1      51.627  26.372  27.879  1.00  0.00    -0.744 OA
ENDBRANCH  66  67
ENDBRANCH  45  59
BRANCH  46  71
ATOM     71  C   UNL A   1      38.242  32.567  30.728  1.00  0.00     0.058 A 
ATOM     72  C   UNL A   1      37.844  32.493  32.072  1.00  0.00     0.135 A 
ATOM     73  C   UNL A   1      37.371  33.194  29.823  1.00  0.00     0.135 A 
ATOM     74  F   UNL A   1      38.640  31.899  32.974  1.00  0.00    -0.206 F 
ATOM     75  C   UNL A   1      36.621  33.002  32.500  1.00  0.00     0.059 A 
ATOM     76  C   UNL A   1      36.154  33.733  30.231  1.00  0.00     0.059 A 
ATOM     77  F   UNL A   1      37.712  33.306  28.529  1.00  0.00    -0.206 F 
ATOM     78  C   UNL A   1      35.783  33.621  31.570  1.00  0.00     0.060 A 
BRANCH  78  79
ATOM     79  S   UNL A   1      34.216  34.313  32.142  1.00  0.00     0.124 S 
ATOM     80  O   UNL A   1      34.669  35.455  32.926  1.00  0.00    -0.237 OA
ATOM     81  O   UNL A   1      33.543  34.626  30.885  1.00  0.00    -0.237 OA
ATOM     82  O   UNL A   1      33.626  33.217  32.904  1.00  0.00    -0.744 OA
ENDBRANCH  78  79
ENDBRANCH  46  71
BRANCH  58  83
ATOM     83  C   UNL A   1      44.784  34.982  30.784  1.00  0.00     0.058 A 
ATOM     84  C   UNL A   1      44.875  36.074  29.909  1.00  0.00     0.135 A 
ATOM     85  C   UNL A   1      45.224  35.158  32.105  1.00  0.00     0.135 A 
ATOM     86  F   UNL A   1      44.475  35.955  28.633  1.00  0.00    -0.206 F 
ATOM     87  C   UNL A   1      45.402  37.293  30.323  1.00  0.00     0.059 A 
ATOM     88  C   UNL A   1      45.731  36.377  32.548  1.00  0.00     0.059 A 
ATOM     89  F   UNL A   1      45.151  34.147  32.985  1.00  0.00    -0.206 F 
ATOM     90  C   UNL A   1      45.826  37.435  31.646  1.00  0.00     0.060 A 
BRANCH  90  91
ATOM     91  S   UNL A   1      46.474  39.033  32.182  1.00  0.00     0.124 S 
ATOM     92  O   UNL A   1      47.179  39.480  30.985  1.00  0.00    -0.237 OA
ATOM     93  O   UNL A   1      45.258  39.769  32.512  1.00  0.00    -0.237 OA
ATOM     94  O   UNL A   1      47.322  38.691  33.320  1.00  0.00    -0.744 OA
ENDBRANCH  90  91
ENDBRANCH  58  83
ENDBRANCH  32  33
ENDBRANCH  24  27
ENDBRANCH  22  23
ENDBRANCH  21  22
ENDBRANCH  20  21
ENDBRANCH   1  20
TORSDOF 19
ENDMDL
