MODEL 1
REMARK VINA RESULT:     -12.4      0.000      0.000
REMARK SMILES CC(=O)N[C@@H](CS[C@H]1CC(=O)N(c2ccc(Cl)cc2Cl)C1=O)C(=O)NCCCCCCNC(=O)c1ccc(-c2c3nc(c(-c4c(F)cc(S(=O)(=O)[O-])cc4F)c4ccc([nH]4)c(-c4c(F)cc(S(=O)(=O)[O-])cc4F)c4nc(c(-c5c(F)cc(S(=O)(=O)[O-])cc5F)c5ccc2[nH]5)C=C4)C=C3)cc1
REMARK SMILES IDX 28 1 27 2 26 3 25 4 23 5 24 6 5 8 4 9 1 10 2 11 3 12 6 14
REMARK SMILES IDX 7 15 8 16 9 17 21 18 10 19 12 20 22 21 11 22 13 23 14 24
REMARK SMILES IDX 19 25 15 26 18 27 20 28 16 29 17 30 29 31 30 32 31 33 32 34
REMARK SMILES IDX 33 35 34 37 35 38 36 39 100 40 37 41 99 42 38 43 39 44 40 45
REMARK SMILES IDX 93 46 41 47 98 48 92 49 94 50 42 51 97 52 91 53 90 54 43 56
REMARK SMILES IDX 77 57 56 58 76 59 57 60 60 61 75 62 95 63 58 64 59 65 74 67
REMARK SMILES IDX 96 68 61 69 44 70 45 71 54 72 46 73 47 74 53 75 55 76 48 77
REMARK SMILES IDX 49 78 50 79 51 80 52 81 78 82 79 83 88 84 80 85 81 86 87 87
REMARK SMILES IDX 89 88 82 89 83 90 84 91 85 92 86 93 62 94 63 95 72 96 64 97
REMARK SMILES IDX 65 98 71 99 73 100 66 101 67 102 68 103 69 104 70 105
REMARK H PARENT 25 7 4 13 32 36 94 55 60 66
REMARK Flexibility Score: inf
ROOT
ATOM      1  C   UNL A   1      38.766  20.916  25.730  1.00  0.00     0.002 C 
ENDROOT
BRANCH   1   2
ATOM      2  C   UNL A   1      37.623  21.104  24.725  1.00  0.00     0.021 C 
BRANCH   2   3
ATOM      3  C   UNL A   1      36.278  20.547  25.186  1.00  0.00     0.116 C 
BRANCH   3   4
ATOM      4  N   UNL A   1      35.633  21.263  26.265  1.00  0.00    -0.354 N 
ATOM      5  C   UNL A   1      34.293  21.363  26.538  1.00  0.00     0.243 C 
ATOM      6  O   UNL A   1      33.949  22.040  27.515  1.00  0.00    -0.273 OA
ATOM      7  H   UNL A   1      36.234  21.739  26.883  1.00  0.00     0.163 HD
BRANCH   5   8
ATOM      8  C   UNL A   1      33.210  20.686  25.659  1.00  0.00     0.181 C 
BRANCH   8   9
ATOM      9  N   UNL A   1      32.957  19.324  26.136  1.00  0.00    -0.344 N 
ATOM     10  C   UNL A   1      32.726  18.354  23.859  1.00  0.00     0.114 C 
ATOM     11  C   UNL A   1      32.880  18.202  25.354  1.00  0.00     0.217 C 
ATOM     12  O   UNL A   1      32.896  17.092  25.884  1.00  0.00    -0.275 OA
ATOM     13  H   UNL A   1      32.829  19.205  27.105  1.00  0.00     0.164 HD
ENDBRANCH   8   9
BRANCH   8  14
ATOM     14  C   UNL A   1      31.946  21.501  25.274  1.00  0.00     0.105 C 
BRANCH  14  15
ATOM     15  S   UNL A   1      31.791  22.418  23.687  1.00  0.00    -0.145 SA
BRANCH  15  16
ATOM     16  C   UNL A   1      32.843  23.907  23.992  1.00  0.00     0.146 C 
ATOM     17  C   UNL A   1      33.618  24.300  22.749  1.00  0.00     0.125 C 
ATOM     18  C   UNL A   1      32.034  25.141  24.313  1.00  0.00     0.247 C 
ATOM     19  C   UNL A   1      33.208  25.716  22.467  1.00  0.00     0.235 C 
ATOM     20  N   UNL A   1      32.314  26.145  23.416  1.00  0.00    -0.248 N 
ATOM     21  O   UNL A   1      31.218  25.151  25.222  1.00  0.00    -0.273 OA
ATOM     22  O   UNL A   1      33.661  26.342  21.517  1.00  0.00    -0.274 OA
BRANCH  20  23
ATOM     23  C   UNL A   1      31.626  27.408  23.372  1.00  0.00     0.070 A 
ATOM     24  C   UNL A   1      30.534  27.569  22.495  1.00  0.00     0.030 A 
ATOM     25  C   UNL A   1      31.916  28.501  24.215  1.00  0.00     0.066 A 
ATOM     26  C   UNL A   1      29.672  28.671  22.568  1.00  0.00     0.023 A 
ATOM     27  C   UNL A   1      31.056  29.610  24.290  1.00  0.00     0.043 A 
ATOM     28  Cl  UNL A   1      33.441  28.690  25.019  1.00  0.00    -0.082 Cl
ATOM     29  C   UNL A   1      29.920  29.673  23.491  1.00  0.00     0.042 A 
ATOM     30  Cl  UNL A   1      28.851  31.013  23.615  1.00  0.00    -0.084 Cl
ENDBRANCH  20  23
ENDBRANCH  15  16
ENDBRANCH  14  15
ENDBRANCH   8  14
ENDBRANCH   5   8
ENDBRANCH   3   4
ENDBRANCH   2   3
ENDBRANCH   1   2
BRANCH   1  31
ATOM     31  C   UNL A   1      39.506  22.201  26.142  1.00  0.00     0.002 C 
BRANCH  31  32
ATOM     32  C   UNL A   1      40.702  22.065  27.076  1.00  0.00     0.021 C 
BRANCH  32  33
ATOM     33  C   UNL A   1      41.828  23.060  26.847  1.00  0.00     0.116 C 
BRANCH  33  34
ATOM     34  N   UNL A   1      41.553  24.111  25.874  1.00  0.00    -0.352 N 
ATOM     35  C   UNL A   1      41.484  25.470  26.110  1.00  0.00     0.251 C 
ATOM     36  H   UNL A   1      41.399  23.820  24.947  1.00  0.00     0.163 HD
ATOM     37  O   UNL A   1      41.284  26.265  25.197  1.00  0.00    -0.269 OA
BRANCH  35  38
ATOM     38  C   UNL A   1      41.534  25.917  27.517  1.00  0.00     0.039 A 
ATOM     39  C   UNL A   1      42.596  26.737  27.907  1.00  0.00     0.014 A 
ATOM     40  C   UNL A   1      40.417  25.759  28.335  1.00  0.00     0.014 A 
ATOM     41  C   UNL A   1      42.466  27.515  29.056  1.00  0.00     0.010 A 
ATOM     42  C   UNL A   1      40.236  26.632  29.398  1.00  0.00     0.010 A 
ATOM     43  C   UNL A   1      41.250  27.534  29.759  1.00  0.00    -0.014 A 
BRANCH  43  44
ATOM     44  C   UNL A   1      41.006  28.512  30.852  1.00  0.00     0.031 A 
ATOM     45  C   UNL A   1      41.832  28.451  32.108  1.00  0.00     0.074 A 
ATOM     46  C   UNL A   1      39.991  29.395  30.749  1.00  0.00     0.049 A 
ATOM     47  N   UNL A   1      41.728  29.164  33.199  1.00  0.00    -0.248 NA
ATOM     48  C   UNL A   1      42.876  27.415  32.168  1.00  0.00     0.031 C 
ATOM     49  C   UNL A   1      39.049  29.487  29.626  1.00  0.00     0.029 A 
ATOM     50  N   UNL A   1      39.576  30.388  31.601  1.00  0.00    -0.354 N 
ATOM     51  C   UNL A   1      42.668  28.642  34.079  1.00  0.00     0.074 A 
ATOM     52  C   UNL A   1      43.280  27.508  33.424  1.00  0.00     0.031 C 
ATOM     53  C   UNL A   1      38.206  30.512  29.837  1.00  0.00     0.029 A 
ATOM     54  C   UNL A   1      38.524  31.133  31.118  1.00  0.00     0.049 A 
ATOM     55  H   UNL A   1      39.992  30.551  32.478  1.00  0.00     0.167 HD
ATOM     56  C   UNL A   1      43.022  29.090  35.306  1.00  0.00     0.037 A 
ATOM     57  C   UNL A   1      37.901  32.207  31.641  1.00  0.00     0.037 A 
ATOM     58  C   UNL A   1      42.457  30.259  35.924  1.00  0.00     0.049 A 
ATOM     59  C   UNL A   1      38.380  32.749  32.960  1.00  0.00     0.074 A 
ATOM     60  C   UNL A   1      42.788  30.844  37.133  1.00  0.00     0.029 A 
ATOM     61  N   UNL A   1      41.454  31.035  35.364  1.00  0.00    -0.354 N 
ATOM     62  N   UNL A   1      39.318  32.282  33.751  1.00  0.00    -0.248 NA
ATOM     63  C   UNL A   1      37.730  33.972  33.451  1.00  0.00     0.031 C 
ATOM     64  C   UNL A   1      41.975  31.969  37.309  1.00  0.00     0.029 A 
ATOM     65  C   UNL A   1      41.158  32.100  36.197  1.00  0.00     0.049 A 
ATOM     66  H   UNL A   1      41.016  30.857  34.500  1.00  0.00     0.167 HD
ATOM     67  C   UNL A   1      39.387  33.167  34.820  1.00  0.00     0.074 A 
ATOM     68  C   UNL A   1      38.407  34.204  34.567  1.00  0.00     0.031 C 
ATOM     69  C   UNL A   1      40.188  33.126  35.914  1.00  0.00     0.037 A 
BRANCH  56  70
ATOM     70  C   UNL A   1      44.090  28.323  36.032  1.00  0.00     0.058 A 
ATOM     71  C   UNL A   1      45.450  28.646  35.887  1.00  0.00     0.135 A 
ATOM     72  C   UNL A   1      43.759  27.239  36.860  1.00  0.00     0.135 A 
ATOM     73  F   UNL A   1      45.823  29.660  35.089  1.00  0.00    -0.206 F 
ATOM     74  C   UNL A   1      46.446  27.893  36.498  1.00  0.00     0.059 A 
ATOM     75  C   UNL A   1      44.740  26.489  37.505  1.00  0.00     0.059 A 
ATOM     76  F   UNL A   1      42.476  26.886  37.032  1.00  0.00    -0.206 F 
ATOM     77  C   UNL A   1      46.080  26.811  37.299  1.00  0.00     0.060 A 
BRANCH  77  78
ATOM     78  S   UNL A   1      47.384  25.825  38.067  1.00  0.00     0.124 S 
ATOM     79  O   UNL A   1      48.480  26.788  38.121  1.00  0.00    -0.237 OA
ATOM     80  O   UNL A   1      46.793  25.467  39.352  1.00  0.00    -0.237 OA
ATOM     81  O   UNL A   1      47.564  24.718  37.134  1.00  0.00    -0.744 OA
ENDBRANCH  77  78
ENDBRANCH  56  70
BRANCH  57  82
ATOM     82  C   UNL A   1      36.811  32.882  30.888  1.00  0.00     0.058 A 
ATOM     83  C   UNL A   1      35.466  32.582  31.153  1.00  0.00     0.135 A 
ATOM     84  C   UNL A   1      37.083  33.842  29.902  1.00  0.00     0.135 A 
ATOM     85  F   UNL A   1      35.155  31.668  32.085  1.00  0.00    -0.206 F 
ATOM     86  C   UNL A   1      34.429  33.193  30.455  1.00  0.00     0.059 A 
ATOM     87  C   UNL A   1      36.062  34.482  29.204  1.00  0.00     0.059 A 
ATOM     88  F   UNL A   1      38.352  34.180  29.625  1.00  0.00    -0.206 F 
ATOM     89  C   UNL A   1      34.738  34.143  29.481  1.00  0.00     0.060 A 
BRANCH  89  90
ATOM     90  S   UNL A   1      33.385  34.969  28.613  1.00  0.00     0.124 S 
ATOM     91  O   UNL A   1      32.617  35.520  29.723  1.00  0.00    -0.237 OA
ATOM     92  O   UNL A   1      34.094  35.937  27.782  1.00  0.00    -0.237 OA
ATOM     93  O   UNL A   1      32.745  33.879  27.881  1.00  0.00    -0.744 OA
ENDBRANCH  89  90
ENDBRANCH  57  82
BRANCH  69  94
ATOM     94  C   UNL A   1      40.059  34.253  36.896  1.00  0.00     0.058 A 
ATOM     95  C   UNL A   1      39.177  34.179  37.984  1.00  0.00     0.135 A 
ATOM     96  C   UNL A   1      40.856  35.400  36.767  1.00  0.00     0.135 A 
ATOM     97  F   UNL A   1      38.392  33.103  38.146  1.00  0.00    -0.206 F 
ATOM     98  C   UNL A   1      39.069  35.221  38.898  1.00  0.00     0.059 A 
ATOM     99  C   UNL A   1      40.780  36.444  37.681  1.00  0.00     0.059 A 
ATOM    100  F   UNL A   1      41.723  35.510  35.748  1.00  0.00    -0.206 F 
ATOM    101  C   UNL A   1      39.873  36.352  38.737  1.00  0.00     0.060 A 
BRANCH 101 102
ATOM    102  S   UNL A   1      39.742  37.691  39.939  1.00  0.00     0.124 S 
ATOM    103  O   UNL A   1      38.504  38.340  39.520  1.00  0.00    -0.237 OA
ATOM    104  O   UNL A   1      39.684  36.973  41.208  1.00  0.00    -0.237 OA
ATOM    105  O   UNL A   1      40.963  38.462  39.718  1.00  0.00    -0.744 OA
ENDBRANCH 101 102
ENDBRANCH  69  94
ENDBRANCH  43  44
ENDBRANCH  35  38
ENDBRANCH  33  34
ENDBRANCH  32  33
ENDBRANCH  31  32
ENDBRANCH   1  31
TORSDOF 21
ENDMDL
MODEL 2
REMARK VINA RESULT:     -11.9      0.975      8.020
REMARK SMILES CC(=O)N[C@@H](CS[C@H]1CC(=O)N(c2ccc(Cl)cc2Cl)C1=O)C(=O)NCCCCCCNC(=O)c1ccc(-c2c3nc(c(-c4c(F)cc(S(=O)(=O)[O-])cc4F)c4ccc([nH]4)c(-c4c(F)cc(S(=O)(=O)[O-])cc4F)c4nc(c(-c5c(F)cc(S(=O)(=O)[O-])cc5F)c5ccc2[nH]5)C=C4)C=C3)cc1
REMARK SMILES IDX 28 1 27 2 26 3 25 4 23 5 24 6 5 8 4 9 1 10 2 11 3 12 6 14
REMARK SMILES IDX 7 15 8 16 9 17 21 18 10 19 12 20 22 21 11 22 13 23 14 24
REMARK SMILES IDX 19 25 15 26 18 27 20 28 16 29 17 30 29 31 30 32 31 33 32 34
REMARK SMILES IDX 33 35 34 37 35 38 36 39 100 40 37 41 99 42 38 43 39 44 40 45
REMARK SMILES IDX 93 46 41 47 98 48 92 49 94 50 42 51 97 52 91 53 90 54 43 56
REMARK SMILES IDX 77 57 56 58 76 59 57 60 60 61 75 62 95 63 58 64 59 65 74 67
REMARK SMILES IDX 96 68 61 69 44 70 45 71 54 72 46 73 47 74 53 75 55 76 48 77
REMARK SMILES IDX 49 78 50 79 51 80 52 81 78 82 79 83 88 84 80 85 81 86 87 87
REMARK SMILES IDX 89 88 82 89 83 90 84 91 85 92 86 93 62 94 63 95 72 96 64 97
REMARK SMILES IDX 65 98 71 99 73 100 66 101 67 102 68 103 69 104 70 105
REMARK H PARENT 25 7 4 13 32 36 94 55 60 66
REMARK Flexibility Score: inf
ROOT
ATOM      1  C   UNL A   1      38.676  21.096  25.684  1.00  0.00     0.002 C 
ENDROOT
BRANCH   1   2
ATOM      2  C   UNL A   1      37.519  21.553  24.788  1.00  0.00     0.021 C 
BRANCH   2   3
ATOM      3  C   UNL A   1      36.218  20.778  24.992  1.00  0.00     0.116 C 
BRANCH   3   4
ATOM      4  N   UNL A   1      35.436  21.148  26.151  1.00  0.00    -0.354 N 
ATOM      5  C   UNL A   1      34.108  20.905  26.393  1.00  0.00     0.243 C 
ATOM      6  O   UNL A   1      33.627  21.321  27.454  1.00  0.00    -0.273 OA
ATOM      7  H   UNL A   1      35.919  21.636  26.856  1.00  0.00     0.163 HD
BRANCH   5   8
ATOM      8  C   UNL A   1      33.197  20.161  25.382  1.00  0.00     0.181 C 
BRANCH   8   9
ATOM      9  N   UNL A   1      32.877  18.824  25.887  1.00  0.00    -0.344 N 
ATOM     10  C   UNL A   1      33.773  17.638  23.894  1.00  0.00     0.114 C 
ATOM     11  C   UNL A   1      33.256  17.639  25.313  1.00  0.00     0.217 C 
ATOM     12  O   UNL A   1      33.129  16.592  25.947  1.00  0.00    -0.275 OA
ATOM     13  H   UNL A   1      32.341  18.772  26.711  1.00  0.00     0.164 HD
ENDBRANCH   8   9
BRANCH   8  14
ATOM     14  C   UNL A   1      32.013  20.931  24.740  1.00  0.00     0.105 C 
BRANCH  14  15
ATOM     15  S   UNL A   1      32.158  21.852  23.154  1.00  0.00    -0.145 SA
BRANCH  15  16
ATOM     16  C   UNL A   1      33.466  23.099  23.545  1.00  0.00     0.146 C 
ATOM     17  C   UNL A   1      33.868  23.883  22.311  1.00  0.00     0.125 C 
ATOM     18  C   UNL A   1      32.992  24.162  24.507  1.00  0.00     0.247 C 
ATOM     19  C   UNL A   1      33.611  25.320  22.663  1.00  0.00     0.235 C 
ATOM     20  N   UNL A   1      33.130  25.411  23.945  1.00  0.00    -0.248 N 
ATOM     21  O   UNL A   1      32.509  23.875  25.591  1.00  0.00    -0.273 OA
ATOM     22  O   UNL A   1      33.836  26.228  21.873  1.00  0.00    -0.274 OA
BRANCH  20  23
ATOM     23  C   UNL A   1      32.661  26.628  24.553  1.00  0.00     0.070 A 
ATOM     24  C   UNL A   1      33.530  27.366  25.382  1.00  0.00     0.030 A 
ATOM     25  C   UNL A   1      31.392  27.197  24.317  1.00  0.00     0.066 A 
ATOM     26  C   UNL A   1      33.234  28.667  25.809  1.00  0.00     0.023 A 
ATOM     27  C   UNL A   1      31.088  28.501  24.746  1.00  0.00     0.043 A 
ATOM     28  Cl  UNL A   1      30.045  26.278  23.725  1.00  0.00    -0.082 Cl
ATOM     29  C   UNL A   1      32.024  29.241  25.459  1.00  0.00     0.042 A 
ATOM     30  Cl  UNL A   1      31.661  30.849  25.946  1.00  0.00    -0.084 Cl
ENDBRANCH  20  23
ENDBRANCH  15  16
ENDBRANCH  14  15
ENDBRANCH   8  14
ENDBRANCH   5   8
ENDBRANCH   3   4
ENDBRANCH   2   3
ENDBRANCH   1   2
BRANCH   1  31
ATOM     31  C   UNL A   1      39.451  22.222  26.391  1.00  0.00     0.002 C 
BRANCH  31  32
ATOM     32  C   UNL A   1      40.876  21.929  26.845  1.00  0.00     0.021 C 
BRANCH  32  33
ATOM     33  C   UNL A   1      41.841  23.101  26.773  1.00  0.00     0.116 C 
BRANCH  33  34
ATOM     34  N   UNL A   1      41.471  24.166  25.847  1.00  0.00    -0.352 N 
ATOM     35  C   UNL A   1      41.313  25.507  26.139  1.00  0.00     0.251 C 
ATOM     36  H   UNL A   1      41.317  23.900  24.912  1.00  0.00     0.163 HD
ATOM     37  O   UNL A   1      41.038  26.320  25.262  1.00  0.00    -0.269 OA
BRANCH  35  38
ATOM     38  C   UNL A   1      41.365  25.903  27.561  1.00  0.00     0.039 A 
ATOM     39  C   UNL A   1      42.514  26.551  28.020  1.00  0.00     0.014 A 
ATOM     40  C   UNL A   1      40.202  25.883  28.329  1.00  0.00     0.014 A 
ATOM     41  C   UNL A   1      42.445  27.307  29.189  1.00  0.00     0.010 A 
ATOM     42  C   UNL A   1      40.101  26.742  29.413  1.00  0.00     0.010 A 
ATOM     43  C   UNL A   1      41.215  27.480  29.845  1.00  0.00    -0.014 A 
BRANCH  43  44
ATOM     44  C   UNL A   1      41.065  28.451  30.960  1.00  0.00     0.031 A 
ATOM     45  C   UNL A   1      39.980  29.491  30.904  1.00  0.00     0.074 A 
ATOM     46  C   UNL A   1      41.954  28.451  31.974  1.00  0.00     0.049 A 
ATOM     47  N   UNL A   1      39.729  30.468  31.737  1.00  0.00    -0.248 NA
ATOM     48  C   UNL A   1      39.092  29.465  29.730  1.00  0.00     0.031 C 
ATOM     49  C   UNL A   1      43.116  27.560  32.093  1.00  0.00     0.029 A 
ATOM     50  N   UNL A   1      42.025  29.225  33.105  1.00  0.00    -0.354 N 
ATOM     51  C   UNL A   1      38.682  31.184  31.171  1.00  0.00     0.074 A 
ATOM     52  C   UNL A   1      38.393  30.576  29.892  1.00  0.00     0.031 C 
ATOM     53  C   UNL A   1      43.747  27.805  33.253  1.00  0.00     0.029 A 
ATOM     54  C   UNL A   1      43.057  28.885  33.950  1.00  0.00     0.049 A 
ATOM     55  H   UNL A   1      41.395  29.958  33.294  1.00  0.00     0.167 HD
ATOM     56  C   UNL A   1      37.993  32.228  31.687  1.00  0.00     0.037 A 
ATOM     57  C   UNL A   1      43.395  29.376  35.158  1.00  0.00     0.037 A 
ATOM     58  C   UNL A   1      38.240  32.785  32.989  1.00  0.00     0.049 A 
ATOM     59  C   UNL A   1      42.552  30.469  35.756  1.00  0.00     0.074 A 
ATOM     60  C   UNL A   1      37.560  33.798  33.640  1.00  0.00     0.029 A 
ATOM     61  N   UNL A   1      39.240  32.356  33.848  1.00  0.00    -0.354 N 
ATOM     62  N   UNL A   1      41.521  31.092  35.235  1.00  0.00    -0.248 NA
ATOM     63  C   UNL A   1      42.905  30.915  37.111  1.00  0.00     0.031 C 
ATOM     64  C   UNL A   1      38.157  33.988  34.891  1.00  0.00     0.029 A 
ATOM     65  C   UNL A   1      39.191  33.076  35.029  1.00  0.00     0.049 A 
ATOM     66  H   UNL A   1      39.890  31.643  33.649  1.00  0.00     0.167 HD
ATOM     67  C   UNL A   1      41.087  31.985  36.207  1.00  0.00     0.074 A 
ATOM     68  C   UNL A   1      41.958  31.811  37.352  1.00  0.00     0.031 C 
ATOM     69  C   UNL A   1      40.062  32.872  36.158  1.00  0.00     0.037 A 
BRANCH  56  70
ATOM     70  C   UNL A   1      36.890  32.802  30.843  1.00  0.00     0.058 A 
ATOM     71  C   UNL A   1      37.142  33.809  29.896  1.00  0.00     0.135 A 
ATOM     72  C   UNL A   1      35.566  32.364  30.996  1.00  0.00     0.135 A 
ATOM     73  F   UNL A   1      38.387  34.281  29.726  1.00  0.00    -0.206 F 
ATOM     74  C   UNL A   1      36.114  34.395  29.166  1.00  0.00     0.059 A 
ATOM     75  C   UNL A   1      34.525  32.916  30.254  1.00  0.00     0.059 A 
ATOM     76  F   UNL A   1      35.269  31.405  31.887  1.00  0.00    -0.206 F 
ATOM     77  C   UNL A   1      34.807  33.946  29.358  1.00  0.00     0.060 A 
BRANCH  77  78
ATOM     78  S   UNL A   1      33.478  34.732  28.422  1.00  0.00     0.124 S 
ATOM     79  O   UNL A   1      32.657  35.284  29.495  1.00  0.00    -0.237 OA
ATOM     80  O   UNL A   1      34.197  35.708  27.611  1.00  0.00    -0.237 OA
ATOM     81  O   UNL A   1      32.884  33.622  27.683  1.00  0.00    -0.744 OA
ENDBRANCH  77  78
ENDBRANCH  56  70
BRANCH  57  82
ATOM     82  C   UNL A   1      44.538  28.794  35.912  1.00  0.00     0.058 A 
ATOM     83  C   UNL A   1      45.830  29.320  35.770  1.00  0.00     0.135 A 
ATOM     84  C   UNL A   1      44.365  27.714  36.790  1.00  0.00     0.135 A 
ATOM     85  F   UNL A   1      46.047  30.351  34.939  1.00  0.00    -0.206 F 
ATOM     86  C   UNL A   1      46.917  28.786  36.457  1.00  0.00     0.059 A 
ATOM     87  C   UNL A   1      45.432  27.176  37.503  1.00  0.00     0.059 A 
ATOM     88  F   UNL A   1      43.145  27.188  36.977  1.00  0.00    -0.206 F 
ATOM     89  C   UNL A   1      46.706  27.712  37.323  1.00  0.00     0.060 A 
BRANCH  89  90
ATOM     90  S   UNL A   1      48.112  27.055  38.248  1.00  0.00     0.124 S 
ATOM     91  O   UNL A   1      48.179  27.979  39.375  1.00  0.00    -0.237 OA
ATOM     92  O   UNL A   1      47.673  25.698  38.558  1.00  0.00    -0.237 OA
ATOM     93  O   UNL A   1      49.212  27.144  37.292  1.00  0.00    -0.744 OA
ENDBRANCH  89  90
ENDBRANCH  57  82
BRANCH  69  94
ATOM     94  C   UNL A   1      39.808  33.691  37.390  1.00  0.00     0.058 A 
ATOM     95  C   UNL A   1      40.449  34.920  37.596  1.00  0.00     0.135 A 
ATOM     96  C   UNL A   1      38.884  33.256  38.352  1.00  0.00     0.135 A 
ATOM     97  F   UNL A   1      41.344  35.375  36.705  1.00  0.00    -0.206 F 
ATOM     98  C   UNL A   1      40.203  35.681  38.734  1.00  0.00     0.059 A 
ATOM     99  C   UNL A   1      38.607  34.011  39.486  1.00  0.00     0.059 A 
ATOM    100  F   UNL A   1      38.237  32.091  38.191  1.00  0.00    -0.206 F 
ATOM    101  C   UNL A   1      39.282  35.217  39.675  1.00  0.00     0.060 A 
BRANCH 101 102
ATOM    102  S   UNL A   1      38.953  36.220  41.139  1.00  0.00     0.124 S 
ATOM    103  O   UNL A   1      40.223  36.123  41.850  1.00  0.00    -0.237 OA
ATOM    104  O   UNL A   1      38.644  37.525  40.564  1.00  0.00    -0.237 OA
ATOM    105  O   UNL A   1      37.825  35.537  41.767  1.00  0.00    -0.744 OA
ENDBRANCH 101 102
ENDBRANCH  69  94
ENDBRANCH  43  44
ENDBRANCH  35  38
ENDBRANCH  33  34
ENDBRANCH  32  33
ENDBRANCH  31  32
ENDBRANCH   1  31
TORSDOF 21
ENDMDL
MODEL 3
REMARK VINA RESULT:     -11.7      2.706      9.083
REMARK SMILES CC(=O)N[C@@H](CS[C@H]1CC(=O)N(c2ccc(Cl)cc2Cl)C1=O)C(=O)NCCCCCCNC(=O)c1ccc(-c2c3nc(c(-c4c(F)cc(S(=O)(=O)[O-])cc4F)c4ccc([nH]4)c(-c4c(F)cc(S(=O)(=O)[O-])cc4F)c4nc(c(-c5c(F)cc(S(=O)(=O)[O-])cc5F)c5ccc2[nH]5)C=C4)C=C3)cc1
REMARK SMILES IDX 28 1 27 2 26 3 25 4 23 5 24 6 5 8 4 9 1 10 2 11 3 12 6 14
REMARK SMILES IDX 7 15 8 16 9 17 21 18 10 19 12 20 22 21 11 22 13 23 14 24
REMARK SMILES IDX 19 25 15 26 18 27 20 28 16 29 17 30 29 31 30 32 31 33 32 34
REMARK SMILES IDX 33 35 34 37 35 38 36 39 100 40 37 41 99 42 38 43 39 44 40 45
REMARK SMILES IDX 93 46 41 47 98 48 92 49 94 50 42 51 97 52 91 53 90 54 43 56
REMARK SMILES IDX 77 57 56 58 76 59 57 60 60 61 75 62 95 63 58 64 59 65 74 67
REMARK SMILES IDX 96 68 61 69 44 70 45 71 54 72 46 73 47 74 53 75 55 76 48 77
REMARK SMILES IDX 49 78 50 79 51 80 52 81 78 82 79 83 88 84 80 85 81 86 87 87
REMARK SMILES IDX 89 88 82 89 83 90 84 91 85 92 86 93 62 94 63 95 72 96 64 97
REMARK SMILES IDX 65 98 71 99 73 100 66 101 67 102 68 103 69 104 70 105
REMARK H PARENT 25 7 4 13 32 36 94 55 60 66
REMARK Flexibility Score: inf
ROOT
ATOM      1  C   UNL A   1      34.394  29.031  26.931  1.00  0.00     0.002 C 
ENDROOT
BRANCH   1   2
ATOM      2  C   UNL A   1      33.029  28.548  27.438  1.00  0.00     0.021 C 
BRANCH   2   3
ATOM      3  C   UNL A   1      32.050  28.148  26.336  1.00  0.00     0.116 C 
BRANCH   3   4
ATOM      4  N   UNL A   1      31.112  27.100  26.672  1.00  0.00    -0.354 N 
ATOM      5  C   UNL A   1      30.391  26.300  25.823  1.00  0.00     0.243 C 
ATOM      6  O   UNL A   1      29.629  25.463  26.322  1.00  0.00    -0.273 OA
ATOM      7  H   UNL A   1      30.974  26.939  27.633  1.00  0.00     0.163 HD
BRANCH   5   8
ATOM      8  C   UNL A   1      30.479  26.428  24.279  1.00  0.00     0.181 C 
BRANCH   8   9
ATOM      9  N   UNL A   1      30.536  27.841  23.897  1.00  0.00    -0.344 N 
ATOM     10  C   UNL A   1      28.145  27.963  23.228  1.00  0.00     0.114 C 
ATOM     11  C   UNL A   1      29.464  28.623  23.556  1.00  0.00     0.217 C 
ATOM     12  O   UNL A   1      29.604  29.843  23.481  1.00  0.00    -0.275 OA
ATOM     13  H   UNL A   1      31.424  28.267  23.883  1.00  0.00     0.164 HD
ENDBRANCH   8   9
BRANCH   8  14
ATOM     14  C   UNL A   1      31.445  25.490  23.508  1.00  0.00     0.105 C 
BRANCH  14  15
ATOM     15  S   UNL A   1      33.050  26.059  22.812  1.00  0.00    -0.145 SA
BRANCH  15  16
ATOM     16  C   UNL A   1      34.273  25.107  23.822  1.00  0.00     0.146 C 
ATOM     17  C   UNL A   1      33.927  25.155  25.298  1.00  0.00     0.125 C 
ATOM     18  C   UNL A   1      34.273  23.631  23.502  1.00  0.00     0.247 C 
ATOM     19  C   UNL A   1      33.773  23.720  25.707  1.00  0.00     0.235 C 
ATOM     20  N   UNL A   1      34.007  22.896  24.635  1.00  0.00    -0.248 N 
ATOM     21  O   UNL A   1      34.434  23.224  22.362  1.00  0.00    -0.273 OA
ATOM     22  O   UNL A   1      33.492  23.403  26.856  1.00  0.00    -0.274 OA
BRANCH  20  23
ATOM     23  C   UNL A   1      33.820  21.470  24.648  1.00  0.00     0.070 A 
ATOM     24  C   UNL A   1      32.553  20.937  24.335  1.00  0.00     0.030 A 
ATOM     25  C   UNL A   1      34.850  20.535  24.881  1.00  0.00     0.066 A 
ATOM     26  C   UNL A   1      32.354  19.571  24.093  1.00  0.00     0.023 A 
ATOM     27  C   UNL A   1      34.655  19.163  24.642  1.00  0.00     0.043 A 
ATOM     28  Cl  UNL A   1      36.322  20.943  25.703  1.00  0.00    -0.082 Cl
ATOM     29  C   UNL A   1      33.418  18.693  24.216  1.00  0.00     0.042 A 
ATOM     30  Cl  UNL A   1      33.197  17.021  23.888  1.00  0.00    -0.084 Cl
ENDBRANCH  20  23
ENDBRANCH  15  16
ENDBRANCH  14  15
ENDBRANCH   8  14
ENDBRANCH   5   8
ENDBRANCH   3   4
ENDBRANCH   2   3
ENDBRANCH   1   2
BRANCH   1  31
ATOM     31  C   UNL A   1      35.124  30.030  27.844  1.00  0.00     0.002 C 
BRANCH  31  32
ATOM     32  C   UNL A   1      34.329  31.213  28.383  1.00  0.00     0.021 C 
BRANCH  32  33
ATOM     33  C   UNL A   1      34.356  32.467  27.525  1.00  0.00     0.116 C 
BRANCH  33  34
ATOM     34  N   UNL A   1      33.346  33.471  27.842  1.00  0.00    -0.352 N 
ATOM     35  C   UNL A   1      33.411  34.439  28.825  1.00  0.00     0.251 C 
ATOM     36  H   UNL A   1      32.527  33.456  27.296  1.00  0.00     0.163 HD
ATOM     37  O   UNL A   1      32.510  35.259  28.970  1.00  0.00    -0.269 OA
BRANCH  35  38
ATOM     38  C   UNL A   1      34.544  34.371  29.769  1.00  0.00     0.039 A 
ATOM     39  C   UNL A   1      34.316  33.808  31.027  1.00  0.00     0.014 A 
ATOM     40  C   UNL A   1      35.841  34.597  29.313  1.00  0.00     0.014 A 
ATOM     41  C   UNL A   1      35.401  33.335  31.765  1.00  0.00     0.010 A 
ATOM     42  C   UNL A   1      36.901  34.006  29.986  1.00  0.00     0.010 A 
ATOM     43  C   UNL A   1      36.691  33.351  31.210  1.00  0.00    -0.014 A 
BRANCH  43  44
ATOM     44  C   UNL A   1      37.825  32.659  31.876  1.00  0.00     0.031 A 
ATOM     45  C   UNL A   1      38.319  33.146  33.211  1.00  0.00     0.074 A 
ATOM     46  C   UNL A   1      38.462  31.652  31.243  1.00  0.00     0.049 A 
ATOM     47  N   UNL A   1      39.335  32.726  33.919  1.00  0.00    -0.248 NA
ATOM     48  C   UNL A   1      37.611  34.293  33.804  1.00  0.00     0.031 C 
ATOM     49  C   UNL A   1      38.148  31.153  29.898  1.00  0.00     0.029 A 
ATOM     50  N   UNL A   1      39.511  30.861  31.644  1.00  0.00    -0.354 N 
ATOM     51  C   UNL A   1      39.404  33.574  35.016  1.00  0.00     0.074 A 
ATOM     52  C   UNL A   1      38.376  34.576  34.845  1.00  0.00     0.031 C 
ATOM     53  C   UNL A   1      38.948  30.113  29.612  1.00  0.00     0.029 A 
ATOM     54  C   UNL A   1      39.851  29.885  30.735  1.00  0.00     0.049 A 
ATOM     55  H   UNL A   1      39.977  30.983  32.502  1.00  0.00     0.167 HD
ATOM     56  C   UNL A   1      40.220  33.504  36.094  1.00  0.00     0.037 A 
ATOM     57  C   UNL A   1      40.773  28.906  30.809  1.00  0.00     0.037 A 
ATOM     58  C   UNL A   1      41.195  32.466  36.291  1.00  0.00     0.049 A 
ATOM     59  C   UNL A   1      41.600  28.785  32.060  1.00  0.00     0.074 A 
ATOM     60  C   UNL A   1      42.029  32.257  37.375  1.00  0.00     0.029 A 
ATOM     61  N   UNL A   1      41.449  31.446  35.385  1.00  0.00    -0.354 N 
ATOM     62  N   UNL A   1      41.607  29.558  33.121  1.00  0.00    -0.248 NA
ATOM     63  C   UNL A   1      42.532  27.652  32.134  1.00  0.00     0.031 C 
ATOM     64  C   UNL A   1      42.796  31.114  37.119  1.00  0.00     0.029 A 
ATOM     65  C   UNL A   1      42.421  30.598  35.888  1.00  0.00     0.049 A 
ATOM     66  H   UNL A   1      41.005  31.340  34.513  1.00  0.00     0.167 HD
ATOM     67  C   UNL A   1      42.524  28.991  33.997  1.00  0.00     0.074 A 
ATOM     68  C   UNL A   1      43.041  27.802  33.349  1.00  0.00     0.031 C 
ATOM     69  C   UNL A   1      42.906  29.414  35.228  1.00  0.00     0.037 A 
BRANCH  56  70
ATOM     70  C   UNL A   1      40.059  34.566  37.144  1.00  0.00     0.058 A 
ATOM     71  C   UNL A   1      39.156  34.410  38.209  1.00  0.00     0.135 A 
ATOM     72  C   UNL A   1      40.793  35.760  37.077  1.00  0.00     0.135 A 
ATOM     73  F   UNL A   1      38.412  33.297  38.308  1.00  0.00    -0.206 F 
ATOM     74  C   UNL A   1      38.950  35.420  39.141  1.00  0.00     0.059 A 
ATOM     75  C   UNL A   1      40.624  36.773  38.017  1.00  0.00     0.059 A 
ATOM     76  F   UNL A   1      41.669  35.961  36.080  1.00  0.00    -0.206 F 
ATOM     77  C   UNL A   1      39.684  36.602  39.032  1.00  0.00     0.060 A 
BRANCH  77  78
ATOM     78  S   UNL A   1      39.390  37.916  40.234  1.00  0.00     0.124 S 
ATOM     79  O   UNL A   1      38.183  38.536  39.695  1.00  0.00    -0.237 OA
ATOM     80  O   UNL A   1      39.215  37.173  41.478  1.00  0.00    -0.237 OA
ATOM     81  O   UNL A   1      40.602  38.724  40.155  1.00  0.00    -0.744 OA
ENDBRANCH  77  78
ENDBRANCH  56  70
BRANCH  57  82
ATOM     82  C   UNL A   1      40.914  27.922  29.702  1.00  0.00     0.058 A 
ATOM     83  C   UNL A   1      39.980  26.889  29.540  1.00  0.00     0.135 A 
ATOM     84  C   UNL A   1      41.972  27.997  28.784  1.00  0.00     0.135 A 
ATOM     85  F   UNL A   1      38.953  26.774  30.395  1.00  0.00    -0.206 F 
ATOM     86  C   UNL A   1      40.097  25.951  28.518  1.00  0.00     0.059 A 
ATOM     87  C   UNL A   1      42.099  27.083  27.742  1.00  0.00     0.059 A 
ATOM     88  F   UNL A   1      42.881  28.979  28.883  1.00  0.00    -0.206 F 
ATOM     89  C   UNL A   1      41.162  26.057  27.623  1.00  0.00     0.060 A 
BRANCH  89  90
ATOM     90  S   UNL A   1      41.281  24.865  26.270  1.00  0.00     0.124 S 
ATOM     91  O   UNL A   1      39.955  24.258  26.297  1.00  0.00    -0.237 OA
ATOM     92  O   UNL A   1      41.568  25.724  25.125  1.00  0.00    -0.237 OA
ATOM     93  O   UNL A   1      42.381  24.000  26.684  1.00  0.00    -0.744 OA
ENDBRANCH  89  90
ENDBRANCH  57  82
BRANCH  69  94
ATOM     94  C   UNL A   1      43.904  28.567  35.961  1.00  0.00     0.058 A 
ATOM     95  C   UNL A   1      45.281  28.816  35.876  1.00  0.00     0.135 A 
ATOM     96  C   UNL A   1      43.471  27.520  36.789  1.00  0.00     0.135 A 
ATOM     97  F   UNL A   1      45.742  29.805  35.093  1.00  0.00    -0.206 F 
ATOM     98  C   UNL A   1      46.201  28.035  36.566  1.00  0.00     0.059 A 
ATOM     99  C   UNL A   1      44.372  26.740  37.505  1.00  0.00     0.059 A 
ATOM    100  F   UNL A   1      42.161  27.251  36.912  1.00  0.00    -0.206 F 
ATOM    101  C   UNL A   1      45.737  26.997  37.377  1.00  0.00     0.060 A 
BRANCH 101 102
ATOM    102  S   UNL A   1      46.936  26.001  38.286  1.00  0.00     0.124 S 
ATOM    103  O   UNL A   1      46.061  25.138  39.074  1.00  0.00    -0.237 OA
ATOM    104  O   UNL A   1      47.678  25.344  37.215  1.00  0.00    -0.237 OA
ATOM    105  O   UNL A   1      47.691  26.994  39.045  1.00  0.00    -0.744 OA
ENDBRANCH 101 102
ENDBRANCH  69  94
ENDBRANCH  43  44
ENDBRANCH  35  38
ENDBRANCH  33  34
ENDBRANCH  32  33
ENDBRANCH  31  32
ENDBRANCH   1  31
TORSDOF 21
ENDMDL
