MODEL 1
REMARK VINA RESULT:     -11.8      0.000      0.000
REMARK SMILES C[C@H]1[C@@H](C(=O)NCCCCCCNC(=O)c2ccc(-c3c4nc(c(-c5c(F)cc(S(=O)(=O)[O-])cc5F)c5ccc([nH]5)c(-c5c(F)cc(S(=O)(=O)[O-])cc5F)c5nc(c(-c6c(F)cc(S(=O)(=O)[O-])cc6F)c6ccc3[nH]6)C=C5)C=C4)cc2)CCN1C(=O)c1cc2cc(F)ccc2s1
REMARK SMILES IDX 10 1 9 2 8 3 7 4 6 5 4 6 5 7 3 9 1 10 2 11 84 12 82 13 83 14
REMARK SMILES IDX 85 15 86 16 87 17 88 18 96 19 89 20 95 21 90 22 94 23 91 24
REMARK SMILES IDX 93 25 92 26 11 27 12 28 13 29 14 30 15 32 16 33 17 34 81 35
REMARK SMILES IDX 18 36 80 37 19 38 20 39 21 40 74 41 22 42 79 43 73 44 75 45
REMARK SMILES IDX 23 46 78 47 72 48 71 49 24 51 58 52 37 53 57 54 38 55 41 56
REMARK SMILES IDX 56 57 76 58 39 59 40 60 55 62 77 63 42 64 25 65 26 66 35 67
REMARK SMILES IDX 27 68 28 69 34 70 36 71 29 72 30 73 31 74 32 75 33 76 59 77
REMARK SMILES IDX 60 78 69 79 61 80 62 81 68 82 70 83 63 84 64 85 65 86 66 87
REMARK SMILES IDX 67 88 43 89 44 90 53 91 45 92 46 93 52 94 54 95 47 96 48 97
REMARK SMILES IDX 49 98 50 99 51 100
REMARK H PARENT 6 8 13 31 75 50 41 61
REMARK Flexibility Score: inf
ROOT
ATOM      1  C   UNL A   1      39.644  22.110  26.314  1.00  0.00     0.002 C 
ENDROOT
BRANCH   1   2
ATOM      2  C   UNL A   1      38.324  22.855  26.103  1.00  0.00     0.002 C 
BRANCH   2   3
ATOM      3  C   UNL A   1      37.531  22.386  24.884  1.00  0.00     0.021 C 
BRANCH   3   4
ATOM      4  C   UNL A   1      36.893  21.004  25.058  1.00  0.00     0.116 C 
BRANCH   4   5
ATOM      5  N   UNL A   1      35.891  21.087  26.099  1.00  0.00    -0.356 N 
ATOM      6  C   UNL A   1      34.634  21.602  26.076  1.00  0.00     0.225 C 
ATOM      7  O   UNL A   1      34.107  21.786  27.176  1.00  0.00    -0.275 OA
ATOM      8  H   UNL A   1      36.165  20.709  26.966  1.00  0.00     0.163 HD
BRANCH   6   9
ATOM      9  C   UNL A   1      33.876  21.802  24.757  1.00  0.00     0.102 C 
ATOM     10  C   UNL A   1      34.339  24.383  24.502  1.00  0.00     0.032 C 
ATOM     11  C   UNL A   1      33.394  23.213  24.338  1.00  0.00     0.094 C 
ATOM     12  N   UNL A   1      32.089  23.400  24.983  1.00  0.00    -0.334 N 
ATOM     13  C   UNL A   1      32.514  21.088  24.878  1.00  0.00     0.037 C 
ATOM     14  C   UNL A   1      31.655  22.141  25.568  1.00  0.00     0.121 C 
BRANCH  12  15
ATOM     15  C   UNL A   1      31.122  24.152  24.319  1.00  0.00     0.264 C 
ATOM     16  O   UNL A   1      30.538  23.693  23.336  1.00  0.00    -0.268 OA
BRANCH  15  17
ATOM     17  C   UNL A   1      30.792  25.462  24.838  1.00  0.00     0.093 A 
ATOM     18  C   UNL A   1      31.066  25.924  26.109  1.00  0.00     0.034 A 
ATOM     19  S   UNL A   1      30.273  26.729  23.821  1.00  0.00    -0.130 S 
ATOM     20  C   UNL A   1      31.279  27.341  26.119  1.00  0.00    -0.004 A 
ATOM     21  C   UNL A   1      30.927  27.916  24.894  1.00  0.00     0.035 A 
ATOM     22  C   UNL A   1      31.874  28.158  27.106  1.00  0.00     0.048 A 
ATOM     23  C   UNL A   1      31.154  29.281  24.628  1.00  0.00     0.022 A 
ATOM     24  C   UNL A   1      32.177  29.482  26.804  1.00  0.00     0.123 A 
ATOM     25  C   UNL A   1      31.827  30.043  25.587  1.00  0.00     0.041 A 
ATOM     26  F   UNL A   1      32.863  30.213  27.692  1.00  0.00    -0.207 F 
ENDBRANCH  15  17
ENDBRANCH  12  15
ENDBRANCH   6   9
ENDBRANCH   4   5
ENDBRANCH   3   4
ENDBRANCH   2   3
ENDBRANCH   1   2
BRANCH   1  27
ATOM     27  C   UNL A   1      40.359  22.393  27.642  1.00  0.00     0.021 C 
BRANCH  27  28
ATOM     28  C   UNL A   1      41.782  22.937  27.517  1.00  0.00     0.116 C 
BRANCH  28  29
ATOM     29  N   UNL A   1      41.955  23.735  26.315  1.00  0.00    -0.352 N 
ATOM     30  C   UNL A   1      41.764  25.079  26.121  1.00  0.00     0.251 C 
ATOM     31  H   UNL A   1      42.254  23.235  25.521  1.00  0.00     0.163 HD
ATOM     32  O   UNL A   1      41.740  25.532  24.981  1.00  0.00    -0.269 OA
BRANCH  30  33
ATOM     33  C   UNL A   1      41.573  25.981  27.278  1.00  0.00     0.039 A 
ATOM     34  C   UNL A   1      42.556  26.934  27.559  1.00  0.00     0.014 A 
ATOM     35  C   UNL A   1      40.455  25.862  28.110  1.00  0.00     0.014 A 
ATOM     36  C   UNL A   1      42.393  27.803  28.640  1.00  0.00     0.010 A 
ATOM     37  C   UNL A   1      40.268  26.764  29.156  1.00  0.00     0.010 A 
ATOM     38  C   UNL A   1      41.237  27.740  29.434  1.00  0.00    -0.014 A 
BRANCH  38  39
ATOM     39  C   UNL A   1      41.029  28.683  30.562  1.00  0.00     0.031 A 
ATOM     40  C   UNL A   1      41.862  28.567  31.809  1.00  0.00     0.074 A 
ATOM     41  C   UNL A   1      40.050  29.605  30.488  1.00  0.00     0.049 A 
ATOM     42  N   UNL A   1      41.781  29.249  32.923  1.00  0.00    -0.248 NA
ATOM     43  C   UNL A   1      42.911  27.535  31.811  1.00  0.00     0.031 C 
ATOM     44  C   UNL A   1      39.147  29.790  29.349  1.00  0.00     0.029 A 
ATOM     45  N   UNL A   1      39.643  30.552  31.392  1.00  0.00    -0.354 N 
ATOM     46  C   UNL A   1      42.751  28.718  33.764  1.00  0.00     0.074 A 
ATOM     47  C   UNL A   1      43.384  27.633  33.045  1.00  0.00     0.031 C 
ATOM     48  C   UNL A   1      38.302  30.797  29.620  1.00  0.00     0.029 A 
ATOM     49  C   UNL A   1      38.582  31.311  30.957  1.00  0.00     0.049 A 
ATOM     50  H   UNL A   1      40.069  30.677  32.270  1.00  0.00     0.167 HD
ATOM     51  C   UNL A   1      43.096  29.110  35.014  1.00  0.00     0.037 A 
ATOM     52  C   UNL A   1      37.906  32.302  31.570  1.00  0.00     0.037 A 
ATOM     53  C   UNL A   1      42.485  30.210  35.715  1.00  0.00     0.049 A 
ATOM     54  C   UNL A   1      38.317  32.732  32.950  1.00  0.00     0.074 A 
ATOM     55  C   UNL A   1      42.805  30.721  36.961  1.00  0.00     0.029 A 
ATOM     56  N   UNL A   1      41.432  30.970  35.231  1.00  0.00    -0.354 N 
ATOM     57  N   UNL A   1      39.271  32.251  33.712  1.00  0.00    -0.248 NA
ATOM     58  C   UNL A   1      37.563  33.840  33.554  1.00  0.00     0.031 C 
ATOM     59  C   UNL A   1      41.926  31.774  37.241  1.00  0.00     0.029 A 
ATOM     60  C   UNL A   1      41.080  31.938  36.156  1.00  0.00     0.049 A 
ATOM     61  H   UNL A   1      40.998  30.840  34.356  1.00  0.00     0.167 HD
ATOM     62  C   UNL A   1      39.245  33.009  34.876  1.00  0.00     0.074 A 
ATOM     63  C   UNL A   1      38.188  33.988  34.715  1.00  0.00     0.031 C 
ATOM     64  C   UNL A   1      40.026  32.904  35.979  1.00  0.00     0.037 A 
BRANCH  51  65
ATOM     65  C   UNL A   1      44.190  28.343  35.702  1.00  0.00     0.058 A 
ATOM     66  C   UNL A   1      43.906  27.254  36.541  1.00  0.00     0.135 A 
ATOM     67  C   UNL A   1      45.537  28.690  35.509  1.00  0.00     0.135 A 
ATOM     68  F   UNL A   1      42.634  26.891  36.769  1.00  0.00    -0.206 F 
ATOM     69  C   UNL A   1      44.918  26.555  37.192  1.00  0.00     0.059 A 
ATOM     70  C   UNL A   1      46.566  27.990  36.132  1.00  0.00     0.059 A 
ATOM     71  F   UNL A   1      45.862  29.723  34.717  1.00  0.00    -0.206 F 
ATOM     72  C   UNL A   1      46.245  26.935  36.986  1.00  0.00     0.060 A 
BRANCH  72  73
ATOM     73  S   UNL A   1      47.548  26.029  37.846  1.00  0.00     0.124 S 
ATOM     74  O   UNL A   1      48.653  26.145  36.900  1.00  0.00    -0.237 OA
ATOM     75  O   UNL A   1      47.694  26.786  39.085  1.00  0.00    -0.237 OA
ATOM     76  O   UNL A   1      46.987  24.690  37.997  1.00  0.00    -0.744 OA
ENDBRANCH  72  73
ENDBRANCH  51  65
BRANCH  52  77
ATOM     77  C   UNL A   1      36.785  32.974  30.865  1.00  0.00     0.058 A 
ATOM     78  C   UNL A   1      37.030  33.993  29.933  1.00  0.00     0.135 A 
ATOM     79  C   UNL A   1      35.453  32.595  31.087  1.00  0.00     0.135 A 
ATOM     80  F   UNL A   1      38.288  34.392  29.693  1.00  0.00    -0.206 F 
ATOM     81  C   UNL A   1      35.994  34.619  29.250  1.00  0.00     0.059 A 
ATOM     82  C   UNL A   1      34.400  33.193  30.402  1.00  0.00     0.059 A 
ATOM     83  F   UNL A   1      35.169  31.613  31.958  1.00  0.00    -0.206 F 
ATOM     84  C   UNL A   1      34.680  34.210  29.490  1.00  0.00     0.060 A 
BRANCH  84  85
ATOM     85  S   UNL A   1      33.345  34.980  28.550  1.00  0.00     0.124 S 
ATOM     86  O   UNL A   1      32.690  33.818  27.963  1.00  0.00    -0.237 OA
ATOM     87  O   UNL A   1      32.597  35.679  29.589  1.00  0.00    -0.237 OA
ATOM     88  O   UNL A   1      34.056  35.846  27.612  1.00  0.00    -0.744 OA
ENDBRANCH  84  85
ENDBRANCH  52  77
BRANCH  64  89
ATOM     89  C   UNL A   1      39.781  33.883  37.090  1.00  0.00     0.058 A 
ATOM     90  C   UNL A   1      38.966  33.559  38.185  1.00  0.00     0.135 A 
ATOM     91  C   UNL A   1      40.402  35.142  37.082  1.00  0.00     0.135 A 
ATOM     92  F   UNL A   1      38.343  32.371  38.235  1.00  0.00    -0.206 F 
ATOM     93  C   UNL A   1      38.763  34.456  39.229  1.00  0.00     0.059 A 
ATOM     94  C   UNL A   1      40.229  36.047  38.124  1.00  0.00     0.059 A 
ATOM     95  F   UNL A   1      41.198  35.496  36.060  1.00  0.00    -0.206 F 
ATOM     96  C   UNL A   1      39.399  35.699  39.189  1.00  0.00     0.060 A 
BRANCH  96  97
ATOM     97  S   UNL A   1      39.158  36.844  40.564  1.00  0.00     0.124 S 
ATOM     98  O   UNL A   1      38.561  37.992  39.888  1.00  0.00    -0.237 OA
ATOM     99  O   UNL A   1      38.269  36.096  41.447  1.00  0.00    -0.237 OA
ATOM    100  O   UNL A   1      40.511  37.048  41.075  1.00  0.00    -0.744 OA
ENDBRANCH  96  97
ENDBRANCH  64  89
ENDBRANCH  38  39
ENDBRANCH  30  33
ENDBRANCH  28  29
ENDBRANCH  27  28
ENDBRANCH   1  27
TORSDOF 18
ENDMDL
MODEL 2
REMARK VINA RESULT:     -11.7      0.526      8.142
REMARK SMILES C[C@H]1[C@@H](C(=O)NCCCCCCNC(=O)c2ccc(-c3c4nc(c(-c5c(F)cc(S(=O)(=O)[O-])cc5F)c5ccc([nH]5)c(-c5c(F)cc(S(=O)(=O)[O-])cc5F)c5nc(c(-c6c(F)cc(S(=O)(=O)[O-])cc6F)c6ccc3[nH]6)C=C5)C=C4)cc2)CCN1C(=O)c1cc2cc(F)ccc2s1
REMARK SMILES IDX 10 1 9 2 8 3 7 4 6 5 4 6 5 7 3 9 1 10 2 11 84 12 82 13 83 14
REMARK SMILES IDX 85 15 86 16 87 17 88 18 96 19 89 20 95 21 90 22 94 23 91 24
REMARK SMILES IDX 93 25 92 26 11 27 12 28 13 29 14 30 15 32 16 33 17 34 81 35
REMARK SMILES IDX 18 36 80 37 19 38 20 39 21 40 74 41 22 42 79 43 73 44 75 45
REMARK SMILES IDX 23 46 78 47 72 48 71 49 24 51 58 52 37 53 57 54 38 55 41 56
REMARK SMILES IDX 56 57 76 58 39 59 40 60 55 62 77 63 42 64 25 65 26 66 35 67
REMARK SMILES IDX 27 68 28 69 34 70 36 71 29 72 30 73 31 74 32 75 33 76 59 77
REMARK SMILES IDX 60 78 69 79 61 80 62 81 68 82 70 83 63 84 64 85 65 86 66 87
REMARK SMILES IDX 67 88 43 89 44 90 53 91 45 92 46 93 52 94 54 95 47 96 48 97
REMARK SMILES IDX 49 98 50 99 51 100
REMARK H PARENT 6 8 13 31 75 50 41 61
REMARK Flexibility Score: inf
ROOT
ATOM      1  C   UNL A   1      39.241  21.369  26.197  1.00  0.00     0.002 C 
ENDROOT
BRANCH   1   2
ATOM      2  C   UNL A   1      38.178  22.396  25.804  1.00  0.00     0.002 C 
BRANCH   2   3
ATOM      3  C   UNL A   1      37.298  21.965  24.631  1.00  0.00     0.021 C 
BRANCH   3   4
ATOM      4  C   UNL A   1      36.542  20.656  24.876  1.00  0.00     0.116 C 
BRANCH   4   5
ATOM      5  N   UNL A   1      35.613  20.857  25.966  1.00  0.00    -0.356 N 
ATOM      6  C   UNL A   1      34.387  21.443  25.986  1.00  0.00     0.225 C 
ATOM      7  O   UNL A   1      33.940  21.721  27.101  1.00  0.00    -0.275 OA
ATOM      8  H   UNL A   1      35.918  20.514  26.837  1.00  0.00     0.163 HD
BRANCH   6   9
ATOM      9  C   UNL A   1      33.561  21.612  24.703  1.00  0.00     0.102 C 
ATOM     10  C   UNL A   1      34.253  24.102  24.194  1.00  0.00     0.032 C 
ATOM     11  C   UNL A   1      33.190  23.026  24.193  1.00  0.00     0.094 C 
ATOM     12  N   UNL A   1      31.957  23.398  24.898  1.00  0.00    -0.334 N 
ATOM     13  C   UNL A   1      32.148  21.053  24.971  1.00  0.00     0.037 C 
ATOM     14  C   UNL A   1      31.446  22.241  25.617  1.00  0.00     0.121 C 
BRANCH  12  15
ATOM     15  C   UNL A   1      31.024  24.188  24.231  1.00  0.00     0.264 C 
ATOM     16  O   UNL A   1      30.447  23.765  23.229  1.00  0.00    -0.268 OA
BRANCH  15  17
ATOM     17  C   UNL A   1      30.718  25.497  24.770  1.00  0.00     0.093 A 
ATOM     18  C   UNL A   1      30.987  25.928  26.053  1.00  0.00     0.034 A 
ATOM     19  S   UNL A   1      30.245  26.794  23.770  1.00  0.00    -0.130 S 
ATOM     20  C   UNL A   1      31.234  27.338  26.092  1.00  0.00    -0.004 A 
ATOM     21  C   UNL A   1      30.912  27.945  24.874  1.00  0.00     0.035 A 
ATOM     22  C   UNL A   1      31.834  28.122  27.102  1.00  0.00     0.048 A 
ATOM     23  C   UNL A   1      31.177  29.309  24.636  1.00  0.00     0.022 A 
ATOM     24  C   UNL A   1      32.174  29.444  26.829  1.00  0.00     0.123 A 
ATOM     25  C   UNL A   1      31.855  30.036  25.618  1.00  0.00     0.041 A 
ATOM     26  F   UNL A   1      32.865  30.142  27.740  1.00  0.00    -0.207 F 
ENDBRANCH  15  17
ENDBRANCH  12  15
ENDBRANCH   6   9
ENDBRANCH   4   5
ENDBRANCH   3   4
ENDBRANCH   2   3
ENDBRANCH   1   2
BRANCH   1  27
ATOM     27  C   UNL A   1      40.533  21.947  26.789  1.00  0.00     0.021 C 
BRANCH  27  28
ATOM     28  C   UNL A   1      40.484  23.433  27.144  1.00  0.00     0.116 C 
BRANCH  28  29
ATOM     29  N   UNL A   1      41.054  24.261  26.096  1.00  0.00    -0.352 N 
ATOM     30  C   UNL A   1      41.247  25.619  26.061  1.00  0.00     0.251 C 
ATOM     31  H   UNL A   1      41.345  23.776  25.290  1.00  0.00     0.163 HD
ATOM     32  O   UNL A   1      41.532  26.166  24.999  1.00  0.00    -0.269 OA
BRANCH  30  33
ATOM     33  C   UNL A   1      41.102  26.426  27.291  1.00  0.00     0.039 A 
ATOM     34  C   UNL A   1      41.985  27.488  27.510  1.00  0.00     0.014 A 
ATOM     35  C   UNL A   1      40.129  26.116  28.248  1.00  0.00     0.014 A 
ATOM     36  C   UNL A   1      41.861  28.270  28.660  1.00  0.00     0.010 A 
ATOM     37  C   UNL A   1      39.973  26.929  29.369  1.00  0.00     0.010 A 
ATOM     38  C   UNL A   1      40.839  28.011  29.588  1.00  0.00    -0.014 A 
BRANCH  38  39
ATOM     39  C   UNL A   1      40.667  28.859  30.796  1.00  0.00     0.031 A 
ATOM     40  C   UNL A   1      39.611  29.929  30.825  1.00  0.00     0.074 A 
ATOM     41  C   UNL A   1      41.503  28.705  31.841  1.00  0.00     0.049 A 
ATOM     42  N   UNL A   1      39.356  30.812  31.756  1.00  0.00    -0.248 NA
ATOM     43  C   UNL A   1      38.739  30.031  29.644  1.00  0.00     0.031 C 
ATOM     44  C   UNL A   1      42.594  27.732  31.917  1.00  0.00     0.029 A 
ATOM     45  N   UNL A   1      41.571  29.375  33.037  1.00  0.00    -0.354 N 
ATOM     46  C   UNL A   1      38.311  31.588  31.267  1.00  0.00     0.074 A 
ATOM     47  C   UNL A   1      38.003  31.092  29.943  1.00  0.00     0.031 C 
ATOM     48  C   UNL A   1      43.214  27.859  33.100  1.00  0.00     0.029 A 
ATOM     49  C   UNL A   1      42.585  28.938  33.856  1.00  0.00     0.049 A 
ATOM     50  H   UNL A   1      40.953  30.099  33.285  1.00  0.00     0.167 HD
ATOM     51  C   UNL A   1      37.655  32.606  31.874  1.00  0.00     0.037 A 
ATOM     52  C   UNL A   1      42.970  29.365  35.075  1.00  0.00     0.037 A 
ATOM     53  C   UNL A   1      37.943  33.076  33.205  1.00  0.00     0.049 A 
ATOM     54  C   UNL A   1      42.217  30.486  35.735  1.00  0.00     0.074 A 
ATOM     55  C   UNL A   1      37.297  34.062  33.929  1.00  0.00     0.029 A 
ATOM     56  N   UNL A   1      38.961  32.591  34.012  1.00  0.00    -0.354 N 
ATOM     57  N   UNL A   1      41.199  31.174  35.279  1.00  0.00    -0.248 NA
ATOM     58  C   UNL A   1      42.663  30.885  37.078  1.00  0.00     0.031 C 
ATOM     59  C   UNL A   1      37.940  34.192  35.164  1.00  0.00     0.029 A 
ATOM     60  C   UNL A   1      38.968  33.264  35.222  1.00  0.00     0.049 A 
ATOM     61  H   UNL A   1      39.585  31.872  33.762  1.00  0.00     0.167 HD
ATOM     62  C   UNL A   1      40.869  32.075  36.284  1.00  0.00     0.074 A 
ATOM     63  C   UNL A   1      41.790  31.838  37.377  1.00  0.00     0.031 C 
ATOM     64  C   UNL A   1      39.892  33.014  36.300  1.00  0.00     0.037 A 
BRANCH  51  65
ATOM     65  C   UNL A   1      36.556  33.278  31.101  1.00  0.00     0.058 A 
ATOM     66  C   UNL A   1      36.834  34.107  30.002  1.00  0.00     0.135 A 
ATOM     67  C   UNL A   1      35.211  33.081  31.450  1.00  0.00     0.135 A 
ATOM     68  F   UNL A   1      38.104  34.340  29.636  1.00  0.00    -0.206 F 
ATOM     69  C   UNL A   1      35.818  34.744  29.298  1.00  0.00     0.059 A 
ATOM     70  C   UNL A   1      34.177  33.689  30.745  1.00  0.00     0.059 A 
ATOM     71  F   UNL A   1      34.891  32.297  32.492  1.00  0.00    -0.206 F 
ATOM     72  C   UNL A   1      34.492  34.534  29.680  1.00  0.00     0.060 A 
BRANCH  72  73
ATOM     73  S   UNL A   1      33.182  35.376  28.766  1.00  0.00     0.124 S 
ATOM     74  O   UNL A   1      32.611  34.273  28.000  1.00  0.00    -0.237 OA
ATOM     75  O   UNL A   1      32.342  35.906  29.835  1.00  0.00    -0.237 OA
ATOM     76  O   UNL A   1      33.904  36.377  27.987  1.00  0.00    -0.744 OA
ENDBRANCH  72  73
ENDBRANCH  51  65
BRANCH  52  77
ATOM     77  C   UNL A   1      44.112  28.706  35.758  1.00  0.00     0.058 A 
ATOM     78  C   UNL A   1      43.904  27.624  36.624  1.00  0.00     0.135 A 
ATOM     79  C   UNL A   1      45.432  29.127  35.540  1.00  0.00     0.135 A 
ATOM     80  F   UNL A   1      42.657  27.191  36.867  1.00  0.00    -0.206 F 
ATOM     81  C   UNL A   1      44.962  26.983  37.257  1.00  0.00     0.059 A 
ATOM     82  C   UNL A   1      46.510  28.491  36.147  1.00  0.00     0.059 A 
ATOM     83  F   UNL A   1      45.684  30.150  34.707  1.00  0.00    -0.206 F 
ATOM     84  C   UNL A   1      46.265  27.423  37.010  1.00  0.00     0.060 A 
BRANCH  84  85
ATOM     85  S   UNL A   1      47.640  26.545  37.782  1.00  0.00     0.124 S 
ATOM     86  O   UNL A   1      48.739  26.872  36.883  1.00  0.00    -0.237 OA
ATOM     87  O   UNL A   1      47.693  27.153  39.107  1.00  0.00    -0.237 OA
ATOM     88  O   UNL A   1      47.197  25.152  37.760  1.00  0.00    -0.744 OA
ENDBRANCH  84  85
ENDBRANCH  52  77
BRANCH  64  89
ATOM     89  C   UNL A   1      39.755  33.843  37.544  1.00  0.00     0.058 A 
ATOM     90  C   UNL A   1      40.445  35.055  37.696  1.00  0.00     0.135 A 
ATOM     91  C   UNL A   1      38.891  33.443  38.575  1.00  0.00     0.135 A 
ATOM     92  F   UNL A   1      41.289  35.476  36.741  1.00  0.00    -0.206 F 
ATOM     93  C   UNL A   1      40.295  35.837  38.837  1.00  0.00     0.059 A 
ATOM     94  C   UNL A   1      38.711  34.219  39.716  1.00  0.00     0.059 A 
ATOM     95  F   UNL A   1      38.202  32.295  38.474  1.00  0.00    -0.206 F 
ATOM     96  C   UNL A   1      39.425  35.410  39.843  1.00  0.00     0.060 A 
BRANCH  96  97
ATOM     97  S   UNL A   1      39.210  36.447  41.304  1.00  0.00     0.124 S 
ATOM     98  O   UNL A   1      38.121  35.760  41.993  1.00  0.00    -0.237 OA
ATOM     99  O   UNL A   1      40.517  36.364  41.947  1.00  0.00    -0.237 OA
ATOM    100  O   UNL A   1      38.876  37.753  40.745  1.00  0.00    -0.744 OA
ENDBRANCH  96  97
ENDBRANCH  64  89
ENDBRANCH  38  39
ENDBRANCH  30  33
ENDBRANCH  28  29
ENDBRANCH  27  28
ENDBRANCH   1  27
TORSDOF 18
ENDMDL
MODEL 3
REMARK VINA RESULT:     -11.7      6.368     12.019
REMARK SMILES C[C@H]1[C@@H](C(=O)NCCCCCCNC(=O)c2ccc(-c3c4nc(c(-c5c(F)cc(S(=O)(=O)[O-])cc5F)c5ccc([nH]5)c(-c5c(F)cc(S(=O)(=O)[O-])cc5F)c5nc(c(-c6c(F)cc(S(=O)(=O)[O-])cc6F)c6ccc3[nH]6)C=C5)C=C4)cc2)CCN1C(=O)c1cc2cc(F)ccc2s1
REMARK SMILES IDX 10 1 9 2 8 3 7 4 6 5 4 6 5 7 3 9 1 10 2 11 84 12 82 13 83 14
REMARK SMILES IDX 85 15 86 16 87 17 88 18 96 19 89 20 95 21 90 22 94 23 91 24
REMARK SMILES IDX 93 25 92 26 11 27 12 28 13 29 14 30 15 32 16 33 17 34 81 35
REMARK SMILES IDX 18 36 80 37 19 38 20 39 21 40 74 41 22 42 79 43 73 44 75 45
REMARK SMILES IDX 23 46 78 47 72 48 71 49 24 51 58 52 37 53 57 54 38 55 41 56
REMARK SMILES IDX 56 57 76 58 39 59 40 60 55 62 77 63 42 64 25 65 26 66 35 67
REMARK SMILES IDX 27 68 28 69 34 70 36 71 29 72 30 73 31 74 32 75 33 76 59 77
REMARK SMILES IDX 60 78 69 79 61 80 62 81 68 82 70 83 63 84 64 85 65 86 66 87
REMARK SMILES IDX 67 88 43 89 44 90 53 91 45 92 46 93 52 94 54 95 47 96 48 97
REMARK SMILES IDX 49 98 50 99 51 100
REMARK H PARENT 6 8 13 31 75 50 41 61
REMARK Flexibility Score: inf
ROOT
ATOM      1  C   UNL A   1      35.245  30.492  27.613  1.00  0.00     0.002 C 
ENDROOT
BRANCH   1   2
ATOM      2  C   UNL A   1      33.884  29.831  27.386  1.00  0.00     0.002 C 
BRANCH   2   3
ATOM      3  C   UNL A   1      32.814  30.778  26.845  1.00  0.00     0.021 C 
BRANCH   3   4
ATOM      4  C   UNL A   1      31.722  30.075  26.033  1.00  0.00     0.116 C 
BRANCH   4   5
ATOM      5  N   UNL A   1      32.178  29.939  24.667  1.00  0.00    -0.356 N 
ATOM      6  C   UNL A   1      32.082  28.895  23.803  1.00  0.00     0.225 C 
ATOM      7  O   UNL A   1      32.799  28.958  22.801  1.00  0.00    -0.275 OA
ATOM      8  H   UNL A   1      32.634  30.733  24.304  1.00  0.00     0.163 HD
BRANCH   6   9
ATOM      9  C   UNL A   1      31.040  27.786  24.001  1.00  0.00     0.102 C 
ATOM     10  C   UNL A   1      32.422  26.342  25.717  1.00  0.00     0.032 C 
ATOM     11  C   UNL A   1      31.466  26.401  24.546  1.00  0.00     0.094 C 
ATOM     12  N   UNL A   1      31.900  25.625  23.378  1.00  0.00    -0.334 N 
ATOM     13  C   UNL A   1      30.519  27.369  22.611  1.00  0.00     0.037 C 
ATOM     14  C   UNL A   1      31.562  26.352  22.165  1.00  0.00     0.121 C 
BRANCH  12  15
ATOM     15  C   UNL A   1      31.673  24.251  23.373  1.00  0.00     0.264 C 
ATOM     16  O   UNL A   1      30.526  23.805  23.420  1.00  0.00    -0.268 OA
BRANCH  15  17
ATOM     17  C   UNL A   1      32.813  23.365  23.265  1.00  0.00     0.093 A 
ATOM     18  C   UNL A   1      34.125  23.750  23.081  1.00  0.00     0.034 A 
ATOM     19  S   UNL A   1      32.707  21.709  23.661  1.00  0.00    -0.130 S 
ATOM     20  C   UNL A   1      35.035  22.825  23.689  1.00  0.00    -0.004 A 
ATOM     21  C   UNL A   1      34.377  21.663  24.104  1.00  0.00     0.035 A 
ATOM     22  C   UNL A   1      36.403  22.981  24.007  1.00  0.00     0.048 A 
ATOM     23  C   UNL A   1      35.045  20.657  24.830  1.00  0.00     0.022 A 
ATOM     24  C   UNL A   1      37.032  22.026  24.800  1.00  0.00     0.123 A 
ATOM     25  C   UNL A   1      36.371  20.880  25.210  1.00  0.00     0.041 A 
ATOM     26  F   UNL A   1      38.287  22.245  25.213  1.00  0.00    -0.207 F 
ENDBRANCH  15  17
ENDBRANCH  12  15
ENDBRANCH   6   9
ENDBRANCH   4   5
ENDBRANCH   3   4
ENDBRANCH   2   3
ENDBRANCH   1   2
BRANCH   1  27
ATOM     27  C   UNL A   1      35.202  31.932  28.141  1.00  0.00     0.021 C 
BRANCH  27  28
ATOM     28  C   UNL A   1      36.298  32.296  29.142  1.00  0.00     0.116 C 
BRANCH  28  29
ATOM     29  N   UNL A   1      36.054  31.713  30.450  1.00  0.00    -0.352 N 
ATOM     30  C   UNL A   1      36.736  30.722  31.108  1.00  0.00     0.251 C 
ATOM     31  H   UNL A   1      35.284  32.086  30.938  1.00  0.00     0.163 HD
ATOM     32  O   UNL A   1      36.245  30.205  32.107  1.00  0.00    -0.269 OA
BRANCH  30  33
ATOM     33  C   UNL A   1      38.053  30.265  30.612  1.00  0.00     0.039 A 
ATOM     34  C   UNL A   1      38.256  30.163  29.233  1.00  0.00     0.014 A 
ATOM     35  C   UNL A   1      39.070  29.897  31.499  1.00  0.00     0.014 A 
ATOM     36  C   UNL A   1      39.494  29.743  28.742  1.00  0.00     0.010 A 
ATOM     37  C   UNL A   1      40.321  29.529  31.008  1.00  0.00     0.010 A 
ATOM     38  C   UNL A   1      40.544  29.445  29.625  1.00  0.00    -0.014 A 
BRANCH  38  39
ATOM     39  C   UNL A   1      41.879  29.037  29.118  1.00  0.00     0.031 A 
ATOM     40  C   UNL A   1      42.992  30.044  29.022  1.00  0.00     0.074 A 
ATOM     41  C   UNL A   1      42.071  27.775  28.688  1.00  0.00     0.049 A 
ATOM     42  N   UNL A   1      44.200  29.897  28.541  1.00  0.00    -0.248 NA
ATOM     43  C   UNL A   1      42.702  31.401  29.513  1.00  0.00     0.031 C 
ATOM     44  C   UNL A   1      41.059  26.717  28.690  1.00  0.00     0.029 A 
ATOM     45  N   UNL A   1      43.181  27.171  28.154  1.00  0.00    -0.354 N 
ATOM     46  C   UNL A   1      44.807  31.142  28.652  1.00  0.00     0.074 A 
ATOM     47  C   UNL A   1      43.823  32.042  29.213  1.00  0.00     0.031 C 
ATOM     48  C   UNL A   1      41.599  25.592  28.195  1.00  0.00     0.029 A 
ATOM     49  C   UNL A   1      42.984  25.854  27.814  1.00  0.00     0.049 A 
ATOM     50  H   UNL A   1      44.039  27.637  28.027  1.00  0.00     0.167 HD
ATOM     51  C   UNL A   1      46.075  31.498  28.333  1.00  0.00     0.037 A 
ATOM     52  C   UNL A   1      43.821  24.961  27.252  1.00  0.00     0.037 A 
ATOM     53  C   UNL A   1      47.062  30.593  27.804  1.00  0.00     0.049 A 
ATOM     54  C   UNL A   1      45.228  25.374  26.922  1.00  0.00     0.074 A 
ATOM     55  C   UNL A   1      48.390  30.845  27.505  1.00  0.00     0.029 A 
ATOM     56  N   UNL A   1      46.830  29.260  27.498  1.00  0.00    -0.354 N 
ATOM     57  N   UNL A   1      45.800  26.544  27.081  1.00  0.00    -0.248 NA
ATOM     58  C   UNL A   1      46.104  24.347  26.341  1.00  0.00     0.031 C 
ATOM     59  C   UNL A   1      48.953  29.671  26.992  1.00  0.00     0.029 A 
ATOM     60  C   UNL A   1      47.985  28.680  27.002  1.00  0.00     0.049 A 
ATOM     61  H   UNL A   1      45.970  28.796  27.617  1.00  0.00     0.167 HD
ATOM     62  C   UNL A   1      47.108  26.388  26.637  1.00  0.00     0.074 A 
ATOM     63  C   UNL A   1      47.246  25.010  26.213  1.00  0.00     0.031 C 
ATOM     64  C   UNL A   1      48.105  27.306  26.586  1.00  0.00     0.037 A 
BRANCH  51  65
ATOM     65  C   UNL A   1      46.465  32.932  28.554  1.00  0.00     0.058 A 
ATOM     66  C   UNL A   1      46.324  33.895  27.542  1.00  0.00     0.135 A 
ATOM     67  C   UNL A   1      46.972  33.353  29.794  1.00  0.00     0.135 A 
ATOM     68  F   UNL A   1      45.858  33.541  26.334  1.00  0.00    -0.206 F 
ATOM     69  C   UNL A   1      46.702  35.219  27.741  1.00  0.00     0.059 A 
ATOM     70  C   UNL A   1      47.336  34.677  30.022  1.00  0.00     0.059 A 
ATOM     71  F   UNL A   1      47.127  32.473  30.795  1.00  0.00    -0.206 F 
ATOM     72  C   UNL A   1      47.213  35.599  28.982  1.00  0.00     0.060 A 
BRANCH  72  73
ATOM     73  S   UNL A   1      47.713  37.317  29.224  1.00  0.00     0.124 S 
ATOM     74  O   UNL A   1      49.151  37.236  28.987  1.00  0.00    -0.237 OA
ATOM     75  O   UNL A   1      46.942  38.017  28.202  1.00  0.00    -0.237 OA
ATOM     76  O   UNL A   1      47.317  37.594  30.601  1.00  0.00    -0.744 OA
ENDBRANCH  72  73
ENDBRANCH  51  65
BRANCH  52  77
ATOM     77  C   UNL A   1      43.352  23.576  26.992  1.00  0.00     0.058 A 
ATOM     78  C   UNL A   1      43.011  23.165  25.696  1.00  0.00     0.135 A 
ATOM     79  C   UNL A   1      43.262  22.631  28.025  1.00  0.00     0.135 A 
ATOM     80  F   UNL A   1      43.076  24.036  24.678  1.00  0.00    -0.206 F 
ATOM     81  C   UNL A   1      42.589  21.867  25.431  1.00  0.00     0.059 A 
ATOM     82  C   UNL A   1      42.861  21.322  27.783  1.00  0.00     0.059 A 
ATOM     83  F   UNL A   1      43.594  22.973  29.280  1.00  0.00    -0.206 F 
ATOM     84  C   UNL A   1      42.520  20.950  26.483  1.00  0.00     0.060 A 
BRANCH  84  85
ATOM     85  S   UNL A   1      42.036  19.249  26.121  1.00  0.00     0.124 S 
ATOM     86  O   UNL A   1      40.597  19.385  25.938  1.00  0.00    -0.237 OA
ATOM     87  O   UNL A   1      42.810  18.954  24.920  1.00  0.00    -0.237 OA
ATOM     88  O   UNL A   1      42.456  18.523  27.318  1.00  0.00    -0.744 OA
ENDBRANCH  84  85
ENDBRANCH  52  77
BRANCH  64  89
ATOM     89  C   UNL A   1      49.437  26.844  26.070  1.00  0.00     0.058 A 
ATOM     90  C   UNL A   1      49.828  27.075  24.742  1.00  0.00     0.135 A 
ATOM     91  C   UNL A   1      50.349  26.205  26.924  1.00  0.00     0.135 A 
ATOM     92  F   UNL A   1      48.988  27.675  23.885  1.00  0.00    -0.206 F 
ATOM     93  C   UNL A   1      51.075  26.673  24.274  1.00  0.00     0.059 A 
ATOM     94  C   UNL A   1      51.609  25.813  26.482  1.00  0.00     0.059 A 
ATOM     95  F   UNL A   1      50.025  25.969  28.205  1.00  0.00    -0.206 F 
ATOM     96  C   UNL A   1      51.959  26.042  25.152  1.00  0.00     0.060 A 
BRANCH  96  97
ATOM     97  S   UNL A   1      53.588  25.554  24.545  1.00  0.00     0.124 S 
ATOM     98  O   UNL A   1      53.540  24.105  24.709  1.00  0.00    -0.237 OA
ATOM     99  O   UNL A   1      53.570  26.036  23.167  1.00  0.00    -0.237 OA
ATOM    100  O   UNL A   1      54.505  26.259  25.436  1.00  0.00    -0.744 OA
ENDBRANCH  96  97
ENDBRANCH  64  89
ENDBRANCH  38  39
ENDBRANCH  30  33
ENDBRANCH  28  29
ENDBRANCH  27  28
ENDBRANCH   1  27
TORSDOF 18
ENDMDL
