MODEL 1
REMARK VINA RESULT:     -12.2      0.000      0.000
REMARK SMILES Cc1cc(C)n2nc(SCC(=O)N3CCC(C(=O)NCCCCCCNC(=O)c4ccc(-c5c6nc(c(-c7c(F)cc(S(=O)(=O)[O-])cc7F)c7ccc([nH]7)c(-c7c(F)cc(S(=O)(=O)[O-])cc7F)c7nc(c(-c8c(F)cc(S(=O)(=O)[O-])cc8F)c8ccc5[nH]8)C=C7)C=C6)cc4)CC3)nc2n1
REMARK SMILES IDX 22 1 21 2 20 3 19 4 17 5 18 6 16 8 11 9 12 10 13 11 14 12
REMARK SMILES IDX 96 13 15 14 95 15 10 16 9 17 8 18 1 19 2 20 3 21 99 22 4 23
REMARK SMILES IDX 98 24 5 25 6 26 97 27 7 28 23 29 24 30 25 31 26 32 27 33
REMARK SMILES IDX 28 35 29 36 30 37 94 38 31 39 93 40 32 41 33 42 34 43 87 44
REMARK SMILES IDX 35 45 92 46 86 47 88 48 36 49 91 50 85 51 84 52 37 54 71 55
REMARK SMILES IDX 50 56 70 57 51 58 54 59 69 60 89 61 52 62 53 63 68 65 90 66
REMARK SMILES IDX 55 67 38 68 39 69 48 70 40 71 41 72 47 73 49 74 42 75 43 76
REMARK SMILES IDX 44 77 45 78 46 79 72 80 73 81 82 82 74 83 75 84 81 85 83 86
REMARK SMILES IDX 76 87 77 88 78 89 79 90 80 91 56 92 57 93 66 94 58 95 59 96
REMARK SMILES IDX 65 97 67 98 60 99 61 100 62 101 63 102 64 103
REMARK H PARENT 19 7 26 34 88 53 54 64
REMARK Flexibility Score: inf
ROOT
ATOM      1  C   UNL A   1      41.803  21.348  27.099  1.00  0.00     0.002 C 
ENDROOT
BRANCH   1   2
ATOM      2  C   UNL A   1      40.450  21.852  27.612  1.00  0.00     0.021 C 
BRANCH   2   3
ATOM      3  C   UNL A   1      39.626  22.579  26.553  1.00  0.00     0.116 C 
BRANCH   3   4
ATOM      4  N   UNL A   1      38.994  21.636  25.643  1.00  0.00    -0.356 N 
ATOM      5  C   UNL A   1      37.699  21.521  25.245  1.00  0.00     0.223 C 
ATOM      6  O   UNL A   1      37.410  20.602  24.474  1.00  0.00    -0.275 OA
ATOM      7  H   UNL A   1      39.605  20.971  25.252  1.00  0.00     0.163 HD
BRANCH   5   8
ATOM      8  C   UNL A   1      36.643  22.523  25.687  1.00  0.00     0.082 C 
ATOM      9  C   UNL A   1      32.987  23.224  24.317  1.00  0.00     0.233 C 
ATOM     10  O   UNL A   1      33.236  23.255  23.108  1.00  0.00    -0.274 OA
ATOM     11  N   UNL A   1      33.983  23.506  25.249  1.00  0.00    -0.342 N 
ATOM     12  C   UNL A   1      35.090  24.372  24.862  1.00  0.00     0.120 C 
ATOM     13  C   UNL A   1      34.229  22.729  26.453  1.00  0.00     0.120 C 
ATOM     14  C   UNL A   1      36.379  23.600  24.623  1.00  0.00     0.035 C 
ATOM     15  C   UNL A   1      35.400  21.783  26.212  1.00  0.00     0.035 C 
BRANCH   9  16
ATOM     16  C   UNL A   1      31.544  23.173  24.804  1.00  0.00     0.178 C 
BRANCH  16  17
ATOM     17  S   UNL A   1      30.965  24.492  25.873  1.00  0.00    -0.074 SA
BRANCH  17  18
ATOM     18  C   UNL A   1      30.691  25.826  24.799  1.00  0.00     0.211 A 
ATOM     19  C   UNL A   1      28.045  29.983  21.853  1.00  0.00     0.067 C 
ATOM     20  C   UNL A   1      29.071  29.075  22.482  1.00  0.00     0.043 A 
ATOM     21  C   UNL A   1      30.514  29.448  22.314  1.00  0.00     0.047 A 
ATOM     22  N   UNL A   1      28.640  28.028  23.118  1.00  0.00    -0.216 NA
ATOM     23  C   UNL A   1      31.415  28.645  22.909  1.00  0.00     0.045 A 
ATOM     24  C   UNL A   1      29.587  27.242  23.708  1.00  0.00     0.253 A 
ATOM     25  C   UNL A   1      32.891  28.888  22.848  1.00  0.00     0.067 C 
ATOM     26  N   UNL A   1      30.955  27.533  23.624  1.00  0.00    -0.200 N 
ATOM     27  N   UNL A   1      29.423  26.160  24.432  1.00  0.00    -0.183 NA
ATOM     28  N   UNL A   1      31.655  26.607  24.322  1.00  0.00    -0.138 NA
ENDBRANCH  17  18
ENDBRANCH  16  17
ENDBRANCH   9  16
ENDBRANCH   5   8
ENDBRANCH   3   4
ENDBRANCH   2   3
ENDBRANCH   1   2
BRANCH   1  29
ATOM     29  C   UNL A   1      41.932  19.820  26.984  1.00  0.00     0.002 C 
BRANCH  29  30
ATOM     30  C   UNL A   1      42.572  19.294  25.690  1.00  0.00     0.021 C 
BRANCH  30  31
ATOM     31  C   UNL A   1      44.076  19.483  25.654  1.00  0.00     0.116 C 
BRANCH  31  32
ATOM     32  N   UNL A   1      44.539  20.012  24.368  1.00  0.00    -0.352 N 
ATOM     33  C   UNL A   1      44.462  21.312  23.912  1.00  0.00     0.251 C 
ATOM     34  H   UNL A   1      44.956  19.362  23.757  1.00  0.00     0.163 HD
ATOM     35  O   UNL A   1      44.530  21.564  22.706  1.00  0.00    -0.269 OA
BRANCH  33  36
ATOM     36  C   UNL A   1      44.328  22.390  24.903  1.00  0.00     0.039 A 
ATOM     37  C   UNL A   1      45.214  22.564  25.970  1.00  0.00     0.014 A 
ATOM     38  C   UNL A   1      43.269  23.271  24.710  1.00  0.00     0.014 A 
ATOM     39  C   UNL A   1      45.024  23.656  26.815  1.00  0.00     0.010 A 
ATOM     40  C   UNL A   1      43.247  24.462  25.368  1.00  0.00     0.010 A 
ATOM     41  C   UNL A   1      44.030  24.597  26.500  1.00  0.00    -0.014 A 
BRANCH  41  42
ATOM     42  C   UNL A   1      43.814  25.814  27.262  1.00  0.00     0.031 A 
ATOM     43  C   UNL A   1      44.822  26.863  26.971  1.00  0.00     0.074 A 
ATOM     44  C   UNL A   1      42.666  26.033  27.946  1.00  0.00     0.049 A 
ATOM     45  N   UNL A   1      45.768  27.265  27.748  1.00  0.00    -0.248 NA
ATOM     46  C   UNL A   1      44.932  27.374  25.591  1.00  0.00     0.031 C 
ATOM     47  C   UNL A   1      41.471  25.181  28.045  1.00  0.00     0.029 A 
ATOM     48  N   UNL A   1      42.284  27.144  28.634  1.00  0.00    -0.354 N 
ATOM     49  C   UNL A   1      46.426  28.271  27.050  1.00  0.00     0.074 A 
ATOM     50  C   UNL A   1      46.028  28.132  25.675  1.00  0.00     0.031 C 
ATOM     51  C   UNL A   1      40.434  25.896  28.541  1.00  0.00     0.029 A 
ATOM     52  C   UNL A   1      40.920  27.201  28.947  1.00  0.00     0.049 A 
ATOM     53  H   UNL A   1      42.916  27.852  28.891  1.00  0.00     0.167 HD
ATOM     54  C   UNL A   1      47.041  29.292  27.707  1.00  0.00     0.037 A 
ATOM     55  C   UNL A   1      40.267  28.274  29.473  1.00  0.00     0.037 A 
ATOM     56  C   UNL A   1      47.148  29.007  29.116  1.00  0.00     0.049 A 
ATOM     57  C   UNL A   1      41.319  29.130  30.098  1.00  0.00     0.074 A 
ATOM     58  C   UNL A   1      47.778  28.021  29.851  1.00  0.00     0.029 A 
ATOM     59  N   UNL A   1      46.182  29.537  29.940  1.00  0.00    -0.354 N 
ATOM     60  N   UNL A   1      42.031  28.745  31.127  1.00  0.00    -0.248 NA
ATOM     61  C   UNL A   1      41.940  30.136  29.249  1.00  0.00     0.031 C 
ATOM     62  C   UNL A   1      46.847  27.675  30.873  1.00  0.00     0.029 A 
ATOM     63  C   UNL A   1      45.750  28.534  30.776  1.00  0.00     0.049 A 
ATOM     64  H   UNL A   1      45.858  30.466  29.934  1.00  0.00     0.167 HD
ATOM     65  C   UNL A   1      43.331  29.129  30.825  1.00  0.00     0.074 A 
ATOM     66  C   UNL A   1      43.205  30.014  29.665  1.00  0.00     0.031 C 
ATOM     67  C   UNL A   1      44.414  28.463  31.329  1.00  0.00     0.037 A 
BRANCH  54  68
ATOM     68  C   UNL A   1      47.222  30.680  27.156  1.00  0.00     0.058 A 
ATOM     69  C   UNL A   1      48.500  31.270  27.178  1.00  0.00     0.135 A 
ATOM     70  C   UNL A   1      46.151  31.546  26.844  1.00  0.00     0.135 A 
ATOM     71  F   UNL A   1      49.585  30.539  27.484  1.00  0.00    -0.206 F 
ATOM     72  C   UNL A   1      48.696  32.630  26.944  1.00  0.00     0.059 A 
ATOM     73  C   UNL A   1      46.328  32.893  26.555  1.00  0.00     0.059 A 
ATOM     74  F   UNL A   1      44.874  31.144  26.893  1.00  0.00    -0.206 F 
ATOM     75  C   UNL A   1      47.601  33.434  26.637  1.00  0.00     0.060 A 
BRANCH  75  76
ATOM     76  S   UNL A   1      47.852  35.199  26.390  1.00  0.00     0.124 S 
ATOM     77  O   UNL A   1      48.793  35.516  27.458  1.00  0.00    -0.237 OA
ATOM     78  O   UNL A   1      48.387  35.238  25.033  1.00  0.00    -0.237 OA
ATOM     79  O   UNL A   1      46.511  35.755  26.545  1.00  0.00    -0.744 OA
ENDBRANCH  75  76
ENDBRANCH  54  68
BRANCH  55  80
ATOM     80  C   UNL A   1      38.902  28.787  29.142  1.00  0.00     0.058 A 
ATOM     81  C   UNL A   1      37.917  28.985  30.130  1.00  0.00     0.135 A 
ATOM     82  C   UNL A   1      38.628  29.363  27.885  1.00  0.00     0.135 A 
ATOM     83  F   UNL A   1      38.096  28.498  31.367  1.00  0.00    -0.206 F 
ATOM     84  C   UNL A   1      36.753  29.740  29.896  1.00  0.00     0.059 A 
ATOM     85  C   UNL A   1      37.479  30.116  27.628  1.00  0.00     0.059 A 
ATOM     86  F   UNL A   1      39.519  29.288  26.886  1.00  0.00    -0.206 F 
ATOM     87  C   UNL A   1      36.555  30.322  28.645  1.00  0.00     0.060 A 
BRANCH  87  88
ATOM     88  S   UNL A   1      35.143  31.426  28.376  1.00  0.00     0.124 S 
ATOM     89  O   UNL A   1      34.778  31.796  29.739  1.00  0.00    -0.237 OA
ATOM     90  O   UNL A   1      35.731  32.486  27.564  1.00  0.00    -0.237 OA
ATOM     91  O   UNL A   1      34.176  30.579  27.682  1.00  0.00    -0.744 OA
ENDBRANCH  87  88
ENDBRANCH  55  80
BRANCH  67  92
ATOM     92  C   UNL A   1      44.197  27.427  32.410  1.00  0.00     0.058 A 
ATOM     93  C   UNL A   1      44.112  26.039  32.188  1.00  0.00     0.135 A 
ATOM     94  C   UNL A   1      44.280  27.852  33.744  1.00  0.00     0.135 A 
ATOM     95  F   UNL A   1      44.128  25.538  30.946  1.00  0.00    -0.206 F 
ATOM     96  C   UNL A   1      44.084  25.122  33.244  1.00  0.00     0.059 A 
ATOM     97  C   UNL A   1      44.285  26.957  34.809  1.00  0.00     0.059 A 
ATOM     98  F   UNL A   1      44.426  29.157  34.024  1.00  0.00    -0.206 F 
ATOM     99  C   UNL A   1      44.175  25.592  34.554  1.00  0.00     0.060 A 
BRANCH  99 100
ATOM    100  S   UNL A   1      44.200  24.410  35.921  1.00  0.00     0.124 S 
ATOM    101  O   UNL A   1      43.345  23.341  35.419  1.00  0.00    -0.237 OA
ATOM    102  O   UNL A   1      45.619  24.088  36.035  1.00  0.00    -0.237 OA
ATOM    103  O   UNL A   1      43.650  25.171  37.041  1.00  0.00    -0.744 OA
ENDBRANCH  99 100
ENDBRANCH  67  92
ENDBRANCH  41  42
ENDBRANCH  33  36
ENDBRANCH  31  32
ENDBRANCH  30  31
ENDBRANCH  29  30
ENDBRANCH   1  29
TORSDOF 19
ENDMDL
MODEL 2
REMARK VINA RESULT:     -11.8      1.623      1.998
REMARK SMILES Cc1cc(C)n2nc(SCC(=O)N3CCC(C(=O)NCCCCCCNC(=O)c4ccc(-c5c6nc(c(-c7c(F)cc(S(=O)(=O)[O-])cc7F)c7ccc([nH]7)c(-c7c(F)cc(S(=O)(=O)[O-])cc7F)c7nc(c(-c8c(F)cc(S(=O)(=O)[O-])cc8F)c8ccc5[nH]8)C=C7)C=C6)cc4)CC3)nc2n1
REMARK SMILES IDX 22 1 21 2 20 3 19 4 17 5 18 6 16 8 11 9 12 10 13 11 14 12
REMARK SMILES IDX 96 13 15 14 95 15 10 16 9 17 8 18 1 19 2 20 3 21 99 22 4 23
REMARK SMILES IDX 98 24 5 25 6 26 97 27 7 28 23 29 24 30 25 31 26 32 27 33
REMARK SMILES IDX 28 35 29 36 30 37 94 38 31 39 93 40 32 41 33 42 34 43 87 44
REMARK SMILES IDX 35 45 92 46 86 47 88 48 36 49 91 50 85 51 84 52 37 54 71 55
REMARK SMILES IDX 50 56 70 57 51 58 54 59 69 60 89 61 52 62 53 63 68 65 90 66
REMARK SMILES IDX 55 67 38 68 39 69 48 70 40 71 41 72 47 73 49 74 42 75 43 76
REMARK SMILES IDX 44 77 45 78 46 79 72 80 73 81 82 82 74 83 75 84 81 85 83 86
REMARK SMILES IDX 76 87 77 88 78 89 79 90 80 91 56 92 57 93 66 94 58 95 59 96
REMARK SMILES IDX 65 97 67 98 60 99 61 100 62 101 63 102 64 103
REMARK H PARENT 19 7 26 34 88 53 54 64
REMARK Flexibility Score: inf
ROOT
ATOM      1  C   UNL A   1      41.747  20.435  26.944  1.00  0.00     0.002 C 
ENDROOT
BRANCH   1   2
ATOM      2  C   UNL A   1      41.173  21.615  26.154  1.00  0.00     0.021 C 
BRANCH   2   3
ATOM      3  C   UNL A   1      39.658  21.557  25.980  1.00  0.00     0.116 C 
BRANCH   3   4
ATOM      4  N   UNL A   1      39.036  22.809  26.379  1.00  0.00    -0.356 N 
ATOM      5  C   UNL A   1      37.846  23.360  26.021  1.00  0.00     0.223 C 
ATOM      6  O   UNL A   1      37.557  24.466  26.486  1.00  0.00    -0.275 OA
ATOM      7  H   UNL A   1      39.565  23.347  27.011  1.00  0.00     0.163 HD
BRANCH   5   8
ATOM      8  C   UNL A   1      36.868  22.619  25.121  1.00  0.00     0.082 C 
ATOM      9  C   UNL A   1      33.116  21.488  25.728  1.00  0.00     0.233 C 
ATOM     10  O   UNL A   1      33.244  20.988  26.851  1.00  0.00    -0.274 OA
ATOM     11  N   UNL A   1      34.208  21.576  24.868  1.00  0.00    -0.342 N 
ATOM     12  C   UNL A   1      35.295  20.614  25.004  1.00  0.00     0.120 C 
ATOM     13  C   UNL A   1      34.550  22.754  24.089  1.00  0.00     0.120 C 
ATOM     14  C   UNL A   1      36.531  21.218  25.654  1.00  0.00     0.035 C 
ATOM     15  C   UNL A   1      35.663  23.520  24.796  1.00  0.00     0.035 C 
BRANCH   9  16
ATOM     16  C   UNL A   1      31.727  21.740  25.153  1.00  0.00     0.178 C 
BRANCH  16  17
ATOM     17  S   UNL A   1      30.649  22.883  26.019  1.00  0.00    -0.074 SA
BRANCH  17  18
ATOM     18  C   UNL A   1      31.347  24.442  25.720  1.00  0.00     0.211 A 
ATOM     19  C   UNL A   1      33.628  28.949  22.991  1.00  0.00     0.067 C 
ATOM     20  C   UNL A   1      33.024  28.026  24.019  1.00  0.00     0.043 A 
ATOM     21  C   UNL A   1      32.694  28.611  25.359  1.00  0.00     0.047 A 
ATOM     22  N   UNL A   1      32.839  26.785  23.680  1.00  0.00    -0.216 NA
ATOM     23  C   UNL A   1      32.127  27.781  26.254  1.00  0.00     0.045 A 
ATOM     24  C   UNL A   1      32.259  25.979  24.616  1.00  0.00     0.253 A 
ATOM     25  C   UNL A   1      31.725  28.215  27.629  1.00  0.00     0.067 C 
ATOM     26  N   UNL A   1      31.894  26.452  25.883  1.00  0.00    -0.200 N 
ATOM     27  N   UNL A   1      31.931  24.712  24.520  1.00  0.00    -0.183 NA
ATOM     28  N   UNL A   1      31.318  25.449  26.588  1.00  0.00    -0.138 NA
ENDBRANCH  17  18
ENDBRANCH  16  17
ENDBRANCH   9  16
ENDBRANCH   5   8
ENDBRANCH   3   4
ENDBRANCH   2   3
ENDBRANCH   1   2
BRANCH   1  29
ATOM     29  C   UNL A   1      41.570  19.057  26.286  1.00  0.00     0.002 C 
BRANCH  29  30
ATOM     30  C   UNL A   1      42.838  18.194  26.180  1.00  0.00     0.021 C 
BRANCH  30  31
ATOM     31  C   UNL A   1      44.113  19.013  26.170  1.00  0.00     0.116 C 
BRANCH  31  32
ATOM     32  N   UNL A   1      44.698  19.115  24.830  1.00  0.00    -0.352 N 
ATOM     33  C   UNL A   1      44.737  20.221  24.006  1.00  0.00     0.251 C 
ATOM     34  H   UNL A   1      45.114  18.296  24.476  1.00  0.00     0.163 HD
ATOM     35  O   UNL A   1      44.905  20.098  22.790  1.00  0.00    -0.269 OA
BRANCH  33  36
ATOM     36  C   UNL A   1      44.605  21.551  24.620  1.00  0.00     0.039 A 
ATOM     37  C   UNL A   1      43.828  22.575  24.070  1.00  0.00     0.014 A 
ATOM     38  C   UNL A   1      45.281  21.739  25.821  1.00  0.00     0.014 A 
ATOM     39  C   UNL A   1      43.728  23.776  24.771  1.00  0.00     0.010 A 
ATOM     40  C   UNL A   1      44.971  22.800  26.616  1.00  0.00     0.010 A 
ATOM     41  C   UNL A   1      44.311  23.872  26.044  1.00  0.00    -0.014 A 
BRANCH  41  42
ATOM     42  C   UNL A   1      44.185  25.045  26.892  1.00  0.00     0.031 A 
ATOM     43  C   UNL A   1      45.233  26.062  26.630  1.00  0.00     0.074 A 
ATOM     44  C   UNL A   1      43.074  25.273  27.633  1.00  0.00     0.049 A 
ATOM     45  N   UNL A   1      46.225  26.366  27.395  1.00  0.00    -0.248 NA
ATOM     46  C   UNL A   1      45.318  26.658  25.284  1.00  0.00     0.031 C 
ATOM     47  C   UNL A   1      41.842  24.474  27.724  1.00  0.00     0.029 A 
ATOM     48  N   UNL A   1      42.773  26.352  28.406  1.00  0.00    -0.354 N 
ATOM     49  C   UNL A   1      46.908  27.383  26.738  1.00  0.00     0.074 A 
ATOM     50  C   UNL A   1      46.453  27.356  25.373  1.00  0.00     0.031 C 
ATOM     51  C   UNL A   1      40.861  25.203  28.306  1.00  0.00     0.029 A 
ATOM     52  C   UNL A   1      41.426  26.453  28.776  1.00  0.00     0.049 A 
ATOM     53  H   UNL A   1      43.450  27.010  28.684  1.00  0.00     0.167 HD
ATOM     54  C   UNL A   1      47.596  28.328  27.435  1.00  0.00     0.037 A 
ATOM     55  C   UNL A   1      40.847  27.519  29.396  1.00  0.00     0.037 A 
ATOM     56  C   UNL A   1      47.740  27.944  28.817  1.00  0.00     0.049 A 
ATOM     57  C   UNL A   1      41.963  28.279  30.034  1.00  0.00     0.074 A 
ATOM     58  C   UNL A   1      48.345  26.882  29.461  1.00  0.00     0.029 A 
ATOM     59  N   UNL A   1      46.831  28.463  29.712  1.00  0.00    -0.354 N 
ATOM     60  N   UNL A   1      42.692  27.793  31.007  1.00  0.00    -0.248 NA
ATOM     61  C   UNL A   1      42.603  29.309  29.228  1.00  0.00     0.031 C 
ATOM     62  C   UNL A   1      47.435  26.514  30.495  1.00  0.00     0.029 A 
ATOM     63  C   UNL A   1      46.381  27.428  30.496  1.00  0.00     0.049 A 
ATOM     64  H   UNL A   1      46.555  29.405  29.778  1.00  0.00     0.167 HD
ATOM     65  C   UNL A   1      43.998  28.134  30.679  1.00  0.00     0.074 A 
ATOM     66  C   UNL A   1      43.875  29.099  29.585  1.00  0.00     0.031 C 
ATOM     67  C   UNL A   1      45.063  27.384  31.096  1.00  0.00     0.037 A 
BRANCH  54  68
ATOM     68  C   UNL A   1      47.827  29.739  26.969  1.00  0.00     0.058 A 
ATOM     69  C   UNL A   1      49.125  30.281  27.027  1.00  0.00     0.135 A 
ATOM     70  C   UNL A   1      46.787  30.658  26.708  1.00  0.00     0.135 A 
ATOM     71  F   UNL A   1      50.182  29.496  27.291  1.00  0.00    -0.206 F 
ATOM     72  C   UNL A   1      49.368  31.646  26.876  1.00  0.00     0.059 A 
ATOM     73  C   UNL A   1      47.012  32.013  26.501  1.00  0.00     0.059 A 
ATOM     74  F   UNL A   1      45.497  30.299  26.732  1.00  0.00    -0.206 F 
ATOM     75  C   UNL A   1      48.303  32.504  26.617  1.00  0.00     0.060 A 
BRANCH  75  76
ATOM     76  S   UNL A   1      48.615  34.271  26.476  1.00  0.00     0.124 S 
ATOM     77  O   UNL A   1      47.401  34.733  25.813  1.00  0.00    -0.237 OA
ATOM     78  O   UNL A   1      48.768  34.659  27.874  1.00  0.00    -0.237 OA
ATOM     79  O   UNL A   1      49.834  34.336  25.676  1.00  0.00    -0.744 OA
ENDBRANCH  75  76
ENDBRANCH  54  68
BRANCH  55  80
ATOM     80  C   UNL A   1      39.499  28.117  29.153  1.00  0.00     0.058 A 
ATOM     81  C   UNL A   1      38.527  28.211  30.170  1.00  0.00     0.135 A 
ATOM     82  C   UNL A   1      39.238  28.869  27.990  1.00  0.00     0.135 A 
ATOM     83  F   UNL A   1      38.698  27.553  31.327  1.00  0.00    -0.206 F 
ATOM     84  C   UNL A   1      37.390  29.030  30.054  1.00  0.00     0.059 A 
ATOM     85  C   UNL A   1      38.114  29.687  27.850  1.00  0.00     0.059 A 
ATOM     86  F   UNL A   1      40.119  28.901  26.980  1.00  0.00    -0.206 F 
ATOM     87  C   UNL A   1      37.203  29.783  28.896  1.00  0.00     0.060 A 
BRANCH  87  88
ATOM     88  S   UNL A   1      35.828  30.960  28.795  1.00  0.00     0.124 S 
ATOM     89  O   UNL A   1      35.560  31.239  30.201  1.00  0.00    -0.237 OA
ATOM     90  O   UNL A   1      36.416  32.054  28.030  1.00  0.00    -0.237 OA
ATOM     91  O   UNL A   1      34.787  30.207  28.100  1.00  0.00    -0.744 OA
ENDBRANCH  87  88
ENDBRANCH  55  80
BRANCH  67  92
ATOM     92  C   UNL A   1      44.833  26.291  32.116  1.00  0.00     0.058 A 
ATOM     93  C   UNL A   1      44.562  24.945  31.803  1.00  0.00     0.135 A 
ATOM     94  C   UNL A   1      45.100  26.587  33.459  1.00  0.00     0.135 A 
ATOM     95  F   UNL A   1      44.393  24.553  30.533  1.00  0.00    -0.206 F 
ATOM     96  C   UNL A   1      44.530  23.949  32.785  1.00  0.00     0.059 A 
ATOM     97  C   UNL A   1      45.105  25.609  34.449  1.00  0.00     0.059 A 
ATOM     98  F   UNL A   1      45.428  27.840  33.817  1.00  0.00    -0.206 F 
ATOM     99  C   UNL A   1      44.808  24.292  34.108  1.00  0.00     0.060 A 
BRANCH  99 100
ATOM    100  S   UNL A   1      44.828  23.002  35.373  1.00  0.00     0.124 S 
ATOM    101  O   UNL A   1      44.096  21.921  34.722  1.00  0.00    -0.237 OA
ATOM    102  O   UNL A   1      46.256  22.773  35.569  1.00  0.00    -0.237 OA
ATOM    103  O   UNL A   1      44.143  23.623  36.505  1.00  0.00    -0.744 OA
ENDBRANCH  99 100
ENDBRANCH  67  92
ENDBRANCH  41  42
ENDBRANCH  33  36
ENDBRANCH  31  32
ENDBRANCH  30  31
ENDBRANCH  29  30
ENDBRANCH   1  29
TORSDOF 19
ENDMDL
MODEL 3
REMARK VINA RESULT:     -11.1      2.914      9.408
REMARK SMILES Cc1cc(C)n2nc(SCC(=O)N3CCC(C(=O)NCCCCCCNC(=O)c4ccc(-c5c6nc(c(-c7c(F)cc(S(=O)(=O)[O-])cc7F)c7ccc([nH]7)c(-c7c(F)cc(S(=O)(=O)[O-])cc7F)c7nc(c(-c8c(F)cc(S(=O)(=O)[O-])cc8F)c8ccc5[nH]8)C=C7)C=C6)cc4)CC3)nc2n1
REMARK SMILES IDX 22 1 21 2 20 3 19 4 17 5 18 6 16 8 11 9 12 10 13 11 14 12
REMARK SMILES IDX 96 13 15 14 95 15 10 16 9 17 8 18 1 19 2 20 3 21 99 22 4 23
REMARK SMILES IDX 98 24 5 25 6 26 97 27 7 28 23 29 24 30 25 31 26 32 27 33
REMARK SMILES IDX 28 35 29 36 30 37 94 38 31 39 93 40 32 41 33 42 34 43 87 44
REMARK SMILES IDX 35 45 92 46 86 47 88 48 36 49 91 50 85 51 84 52 37 54 71 55
REMARK SMILES IDX 50 56 70 57 51 58 54 59 69 60 89 61 52 62 53 63 68 65 90 66
REMARK SMILES IDX 55 67 38 68 39 69 48 70 40 71 41 72 47 73 49 74 42 75 43 76
REMARK SMILES IDX 44 77 45 78 46 79 72 80 73 81 82 82 74 83 75 84 81 85 83 86
REMARK SMILES IDX 76 87 77 88 78 89 79 90 80 91 56 92 57 93 66 94 58 95 59 96
REMARK SMILES IDX 65 97 67 98 60 99 61 100 62 101 63 102 64 103
REMARK H PARENT 19 7 26 34 88 53 54 64
REMARK Flexibility Score: inf
ROOT
ATOM      1  C   UNL A   1      37.728  30.713  28.831  1.00  0.00     0.002 C 
ENDROOT
BRANCH   1   2
ATOM      2  C   UNL A   1      37.242  30.072  27.526  1.00  0.00     0.021 C 
BRANCH   2   3
ATOM      3  C   UNL A   1      35.913  29.336  27.663  1.00  0.00     0.116 C 
BRANCH   3   4
ATOM      4  N   UNL A   1      34.800  30.187  27.274  1.00  0.00    -0.356 N 
ATOM      5  C   UNL A   1      33.556  29.869  26.827  1.00  0.00     0.223 C 
ATOM      6  O   UNL A   1      32.794  30.793  26.531  1.00  0.00    -0.275 OA
ATOM      7  H   UNL A   1      34.977  31.153  27.345  1.00  0.00     0.163 HD
BRANCH   5   8
ATOM      8  C   UNL A   1      33.090  28.424  26.742  1.00  0.00     0.082 C 
ATOM      9  C   UNL A   1      30.767  26.588  24.103  1.00  0.00     0.233 C 
ATOM     10  O   UNL A   1      29.852  27.416  24.041  1.00  0.00    -0.274 OA
ATOM     11  N   UNL A   1      31.571  26.510  25.238  1.00  0.00    -0.342 N 
ATOM     12  C   UNL A   1      31.027  26.938  26.522  1.00  0.00     0.120 C 
ATOM     13  C   UNL A   1      33.020  26.394  25.215  1.00  0.00     0.120 C 
ATOM     14  C   UNL A   1      31.576  28.285  26.968  1.00  0.00     0.035 C 
ATOM     15  C   UNL A   1      33.639  27.765  25.464  1.00  0.00     0.035 C 
BRANCH   9  16
ATOM     16  C   UNL A   1      30.846  25.453  23.089  1.00  0.00     0.178 C 
BRANCH  16  17
ATOM     17  S   UNL A   1      32.318  25.333  22.070  1.00  0.00    -0.074 SA
BRANCH  17  18
ATOM     18  C   UNL A   1      33.222  24.030  22.772  1.00  0.00     0.211 A 
ATOM     19  C   UNL A   1      37.573  20.973  24.935  1.00  0.00     0.067 C 
ATOM     20  C   UNL A   1      36.213  21.463  24.506  1.00  0.00     0.043 A 
ATOM     21  C   UNL A   1      35.025  20.650  24.927  1.00  0.00     0.047 A 
ATOM     22  N   UNL A   1      36.160  22.548  23.794  1.00  0.00    -0.216 NA
ATOM     23  C   UNL A   1      33.818  21.118  24.563  1.00  0.00     0.045 A 
ATOM     24  C   UNL A   1      34.916  22.989  23.448  1.00  0.00     0.253 A 
ATOM     25  C   UNL A   1      32.535  20.432  24.917  1.00  0.00     0.067 C 
ATOM     26  N   UNL A   1      33.752  22.305  23.824  1.00  0.00    -0.200 N 
ATOM     27  N   UNL A   1      34.583  24.063  22.773  1.00  0.00    -0.183 NA
ATOM     28  N   UNL A   1      32.669  22.981  23.372  1.00  0.00    -0.138 NA
ENDBRANCH  17  18
ENDBRANCH  16  17
ENDBRANCH   9  16
ENDBRANCH   5   8
ENDBRANCH   3   4
ENDBRANCH   2   3
ENDBRANCH   1   2
BRANCH   1  29
ATOM     29  C   UNL A   1      37.605  32.244  28.895  1.00  0.00     0.002 C 
BRANCH  29  30
ATOM     30  C   UNL A   1      36.261  32.792  29.398  1.00  0.00     0.021 C 
BRANCH  30  31
ATOM     31  C   UNL A   1      35.579  31.868  30.389  1.00  0.00     0.116 C 
BRANCH  31  32
ATOM     32  N   UNL A   1      35.638  32.382  31.760  1.00  0.00    -0.352 N 
ATOM     33  C   UNL A   1      36.337  31.858  32.829  1.00  0.00     0.251 C 
ATOM     34  H   UNL A   1      35.118  33.198  31.940  1.00  0.00     0.163 HD
ATOM     35  O   UNL A   1      36.021  32.138  33.988  1.00  0.00    -0.269 OA
BRANCH  33  36
ATOM     36  C   UNL A   1      37.485  30.984  32.549  1.00  0.00     0.039 A 
ATOM     37  C   UNL A   1      37.367  29.607  32.341  1.00  0.00     0.014 A 
ATOM     38  C   UNL A   1      38.725  31.610  32.468  1.00  0.00     0.014 A 
ATOM     39  C   UNL A   1      38.517  28.886  32.023  1.00  0.00     0.010 A 
ATOM     40  C   UNL A   1      39.780  30.958  31.907  1.00  0.00     0.010 A 
ATOM     41  C   UNL A   1      39.720  29.580  31.813  1.00  0.00    -0.014 A 
BRANCH  41  42
ATOM     42  C   UNL A   1      40.949  28.933  31.389  1.00  0.00     0.031 A 
ATOM     43  C   UNL A   1      41.908  28.729  32.502  1.00  0.00     0.074 A 
ATOM     44  C   UNL A   1      41.066  28.353  30.170  1.00  0.00     0.049 A 
ATOM     45  N   UNL A   1      43.018  29.356  32.693  1.00  0.00    -0.248 NA
ATOM     46  C   UNL A   1      41.495  27.894  33.646  1.00  0.00     0.031 C 
ATOM     47  C   UNL A   1      40.061  28.231  29.103  1.00  0.00     0.029 A 
ATOM     48  N   UNL A   1      42.111  27.646  29.661  1.00  0.00    -0.354 N 
ATOM     49  C   UNL A   1      43.570  28.800  33.842  1.00  0.00     0.074 A 
ATOM     50  C   UNL A   1      42.504  28.092  34.498  1.00  0.00     0.031 C 
ATOM     51  C   UNL A   1      40.460  27.309  28.196  1.00  0.00     0.029 A 
ATOM     52  C   UNL A   1      41.811  26.892  28.519  1.00  0.00     0.049 A 
ATOM     53  H   UNL A   1      43.009  27.662  30.064  1.00  0.00     0.167 HD
ATOM     54  C   UNL A   1      44.919  28.756  34.019  1.00  0.00     0.037 A 
ATOM     55  C   UNL A   1      42.630  25.977  27.929  1.00  0.00     0.037 A 
ATOM     56  C   UNL A   1      45.593  29.585  33.051  1.00  0.00     0.049 A 
ATOM     57  C   UNL A   1      44.011  26.302  28.394  1.00  0.00     0.074 A 
ATOM     58  C   UNL A   1      45.573  30.936  32.765  1.00  0.00     0.029 A 
ATOM     59  N   UNL A   1      46.083  28.964  31.924  1.00  0.00    -0.354 N 
ATOM     60  N   UNL A   1      44.623  27.418  28.085  1.00  0.00    -0.248 NA
ATOM     61  C   UNL A   1      44.460  25.663  29.622  1.00  0.00     0.031 C 
ATOM     62  C   UNL A   1      45.574  31.008  31.341  1.00  0.00     0.029 A 
ATOM     63  C   UNL A   1      45.701  29.713  30.836  1.00  0.00     0.049 A 
ATOM     64  H   UNL A   1      46.611  28.134  31.901  1.00  0.00     0.167 HD
ATOM     65  C   UNL A   1      45.218  27.838  29.268  1.00  0.00     0.074 A 
ATOM     66  C   UNL A   1      45.108  26.694  30.175  1.00  0.00     0.031 C 
ATOM     67  C   UNL A   1      45.463  29.160  29.519  1.00  0.00     0.037 A 
BRANCH  54  68
ATOM     68  C   UNL A   1      45.644  27.708  34.818  1.00  0.00     0.058 A 
ATOM     69  C   UNL A   1      46.416  28.098  35.929  1.00  0.00     0.135 A 
ATOM     70  C   UNL A   1      45.817  26.374  34.387  1.00  0.00     0.135 A 
ATOM     71  F   UNL A   1      46.342  29.352  36.405  1.00  0.00    -0.206 F 
ATOM     72  C   UNL A   1      47.323  27.237  36.544  1.00  0.00     0.059 A 
ATOM     73  C   UNL A   1      46.676  25.483  35.018  1.00  0.00     0.059 A 
ATOM     74  F   UNL A   1      45.229  25.902  33.280  1.00  0.00    -0.206 F 
ATOM     75  C   UNL A   1      47.448  25.931  36.078  1.00  0.00     0.060 A 
BRANCH  75  76
ATOM     76  S   UNL A   1      48.660  24.840  36.840  1.00  0.00     0.124 S 
ATOM     77  O   UNL A   1      48.950  23.915  35.750  1.00  0.00    -0.237 OA
ATOM     78  O   UNL A   1      49.725  25.774  37.188  1.00  0.00    -0.237 OA
ATOM     79  O   UNL A   1      47.936  24.272  37.973  1.00  0.00    -0.744 OA
ENDBRANCH  75  76
ENDBRANCH  54  68
BRANCH  55  80
ATOM     80  C   UNL A   1      42.270  24.655  27.331  1.00  0.00     0.058 A 
ATOM     81  C   UNL A   1      43.107  23.999  26.406  1.00  0.00     0.135 A 
ATOM     82  C   UNL A   1      41.230  23.873  27.873  1.00  0.00     0.135 A 
ATOM     83  F   UNL A   1      44.142  24.652  25.854  1.00  0.00    -0.206 F 
ATOM     84  C   UNL A   1      42.945  22.644  26.070  1.00  0.00     0.059 A 
ATOM     85  C   UNL A   1      41.048  22.525  27.552  1.00  0.00     0.059 A 
ATOM     86  F   UNL A   1      40.407  24.374  28.805  1.00  0.00    -0.206 F 
ATOM     87  C   UNL A   1      41.923  21.907  26.667  1.00  0.00     0.060 A 
BRANCH  87  88
ATOM     88  S   UNL A   1      41.799  20.124  26.366  1.00  0.00     0.124 S 
ATOM     89  O   UNL A   1      40.374  19.956  26.109  1.00  0.00    -0.237 OA
ATOM     90  O   UNL A   1      42.680  19.944  25.217  1.00  0.00    -0.237 OA
ATOM     91  O   UNL A   1      42.280  19.534  27.613  1.00  0.00    -0.744 OA
ENDBRANCH  87  88
ENDBRANCH  55  80
BRANCH  67  92
ATOM     92  C   UNL A   1      45.287  30.162  28.400  1.00  0.00     0.058 A 
ATOM     93  C   UNL A   1      44.060  30.747  28.031  1.00  0.00     0.135 A 
ATOM     94  C   UNL A   1      46.444  30.696  27.817  1.00  0.00     0.135 A 
ATOM     95  F   UNL A   1      42.913  30.368  28.611  1.00  0.00    -0.206 F 
ATOM     96  C   UNL A   1      43.988  31.794  27.105  1.00  0.00     0.059 A 
ATOM     97  C   UNL A   1      46.401  31.757  26.917  1.00  0.00     0.059 A 
ATOM     98  F   UNL A   1      47.651  30.227  28.172  1.00  0.00    -0.206 F 
ATOM     99  C   UNL A   1      45.168  32.295  26.555  1.00  0.00     0.060 A 
BRANCH  99 100
ATOM    100  S   UNL A   1      45.090  33.686  25.404  1.00  0.00     0.124 S 
ATOM    101  O   UNL A   1      44.241  34.630  26.120  1.00  0.00    -0.237 OA
ATOM    102  O   UNL A   1      46.493  34.067  25.272  1.00  0.00    -0.237 OA
ATOM    103  O   UNL A   1      44.496  33.102  24.203  1.00  0.00    -0.744 OA
ENDBRANCH  99 100
ENDBRANCH  67  92
ENDBRANCH  41  42
ENDBRANCH  33  36
ENDBRANCH  31  32
ENDBRANCH  30  31
ENDBRANCH  29  30
ENDBRANCH   1  29
TORSDOF 19
ENDMDL
