MODEL 1
REMARK VINA RESULT:     -11.0      0.000      0.000
REMARK SMILES CC(=O)c1cc2c(cc1NC(=O)/C=C/C(=O)NCCCCCCNC(=O)c1ccc(-c3c4nc(c(-c5c(F)cc(S(=O)(=O)[O-])cc5F)c5ccc([nH]5)c(-c5c(F)cc(S(=O)(=O)[O-])cc5F)c5nc(c(-c6c(F)cc(S(=O)(=O)[O-])cc6F)c6ccc3[nH]6)C=C5)C=C4)cc1)OCO2
REMARK SMILES IDX 20 1 19 2 18 3 17 4 15 5 16 6 14 8 13 9 11 10 10 11 12 13
REMARK SMILES IDX 9 14 4 15 5 16 6 17 8 18 7 19 95 20 93 21 94 22 2 23 1 24
REMARK SMILES IDX 3 25 21 26 22 27 23 28 24 29 25 30 26 32 27 33 28 34 92 35
REMARK SMILES IDX 29 36 91 37 30 38 31 39 32 40 85 41 33 42 90 43 84 44 86 45
REMARK SMILES IDX 34 46 89 47 83 48 82 49 35 51 69 52 48 53 68 54 49 55 52 56
REMARK SMILES IDX 67 57 87 58 50 59 51 60 66 62 88 63 53 64 36 65 37 66 46 67
REMARK SMILES IDX 38 68 39 69 45 70 47 71 40 72 41 73 42 74 43 75 44 76 70 77
REMARK SMILES IDX 71 78 80 79 72 80 73 81 79 82 81 83 74 84 75 85 76 86 77 87
REMARK SMILES IDX 78 88 54 89 55 90 64 91 56 92 57 93 63 94 65 95 58 96 59 97
REMARK SMILES IDX 60 98 61 99 62 100
REMARK H PARENT 17 7 10 12 24 31 86 50 52 61
REMARK Flexibility Score: inf
ROOT
ATOM      1  C   UNL A   1      31.421  28.453  24.385  1.00  0.00     0.002 C 
ENDROOT
BRANCH   1   2
ATOM      2  C   UNL A   1      30.219  27.702  23.802  1.00  0.00     0.021 C 
BRANCH   2   3
ATOM      3  C   UNL A   1      30.504  26.238  23.487  1.00  0.00     0.116 C 
BRANCH   3   4
ATOM      4  N   UNL A   1      31.868  26.064  23.030  1.00  0.00    -0.353 N 
ATOM      5  C   UNL A   1      32.793  25.150  23.411  1.00  0.00     0.244 C 
ATOM      6  O   UNL A   1      33.844  25.033  22.785  1.00  0.00    -0.270 OA
ATOM      7  H   UNL A   1      32.167  26.703  22.344  1.00  0.00     0.163 HD
BRANCH   5   8
ATOM      8  C   UNL A   1      32.540  24.280  24.574  1.00  0.00     0.077 C 
ATOM      9  C   UNL A   1      31.918  23.100  24.433  1.00  0.00     0.077 C 
BRANCH   9  10
ATOM     10  C   UNL A   1      31.444  22.375  25.620  1.00  0.00     0.248 C 
ATOM     11  N   UNL A   1      32.276  21.494  26.253  1.00  0.00    -0.322 N 
ATOM     12  H   UNL A   1      31.860  21.028  27.014  1.00  0.00     0.170 HD
ATOM     13  O   UNL A   1      30.298  22.569  26.015  1.00  0.00    -0.270 OA
BRANCH  11  14
ATOM     14  C   UNL A   1      33.625  21.127  26.021  1.00  0.00     0.056 A 
ATOM     15  C   UNL A   1      33.901  19.991  25.217  1.00  0.00     0.045 A 
ATOM     16  C   UNL A   1      35.188  19.753  24.705  1.00  0.00     0.064 A 
ATOM     17  C   UNL A   1      36.180  20.638  25.055  1.00  0.00     0.166 A 
ATOM     18  C   UNL A   1      34.709  21.868  26.503  1.00  0.00     0.077 A 
ATOM     19  C   UNL A   1      35.954  21.639  25.964  1.00  0.00     0.167 A 
ATOM     20  O   UNL A   1      37.459  20.650  24.594  1.00  0.00    -0.454 OA
ATOM     21  O   UNL A   1      37.068  22.375  26.219  1.00  0.00    -0.454 OA
ATOM     22  C   UNL A   1      37.941  21.878  25.189  1.00  0.00     0.468 C 
BRANCH  15  23
ATOM     23  C   UNL A   1      32.826  19.014  24.922  1.00  0.00     0.162 C 
ATOM     24  C   UNL A   1      32.440  18.837  23.478  1.00  0.00     0.093 C 
ATOM     25  O   UNL A   1      32.366  18.317  25.821  1.00  0.00    -0.294 OA
ENDBRANCH  15  23
ENDBRANCH  11  14
ENDBRANCH   9  10
ENDBRANCH   5   8
ENDBRANCH   3   4
ENDBRANCH   2   3
ENDBRANCH   1   2
BRANCH   1  26
ATOM     26  C   UNL A   1      31.530  28.397  25.914  1.00  0.00     0.002 C 
BRANCH  26  27
ATOM     27  C   UNL A   1      32.635  27.479  26.444  1.00  0.00     0.021 C 
BRANCH  27  28
ATOM     28  C   UNL A   1      33.944  28.195  26.741  1.00  0.00     0.116 C 
BRANCH  28  29
ATOM     29  N   UNL A   1      33.715  29.573  27.139  1.00  0.00    -0.352 N 
ATOM     30  C   UNL A   1      34.509  30.379  27.911  1.00  0.00     0.251 C 
ATOM     31  H   UNL A   1      32.880  29.980  26.813  1.00  0.00     0.163 HD
ATOM     32  O   UNL A   1      34.061  31.428  28.373  1.00  0.00    -0.269 OA
BRANCH  30  33
ATOM     33  C   UNL A   1      35.900  29.972  28.187  1.00  0.00     0.039 A 
ATOM     34  C   UNL A   1      36.855  30.076  27.174  1.00  0.00     0.014 A 
ATOM     35  C   UNL A   1      36.257  29.490  29.451  1.00  0.00     0.014 A 
ATOM     36  C   UNL A   1      38.180  29.731  27.442  1.00  0.00     0.010 A 
ATOM     37  C   UNL A   1      37.591  29.226  29.738  1.00  0.00     0.010 A 
ATOM     38  C   UNL A   1      38.563  29.326  28.733  1.00  0.00    -0.014 A 
BRANCH  38  39
ATOM     39  C   UNL A   1      39.972  28.979  29.041  1.00  0.00     0.031 A 
ATOM     40  C   UNL A   1      40.871  29.999  29.689  1.00  0.00     0.074 A 
ATOM     41  C   UNL A   1      40.453  27.769  28.694  1.00  0.00     0.049 A 
ATOM     42  N   UNL A   1      42.140  29.907  29.990  1.00  0.00    -0.248 NA
ATOM     43  C   UNL A   1      40.272  31.305  30.013  1.00  0.00     0.031 C 
ATOM     44  C   UNL A   1      39.688  26.719  28.018  1.00  0.00     0.029 A 
ATOM     45  N   UNL A   1      41.700  27.221  28.853  1.00  0.00    -0.354 N 
ATOM     46  C   UNL A   1      42.492  31.140  30.527  1.00  0.00     0.074 A 
ATOM     47  C   UNL A   1      41.320  31.984  30.453  1.00  0.00     0.031 C 
ATOM     48  C   UNL A   1      40.475  25.644  27.846  1.00  0.00     0.029 A 
ATOM     49  C   UNL A   1      41.807  25.942  28.359  1.00  0.00     0.049 A 
ATOM     50  H   UNL A   1      42.447  27.698  29.280  1.00  0.00     0.167 HD
ATOM     51  C   UNL A   1      43.677  31.526  31.056  1.00  0.00     0.037 A 
ATOM     52  C   UNL A   1      42.865  25.108  28.319  1.00  0.00     0.037 A 
ATOM     53  C   UNL A   1      44.831  30.669  31.145  1.00  0.00     0.049 A 
ATOM     54  C   UNL A   1      44.174  25.561  28.909  1.00  0.00     0.074 A 
ATOM     55  C   UNL A   1      46.063  30.942  31.714  1.00  0.00     0.029 A 
ATOM     56  N   UNL A   1      44.898  29.374  30.649  1.00  0.00    -0.354 N 
ATOM     57  N   UNL A   1      44.471  26.708  29.473  1.00  0.00    -0.248 NA
ATOM     58  C   UNL A   1      45.288  24.604  28.867  1.00  0.00     0.031 C 
ATOM     59  C   UNL A   1      46.890  29.832  31.515  1.00  0.00     0.029 A 
ATOM     60  C   UNL A   1      46.157  28.843  30.878  1.00  0.00     0.049 A 
ATOM     61  H   UNL A   1      44.158  28.902  30.201  1.00  0.00     0.167 HD
ATOM     62  C   UNL A   1      45.796  26.599  29.881  1.00  0.00     0.074 A 
ATOM     63  C   UNL A   1      46.238  25.270  29.509  1.00  0.00     0.031 C 
ATOM     64  C   UNL A   1      46.575  27.514  30.509  1.00  0.00     0.037 A 
BRANCH  51  65
ATOM     65  C   UNL A   1      43.785  32.931  31.584  1.00  0.00     0.058 A 
ATOM     66  C   UNL A   1      43.548  33.236  32.935  1.00  0.00     0.135 A 
ATOM     67  C   UNL A   1      44.164  33.985  30.735  1.00  0.00     0.135 A 
ATOM     68  F   UNL A   1      43.166  32.272  33.788  1.00  0.00    -0.206 F 
ATOM     69  C   UNL A   1      43.652  34.535  33.418  1.00  0.00     0.059 A 
ATOM     70  C   UNL A   1      44.306  35.288  31.205  1.00  0.00     0.059 A 
ATOM     71  F   UNL A   1      44.402  33.754  29.435  1.00  0.00    -0.206 F 
ATOM     72  C   UNL A   1      44.033  35.556  32.545  1.00  0.00     0.060 A 
BRANCH  72  73
ATOM     73  S   UNL A   1      44.173  37.235  33.192  1.00  0.00     0.124 S 
ATOM     74  O   UNL A   1      45.255  37.085  34.160  1.00  0.00    -0.237 OA
ATOM     75  O   UNL A   1      44.495  38.005  31.995  1.00  0.00    -0.237 OA
ATOM     76  O   UNL A   1      42.854  37.491  33.763  1.00  0.00    -0.744 OA
ENDBRANCH  72  73
ENDBRANCH  51  65
BRANCH  52  77
ATOM     77  C   UNL A   1      42.721  23.754  27.718  1.00  0.00     0.058 A 
ATOM     78  C   UNL A   1      42.897  23.552  26.341  1.00  0.00     0.135 A 
ATOM     79  C   UNL A   1      42.420  22.633  28.508  1.00  0.00     0.135 A 
ATOM     80  F   UNL A   1      43.183  24.592  25.541  1.00  0.00    -0.206 F 
ATOM     81  C   UNL A   1      42.759  22.294  25.765  1.00  0.00     0.059 A 
ATOM     82  C   UNL A   1      42.303  21.361  27.959  1.00  0.00     0.059 A 
ATOM     83  F   UNL A   1      42.259  22.769  29.834  1.00  0.00    -0.206 F 
ATOM     84  C   UNL A   1      42.465  21.203  26.584  1.00  0.00     0.060 A 
BRANCH  84  85
ATOM     85  S   UNL A   1      42.331  19.567  25.830  1.00  0.00     0.124 S 
ATOM     86  O   UNL A   1      42.726  18.700  26.934  1.00  0.00    -0.237 OA
ATOM     87  O   UNL A   1      40.921  19.519  25.453  1.00  0.00    -0.237 OA
ATOM     88  O   UNL A   1      43.268  19.635  24.713  1.00  0.00    -0.744 OA
ENDBRANCH  84  85
ENDBRANCH  52  77
BRANCH  64  89
ATOM     89  C   UNL A   1      47.975  27.099  30.874  1.00  0.00     0.058 A 
ATOM     90  C   UNL A   1      48.265  26.443  32.079  1.00  0.00     0.135 A 
ATOM     91  C   UNL A   1      49.034  27.316  29.975  1.00  0.00     0.135 A 
ATOM     92  F   UNL A   1      47.291  26.215  32.976  1.00  0.00    -0.206 F 
ATOM     93  C   UNL A   1      49.558  26.040  32.395  1.00  0.00     0.059 A 
ATOM     94  C   UNL A   1      50.329  26.893  30.256  1.00  0.00     0.059 A 
ATOM     95  F   UNL A   1      48.810  27.930  28.802  1.00  0.00    -0.206 F 
ATOM     96  C   UNL A   1      50.584  26.267  31.475  1.00  0.00     0.060 A 
BRANCH  96  97
ATOM     97  S   UNL A   1      52.251  25.710  31.882  1.00  0.00     0.124 S 
ATOM     98  O   UNL A   1      52.966  25.986  30.640  1.00  0.00    -0.237 OA
ATOM     99  O   UNL A   1      52.597  26.563  33.015  1.00  0.00    -0.237 OA
ATOM    100  O   UNL A   1      52.070  24.297  32.202  1.00  0.00    -0.744 OA
ENDBRANCH  96  97
ENDBRANCH  64  89
ENDBRANCH  38  39
ENDBRANCH  30  33
ENDBRANCH  28  29
ENDBRANCH  27  28
ENDBRANCH  26  27
ENDBRANCH   1  26
TORSDOF 19
ENDMDL
MODEL 2
REMARK VINA RESULT:     -10.9      1.024      2.401
REMARK SMILES CC(=O)c1cc2c(cc1NC(=O)/C=C/C(=O)NCCCCCCNC(=O)c1ccc(-c3c4nc(c(-c5c(F)cc(S(=O)(=O)[O-])cc5F)c5ccc([nH]5)c(-c5c(F)cc(S(=O)(=O)[O-])cc5F)c5nc(c(-c6c(F)cc(S(=O)(=O)[O-])cc6F)c6ccc3[nH]6)C=C5)C=C4)cc1)OCO2
REMARK SMILES IDX 20 1 19 2 18 3 17 4 15 5 16 6 14 8 13 9 11 10 10 11 12 13
REMARK SMILES IDX 9 14 4 15 5 16 6 17 8 18 7 19 95 20 93 21 94 22 2 23 1 24
REMARK SMILES IDX 3 25 21 26 22 27 23 28 24 29 25 30 26 32 27 33 28 34 92 35
REMARK SMILES IDX 29 36 91 37 30 38 31 39 32 40 85 41 33 42 90 43 84 44 86 45
REMARK SMILES IDX 34 46 89 47 83 48 82 49 35 51 69 52 48 53 68 54 49 55 52 56
REMARK SMILES IDX 67 57 87 58 50 59 51 60 66 62 88 63 53 64 36 65 37 66 46 67
REMARK SMILES IDX 38 68 39 69 45 70 47 71 40 72 41 73 42 74 43 75 44 76 70 77
REMARK SMILES IDX 71 78 80 79 72 80 73 81 79 82 81 83 74 84 75 85 76 86 77 87
REMARK SMILES IDX 78 88 54 89 55 90 64 91 56 92 57 93 63 94 65 95 58 96 59 97
REMARK SMILES IDX 60 98 61 99 62 100
REMARK H PARENT 17 7 10 12 24 31 86 50 52 61
REMARK Flexibility Score: inf
ROOT
ATOM      1  C   UNL A   1      32.772  27.385  23.272  1.00  0.00     0.002 C 
ENDROOT
BRANCH   1   2
ATOM      2  C   UNL A   1      31.378  26.750  23.326  1.00  0.00     0.021 C 
BRANCH   2   3
ATOM      3  C   UNL A   1      31.400  25.231  23.467  1.00  0.00     0.116 C 
BRANCH   3   4
ATOM      4  N   UNL A   1      32.044  24.616  22.324  1.00  0.00    -0.353 N 
ATOM      5  C   UNL A   1      33.230  23.966  22.252  1.00  0.00     0.244 C 
ATOM      6  O   UNL A   1      33.537  23.346  21.237  1.00  0.00    -0.270 OA
ATOM      7  H   UNL A   1      31.549  24.681  21.476  1.00  0.00     0.163 HD
BRANCH   5   8
ATOM      8  C   UNL A   1      34.158  23.987  23.397  1.00  0.00     0.077 C 
ATOM      9  C   UNL A   1      35.236  23.189  23.430  1.00  0.00     0.077 C 
BRANCH   9  10
ATOM     10  C   UNL A   1      35.995  23.034  24.678  1.00  0.00     0.248 C 
ATOM     11  N   UNL A   1      35.738  21.972  25.500  1.00  0.00    -0.322 N 
ATOM     12  H   UNL A   1      36.268  21.972  26.331  1.00  0.00     0.170 HD
ATOM     13  O   UNL A   1      36.844  23.873  24.965  1.00  0.00    -0.270 OA
BRANCH  11  14
ATOM     14  C   UNL A   1      34.853  20.871  25.381  1.00  0.00     0.056 A 
ATOM     15  C   UNL A   1      33.499  21.031  25.775  1.00  0.00     0.045 A 
ATOM     16  C   UNL A   1      32.517  20.096  25.408  1.00  0.00     0.064 A 
ATOM     17  C   UNL A   1      32.928  18.994  24.694  1.00  0.00     0.166 A 
ATOM     18  C   UNL A   1      35.238  19.641  24.840  1.00  0.00     0.077 A 
ATOM     19  C   UNL A   1      34.257  18.754  24.459  1.00  0.00     0.167 A 
ATOM     20  O   UNL A   1      32.134  18.029  24.158  1.00  0.00    -0.454 OA
ATOM     21  O   UNL A   1      34.466  17.592  23.786  1.00  0.00    -0.454 OA
ATOM     22  C   UNL A   1      33.115  17.265  23.417  1.00  0.00     0.468 C 
BRANCH  15  23
ATOM     23  C   UNL A   1      33.102  22.189  26.609  1.00  0.00     0.162 C 
ATOM     24  C   UNL A   1      31.844  22.916  26.216  1.00  0.00     0.093 C 
ATOM     25  O   UNL A   1      33.729  22.455  27.631  1.00  0.00    -0.294 OA
ENDBRANCH  15  23
ENDBRANCH  11  14
ENDBRANCH   9  10
ENDBRANCH   5   8
ENDBRANCH   3   4
ENDBRANCH   2   3
ENDBRANCH   1   2
BRANCH   1  26
ATOM     26  C   UNL A   1      33.575  27.277  24.573  1.00  0.00     0.002 C 
BRANCH  26  27
ATOM     27  C   UNL A   1      32.878  27.859  25.806  1.00  0.00     0.021 C 
BRANCH  27  28
ATOM     28  C   UNL A   1      33.831  28.273  26.917  1.00  0.00     0.116 C 
BRANCH  28  29
ATOM     29  N   UNL A   1      33.624  29.658  27.304  1.00  0.00    -0.352 N 
ATOM     30  C   UNL A   1      34.449  30.469  28.038  1.00  0.00     0.251 C 
ATOM     31  H   UNL A   1      32.782  30.066  27.001  1.00  0.00     0.163 HD
ATOM     32  O   UNL A   1      34.023  31.526  28.501  1.00  0.00    -0.269 OA
BRANCH  30  33
ATOM     33  C   UNL A   1      35.846  30.055  28.274  1.00  0.00     0.039 A 
ATOM     34  C   UNL A   1      36.769  30.145  27.231  1.00  0.00     0.014 A 
ATOM     35  C   UNL A   1      36.239  29.581  29.530  1.00  0.00     0.014 A 
ATOM     36  C   UNL A   1      38.100  29.795  27.461  1.00  0.00     0.010 A 
ATOM     37  C   UNL A   1      37.580  29.312  29.778  1.00  0.00     0.010 A 
ATOM     38  C   UNL A   1      38.521  29.398  28.742  1.00  0.00    -0.014 A 
BRANCH  38  39
ATOM     39  C   UNL A   1      39.937  29.045  29.009  1.00  0.00     0.031 A 
ATOM     40  C   UNL A   1      40.868  30.072  29.596  1.00  0.00     0.074 A 
ATOM     41  C   UNL A   1      40.394  27.822  28.677  1.00  0.00     0.049 A 
ATOM     42  N   UNL A   1      42.146  29.976  29.855  1.00  0.00    -0.248 NA
ATOM     43  C   UNL A   1      40.293  31.392  29.907  1.00  0.00     0.031 C 
ATOM     44  C   UNL A   1      39.596  26.761  28.058  1.00  0.00     0.029 A 
ATOM     45  N   UNL A   1      41.640  27.266  28.806  1.00  0.00    -0.354 N 
ATOM     46  C   UNL A   1      42.528  31.219  30.345  1.00  0.00     0.074 A 
ATOM     47  C   UNL A   1      41.362  32.073  30.290  1.00  0.00     0.031 C 
ATOM     48  C   UNL A   1      40.366  25.675  27.886  1.00  0.00     0.029 A 
ATOM     49  C   UNL A   1      41.719  25.973  28.343  1.00  0.00     0.049 A 
ATOM     50  H   UNL A   1      42.407  27.746  29.193  1.00  0.00     0.167 HD
ATOM     51  C   UNL A   1      43.735  31.607  30.821  1.00  0.00     0.037 A 
ATOM     52  C   UNL A   1      42.766  25.128  28.288  1.00  0.00     0.037 A 
ATOM     53  C   UNL A   1      44.884  30.741  30.891  1.00  0.00     0.049 A 
ATOM     54  C   UNL A   1      44.100  25.582  28.818  1.00  0.00     0.074 A 
ATOM     55  C   UNL A   1      46.138  31.017  31.408  1.00  0.00     0.029 A 
ATOM     56  N   UNL A   1      44.921  29.433  30.429  1.00  0.00    -0.354 N 
ATOM     57  N   UNL A   1      44.428  26.741  29.340  1.00  0.00    -0.248 NA
ATOM     58  C   UNL A   1      45.203  24.614  28.762  1.00  0.00     0.031 C 
ATOM     59  C   UNL A   1      46.947  29.893  31.210  1.00  0.00     0.029 A 
ATOM     60  C   UNL A   1      46.182  28.896  30.626  1.00  0.00     0.049 A 
ATOM     61  H   UNL A   1      44.161  28.957  30.020  1.00  0.00     0.167 HD
ATOM     62  C   UNL A   1      45.765  26.630  29.703  1.00  0.00     0.074 A 
ATOM     63  C   UNL A   1      46.181  25.287  29.351  1.00  0.00     0.031 C 
ATOM     64  C   UNL A   1      46.575  27.553  30.278  1.00  0.00     0.037 A 
BRANCH  51  65
ATOM     65  C   UNL A   1      43.874  33.025  31.306  1.00  0.00     0.058 A 
ATOM     66  C   UNL A   1      43.575  33.387  32.631  1.00  0.00     0.135 A 
ATOM     67  C   UNL A   1      44.347  34.030  30.447  1.00  0.00     0.135 A 
ATOM     68  F   UNL A   1      43.104  32.472  33.492  1.00  0.00    -0.206 F 
ATOM     69  C   UNL A   1      43.709  34.698  33.075  1.00  0.00     0.059 A 
ATOM     70  C   UNL A   1      44.519  35.342  30.880  1.00  0.00     0.059 A 
ATOM     71  F   UNL A   1      44.648  33.743  29.171  1.00  0.00    -0.206 F 
ATOM     72  C   UNL A   1      44.183  35.669  32.192  1.00  0.00     0.060 A 
BRANCH  72  73
ATOM     73  S   UNL A   1      44.359  37.363  32.790  1.00  0.00     0.124 S 
ATOM     74  O   UNL A   1      43.842  38.127  31.658  1.00  0.00    -0.237 OA
ATOM     75  O   UNL A   1      43.524  37.361  33.986  1.00  0.00    -0.237 OA
ATOM     76  O   UNL A   1      45.793  37.493  33.029  1.00  0.00    -0.744 OA
ENDBRANCH  72  73
ENDBRANCH  51  65
BRANCH  52  77
ATOM     77  C   UNL A   1      42.589  23.759  27.729  1.00  0.00     0.058 A 
ATOM     78  C   UNL A   1      42.485  22.643  28.572  1.00  0.00     0.135 A 
ATOM     79  C   UNL A   1      42.507  23.541  26.345  1.00  0.00     0.135 A 
ATOM     80  F   UNL A   1      42.562  22.797  29.903  1.00  0.00    -0.206 F 
ATOM     81  C   UNL A   1      42.327  21.358  28.064  1.00  0.00     0.059 A 
ATOM     82  C   UNL A   1      42.322  22.269  25.814  1.00  0.00     0.059 A 
ATOM     83  F   UNL A   1      42.583  24.578  25.495  1.00  0.00    -0.206 F 
ATOM     84  C   UNL A   1      42.243  21.181  26.682  1.00  0.00     0.060 A 
BRANCH  84  85
ATOM     85  S   UNL A   1      41.994  19.513  26.037  1.00  0.00     0.124 S 
ATOM     86  O   UNL A   1      42.933  19.486  24.921  1.00  0.00    -0.237 OA
ATOM     87  O   UNL A   1      42.345  18.686  27.187  1.00  0.00    -0.237 OA
ATOM     88  O   UNL A   1      40.581  19.502  25.674  1.00  0.00    -0.744 OA
ENDBRANCH  84  85
ENDBRANCH  52  77
BRANCH  64  89
ATOM     89  C   UNL A   1      47.984  27.134  30.604  1.00  0.00     0.058 A 
ATOM     90  C   UNL A   1      49.058  27.413  29.747  1.00  0.00     0.135 A 
ATOM     91  C   UNL A   1      48.265  26.489  31.821  1.00  0.00     0.135 A 
ATOM     92  F   UNL A   1      48.844  28.022  28.569  1.00  0.00    -0.206 F 
ATOM     93  C   UNL A   1      50.360  27.043  30.071  1.00  0.00     0.059 A 
ATOM     94  C   UNL A   1      49.563  26.140  32.179  1.00  0.00     0.059 A 
ATOM     95  F   UNL A   1      47.275  26.209  32.683  1.00  0.00    -0.206 F 
ATOM     96  C   UNL A   1      50.603  26.410  31.291  1.00  0.00     0.060 A 
BRANCH  96  97
ATOM     97  S   UNL A   1      52.300  25.966  31.713  1.00  0.00     0.124 S 
ATOM     98  O   UNL A   1      52.654  27.019  32.660  1.00  0.00    -0.237 OA
ATOM     99  O   UNL A   1      52.141  24.631  32.281  1.00  0.00    -0.237 OA
ATOM    100  O   UNL A   1      52.995  26.016  30.431  1.00  0.00    -0.744 OA
ENDBRANCH  96  97
ENDBRANCH  64  89
ENDBRANCH  38  39
ENDBRANCH  30  33
ENDBRANCH  28  29
ENDBRANCH  27  28
ENDBRANCH  26  27
ENDBRANCH   1  26
TORSDOF 19
ENDMDL
MODEL 3
REMARK VINA RESULT:     -10.8      4.667     10.566
REMARK SMILES CC(=O)c1cc2c(cc1NC(=O)/C=C/C(=O)NCCCCCCNC(=O)c1ccc(-c3c4nc(c(-c5c(F)cc(S(=O)(=O)[O-])cc5F)c5ccc([nH]5)c(-c5c(F)cc(S(=O)(=O)[O-])cc5F)c5nc(c(-c6c(F)cc(S(=O)(=O)[O-])cc6F)c6ccc3[nH]6)C=C5)C=C4)cc1)OCO2
REMARK SMILES IDX 20 1 19 2 18 3 17 4 15 5 16 6 14 8 13 9 11 10 10 11 12 13
REMARK SMILES IDX 9 14 4 15 5 16 6 17 8 18 7 19 95 20 93 21 94 22 2 23 1 24
REMARK SMILES IDX 3 25 21 26 22 27 23 28 24 29 25 30 26 32 27 33 28 34 92 35
REMARK SMILES IDX 29 36 91 37 30 38 31 39 32 40 85 41 33 42 90 43 84 44 86 45
REMARK SMILES IDX 34 46 89 47 83 48 82 49 35 51 69 52 48 53 68 54 49 55 52 56
REMARK SMILES IDX 67 57 87 58 50 59 51 60 66 62 88 63 53 64 36 65 37 66 46 67
REMARK SMILES IDX 38 68 39 69 45 70 47 71 40 72 41 73 42 74 43 75 44 76 70 77
REMARK SMILES IDX 71 78 80 79 72 80 73 81 79 82 81 83 74 84 75 85 76 86 77 87
REMARK SMILES IDX 78 88 54 89 55 90 64 91 56 92 57 93 63 94 65 95 58 96 59 97
REMARK SMILES IDX 60 98 61 99 62 100
REMARK H PARENT 17 7 10 12 24 31 86 50 52 61
REMARK Flexibility Score: inf
ROOT
ATOM      1  C   UNL A   1      38.728  22.872  26.534  1.00  0.00     0.002 C 
ENDROOT
BRANCH   1   2
ATOM      2  C   UNL A   1      37.820  22.607  25.328  1.00  0.00     0.021 C 
BRANCH   2   3
ATOM      3  C   UNL A   1      36.743  21.560  25.589  1.00  0.00     0.116 C 
BRANCH   3   4
ATOM      4  N   UNL A   1      35.687  22.103  26.419  1.00  0.00    -0.353 N 
ATOM      5  C   UNL A   1      34.653  22.910  26.079  1.00  0.00     0.244 C 
ATOM      6  O   UNL A   1      33.745  23.126  26.876  1.00  0.00    -0.270 OA
ATOM      7  H   UNL A   1      35.725  21.849  27.370  1.00  0.00     0.163 HD
BRANCH   5   8
ATOM      8  C   UNL A   1      34.606  23.528  24.741  1.00  0.00     0.077 C 
ATOM      9  C   UNL A   1      33.865  24.622  24.510  1.00  0.00     0.077 C 
BRANCH   9  10
ATOM     10  C   UNL A   1      33.623  25.066  23.130  1.00  0.00     0.248 C 
ATOM     11  N   UNL A   1      33.166  26.333  22.895  1.00  0.00    -0.322 N 
ATOM     12  H   UNL A   1      32.997  26.527  21.944  1.00  0.00     0.170 HD
ATOM     13  O   UNL A   1      33.826  24.279  22.210  1.00  0.00    -0.270 OA
BRANCH  11  14
ATOM     14  C   UNL A   1      32.893  27.420  23.763  1.00  0.00     0.056 A 
ATOM     15  C   UNL A   1      31.544  27.803  23.983  1.00  0.00     0.045 A 
ATOM     16  C   UNL A   1      31.191  28.655  25.043  1.00  0.00     0.064 A 
ATOM     17  C   UNL A   1      32.209  29.143  25.828  1.00  0.00     0.166 A 
ATOM     18  C   UNL A   1      33.892  28.105  24.461  1.00  0.00     0.077 A 
ATOM     19  C   UNL A   1      33.524  28.910  25.515  1.00  0.00     0.167 A 
ATOM     20  O   UNL A   1      32.080  29.894  26.954  1.00  0.00    -0.454 OA
ATOM     21  O   UNL A   1      34.381  29.518  26.377  1.00  0.00    -0.454 OA
ATOM     22  C   UNL A   1      33.458  29.945  27.394  1.00  0.00     0.468 C 
BRANCH  15  23
ATOM     23  C   UNL A   1      30.480  27.321  23.072  1.00  0.00     0.162 C 
ATOM     24  C   UNL A   1      29.236  26.762  23.710  1.00  0.00     0.093 C 
ATOM     25  O   UNL A   1      30.588  27.482  21.860  1.00  0.00    -0.294 OA
ENDBRANCH  15  23
ENDBRANCH  11  14
ENDBRANCH   9  10
ENDBRANCH   5   8
ENDBRANCH   3   4
ENDBRANCH   2   3
ENDBRANCH   1   2
BRANCH   1  26
ATOM     26  C   UNL A   1      40.058  22.110  26.513  1.00  0.00     0.002 C 
BRANCH  26  27
ATOM     27  C   UNL A   1      40.923  22.298  27.763  1.00  0.00     0.021 C 
BRANCH  27  28
ATOM     28  C   UNL A   1      42.100  23.241  27.564  1.00  0.00     0.116 C 
BRANCH  28  29
ATOM     29  N   UNL A   1      41.971  23.997  26.330  1.00  0.00    -0.352 N 
ATOM     30  C   UNL A   1      41.501  25.272  26.158  1.00  0.00     0.251 C 
ATOM     31  H   UNL A   1      42.256  23.532  25.511  1.00  0.00     0.163 HD
ATOM     32  O   UNL A   1      41.210  25.676  25.033  1.00  0.00    -0.269 OA
BRANCH  30  33
ATOM     33  C   UNL A   1      41.340  26.147  27.335  1.00  0.00     0.039 A 
ATOM     34  C   UNL A   1      42.292  27.136  27.585  1.00  0.00     0.014 A 
ATOM     35  C   UNL A   1      40.242  25.987  28.188  1.00  0.00     0.014 A 
ATOM     36  C   UNL A   1      42.122  27.993  28.672  1.00  0.00     0.010 A 
ATOM     37  C   UNL A   1      40.033  26.894  29.221  1.00  0.00     0.010 A 
ATOM     38  C   UNL A   1      40.979  27.894  29.485  1.00  0.00    -0.014 A 
BRANCH  38  39
ATOM     39  C   UNL A   1      40.771  28.813  30.631  1.00  0.00     0.031 A 
ATOM     40  C   UNL A   1      41.599  28.656  31.879  1.00  0.00     0.074 A 
ATOM     41  C   UNL A   1      39.806  29.751  30.567  1.00  0.00     0.049 A 
ATOM     42  N   UNL A   1      41.534  29.322  33.002  1.00  0.00    -0.248 NA
ATOM     43  C   UNL A   1      42.615  27.590  31.874  1.00  0.00     0.031 C 
ATOM     44  C   UNL A   1      38.909  29.965  29.429  1.00  0.00     0.029 A 
ATOM     45  N   UNL A   1      39.411  30.695  31.481  1.00  0.00    -0.354 N 
ATOM     46  C   UNL A   1      42.487  28.751  33.836  1.00  0.00     0.074 A 
ATOM     47  C   UNL A   1      43.075  27.644  33.115  1.00  0.00     0.031 C 
ATOM     48  C   UNL A   1      38.089  30.992  29.702  1.00  0.00     0.029 A 
ATOM     49  C   UNL A   1      38.371  31.483  31.047  1.00  0.00     0.049 A 
ATOM     50  H   UNL A   1      39.833  30.799  32.364  1.00  0.00     0.167 HD
ATOM     51  C   UNL A   1      42.857  29.130  35.083  1.00  0.00     0.037 A 
ATOM     52  C   UNL A   1      37.716  32.483  31.667  1.00  0.00     0.037 A 
ATOM     53  C   UNL A   1      42.280  30.248  35.784  1.00  0.00     0.049 A 
ATOM     54  C   UNL A   1      38.141  32.884  33.055  1.00  0.00     0.074 A 
ATOM     55  C   UNL A   1      42.621  30.752  37.027  1.00  0.00     0.029 A 
ATOM     56  N   UNL A   1      41.240  31.033  35.306  1.00  0.00    -0.354 N 
ATOM     57  N   UNL A   1      39.091  32.376  33.805  1.00  0.00    -0.248 NA
ATOM     58  C   UNL A   1      37.415  33.999  33.677  1.00  0.00     0.031 C 
ATOM     59  C   UNL A   1      41.753  31.808  37.322  1.00  0.00     0.029 A 
ATOM     60  C   UNL A   1      40.911  32.003  36.239  1.00  0.00     0.049 A 
ATOM     61  H   UNL A   1      40.801  30.918  34.432  1.00  0.00     0.167 HD
ATOM     62  C   UNL A   1      39.096  33.129  34.973  1.00  0.00     0.074 A 
ATOM     63  C   UNL A   1      38.063  34.134  34.825  1.00  0.00     0.031 C 
ATOM     64  C   UNL A   1      39.886  33.003  36.069  1.00  0.00     0.037 A 
BRANCH  51  65
ATOM     65  C   UNL A   1      43.936  28.334  35.766  1.00  0.00     0.058 A 
ATOM     66  C   UNL A   1      43.638  27.240  36.595  1.00  0.00     0.135 A 
ATOM     67  C   UNL A   1      45.291  28.647  35.562  1.00  0.00     0.135 A 
ATOM     68  F   UNL A   1      42.361  26.906  36.840  1.00  0.00    -0.206 F 
ATOM     69  C   UNL A   1      44.639  26.506  37.221  1.00  0.00     0.059 A 
ATOM     70  C   UNL A   1      46.311  27.905  36.153  1.00  0.00     0.059 A 
ATOM     71  F   UNL A   1      45.636  29.682  34.781  1.00  0.00    -0.206 F 
ATOM     72  C   UNL A   1      45.974  26.845  36.993  1.00  0.00     0.060 A 
BRANCH  72  73
ATOM     73  S   UNL A   1      47.260  25.875  37.806  1.00  0.00     0.124 S 
ATOM     74  O   UNL A   1      47.236  26.433  39.155  1.00  0.00    -0.237 OA
ATOM     75  O   UNL A   1      46.753  24.513  37.676  1.00  0.00    -0.237 OA
ATOM     76  O   UNL A   1      48.457  26.173  37.027  1.00  0.00    -0.744 OA
ENDBRANCH  72  73
ENDBRANCH  51  65
BRANCH  52  77
ATOM     77  C   UNL A   1      36.605  33.189  30.972  1.00  0.00     0.058 A 
ATOM     78  C   UNL A   1      36.866  34.148  29.982  1.00  0.00     0.135 A 
ATOM     79  C   UNL A   1      35.262  32.910  31.272  1.00  0.00     0.135 A 
ATOM     80  F   UNL A   1      38.133  34.454  29.661  1.00  0.00    -0.206 F 
ATOM     81  C   UNL A   1      35.839  34.821  29.329  1.00  0.00     0.059 A 
ATOM     82  C   UNL A   1      34.217  33.549  30.613  1.00  0.00     0.059 A 
ATOM     83  F   UNL A   1      34.958  31.987  32.199  1.00  0.00    -0.206 F 
ATOM     84  C   UNL A   1      34.516  34.511  29.650  1.00  0.00     0.060 A 
BRANCH  84  85
ATOM     85  S   UNL A   1      33.191  35.360  28.765  1.00  0.00     0.124 S 
ATOM     86  O   UNL A   1      33.945  36.235  27.874  1.00  0.00    -0.237 OA
ATOM     87  O   UNL A   1      32.490  34.250  28.127  1.00  0.00    -0.237 OA
ATOM     88  O   UNL A   1      32.450  36.029  29.830  1.00  0.00    -0.744 OA
ENDBRANCH  84  85
ENDBRANCH  52  77
BRANCH  64  89
ATOM     89  C   UNL A   1      39.696  34.001  37.180  1.00  0.00     0.058 A 
ATOM     90  C   UNL A   1      38.865  33.739  38.278  1.00  0.00     0.135 A 
ATOM     91  C   UNL A   1      40.402  35.216  37.166  1.00  0.00     0.135 A 
ATOM     92  F   UNL A   1      38.163  32.595  38.339  1.00  0.00    -0.206 F 
ATOM     93  C   UNL A   1      38.718  34.658  39.313  1.00  0.00     0.059 A 
ATOM     94  C   UNL A   1      40.295  36.135  38.204  1.00  0.00     0.059 A 
ATOM     95  F   UNL A   1      41.220  35.512  36.143  1.00  0.00    -0.206 F 
ATOM     96  C   UNL A   1      39.439  35.852  39.268  1.00  0.00     0.060 A 
BRANCH  96  97
ATOM     97  S   UNL A   1      39.265  37.021  40.632  1.00  0.00     0.124 S 
ATOM     98  O   UNL A   1      40.650  37.420  40.858  1.00  0.00    -0.237 OA
ATOM     99  O   UNL A   1      38.397  38.044  40.056  1.00  0.00    -0.237 OA
ATOM    100  O   UNL A   1      38.660  36.220  41.692  1.00  0.00    -0.744 OA
ENDBRANCH  96  97
ENDBRANCH  64  89
ENDBRANCH  38  39
ENDBRANCH  30  33
ENDBRANCH  28  29
ENDBRANCH  27  28
ENDBRANCH  26  27
ENDBRANCH   1  26
TORSDOF 19
ENDMDL
