MODEL 1
REMARK VINA RESULT:     -11.7      0.000      0.000
REMARK SMILES O=C(NCCCCCCNC(=O)[C@H](c1ccccc1)N1C(=O)/C(=C\c2ccc(Br)cc2)SC1=S)c1ccc(-c2c3nc(c(-c4c(F)cc(S(=O)(=O)[O-])cc4F)c4ccc([nH]4)c(-c4c(F)cc(S(=O)(=O)[O-])cc4F)c4nc(c(-c5c(F)cc(S(=O)(=O)[O-])cc5F)c5ccc2[nH]5)C=C4)C=C3)cc1
REMARK SMILES IDX 6 1 5 2 4 3 3 4 1 5 2 6 35 8 36 9 100 10 37 11 99 12 38 13
REMARK SMILES IDX 39 14 40 15 93 16 41 17 98 18 92 19 94 20 42 21 97 22 91 23
REMARK SMILES IDX 90 24 43 26 77 27 56 28 76 29 57 30 60 31 75 32 95 33 58 34
REMARK SMILES IDX 59 35 74 37 96 38 61 39 44 40 45 41 54 42 46 43 47 44 53 45
REMARK SMILES IDX 55 46 48 47 49 48 50 49 51 50 52 51 78 52 79 53 88 54 80 55
REMARK SMILES IDX 81 56 87 57 89 58 82 59 83 60 84 61 85 62 86 63 62 64 63 65
REMARK SMILES IDX 72 66 64 67 65 68 71 69 73 70 66 71 67 72 68 73 69 74 70 75
REMARK SMILES IDX 7 76 8 77 9 78 10 79 11 80 12 82 13 83 20 84 21 85 33 86
REMARK SMILES IDX 22 87 23 88 32 89 34 90 24 91 25 92 26 93 31 94 27 95 30 96
REMARK SMILES IDX 28 97 29 98 14 99 15 100 19 101 16 102 18 103 17 104
REMARK H PARENT 3 7 94 25 60 36 10 81
REMARK Flexibility Score: inf
ROOT
ATOM      1  C   UNL A   1      35.483  32.654  27.896  1.00  0.00     0.002 C 
ENDROOT
BRANCH   1   2
ATOM      2  C   UNL A   1      35.658  33.428  29.205  1.00  0.00     0.021 C 
BRANCH   2   3
ATOM      3  C   UNL A   1      36.804  32.932  30.080  1.00  0.00     0.116 C 
BRANCH   3   4
ATOM      4  N   UNL A   1      36.367  31.885  30.989  1.00  0.00    -0.352 N 
ATOM      5  O   UNL A   1      36.224  29.783  31.782  1.00  0.00    -0.269 OA
ATOM      6  C   UNL A   1      36.868  30.620  31.157  1.00  0.00     0.251 C 
ATOM      7  H   UNL A   1      35.602  32.117  31.565  1.00  0.00     0.163 HD
BRANCH   6   8
ATOM      8  C   UNL A   1      38.180  30.268  30.576  1.00  0.00     0.039 A 
ATOM      9  C   UNL A   1      39.264  29.958  31.404  1.00  0.00     0.014 A 
ATOM     10  C   UNL A   1      38.317  30.222  29.188  1.00  0.00     0.014 A 
ATOM     11  C   UNL A   1      40.514  29.709  30.845  1.00  0.00     0.010 A 
ATOM     12  C   UNL A   1      39.554  29.902  28.628  1.00  0.00     0.010 A 
ATOM     13  C   UNL A   1      40.667  29.663  29.452  1.00  0.00    -0.014 A 
BRANCH  13  14
ATOM     14  C   UNL A   1      41.979  29.314  28.854  1.00  0.00     0.031 A 
ATOM     15  C   UNL A   1      42.249  27.922  28.359  1.00  0.00     0.074 A 
ATOM     16  C   UNL A   1      42.941  30.255  28.794  1.00  0.00     0.049 A 
ATOM     17  N   UNL A   1      43.361  27.410  27.900  1.00  0.00    -0.248 NA
ATOM     18  C   UNL A   1      41.122  26.976  28.397  1.00  0.00     0.031 C 
ATOM     19  C   UNL A   1      42.791  31.640  29.246  1.00  0.00     0.029 A 
ATOM     20  N   UNL A   1      44.236  30.188  28.348  1.00  0.00    -0.354 N 
ATOM     21  C   UNL A   1      43.080  26.080  27.616  1.00  0.00     0.074 A 
ATOM     22  C   UNL A   1      41.696  25.857  27.977  1.00  0.00     0.031 C 
ATOM     23  C   UNL A   1      43.945  32.293  29.048  1.00  0.00     0.029 A 
ATOM     24  C   UNL A   1      44.933  31.360  28.519  1.00  0.00     0.049 A 
ATOM     25  H   UNL A   1      44.627  29.379  27.946  1.00  0.00     0.167 HD
ATOM     26  C   UNL A   1      43.903  25.133  27.100  1.00  0.00     0.037 A 
ATOM     27  C   UNL A   1      46.232  31.644  28.309  1.00  0.00     0.037 A 
ATOM     28  C   UNL A   1      45.280  25.372  26.747  1.00  0.00     0.049 A 
ATOM     29  C   UNL A   1      47.138  30.575  27.773  1.00  0.00     0.074 A 
ATOM     30  C   UNL A   1      46.191  24.493  26.190  1.00  0.00     0.029 A 
ATOM     31  N   UNL A   1      45.949  26.576  26.929  1.00  0.00    -0.354 N 
ATOM     32  N   UNL A   1      46.851  29.328  27.481  1.00  0.00    -0.248 NA
ATOM     33  C   UNL A   1      48.538  30.944  27.533  1.00  0.00     0.031 C 
ATOM     34  C   UNL A   1      47.423  25.147  26.084  1.00  0.00     0.029 A 
ATOM     35  C   UNL A   1      47.266  26.455  26.517  1.00  0.00     0.049 A 
ATOM     36  H   UNL A   1      45.546  27.395  27.298  1.00  0.00     0.167 HD
ATOM     37  C   UNL A   1      48.028  28.771  26.995  1.00  0.00     0.074 A 
ATOM     38  C   UNL A   1      49.030  29.817  27.034  1.00  0.00     0.031 C 
ATOM     39  C   UNL A   1      48.250  27.510  26.548  1.00  0.00     0.037 A 
BRANCH  26  40
ATOM     40  C   UNL A   1      43.344  23.747  26.925  1.00  0.00     0.058 A 
ATOM     41  C   UNL A   1      43.186  22.867  28.008  1.00  0.00     0.135 A 
ATOM     42  C   UNL A   1      42.958  23.292  25.653  1.00  0.00     0.135 A 
ATOM     43  F   UNL A   1      43.547  23.242  29.245  1.00  0.00    -0.206 F 
ATOM     44  C   UNL A   1      42.711  21.570  27.828  1.00  0.00     0.059 A 
ATOM     45  C   UNL A   1      42.453  22.010  25.455  1.00  0.00     0.059 A 
ATOM     46  F   UNL A   1      43.081  24.092  24.583  1.00  0.00    -0.206 F 
ATOM     47  C   UNL A   1      42.356  21.148  26.546  1.00  0.00     0.060 A 
BRANCH  47  48
ATOM     48  S   UNL A   1      41.785  19.450  26.323  1.00  0.00     0.124 S 
ATOM     49  O   UNL A   1      42.177  18.845  27.592  1.00  0.00    -0.237 OA
ATOM     50  O   UNL A   1      40.351  19.625  26.122  1.00  0.00    -0.237 OA
ATOM     51  O   UNL A   1      42.528  18.992  25.153  1.00  0.00    -0.744 OA
ENDBRANCH  47  48
ENDBRANCH  26  40
BRANCH  27  52
ATOM     52  C   UNL A   1      46.732  33.009  28.619  1.00  0.00     0.058 A 
ATOM     53  C   UNL A   1      46.586  34.057  27.699  1.00  0.00     0.135 A 
ATOM     54  C   UNL A   1      47.290  33.309  29.872  1.00  0.00     0.135 A 
ATOM     55  F   UNL A   1      46.062  33.819  26.488  1.00  0.00    -0.206 F 
ATOM     56  C   UNL A   1      46.969  35.357  28.013  1.00  0.00     0.059 A 
ATOM     57  C   UNL A   1      47.658  34.605  30.219  1.00  0.00     0.059 A 
ATOM     58  F   UNL A   1      47.433  32.342  30.793  1.00  0.00    -0.206 F 
ATOM     59  C   UNL A   1      47.494  35.622  29.281  1.00  0.00     0.060 A 
BRANCH  59  60
ATOM     60  S   UNL A   1      47.900  37.330  29.707  1.00  0.00     0.124 S 
ATOM     61  O   UNL A   1      47.479  37.392  31.102  1.00  0.00    -0.237 OA
ATOM     62  O   UNL A   1      49.339  37.368  29.471  1.00  0.00    -0.237 OA
ATOM     63  O   UNL A   1      47.097  38.110  28.770  1.00  0.00    -0.744 OA
ENDBRANCH  59  60
ENDBRANCH  27  52
BRANCH  39  64
ATOM     64  C   UNL A   1      49.618  27.192  26.012  1.00  0.00     0.058 A 
ATOM     65  C   UNL A   1      50.629  26.656  26.823  1.00  0.00     0.135 A 
ATOM     66  C   UNL A   1      49.887  27.345  24.641  1.00  0.00     0.135 A 
ATOM     67  F   UNL A   1      50.428  26.500  28.141  1.00  0.00    -0.206 F 
ATOM     68  C   UNL A   1      51.862  26.285  26.294  1.00  0.00     0.059 A 
ATOM     69  C   UNL A   1      51.102  26.958  24.087  1.00  0.00     0.059 A 
ATOM     70  F   UNL A   1      48.951  27.850  23.821  1.00  0.00    -0.206 F 
ATOM     71  C   UNL A   1      52.086  26.431  24.924  1.00  0.00     0.060 A 
BRANCH  71  72
ATOM     72  S   UNL A   1      53.662  25.879  24.239  1.00  0.00     0.124 S 
ATOM     73  O   UNL A   1      53.808  24.565  24.856  1.00  0.00    -0.237 OA
ATOM     74  O   UNL A   1      53.396  25.881  22.804  1.00  0.00    -0.237 OA
ATOM     75  O   UNL A   1      54.607  26.895  24.696  1.00  0.00    -0.744 OA
ENDBRANCH  71  72
ENDBRANCH  39  64
ENDBRANCH  13  14
ENDBRANCH   6   8
ENDBRANCH   3   4
ENDBRANCH   2   3
ENDBRANCH   1   2
BRANCH   1  76
ATOM     76  C   UNL A   1      34.911  31.242  28.053  1.00  0.00     0.002 C 
BRANCH  76  77
ATOM     77  C   UNL A   1      33.465  31.071  27.576  1.00  0.00     0.021 C 
BRANCH  77  78
ATOM     78  C   UNL A   1      33.281  29.975  26.528  1.00  0.00     0.116 C 
BRANCH  78  79
ATOM     79  N   UNL A   1      32.303  28.993  26.944  1.00  0.00    -0.354 N 
ATOM     80  C   UNL A   1      31.597  28.081  26.216  1.00  0.00     0.247 C 
ATOM     81  H   UNL A   1      32.118  28.980  27.911  1.00  0.00     0.163 HD
ATOM     82  O   UNL A   1      30.978  27.231  26.872  1.00  0.00    -0.272 OA
BRANCH  80  83
ATOM     83  C   UNL A   1      31.711  27.977  24.673  1.00  0.00     0.211 C 
BRANCH  83  84
ATOM     84  N   UNL A   1      31.544  26.574  24.237  1.00  0.00    -0.276 N 
ATOM     85  C   UNL A   1      32.668  25.777  24.113  1.00  0.00     0.267 C 
ATOM     86  C   UNL A   1      30.346  25.979  23.915  1.00  0.00     0.149 C 
ATOM     87  O   UNL A   1      33.829  26.159  24.123  1.00  0.00    -0.268 OA
ATOM     88  C   UNL A   1      32.276  24.356  23.925  1.00  0.00     0.081 C 
ATOM     89  S   UNL A   1      30.606  24.274  23.528  1.00  0.00    -0.054 SA
ATOM     90  S   UNL A   1      28.818  26.649  23.900  1.00  0.00    -0.052 S 
ATOM     91  C   UNL A   1      33.062  23.284  24.108  1.00  0.00     0.029 C 
BRANCH  91  92
ATOM     92  C   UNL A   1      34.449  23.351  24.582  1.00  0.00    -0.024 A 
ATOM     93  C   UNL A   1      34.714  23.487  25.948  1.00  0.00     0.009 A 
ATOM     94  C   UNL A   1      35.519  23.249  23.681  1.00  0.00     0.009 A 
ATOM     95  C   UNL A   1      36.033  23.486  26.412  1.00  0.00     0.016 A 
ATOM     96  C   UNL A   1      36.837  23.236  24.143  1.00  0.00     0.016 A 
ATOM     97  C   UNL A   1      37.086  23.350  25.509  1.00  0.00     0.018 A 
ATOM     98  Br  UNL A   1      38.867  23.311  26.141  1.00  0.00    -0.051 Br
ENDBRANCH  91  92
ENDBRANCH  83  84
BRANCH  83  99
ATOM     99  C   UNL A   1      30.894  28.929  23.793  1.00  0.00    -0.016 A 
ATOM    100  C   UNL A   1      30.895  28.877  22.390  1.00  0.00     0.006 A 
ATOM    101  C   UNL A   1      30.103  29.921  24.409  1.00  0.00     0.006 A 
ATOM    102  C   UNL A   1      30.130  29.770  21.633  1.00  0.00     0.000 A 
ATOM    103  C   UNL A   1      29.311  30.789  23.652  1.00  0.00     0.000 A 
ATOM    104  C   UNL A   1      29.329  30.716  22.263  1.00  0.00     0.000 A 
ENDBRANCH  83  99
ENDBRANCH  80  83
ENDBRANCH  78  79
ENDBRANCH  77  78
ENDBRANCH  76  77
ENDBRANCH   1  76
TORSDOF 19
ENDMDL
MODEL 2
REMARK VINA RESULT:     -11.2      3.747      9.550
REMARK SMILES O=C(NCCCCCCNC(=O)[C@H](c1ccccc1)N1C(=O)/C(=C\c2ccc(Br)cc2)SC1=S)c1ccc(-c2c3nc(c(-c4c(F)cc(S(=O)(=O)[O-])cc4F)c4ccc([nH]4)c(-c4c(F)cc(S(=O)(=O)[O-])cc4F)c4nc(c(-c5c(F)cc(S(=O)(=O)[O-])cc5F)c5ccc2[nH]5)C=C4)C=C3)cc1
REMARK SMILES IDX 6 1 5 2 4 3 3 4 1 5 2 6 35 8 36 9 100 10 37 11 99 12 38 13
REMARK SMILES IDX 39 14 40 15 93 16 41 17 98 18 92 19 94 20 42 21 97 22 91 23
REMARK SMILES IDX 90 24 43 26 77 27 56 28 76 29 57 30 60 31 75 32 95 33 58 34
REMARK SMILES IDX 59 35 74 37 96 38 61 39 44 40 45 41 54 42 46 43 47 44 53 45
REMARK SMILES IDX 55 46 48 47 49 48 50 49 51 50 52 51 78 52 79 53 88 54 80 55
REMARK SMILES IDX 81 56 87 57 89 58 82 59 83 60 84 61 85 62 86 63 62 64 63 65
REMARK SMILES IDX 72 66 64 67 65 68 71 69 73 70 66 71 67 72 68 73 69 74 70 75
REMARK SMILES IDX 7 76 8 77 9 78 10 79 11 80 12 82 13 83 20 84 21 85 33 86
REMARK SMILES IDX 22 87 23 88 32 89 34 90 24 91 25 92 26 93 31 94 27 95 30 96
REMARK SMILES IDX 28 97 29 98 14 99 15 100 19 101 16 102 18 103 17 104
REMARK H PARENT 3 7 94 25 60 36 10 81
REMARK Flexibility Score: inf
ROOT
ATOM      1  C   UNL A   1      32.176  25.955  26.468  1.00  0.00     0.002 C 
ENDROOT
BRANCH   1   2
ATOM      2  C   UNL A   1      32.187  27.332  27.136  1.00  0.00     0.021 C 
BRANCH   2   3
ATOM      3  C   UNL A   1      33.516  28.072  27.029  1.00  0.00     0.116 C 
BRANCH   3   4
ATOM      4  N   UNL A   1      33.327  29.513  27.041  1.00  0.00    -0.352 N 
ATOM      5  O   UNL A   1      33.688  31.625  27.733  1.00  0.00    -0.269 OA
ATOM      6  C   UNL A   1      34.121  30.486  27.592  1.00  0.00     0.251 C 
ATOM      7  H   UNL A   1      32.513  29.837  26.591  1.00  0.00     0.163 HD
BRANCH   6   8
ATOM      8  C   UNL A   1      35.495  30.153  28.022  1.00  0.00     0.039 A 
ATOM      9  C   UNL A   1      35.745  29.708  29.324  1.00  0.00     0.014 A 
ATOM     10  C   UNL A   1      36.539  30.261  27.101  1.00  0.00     0.014 A 
ATOM     11  C   UNL A   1      37.053  29.477  29.738  1.00  0.00     0.010 A 
ATOM     12  C   UNL A   1      37.842  29.959  27.498  1.00  0.00     0.010 A 
ATOM     13  C   UNL A   1      38.112  29.585  28.826  1.00  0.00    -0.014 A 
BRANCH  13  14
ATOM     14  C   UNL A   1      39.497  29.256  29.243  1.00  0.00     0.031 A 
ATOM     15  C   UNL A   1      40.353  30.281  29.931  1.00  0.00     0.074 A 
ATOM     16  C   UNL A   1      39.991  28.035  28.963  1.00  0.00     0.049 A 
ATOM     17  N   UNL A   1      41.611  30.205  30.279  1.00  0.00    -0.248 NA
ATOM     18  C   UNL A   1      39.713  31.563  30.262  1.00  0.00     0.031 C 
ATOM     19  C   UNL A   1      39.250  26.961  28.298  1.00  0.00     0.029 A 
ATOM     20  N   UNL A   1      41.232  27.496  29.185  1.00  0.00    -0.354 N 
ATOM     21  C   UNL A   1      41.923  31.435  30.847  1.00  0.00     0.074 A 
ATOM     22  C   UNL A   1      40.726  32.246  30.775  1.00  0.00     0.031 C 
ATOM     23  C   UNL A   1      40.049  25.891  28.171  1.00  0.00     0.029 A 
ATOM     24  C   UNL A   1      41.372  26.223  28.685  1.00  0.00     0.049 A 
ATOM     25  H   UNL A   1      41.952  27.975  29.656  1.00  0.00     0.167 HD
ATOM     26  C   UNL A   1      43.101  31.845  31.378  1.00  0.00     0.037 A 
ATOM     27  C   UNL A   1      42.454  25.425  28.613  1.00  0.00     0.037 A 
ATOM     28  C   UNL A   1      44.284  31.024  31.440  1.00  0.00     0.049 A 
ATOM     29  C   UNL A   1      43.759  25.910  29.173  1.00  0.00     0.074 A 
ATOM     30  C   UNL A   1      45.518  31.332  31.984  1.00  0.00     0.029 A 
ATOM     31  N   UNL A   1      44.384  29.736  30.928  1.00  0.00    -0.354 N 
ATOM     32  N   UNL A   1      44.033  27.064  29.734  1.00  0.00    -0.248 NA
ATOM     33  C   UNL A   1      44.901  24.990  29.098  1.00  0.00     0.031 C 
ATOM     34  C   UNL A   1      46.379  30.253  31.756  1.00  0.00     0.029 A 
ATOM     35  C   UNL A   1      45.665  29.246  31.124  1.00  0.00     0.049 A 
ATOM     36  H   UNL A   1      43.653  29.245  30.490  1.00  0.00     0.167 HD
ATOM     37  C   UNL A   1      45.371  26.999  30.105  1.00  0.00     0.074 A 
ATOM     38  C   UNL A   1      45.850  25.692  29.703  1.00  0.00     0.031 C 
ATOM     39  C   UNL A   1      46.126  27.936  30.730  1.00  0.00     0.037 A 
BRANCH  26  40
ATOM     40  C   UNL A   1      43.175  33.256  31.898  1.00  0.00     0.058 A 
ATOM     41  C   UNL A   1      43.619  34.321  31.098  1.00  0.00     0.135 A 
ATOM     42  C   UNL A   1      42.793  33.547  33.218  1.00  0.00     0.135 A 
ATOM     43  F   UNL A   1      44.007  34.102  29.832  1.00  0.00    -0.206 F 
ATOM     44  C   UNL A   1      43.727  35.614  31.603  1.00  0.00     0.059 A 
ATOM     45  C   UNL A   1      42.865  34.838  33.735  1.00  0.00     0.059 A 
ATOM     46  F   UNL A   1      42.355  32.570  34.027  1.00  0.00    -0.206 F 
ATOM     47  C   UNL A   1      43.357  35.861  32.925  1.00  0.00     0.060 A 
BRANCH  47  48
ATOM     48  S   UNL A   1      43.546  37.533  33.578  1.00  0.00     0.124 S 
ATOM     49  O   UNL A   1      43.617  38.317  32.348  1.00  0.00    -0.237 OA
ATOM     50  O   UNL A   1      42.329  37.702  34.365  1.00  0.00    -0.237 OA
ATOM     51  O   UNL A   1      44.783  37.461  34.349  1.00  0.00    -0.744 OA
ENDBRANCH  47  48
ENDBRANCH  26  40
BRANCH  27  52
ATOM     52  C   UNL A   1      42.324  24.088  27.977  1.00  0.00     0.058 A 
ATOM     53  C   UNL A   1      42.289  23.953  26.583  1.00  0.00     0.135 A 
ATOM     54  C   UNL A   1      42.315  22.916  28.751  1.00  0.00     0.135 A 
ATOM     55  F   UNL A   1      42.292  25.044  25.802  1.00  0.00    -0.206 F 
ATOM     56  C   UNL A   1      42.257  22.702  25.975  1.00  0.00     0.059 A 
ATOM     57  C   UNL A   1      42.309  21.654  28.167  1.00  0.00     0.059 A 
ATOM     58  F   UNL A   1      42.366  22.994  30.090  1.00  0.00    -0.206 F 
ATOM     59  C   UNL A   1      42.279  21.558  26.777  1.00  0.00     0.060 A 
BRANCH  59  60
ATOM     60  S   UNL A   1      42.331  19.942  25.973  1.00  0.00     0.124 S 
ATOM     61  O   UNL A   1      40.977  19.833  25.442  1.00  0.00    -0.237 OA
ATOM     62  O   UNL A   1      43.391  20.126  24.986  1.00  0.00    -0.237 OA
ATOM     63  O   UNL A   1      42.655  19.032  27.067  1.00  0.00    -0.744 OA
ENDBRANCH  59  60
ENDBRANCH  27  52
BRANCH  39  64
ATOM     64  C   UNL A   1      47.543  27.573  31.074  1.00  0.00     0.058 A 
ATOM     65  C   UNL A   1      47.879  26.946  32.283  1.00  0.00     0.135 A 
ATOM     66  C   UNL A   1      48.568  27.777  30.134  1.00  0.00     0.135 A 
ATOM     67  F   UNL A   1      46.940  26.737  33.220  1.00  0.00    -0.206 F 
ATOM     68  C   UNL A   1      49.182  26.537  32.550  1.00  0.00     0.059 A 
ATOM     69  C   UNL A   1      49.871  27.354  30.369  1.00  0.00     0.059 A 
ATOM     70  F   UNL A   1      48.298  28.369  28.959  1.00  0.00    -0.206 F 
ATOM     71  C   UNL A   1      50.169  26.737  31.583  1.00  0.00     0.060 A 
BRANCH  71  72
ATOM     72  S   UNL A   1      51.840  26.137  31.912  1.00  0.00     0.124 S 
ATOM     73  O   UNL A   1      51.999  25.123  30.874  1.00  0.00    -0.237 OA
ATOM     74  O   UNL A   1      52.643  27.344  31.749  1.00  0.00    -0.237 OA
ATOM     75  O   UNL A   1      51.756  25.627  33.278  1.00  0.00    -0.744 OA
ENDBRANCH  71  72
ENDBRANCH  39  64
ENDBRANCH  13  14
ENDBRANCH   6   8
ENDBRANCH   3   4
ENDBRANCH   2   3
ENDBRANCH   1   2
BRANCH   1  76
ATOM     76  C   UNL A   1      30.818  25.520  25.908  1.00  0.00     0.002 C 
BRANCH  76  77
ATOM     77  C   UNL A   1      30.033  24.546  26.792  1.00  0.00     0.021 C 
BRANCH  77  78
ATOM     78  C   UNL A   1      30.236  23.076  26.429  1.00  0.00     0.116 C 
BRANCH  78  79
ATOM     79  N   UNL A   1      31.415  22.524  27.063  1.00  0.00    -0.354 N 
ATOM     80  C   UNL A   1      32.461  21.826  26.536  1.00  0.00     0.247 C 
ATOM     81  H   UNL A   1      31.471  22.678  28.034  1.00  0.00     0.163 HD
ATOM     82  O   UNL A   1      33.430  21.657  27.290  1.00  0.00    -0.272 OA
BRANCH  80  83
ATOM     83  C   UNL A   1      32.535  21.441  25.036  1.00  0.00     0.211 C 
BRANCH  83  84
ATOM     84  N   UNL A   1      33.578  22.233  24.350  1.00  0.00    -0.276 N 
ATOM     85  C   UNL A   1      33.200  23.356  23.636  1.00  0.00     0.267 C 
ATOM     86  C   UNL A   1      34.922  21.936  24.338  1.00  0.00     0.149 C 
ATOM     87  O   UNL A   1      32.058  23.665  23.327  1.00  0.00    -0.268 OA
ATOM     88  C   UNL A   1      34.395  24.150  23.249  1.00  0.00     0.081 C 
ATOM     89  S   UNL A   1      35.807  23.194  23.468  1.00  0.00    -0.054 SA
ATOM     90  S   UNL A   1      35.713  20.646  25.039  1.00  0.00    -0.052 S 
ATOM     91  C   UNL A   1      34.405  25.434  22.863  1.00  0.00     0.029 C 
BRANCH  91  92
ATOM     92  C   UNL A   1      33.212  26.288  22.811  1.00  0.00    -0.024 A 
ATOM     93  C   UNL A   1      33.151  27.450  23.586  1.00  0.00     0.009 A 
ATOM     94  C   UNL A   1      32.139  25.967  21.966  1.00  0.00     0.009 A 
ATOM     95  C   UNL A   1      32.045  28.301  23.491  1.00  0.00     0.016 A 
ATOM     96  C   UNL A   1      31.039  26.822  21.861  1.00  0.00     0.016 A 
ATOM     97  C   UNL A   1      31.001  27.988  22.623  1.00  0.00     0.018 A 
ATOM     98  Br  UNL A   1      29.524  29.157  22.468  1.00  0.00    -0.051 Br
ENDBRANCH  91  92
ENDBRANCH  83  84
BRANCH  83  99
ATOM     99  C   UNL A   1      32.618  19.961  24.644  1.00  0.00    -0.016 A 
ATOM    100  C   UNL A   1      32.496  19.504  23.322  1.00  0.00     0.006 A 
ATOM    101  C   UNL A   1      32.819  18.997  25.652  1.00  0.00     0.006 A 
ATOM    102  C   UNL A   1      32.580  18.142  23.018  1.00  0.00     0.000 A 
ATOM    103  C   UNL A   1      32.940  17.639  25.342  1.00  0.00     0.000 A 
ATOM    104  C   UNL A   1      32.815  17.212  24.025  1.00  0.00     0.000 A 
ENDBRANCH  83  99
ENDBRANCH  80  83
ENDBRANCH  78  79
ENDBRANCH  77  78
ENDBRANCH  76  77
ENDBRANCH   1  76
TORSDOF 19
ENDMDL
MODEL 3
REMARK VINA RESULT:     -11.2      5.130      9.907
REMARK SMILES O=C(NCCCCCCNC(=O)[C@H](c1ccccc1)N1C(=O)/C(=C\c2ccc(Br)cc2)SC1=S)c1ccc(-c2c3nc(c(-c4c(F)cc(S(=O)(=O)[O-])cc4F)c4ccc([nH]4)c(-c4c(F)cc(S(=O)(=O)[O-])cc4F)c4nc(c(-c5c(F)cc(S(=O)(=O)[O-])cc5F)c5ccc2[nH]5)C=C4)C=C3)cc1
REMARK SMILES IDX 6 1 5 2 4 3 3 4 1 5 2 6 35 8 36 9 100 10 37 11 99 12 38 13
REMARK SMILES IDX 39 14 40 15 93 16 41 17 98 18 92 19 94 20 42 21 97 22 91 23
REMARK SMILES IDX 90 24 43 26 77 27 56 28 76 29 57 30 60 31 75 32 95 33 58 34
REMARK SMILES IDX 59 35 74 37 96 38 61 39 44 40 45 41 54 42 46 43 47 44 53 45
REMARK SMILES IDX 55 46 48 47 49 48 50 49 51 50 52 51 78 52 79 53 88 54 80 55
REMARK SMILES IDX 81 56 87 57 89 58 82 59 83 60 84 61 85 62 86 63 62 64 63 65
REMARK SMILES IDX 72 66 64 67 65 68 71 69 73 70 66 71 67 72 68 73 69 74 70 75
REMARK SMILES IDX 7 76 8 77 9 78 10 79 11 80 12 82 13 83 20 84 21 85 33 86
REMARK SMILES IDX 22 87 23 88 32 89 34 90 24 91 25 92 26 93 31 94 27 95 30 96
REMARK SMILES IDX 28 97 29 98 14 99 15 100 19 101 16 102 18 103 17 104
REMARK H PARENT 3 7 94 25 60 36 10 81
REMARK Flexibility Score: inf
ROOT
ATOM      1  C   UNL A   1      31.444  27.723  26.586  1.00  0.00     0.002 C 
ENDROOT
BRANCH   1   2
ATOM      2  C   UNL A   1      32.809  27.765  27.277  1.00  0.00     0.021 C 
BRANCH   2   3
ATOM      3  C   UNL A   1      33.880  28.531  26.506  1.00  0.00     0.116 C 
BRANCH   3   4
ATOM      4  N   UNL A   1      33.684  29.968  26.606  1.00  0.00    -0.352 N 
ATOM      5  O   UNL A   1      33.872  32.004  27.547  1.00  0.00    -0.269 OA
ATOM      6  C   UNL A   1      34.333  30.876  27.403  1.00  0.00     0.251 C 
ATOM      7  H   UNL A   1      32.988  30.342  26.019  1.00  0.00     0.163 HD
BRANCH   6   8
ATOM      8  C   UNL A   1      35.580  30.487  28.093  1.00  0.00     0.039 A 
ATOM      9  C   UNL A   1      36.822  30.912  27.610  1.00  0.00     0.014 A 
ATOM     10  C   UNL A   1      35.501  29.711  29.250  1.00  0.00     0.014 A 
ATOM     11  C   UNL A   1      37.991  30.471  28.221  1.00  0.00     0.010 A 
ATOM     12  C   UNL A   1      36.674  29.328  29.904  1.00  0.00     0.010 A 
ATOM     13  C   UNL A   1      37.928  29.687  29.383  1.00  0.00    -0.014 A 
BRANCH  13  14
ATOM     14  C   UNL A   1      39.172  29.287  30.084  1.00  0.00     0.031 A 
ATOM     15  C   UNL A   1      39.630  30.022  31.311  1.00  0.00     0.074 A 
ATOM     16  C   UNL A   1      39.908  28.276  29.584  1.00  0.00     0.049 A 
ATOM     17  N   UNL A   1      40.735  29.878  31.996  1.00  0.00    -0.248 NA
ATOM     18  C   UNL A   1      38.732  31.066  31.831  1.00  0.00     0.031 C 
ATOM     19  C   UNL A   1      39.560  27.491  28.397  1.00  0.00     0.029 A 
ATOM     20  N   UNL A   1      41.104  27.746  29.996  1.00  0.00    -0.354 N 
ATOM     21  C   UNL A   1      40.680  30.825  33.011  1.00  0.00     0.074 A 
ATOM     22  C   UNL A   1      39.442  31.554  32.838  1.00  0.00     0.031 C 
ATOM     23  C   UNL A   1      40.518  26.577  28.180  1.00  0.00     0.029 A 
ATOM     24  C   UNL A   1      41.574  26.753  29.170  1.00  0.00     0.049 A 
ATOM     25  H   UNL A   1      41.579  28.048  30.803  1.00  0.00     0.167 HD
ATOM     26  C   UNL A   1      41.582  31.061  33.996  1.00  0.00     0.037 A 
ATOM     27  C   UNL A   1      42.742  26.083  29.183  1.00  0.00     0.037 A 
ATOM     28  C   UNL A   1      42.812  30.325  34.152  1.00  0.00     0.049 A 
ATOM     29  C   UNL A   1      43.744  26.383  30.259  1.00  0.00     0.074 A 
ATOM     30  C   UNL A   1      43.779  30.463  35.131  1.00  0.00     0.029 A 
ATOM     31  N   UNL A   1      43.250  29.320  33.298  1.00  0.00    -0.354 N 
ATOM     32  N   UNL A   1      43.667  27.261  31.231  1.00  0.00    -0.248 NA
ATOM     33  C   UNL A   1      44.989  25.604  30.247  1.00  0.00     0.031 C 
ATOM     34  C   UNL A   1      44.825  29.580  34.841  1.00  0.00     0.029 A 
ATOM     35  C   UNL A   1      44.483  28.846  33.715  1.00  0.00     0.049 A 
ATOM     36  H   UNL A   1      42.757  28.994  32.511  1.00  0.00     0.167 HD
ATOM     37  C   UNL A   1      44.839  27.120  31.964  1.00  0.00     0.074 A 
ATOM     38  C   UNL A   1      45.608  26.074  31.323  1.00  0.00     0.031 C 
ATOM     39  C   UNL A   1      45.233  27.793  33.074  1.00  0.00     0.037 A 
BRANCH  26  40
ATOM     40  C   UNL A   1      41.288  32.183  34.954  1.00  0.00     0.058 A 
ATOM     41  C   UNL A   1      41.808  33.475  34.769  1.00  0.00     0.135 A 
ATOM     42  C   UNL A   1      40.468  31.965  36.073  1.00  0.00     0.135 A 
ATOM     43  F   UNL A   1      42.606  33.740  33.723  1.00  0.00    -0.206 F 
ATOM     44  C   UNL A   1      41.567  34.494  35.686  1.00  0.00     0.059 A 
ATOM     45  C   UNL A   1      40.190  32.978  36.988  1.00  0.00     0.059 A 
ATOM     46  F   UNL A   1      39.938  30.753  36.297  1.00  0.00    -0.206 F 
ATOM     47  C   UNL A   1      40.764  34.234  36.797  1.00  0.00     0.060 A 
BRANCH  47  48
ATOM     48  S   UNL A   1      40.498  35.553  38.000  1.00  0.00     0.124 S 
ATOM     49  O   UNL A   1      40.098  36.657  37.133  1.00  0.00    -0.237 OA
ATOM     50  O   UNL A   1      39.445  34.999  38.845  1.00  0.00    -0.237 OA
ATOM     51  O   UNL A   1      41.801  35.698  38.640  1.00  0.00    -0.744 OA
ENDBRANCH  47  48
ENDBRANCH  26  40
BRANCH  27  52
ATOM     52  C   UNL A   1      43.005  25.069  28.129  1.00  0.00     0.058 A 
ATOM     53  C   UNL A   1      43.545  25.439  26.890  1.00  0.00     0.135 A 
ATOM     54  C   UNL A   1      42.797  23.701  28.372  1.00  0.00     0.135 A 
ATOM     55  F   UNL A   1      43.758  26.734  26.611  1.00  0.00    -0.206 F 
ATOM     56  C   UNL A   1      43.878  24.490  25.930  1.00  0.00     0.059 A 
ATOM     57  C   UNL A   1      43.145  22.731  27.438  1.00  0.00     0.059 A 
ATOM     58  F   UNL A   1      42.299  23.296  29.551  1.00  0.00    -0.206 F 
ATOM     59  C   UNL A   1      43.684  23.136  26.219  1.00  0.00     0.060 A 
BRANCH  59  60
ATOM     60  S   UNL A   1      44.207  21.910  25.000  1.00  0.00     0.124 S 
ATOM     61  O   UNL A   1      45.589  21.668  25.401  1.00  0.00    -0.237 OA
ATOM     62  O   UNL A   1      43.270  20.819  25.245  1.00  0.00    -0.237 OA
ATOM     63  O   UNL A   1      44.032  22.604  23.728  1.00  0.00    -0.744 OA
ENDBRANCH  59  60
ENDBRANCH  27  52
BRANCH  39  64
ATOM     64  C   UNL A   1      46.534  27.389  33.708  1.00  0.00     0.058 A 
ATOM     65  C   UNL A   1      47.742  28.033  33.403  1.00  0.00     0.135 A 
ATOM     66  C   UNL A   1      46.552  26.399  34.705  1.00  0.00     0.135 A 
ATOM     67  F   UNL A   1      47.783  28.979  32.450  1.00  0.00    -0.206 F 
ATOM     68  C   UNL A   1      48.924  27.708  34.062  1.00  0.00     0.059 A 
ATOM     69  C   UNL A   1      47.715  26.076  35.394  1.00  0.00     0.059 A 
ATOM     70  F   UNL A   1      45.421  25.756  35.038  1.00  0.00    -0.206 F 
ATOM     71  C   UNL A   1      48.898  26.734  35.062  1.00  0.00     0.060 A 
BRANCH  71  72
ATOM     72  S   UNL A   1      50.423  26.372  35.959  1.00  0.00     0.124 S 
ATOM     73  O   UNL A   1      51.051  25.385  35.088  1.00  0.00    -0.237 OA
ATOM     74  O   UNL A   1      51.072  27.679  36.011  1.00  0.00    -0.237 OA
ATOM     75  O   UNL A   1      49.950  25.864  37.244  1.00  0.00    -0.744 OA
ENDBRANCH  71  72
ENDBRANCH  39  64
ENDBRANCH  13  14
ENDBRANCH   6   8
ENDBRANCH   3   4
ENDBRANCH   2   3
ENDBRANCH   1   2
BRANCH   1  76
ATOM     76  C   UNL A   1      30.990  26.329  26.141  1.00  0.00     0.002 C 
BRANCH  76  77
ATOM     77  C   UNL A   1      31.981  25.199  26.438  1.00  0.00     0.021 C 
BRANCH  77  78
ATOM     78  C   UNL A   1      31.319  23.867  26.787  1.00  0.00     0.116 C 
BRANCH  78  79
ATOM     79  N   UNL A   1      32.263  22.931  27.359  1.00  0.00    -0.354 N 
ATOM     80  C   UNL A   1      32.962  21.912  26.782  1.00  0.00     0.247 C 
ATOM     81  H   UNL A   1      32.430  23.051  28.322  1.00  0.00     0.163 HD
ATOM     82  O   UNL A   1      33.854  21.408  27.479  1.00  0.00    -0.272 OA
BRANCH  80  83
ATOM     83  C   UNL A   1      32.802  21.534  25.286  1.00  0.00     0.211 C 
BRANCH  83  84
ATOM     84  N   UNL A   1      33.801  22.248  24.463  1.00  0.00    -0.276 N 
ATOM     85  C   UNL A   1      33.383  23.309  23.680  1.00  0.00     0.267 C 
ATOM     86  C   UNL A   1      35.139  21.934  24.387  1.00  0.00     0.149 C 
ATOM     87  O   UNL A   1      32.224  23.604  23.423  1.00  0.00    -0.268 OA
ATOM     88  C   UNL A   1      34.554  24.050  23.143  1.00  0.00     0.081 C 
ATOM     89  S   UNL A   1      35.971  23.099  23.350  1.00  0.00    -0.054 SA
ATOM     90  S   UNL A   1      35.968  20.701  25.145  1.00  0.00    -0.052 S 
ATOM     91  C   UNL A   1      34.546  25.295  22.645  1.00  0.00     0.029 C 
BRANCH  91  92
ATOM     92  C   UNL A   1      33.358  26.156  22.598  1.00  0.00    -0.024 A 
ATOM     93  C   UNL A   1      32.214  25.731  21.915  1.00  0.00     0.009 A 
ATOM     94  C   UNL A   1      33.344  27.393  23.260  1.00  0.00     0.009 A 
ATOM     95  C   UNL A   1      31.058  26.517  21.923  1.00  0.00     0.016 A 
ATOM     96  C   UNL A   1      32.187  28.174  23.278  1.00  0.00     0.016 A 
ATOM     97  C   UNL A   1      31.047  27.728  22.612  1.00  0.00     0.018 A 
ATOM     98  Br  UNL A   1      29.472  28.773  22.653  1.00  0.00    -0.051 Br
ENDBRANCH  91  92
ENDBRANCH  83  84
BRANCH  83  99
ATOM     99  C   UNL A   1      32.717  20.055  24.891  1.00  0.00    -0.016 A 
ATOM    100  C   UNL A   1      32.831  19.001  25.811  1.00  0.00     0.006 A 
ATOM    101  C   UNL A   1      32.524  19.719  23.535  1.00  0.00     0.006 A 
ATOM    102  C   UNL A   1      32.746  17.668  25.398  1.00  0.00     0.000 A 
ATOM    103  C   UNL A   1      32.402  18.388  23.129  1.00  0.00     0.000 A 
ATOM    104  C   UNL A   1      32.518  17.362  24.060  1.00  0.00     0.000 A 
ENDBRANCH  83  99
ENDBRANCH  80  83
ENDBRANCH  78  79
ENDBRANCH  77  78
ENDBRANCH  76  77
ENDBRANCH   1  76
TORSDOF 19
ENDMDL
