MODEL 1
REMARK VINA RESULT:     -11.4      0.000      0.000
REMARK SMILES CC[C@@H]1CCCN1C(=O)N[C@H]1C=C[C@@H](C(=O)NCCCCCCNC(=O)c2ccc(-c3c4nc(c(-c5c(F)cc(S(=O)(=O)[O-])cc5F)c5ccc([nH]5)c(-c5c(F)cc(S(=O)(=O)[O-])cc5F)c5nc(c(-c6c(F)cc(S(=O)(=O)[O-])cc6F)c6ccc3[nH]6)C=C5)C=C4)cc2)C1
REMARK SMILES IDX 20 1 19 2 18 3 17 4 15 5 16 6 14 8 11 9 12 10 93 11 13 12
REMARK SMILES IDX 10 13 8 14 9 15 7 17 3 18 4 19 5 20 6 21 2 22 1 23 21 24
REMARK SMILES IDX 22 25 23 26 24 27 25 28 26 30 27 31 28 32 92 33 29 34 91 35
REMARK SMILES IDX 30 36 31 37 32 38 85 39 33 40 90 41 84 42 86 43 34 44 89 45
REMARK SMILES IDX 83 46 82 47 35 49 69 50 48 51 68 52 49 53 52 54 67 55 87 56
REMARK SMILES IDX 50 57 51 58 66 60 88 61 53 62 36 63 37 64 46 65 38 66 39 67
REMARK SMILES IDX 45 68 47 69 40 70 41 71 42 72 43 73 44 74 70 75 71 76 80 77
REMARK SMILES IDX 72 78 73 79 79 80 81 81 74 82 75 83 76 84 77 85 78 86 54 87
REMARK SMILES IDX 55 88 64 89 56 90 57 91 63 92 65 93 58 94 59 95 60 96 61 97
REMARK SMILES IDX 62 98
REMARK H PARENT 17 7 10 16 24 29 86 48 52 59
REMARK Flexibility Score: inf
ROOT
ATOM      1  C   UNL A   1      33.436  28.774  27.010  1.00  0.00     0.002 C 
ENDROOT
BRANCH   1   2
ATOM      2  C   UNL A   1      32.430  29.766  26.431  1.00  0.00     0.021 C 
BRANCH   2   3
ATOM      3  C   UNL A   1      32.513  29.841  24.916  1.00  0.00     0.116 C 
BRANCH   3   4
ATOM      4  N   UNL A   1      31.198  29.621  24.347  1.00  0.00    -0.356 N 
ATOM      5  C   UNL A   1      30.612  28.460  23.953  1.00  0.00     0.227 C 
ATOM      6  O   UNL A   1      29.510  28.514  23.403  1.00  0.00    -0.274 OA
ATOM      7  H   UNL A   1      30.650  30.431  24.228  1.00  0.00     0.163 HD
BRANCH   5   8
ATOM      8  C   UNL A   1      31.257  27.122  24.268  1.00  0.00     0.103 C 
ATOM      9  C   UNL A   1      30.925  24.958  25.242  1.00  0.00     0.107 C 
ATOM     10  C   UNL A   1      30.544  24.961  23.789  1.00  0.00    -0.006 C 
ATOM     11  C   UNL A   1      30.878  26.441  25.602  1.00  0.00     0.047 C 
ATOM     12  C   UNL A   1      30.826  26.134  23.222  1.00  0.00    -0.016 C 
BRANCH   9  13
ATOM     13  N   UNL A   1      30.129  24.003  25.896  1.00  0.00    -0.332 N 
ATOM     14  C   UNL A   1      30.520  22.777  26.302  1.00  0.00     0.318 C 
ATOM     15  O   UNL A   1      29.594  22.053  26.688  1.00  0.00    -0.249 OA
ATOM     16  H   UNL A   1      29.194  24.253  26.077  1.00  0.00     0.165 HD
BRANCH  14  17
ATOM     17  N   UNL A   1      31.823  22.314  26.218  1.00  0.00    -0.322 N 
ATOM     18  C   UNL A   1      32.792  21.838  25.153  1.00  0.00     0.086 C 
ATOM     19  C   UNL A   1      33.992  21.382  26.014  1.00  0.00     0.027 C 
ATOM     20  C   UNL A   1      34.056  22.392  27.125  1.00  0.00     0.024 C 
ATOM     21  C   UNL A   1      32.598  22.672  27.417  1.00  0.00     0.122 C 
BRANCH  18  22
ATOM     22  C   UNL A   1      32.600  20.676  24.141  1.00  0.00     0.022 C 
ATOM     23  C   UNL A   1      32.646  19.291  24.784  1.00  0.00     0.006 C 
ENDBRANCH  18  22
ENDBRANCH  14  17
ENDBRANCH   9  13
ENDBRANCH   5   8
ENDBRANCH   3   4
ENDBRANCH   2   3
ENDBRANCH   1   2
BRANCH   1  24
ATOM     24  C   UNL A   1      34.745  29.422  27.474  1.00  0.00     0.002 C 
BRANCH  24  25
ATOM     25  C   UNL A   1      34.673  30.944  27.634  1.00  0.00     0.021 C 
BRANCH  25  26
ATOM     26  C   UNL A   1      35.797  31.526  28.482  1.00  0.00     0.116 C 
BRANCH  26  27
ATOM     27  N   UNL A   1      35.617  31.201  29.888  1.00  0.00    -0.352 N 
ATOM     28  C   UNL A   1      36.437  30.479  30.711  1.00  0.00     0.251 C 
ATOM     29  H   UNL A   1      34.794  31.547  30.303  1.00  0.00     0.163 HD
ATOM     30  O   UNL A   1      36.021  30.073  31.795  1.00  0.00    -0.269 OA
BRANCH  28  31
ATOM     31  C   UNL A   1      37.815  30.190  30.277  1.00  0.00     0.039 A 
ATOM     32  C   UNL A   1      38.806  30.012  31.242  1.00  0.00     0.014 A 
ATOM     33  C   UNL A   1      38.118  30.088  28.916  1.00  0.00     0.014 A 
ATOM     34  C   UNL A   1      40.099  29.685  30.840  1.00  0.00     0.010 A 
ATOM     35  C   UNL A   1      39.388  29.686  28.522  1.00  0.00     0.010 A 
ATOM     36  C   UNL A   1      40.394  29.490  29.480  1.00  0.00    -0.014 A 
BRANCH  36  37
ATOM     37  C   UNL A   1      41.750  29.085  29.040  1.00  0.00     0.031 A 
ATOM     38  C   UNL A   1      42.858  30.099  28.983  1.00  0.00     0.074 A 
ATOM     39  C   UNL A   1      41.963  27.816  28.637  1.00  0.00     0.049 A 
ATOM     40  N   UNL A   1      44.090  29.953  28.568  1.00  0.00    -0.248 NA
ATOM     41  C   UNL A   1      42.533  31.465  29.425  1.00  0.00     0.031 C 
ATOM     42  C   UNL A   1      40.950  26.758  28.606  1.00  0.00     0.029 A 
ATOM     43  N   UNL A   1      43.096  27.203  28.169  1.00  0.00    -0.354 N 
ATOM     44  C   UNL A   1      44.681  31.204  28.689  1.00  0.00     0.074 A 
ATOM     45  C   UNL A   1      43.658  32.112  29.162  1.00  0.00     0.031 C 
ATOM     46  C   UNL A   1      41.514  25.623  28.164  1.00  0.00     0.029 A 
ATOM     47  C   UNL A   1      42.913  25.881  27.839  1.00  0.00     0.049 A 
ATOM     48  H   UNL A   1      43.960  27.667  28.076  1.00  0.00     0.167 HD
ATOM     49  C   UNL A   1      45.966  31.558  28.449  1.00  0.00     0.037 A 
ATOM     50  C   UNL A   1      43.772  24.982  27.323  1.00  0.00     0.037 A 
ATOM     51  C   UNL A   1      46.978  30.642  27.994  1.00  0.00     0.049 A 
ATOM     52  C   UNL A   1      45.190  25.404  27.049  1.00  0.00     0.074 A 
ATOM     53  C   UNL A   1      48.322  30.885  27.771  1.00  0.00     0.029 A 
ATOM     54  N   UNL A   1      46.758  29.307  27.682  1.00  0.00    -0.354 N 
ATOM     55  N   UNL A   1      45.752  26.575  27.233  1.00  0.00    -0.248 NA
ATOM     56  C   UNL A   1      46.094  24.382  26.505  1.00  0.00     0.031 C 
ATOM     57  C   UNL A   1      48.903  29.714  27.275  1.00  0.00     0.029 A 
ATOM     58  C   UNL A   1      47.936  28.722  27.246  1.00  0.00     0.049 A 
ATOM     59  H   UNL A   1      45.893  28.844  27.760  1.00  0.00     0.167 HD
ATOM     60  C   UNL A   1      47.082  26.424  26.854  1.00  0.00     0.074 A 
ATOM     61  C   UNL A   1      47.242  25.043  26.446  1.00  0.00     0.031 C 
ATOM     62  C   UNL A   1      48.079  27.342  26.847  1.00  0.00     0.037 A 
BRANCH  49  63
ATOM     63  C   UNL A   1      46.350  32.997  28.673  1.00  0.00     0.058 A 
ATOM     64  C   UNL A   1      46.222  33.962  27.661  1.00  0.00     0.135 A 
ATOM     65  C   UNL A   1      46.816  33.425  29.927  1.00  0.00     0.135 A 
ATOM     66  F   UNL A   1      45.797  33.608  26.437  1.00  0.00    -0.206 F 
ATOM     67  C   UNL A   1      46.569  35.292  27.874  1.00  0.00     0.059 A 
ATOM     68  C   UNL A   1      47.139  34.756  30.173  1.00  0.00     0.059 A 
ATOM     69  F   UNL A   1      46.960  32.545  30.931  1.00  0.00    -0.206 F 
ATOM     70  C   UNL A   1      47.026  35.680  29.135  1.00  0.00     0.060 A 
BRANCH  70  71
ATOM     71  S   UNL A   1      47.460  37.412  29.397  1.00  0.00     0.124 S 
ATOM     72  O   UNL A   1      46.936  37.643  30.740  1.00  0.00    -0.237 OA
ATOM     73  O   UNL A   1      48.914  37.391  29.279  1.00  0.00    -0.237 OA
ATOM     74  O   UNL A   1      46.756  38.107  28.323  1.00  0.00    -0.744 OA
ENDBRANCH  70  71
ENDBRANCH  49  63
BRANCH  50  75
ATOM     75  C   UNL A   1      43.318  23.593  27.044  1.00  0.00     0.058 A 
ATOM     76  C   UNL A   1      43.067  23.163  25.733  1.00  0.00     0.135 A 
ATOM     77  C   UNL A   1      43.139  22.662  28.081  1.00  0.00     0.135 A 
ATOM     78  F   UNL A   1      43.219  24.016  24.707  1.00  0.00    -0.206 F 
ATOM     79  C   UNL A   1      42.637  21.870  25.459  1.00  0.00     0.059 A 
ATOM     80  C   UNL A   1      42.737  21.355  27.829  1.00  0.00     0.059 A 
ATOM     81  F   UNL A   1      43.383  23.017  29.352  1.00  0.00    -0.206 F 
ATOM     82  C   UNL A   1      42.477  20.971  26.515  1.00  0.00     0.060 A 
BRANCH  82  83
ATOM     83  S   UNL A   1      41.962  19.281  26.143  1.00  0.00     0.124 S 
ATOM     84  O   UNL A   1      42.758  18.985  24.957  1.00  0.00    -0.237 OA
ATOM     85  O   UNL A   1      42.341  18.570  27.360  1.00  0.00    -0.237 OA
ATOM     86  O   UNL A   1      40.524  19.409  25.923  1.00  0.00    -0.744 OA
ENDBRANCH  82  83
ENDBRANCH  50  75
BRANCH  62  87
ATOM     87  C   UNL A   1      49.445  26.879  26.418  1.00  0.00     0.058 A 
ATOM     88  C   UNL A   1      50.345  26.291  27.321  1.00  0.00     0.135 A 
ATOM     89  C   UNL A   1      49.837  26.978  25.073  1.00  0.00     0.135 A 
ATOM     90  F   UNL A   1      50.024  26.178  28.619  1.00  0.00    -0.206 F 
ATOM     91  C   UNL A   1      51.595  25.841  26.910  1.00  0.00     0.059 A 
ATOM     92  C   UNL A   1      51.070  26.505  24.634  1.00  0.00     0.059 A 
ATOM     93  F   UNL A   1      49.011  27.522  24.165  1.00  0.00    -0.206 F 
ATOM     94  C   UNL A   1      51.947  25.950  25.563  1.00  0.00     0.060 A 
BRANCH  94  95
ATOM     95  S   UNL A   1      53.560  25.331  25.038  1.00  0.00     0.124 S 
ATOM     96  O   UNL A   1      53.507  25.559  23.597  1.00  0.00    -0.237 OA
ATOM     97  O   UNL A   1      54.480  26.187  25.781  1.00  0.00    -0.237 OA
ATOM     98  O   UNL A   1      53.540  23.932  25.453  1.00  0.00    -0.744 OA
ENDBRANCH  94  95
ENDBRANCH  62  87
ENDBRANCH  36  37
ENDBRANCH  28  31
ENDBRANCH  26  27
ENDBRANCH  25  26
ENDBRANCH  24  25
ENDBRANCH   1  24
TORSDOF 19
ENDMDL
MODEL 2
REMARK VINA RESULT:     -11.2      6.363     11.972
REMARK SMILES CC[C@@H]1CCCN1C(=O)N[C@H]1C=C[C@@H](C(=O)NCCCCCCNC(=O)c2ccc(-c3c4nc(c(-c5c(F)cc(S(=O)(=O)[O-])cc5F)c5ccc([nH]5)c(-c5c(F)cc(S(=O)(=O)[O-])cc5F)c5nc(c(-c6c(F)cc(S(=O)(=O)[O-])cc6F)c6ccc3[nH]6)C=C5)C=C4)cc2)C1
REMARK SMILES IDX 20 1 19 2 18 3 17 4 15 5 16 6 14 8 11 9 12 10 93 11 13 12
REMARK SMILES IDX 10 13 8 14 9 15 7 17 3 18 4 19 5 20 6 21 2 22 1 23 21 24
REMARK SMILES IDX 22 25 23 26 24 27 25 28 26 30 27 31 28 32 92 33 29 34 91 35
REMARK SMILES IDX 30 36 31 37 32 38 85 39 33 40 90 41 84 42 86 43 34 44 89 45
REMARK SMILES IDX 83 46 82 47 35 49 69 50 48 51 68 52 49 53 52 54 67 55 87 56
REMARK SMILES IDX 50 57 51 58 66 60 88 61 53 62 36 63 37 64 46 65 38 66 39 67
REMARK SMILES IDX 45 68 47 69 40 70 41 71 42 72 43 73 44 74 70 75 71 76 80 77
REMARK SMILES IDX 72 78 73 79 79 80 81 81 74 82 75 83 76 84 77 85 78 86 54 87
REMARK SMILES IDX 55 88 64 89 56 90 57 91 63 92 65 93 58 94 59 95 60 96 61 97
REMARK SMILES IDX 62 98
REMARK H PARENT 17 7 10 16 24 29 86 48 52 59
REMARK Flexibility Score: inf
ROOT
ATOM      1  C   UNL A   1      39.951  22.772  27.100  1.00  0.00     0.002 C 
ENDROOT
BRANCH   1   2
ATOM      2  C   UNL A   1      39.136  21.884  26.162  1.00  0.00     0.021 C 
BRANCH   2   3
ATOM      3  C   UNL A   1      37.835  22.547  25.740  1.00  0.00     0.116 C 
BRANCH   3   4
ATOM      4  N   UNL A   1      36.859  21.529  25.405  1.00  0.00    -0.356 N 
ATOM      5  C   UNL A   1      35.555  21.428  25.775  1.00  0.00     0.227 C 
ATOM      6  O   UNL A   1      34.927  20.420  25.448  1.00  0.00    -0.274 OA
ATOM      7  H   UNL A   1      37.189  20.805  24.824  1.00  0.00     0.163 HD
BRANCH   5   8
ATOM      8  C   UNL A   1      34.865  22.574  26.493  1.00  0.00     0.103 C 
ATOM      9  C   UNL A   1      32.862  23.882  26.642  1.00  0.00     0.107 C 
ATOM     10  C   UNL A   1      32.779  22.664  27.518  1.00  0.00    -0.006 C 
ATOM     11  C   UNL A   1      33.963  23.506  25.654  1.00  0.00     0.047 C 
ATOM     12  C   UNL A   1      33.931  21.992  27.516  1.00  0.00    -0.016 C 
BRANCH   9  13
ATOM     13  N   UNL A   1      31.560  24.205  26.226  1.00  0.00    -0.332 N 
ATOM     14  C   UNL A   1      31.140  25.401  25.764  1.00  0.00     0.318 C 
ATOM     15  O   UNL A   1      29.913  25.491  25.635  1.00  0.00    -0.249 OA
ATOM     16  H   UNL A   1      30.888  23.487  26.275  1.00  0.00     0.165 HD
BRANCH  14  17
ATOM     17  N   UNL A   1      31.980  26.479  25.536  1.00  0.00    -0.322 N 
ATOM     18  C   UNL A   1      32.768  27.495  26.340  1.00  0.00     0.086 C 
ATOM     19  C   UNL A   1      33.307  28.417  25.222  1.00  0.00     0.027 C 
ATOM     20  C   UNL A   1      33.634  27.479  24.094  1.00  0.00     0.024 C 
ATOM     21  C   UNL A   1      32.523  26.455  24.168  1.00  0.00     0.122 C 
BRANCH  18  22
ATOM     22  C   UNL A   1      32.233  28.485  27.409  1.00  0.00     0.022 C 
ATOM     23  C   UNL A   1      32.751  29.911  27.236  1.00  0.00     0.006 C 
ENDBRANCH  18  22
ENDBRANCH  14  17
ENDBRANCH   9  13
ENDBRANCH   5   8
ENDBRANCH   3   4
ENDBRANCH   2   3
ENDBRANCH   1   2
BRANCH   1  24
ATOM     24  C   UNL A   1      41.000  22.007  27.915  1.00  0.00     0.002 C 
BRANCH  24  25
ATOM     25  C   UNL A   1      42.398  21.990  27.287  1.00  0.00     0.021 C 
BRANCH  25  26
ATOM     26  C   UNL A   1      43.147  23.310  27.418  1.00  0.00     0.116 C 
BRANCH  26  27
ATOM     27  N   UNL A   1      43.020  24.108  26.209  1.00  0.00    -0.352 N 
ATOM     28  C   UNL A   1      42.515  25.370  26.066  1.00  0.00     0.251 C 
ATOM     29  H   UNL A   1      43.343  23.682  25.382  1.00  0.00     0.163 HD
ATOM     30  O   UNL A   1      42.238  25.801  24.947  1.00  0.00    -0.269 OA
BRANCH  28  31
ATOM     31  C   UNL A   1      42.300  26.197  27.266  1.00  0.00     0.039 A 
ATOM     32  C   UNL A   1      43.163  27.265  27.515  1.00  0.00     0.014 A 
ATOM     33  C   UNL A   1      41.241  25.918  28.134  1.00  0.00     0.014 A 
ATOM     34  C   UNL A   1      42.933  28.084  28.619  1.00  0.00     0.010 A 
ATOM     35  C   UNL A   1      40.969  26.782  29.188  1.00  0.00     0.010 A 
ATOM     36  C   UNL A   1      41.818  27.867  29.447  1.00  0.00    -0.014 A 
BRANCH  36  37
ATOM     37  C   UNL A   1      41.526  28.764  30.590  1.00  0.00     0.031 A 
ATOM     38  C   UNL A   1      42.330  28.657  31.856  1.00  0.00     0.074 A 
ATOM     39  C   UNL A   1      40.499  29.633  30.503  1.00  0.00     0.049 A 
ATOM     40  N   UNL A   1      42.187  29.307  32.981  1.00  0.00    -0.248 NA
ATOM     41  C   UNL A   1      43.422  27.670  31.869  1.00  0.00     0.031 C 
ATOM     42  C   UNL A   1      39.622  29.791  29.341  1.00  0.00     0.029 A 
ATOM     43  N   UNL A   1      40.013  30.538  31.411  1.00  0.00    -0.354 N 
ATOM     44  C   UNL A   1      43.159  28.803  33.836  1.00  0.00     0.074 A 
ATOM     45  C   UNL A   1      43.850  27.753  33.120  1.00  0.00     0.031 C 
ATOM     46  C   UNL A   1      38.720  30.752  29.599  1.00  0.00     0.029 A 
ATOM     47  C   UNL A   1      38.925  31.246  30.957  1.00  0.00     0.049 A 
ATOM     48  H   UNL A   1      40.406  30.669  32.305  1.00  0.00     0.167 HD
ATOM     49  C   UNL A   1      43.463  29.196  35.096  1.00  0.00     0.037 A 
ATOM     50  C   UNL A   1      38.171  32.178  31.570  1.00  0.00     0.037 A 
ATOM     51  C   UNL A   1      42.778  30.254  35.793  1.00  0.00     0.049 A 
ATOM     52  C   UNL A   1      38.518  32.587  32.975  1.00  0.00     0.074 A 
ATOM     53  C   UNL A   1      43.041  30.767  37.051  1.00  0.00     0.029 A 
ATOM     54  N   UNL A   1      41.688  30.956  35.296  1.00  0.00    -0.354 N 
ATOM     55  N   UNL A   1      39.484  32.147  33.747  1.00  0.00    -0.248 NA
ATOM     56  C   UNL A   1      37.678  33.621  33.593  1.00  0.00     0.031 C 
ATOM     57  C   UNL A   1      42.080  31.741  37.336  1.00  0.00     0.029 A 
ATOM     58  C   UNL A   1      41.253  31.880  36.232  1.00  0.00     0.049 A 
ATOM     59  H   UNL A   1      41.284  30.818  34.409  1.00  0.00     0.167 HD
ATOM     60  C   UNL A   1      39.387  32.872  34.930  1.00  0.00     0.074 A 
ATOM     61  C   UNL A   1      38.276  33.788  34.765  1.00  0.00     0.031 C 
ATOM     62  C   UNL A   1      40.147  32.789  36.049  1.00  0.00     0.037 A 
BRANCH  49  63
ATOM     63  C   UNL A   1      44.582  28.480  35.803  1.00  0.00     0.058 A 
ATOM     64  C   UNL A   1      45.919  28.894  35.679  1.00  0.00     0.135 A 
ATOM     65  C   UNL A   1      44.313  27.390  36.647  1.00  0.00     0.135 A 
ATOM     66  F   UNL A   1      46.238  29.920  34.873  1.00  0.00    -0.206 F 
ATOM     67  C   UNL A   1      46.950  28.236  36.341  1.00  0.00     0.059 A 
ATOM     68  C   UNL A   1      45.325  26.737  37.345  1.00  0.00     0.059 A 
ATOM     69  F   UNL A   1      43.054  26.950  36.802  1.00  0.00    -0.206 F 
ATOM     70  C   UNL A   1      46.642  27.158  37.173  1.00  0.00     0.060 A 
BRANCH  70  71
ATOM     71  S   UNL A   1      47.992  26.324  38.034  1.00  0.00     0.124 S 
ATOM     72  O   UNL A   1      49.038  26.337  37.016  1.00  0.00    -0.237 OA
ATOM     73  O   UNL A   1      48.216  27.195  39.183  1.00  0.00    -0.237 OA
ATOM     74  O   UNL A   1      47.438  25.010  38.346  1.00  0.00    -0.744 OA
ENDBRANCH  70  71
ENDBRANCH  49  63
BRANCH  50  75
ATOM     75  C   UNL A   1      37.024  32.796  30.852  1.00  0.00     0.058 A 
ATOM     76  C   UNL A   1      35.705  32.402  31.120  1.00  0.00     0.135 A 
ATOM     77  C   UNL A   1      37.221  33.806  29.895  1.00  0.00     0.135 A 
ATOM     78  F   UNL A   1      35.464  31.438  32.023  1.00  0.00    -0.206 F 
ATOM     79  C   UNL A   1      34.624  32.968  30.453  1.00  0.00     0.059 A 
ATOM     80  C   UNL A   1      36.154  34.407  29.236  1.00  0.00     0.059 A 
ATOM     81  F   UNL A   1      38.462  34.233  29.614  1.00  0.00    -0.206 F 
ATOM     82  C   UNL A   1      34.859  33.973  29.513  1.00  0.00     0.060 A 
BRANCH  82  83
ATOM     83  S   UNL A   1      33.445  34.732  28.686  1.00  0.00     0.124 S 
ATOM     84  O   UNL A   1      34.050  35.922  28.099  1.00  0.00    -0.237 OA
ATOM     85  O   UNL A   1      33.044  33.690  27.747  1.00  0.00    -0.237 OA
ATOM     86  O   UNL A   1      32.507  34.974  29.779  1.00  0.00    -0.744 OA
ENDBRANCH  82  83
ENDBRANCH  50  75
BRANCH  62  87
ATOM     87  C   UNL A   1      39.831  33.737  37.174  1.00  0.00     0.058 A 
ATOM     88  C   UNL A   1      38.920  33.406  38.189  1.00  0.00     0.135 A 
ATOM     89  C   UNL A   1      40.491  34.974  37.264  1.00  0.00     0.135 A 
ATOM     90  F   UNL A   1      38.257  32.239  38.148  1.00  0.00    -0.206 F 
ATOM     91  C   UNL A   1      38.654  34.278  39.239  1.00  0.00     0.059 A 
ATOM     92  C   UNL A   1      40.264  35.848  38.323  1.00  0.00     0.059 A 
ATOM     93  F   UNL A   1      41.380  35.337  36.327  1.00  0.00    -0.206 F 
ATOM     94  C   UNL A   1      39.334  35.496  39.299  1.00  0.00     0.060 A 
BRANCH  94  95
ATOM     95  S   UNL A   1      39.004  36.603  40.686  1.00  0.00     0.124 S 
ATOM     96  O   UNL A   1      40.323  36.702  41.303  1.00  0.00    -0.237 OA
ATOM     97  O   UNL A   1      38.526  37.809  40.015  1.00  0.00    -0.237 OA
ATOM     98  O   UNL A   1      37.999  35.886  41.465  1.00  0.00    -0.744 OA
ENDBRANCH  94  95
ENDBRANCH  62  87
ENDBRANCH  36  37
ENDBRANCH  28  31
ENDBRANCH  26  27
ENDBRANCH  25  26
ENDBRANCH  24  25
ENDBRANCH   1  24
TORSDOF 19
ENDMDL
MODEL 3
REMARK VINA RESULT:     -11.2      6.410     12.095
REMARK SMILES CC[C@@H]1CCCN1C(=O)N[C@H]1C=C[C@@H](C(=O)NCCCCCCNC(=O)c2ccc(-c3c4nc(c(-c5c(F)cc(S(=O)(=O)[O-])cc5F)c5ccc([nH]5)c(-c5c(F)cc(S(=O)(=O)[O-])cc5F)c5nc(c(-c6c(F)cc(S(=O)(=O)[O-])cc6F)c6ccc3[nH]6)C=C5)C=C4)cc2)C1
REMARK SMILES IDX 20 1 19 2 18 3 17 4 15 5 16 6 14 8 11 9 12 10 93 11 13 12
REMARK SMILES IDX 10 13 8 14 9 15 7 17 3 18 4 19 5 20 6 21 2 22 1 23 21 24
REMARK SMILES IDX 22 25 23 26 24 27 25 28 26 30 27 31 28 32 92 33 29 34 91 35
REMARK SMILES IDX 30 36 31 37 32 38 85 39 33 40 90 41 84 42 86 43 34 44 89 45
REMARK SMILES IDX 83 46 82 47 35 49 69 50 48 51 68 52 49 53 52 54 67 55 87 56
REMARK SMILES IDX 50 57 51 58 66 60 88 61 53 62 36 63 37 64 46 65 38 66 39 67
REMARK SMILES IDX 45 68 47 69 40 70 41 71 42 72 43 73 44 74 70 75 71 76 80 77
REMARK SMILES IDX 72 78 73 79 79 80 81 81 74 82 75 83 76 84 77 85 78 86 54 87
REMARK SMILES IDX 55 88 64 89 56 90 57 91 63 92 65 93 58 94 59 95 60 96 61 97
REMARK SMILES IDX 62 98
REMARK H PARENT 17 7 10 16 24 29 86 48 52 59
REMARK Flexibility Score: inf
ROOT
ATOM      1  C   UNL A   1      41.312  21.095  26.782  1.00  0.00     0.002 C 
ENDROOT
BRANCH   1   2
ATOM      2  C   UNL A   1      39.992  21.065  26.016  1.00  0.00     0.021 C 
BRANCH   2   3
ATOM      3  C   UNL A   1      39.083  22.218  26.405  1.00  0.00     0.116 C 
BRANCH   3   4
ATOM      4  N   UNL A   1      38.298  22.626  25.256  1.00  0.00    -0.356 N 
ATOM      5  C   UNL A   1      37.020  22.301  24.925  1.00  0.00     0.227 C 
ATOM      6  O   UNL A   1      36.577  22.689  23.842  1.00  0.00    -0.274 OA
ATOM      7  H   UNL A   1      38.758  23.225  24.624  1.00  0.00     0.163 HD
BRANCH   5   8
ATOM      8  C   UNL A   1      36.132  21.559  25.906  1.00  0.00     0.103 C 
ATOM      9  C   UNL A   1      34.003  21.539  27.007  1.00  0.00     0.107 C 
ATOM     10  C   UNL A   1      33.936  20.827  25.686  1.00  0.00    -0.006 C 
ATOM     11  C   UNL A   1      35.252  22.403  26.856  1.00  0.00     0.047 C 
ATOM     12  C   UNL A   1      35.141  20.747  25.122  1.00  0.00    -0.016 C 
BRANCH   9  13
ATOM     13  N   UNL A   1      32.737  22.090  27.267  1.00  0.00    -0.332 N 
ATOM     14  C   UNL A   1      32.207  23.187  26.687  1.00  0.00     0.318 C 
ATOM     15  O   UNL A   1      31.157  23.578  27.212  1.00  0.00    -0.249 OA
ATOM     16  H   UNL A   1      32.182  21.630  27.938  1.00  0.00     0.165 HD
BRANCH  14  17
ATOM     17  N   UNL A   1      32.812  23.883  25.653  1.00  0.00    -0.322 N 
ATOM     18  C   UNL A   1      32.748  23.951  24.140  1.00  0.00     0.086 C 
ATOM     19  C   UNL A   1      33.903  24.930  23.829  1.00  0.00     0.027 C 
ATOM     20  C   UNL A   1      33.836  25.944  24.936  1.00  0.00     0.024 C 
ATOM     21  C   UNL A   1      33.460  25.111  26.141  1.00  0.00     0.122 C 
BRANCH  18  22
ATOM     22  C   UNL A   1      32.959  22.795  23.125  1.00  0.00     0.022 C 
ATOM     23  C   UNL A   1      33.283  23.274  21.711  1.00  0.00     0.006 C 
ENDBRANCH  18  22
ENDBRANCH  14  17
ENDBRANCH   9  13
ENDBRANCH   5   8
ENDBRANCH   3   4
ENDBRANCH   2   3
ENDBRANCH   1   2
BRANCH   1  24
ATOM     24  C   UNL A   1      41.417  22.247  27.787  1.00  0.00     0.002 C 
BRANCH  24  25
ATOM     25  C   UNL A   1      42.850  22.705  28.076  1.00  0.00     0.021 C 
BRANCH  25  26
ATOM     26  C   UNL A   1      43.173  24.093  27.538  1.00  0.00     0.116 C 
BRANCH  26  27
ATOM     27  N   UNL A   1      42.360  24.407  26.373  1.00  0.00    -0.352 N 
ATOM     28  C   UNL A   1      41.320  25.287  26.268  1.00  0.00     0.251 C 
ATOM     29  H   UNL A   1      42.592  23.920  25.550  1.00  0.00     0.163 HD
ATOM     30  O   UNL A   1      40.573  25.247  25.292  1.00  0.00    -0.269 OA
BRANCH  28  31
ATOM     31  C   UNL A   1      41.104  26.274  27.341  1.00  0.00     0.039 A 
ATOM     32  C   UNL A   1      40.126  26.025  28.303  1.00  0.00     0.014 A 
ATOM     33  C   UNL A   1      41.877  27.438  27.394  1.00  0.00     0.014 A 
ATOM     34  C   UNL A   1      39.954  26.927  29.351  1.00  0.00     0.010 A 
ATOM     35  C   UNL A   1      41.756  28.295  28.481  1.00  0.00     0.010 A 
ATOM     36  C   UNL A   1      40.786  28.054  29.464  1.00  0.00    -0.014 A 
BRANCH  36  37
ATOM     37  C   UNL A   1      40.656  28.992  30.604  1.00  0.00     0.031 A 
ATOM     38  C   UNL A   1      41.534  28.834  31.814  1.00  0.00     0.074 A 
ATOM     39  C   UNL A   1      39.706  29.947  30.569  1.00  0.00     0.049 A 
ATOM     40  N   UNL A   1      41.529  29.513  32.932  1.00  0.00    -0.248 NA
ATOM     41  C   UNL A   1      42.533  27.754  31.774  1.00  0.00     0.031 C 
ATOM     42  C   UNL A   1      38.766  30.164  29.466  1.00  0.00     0.029 A 
ATOM     43  N   UNL A   1      39.366  30.907  31.487  1.00  0.00    -0.354 N 
ATOM     44  C   UNL A   1      42.510  28.938  33.729  1.00  0.00     0.074 A 
ATOM     45  C   UNL A   1      43.054  27.818  32.991  1.00  0.00     0.031 C 
ATOM     46  C   UNL A   1      37.972  31.205  29.764  1.00  0.00     0.029 A 
ATOM     47  C   UNL A   1      38.315  31.701  31.093  1.00  0.00     0.049 A 
ATOM     48  H   UNL A   1      39.831  31.017  32.349  1.00  0.00     0.167 HD
ATOM     49  C   UNL A   1      42.935  29.323  34.956  1.00  0.00     0.037 A 
ATOM     50  C   UNL A   1      37.691  32.707  31.735  1.00  0.00     0.037 A 
ATOM     51  C   UNL A   1      42.397  30.449  35.674  1.00  0.00     0.049 A 
ATOM     52  C   UNL A   1      38.171  33.106  33.104  1.00  0.00     0.074 A 
ATOM     53  C   UNL A   1      42.793  30.957  36.899  1.00  0.00     0.029 A 
ATOM     54  N   UNL A   1      41.342  31.238  35.237  1.00  0.00    -0.354 N 
ATOM     55  N   UNL A   1      39.147  32.595  33.817  1.00  0.00    -0.248 NA
ATOM     56  C   UNL A   1      37.472  34.222  33.754  1.00  0.00     0.031 C 
ATOM     57  C   UNL A   1      41.943  32.018  37.227  1.00  0.00     0.029 A 
ATOM     58  C   UNL A   1      41.056  32.211  36.180  1.00  0.00     0.049 A 
ATOM     59  H   UNL A   1      40.865  31.121  34.383  1.00  0.00     0.167 HD
ATOM     60  C   UNL A   1      39.197  33.345  34.987  1.00  0.00     0.074 A 
ATOM     61  C   UNL A   1      38.163  34.354  34.878  1.00  0.00     0.031 C 
ATOM     62  C   UNL A   1      40.024  33.212  36.053  1.00  0.00     0.037 A 
BRANCH  49  63
ATOM     63  C   UNL A   1      44.035  28.521  35.600  1.00  0.00     0.058 A 
ATOM     64  C   UNL A   1      45.390  28.805  35.367  1.00  0.00     0.135 A 
ATOM     65  C   UNL A   1      43.731  27.481  36.494  1.00  0.00     0.135 A 
ATOM     66  F   UNL A   1      45.741  29.779  34.510  1.00  0.00    -0.206 F 
ATOM     67  C   UNL A   1      46.404  28.069  35.972  1.00  0.00     0.059 A 
ATOM     68  C   UNL A   1      44.728  26.751  37.134  1.00  0.00     0.059 A 
ATOM     69  F   UNL A   1      42.453  27.164  36.753  1.00  0.00    -0.206 F 
ATOM     70  C   UNL A   1      46.062  27.044  36.855  1.00  0.00     0.060 A 
BRANCH  70  71
ATOM     71  S   UNL A   1      47.390  26.107  37.639  1.00  0.00     0.124 S 
ATOM     72  O   UNL A   1      48.511  26.385  36.745  1.00  0.00    -0.237 OA
ATOM     73  O   UNL A   1      47.468  26.720  38.961  1.00  0.00    -0.237 OA
ATOM     74  O   UNL A   1      46.899  24.733  37.617  1.00  0.00    -0.744 OA
ENDBRANCH  70  71
ENDBRANCH  49  63
BRANCH  50  75
ATOM     75  C   UNL A   1      36.556  33.414  31.084  1.00  0.00     0.058 A 
ATOM     76  C   UNL A   1      36.761  34.235  29.965  1.00  0.00     0.135 A 
ATOM     77  C   UNL A   1      35.241  33.271  31.555  1.00  0.00     0.135 A 
ATOM     78  F   UNL A   1      38.000  34.408  29.479  1.00  0.00    -0.206 F 
ATOM     79  C   UNL A   1      35.710  34.906  29.350  1.00  0.00     0.059 A 
ATOM     80  C   UNL A   1      34.169  33.909  30.939  1.00  0.00     0.059 A 
ATOM     81  F   UNL A   1      34.987  32.482  32.611  1.00  0.00    -0.206 F 
ATOM     82  C   UNL A   1      34.415  34.733  29.843  1.00  0.00     0.060 A 
BRANCH  82  83
ATOM     83  S   UNL A   1      33.052  35.573  29.008  1.00  0.00     0.124 S 
ATOM     84  O   UNL A   1      32.259  36.043  30.138  1.00  0.00    -0.237 OA
ATOM     85  O   UNL A   1      33.750  36.603  28.244  1.00  0.00    -0.237 OA
ATOM     86  O   UNL A   1      32.445  34.514  28.207  1.00  0.00    -0.744 OA
ENDBRANCH  82  83
ENDBRANCH  50  75
BRANCH  62  87
ATOM     87  C   UNL A   1      39.873  34.204  37.175  1.00  0.00     0.058 A 
ATOM     88  C   UNL A   1      40.573  35.421  37.188  1.00  0.00     0.135 A 
ATOM     89  C   UNL A   1      38.975  33.954  38.225  1.00  0.00     0.135 A 
ATOM     90  F   UNL A   1      41.449  35.707  36.212  1.00  0.00    -0.206 F 
ATOM     91  C   UNL A   1      40.407  36.343  38.216  1.00  0.00     0.059 A 
ATOM     92  C   UNL A   1      38.769  34.876  39.247  1.00  0.00     0.059 A 
ATOM     93  F   UNL A   1      38.272  32.811  38.257  1.00  0.00    -0.206 F 
ATOM     94  C   UNL A   1      39.500  36.063  39.239  1.00  0.00     0.060 A 
BRANCH  94  95
ATOM     95  S   UNL A   1      39.269  37.284  40.549  1.00  0.00     0.124 S 
ATOM     96  O   UNL A   1      38.227  38.133  39.979  1.00  0.00    -0.237 OA
ATOM     97  O   UNL A   1      38.862  36.454  41.680  1.00  0.00    -0.237 OA
ATOM     98  O   UNL A   1      40.585  37.902  40.675  1.00  0.00    -0.744 OA
ENDBRANCH  94  95
ENDBRANCH  62  87
ENDBRANCH  36  37
ENDBRANCH  28  31
ENDBRANCH  26  27
ENDBRANCH  25  26
ENDBRANCH  24  25
ENDBRANCH   1  24
TORSDOF 19
ENDMDL
