MODEL 1
REMARK VINA RESULT:     -10.9      0.000      0.000
REMARK SMILES Cc1noc(C)c1CSCC(=O)N1CC[C@H](C(=O)NCCCCCCNC(=O)c2ccc(-c3c4nc(c(-c5c(F)cc(S(=O)(=O)[O-])cc5F)c5ccc([nH]5)c(-c5c(F)cc(S(=O)(=O)[O-])cc5F)c5nc(c(-c6c(F)cc(S(=O)(=O)[O-])cc6F)c6ccc3[nH]6)C=C5)C=C4)cc2)[C@@H]1C
REMARK SMILES IDX 21 1 20 2 19 3 17 4 18 5 16 7 13 8 14 9 95 10 15 11 96 12
REMARK SMILES IDX 11 13 12 14 10 15 9 16 8 17 7 18 1 19 2 20 3 21 4 22 5 23
REMARK SMILES IDX 6 24 22 25 23 26 24 27 25 28 26 29 27 30 28 32 29 33 30 34
REMARK SMILES IDX 94 35 31 36 93 37 32 38 33 39 34 40 87 41 35 42 92 43 86 44
REMARK SMILES IDX 88 45 36 46 91 47 85 48 84 49 37 51 71 52 50 53 70 54 51 55
REMARK SMILES IDX 54 56 69 57 89 58 52 59 53 60 68 62 90 63 55 64 38 65 39 66
REMARK SMILES IDX 48 67 40 68 41 69 47 70 49 71 42 72 43 73 44 74 45 75 46 76
REMARK SMILES IDX 72 77 73 78 82 79 74 80 75 81 81 82 83 83 76 84 77 85 78 86
REMARK SMILES IDX 79 87 80 88 56 89 57 90 66 91 58 92 59 93 65 94 67 95 60 96
REMARK SMILES IDX 61 97 62 98 63 99 64 100
REMARK H PARENT 19 6 26 31 88 50 54 61
REMARK Flexibility Score: inf
ROOT
ATOM      1  C   UNL A   1      33.255  30.059  25.896  1.00  0.00     0.021 C 
ENDROOT
BRANCH   1   2
ATOM      2  C   UNL A   1      31.736  30.198  25.961  1.00  0.00     0.116 C 
BRANCH   2   3
ATOM      3  N   UNL A   1      31.154  30.143  24.638  1.00  0.00    -0.356 N 
ATOM      4  C   UNL A   1      31.008  29.118  23.764  1.00  0.00     0.225 C 
ATOM      5  O   UNL A   1      30.529  29.425  22.674  1.00  0.00    -0.275 OA
ATOM      6  H   UNL A   1      30.800  31.004  24.316  1.00  0.00     0.163 HD
BRANCH   4   7
ATOM      7  C   UNL A   1      31.453  27.706  24.163  1.00  0.00     0.102 C 
ATOM      8  N   UNL A   1      32.226  26.201  22.446  1.00  0.00    -0.338 N 
ATOM      9  C   UNL A   1      30.782  26.292  22.360  1.00  0.00     0.120 C 
ATOM     10  C   UNL A   1      32.735  27.126  23.479  1.00  0.00     0.094 C 
ATOM     11  C   UNL A   1      30.375  26.690  23.765  1.00  0.00     0.037 C 
ATOM     12  C   UNL A   1      33.664  28.199  22.912  1.00  0.00     0.032 C 
BRANCH   8  13
ATOM     13  C   UNL A   1      32.862  25.263  21.664  1.00  0.00     0.232 C 
ATOM     14  O   UNL A   1      33.026  25.472  20.456  1.00  0.00    -0.274 OA
BRANCH  13  15
ATOM     15  C   UNL A   1      33.179  23.883  22.211  1.00  0.00     0.170 C 
BRANCH  15  16
ATOM     16  S   UNL A   1      32.662  23.491  23.893  1.00  0.00    -0.147 SA
BRANCH  16  17
ATOM     17  C   UNL A   1      34.150  23.937  24.841  1.00  0.00     0.111 C 
BRANCH  17  18
ATOM     18  C   UNL A   1      35.094  22.817  25.043  1.00  0.00     0.027 A 
ATOM     19  C   UNL A   1      36.701  23.016  22.985  1.00  0.00     0.071 C 
ATOM     20  C   UNL A   1      36.190  22.403  24.234  1.00  0.00     0.085 A 
ATOM     21  N   UNL A   1      36.767  21.299  24.721  1.00  0.00    -0.085 NA
ATOM     22  O   UNL A   1      36.046  20.960  25.849  1.00  0.00    -0.361 OA
ATOM     23  C   UNL A   1      35.043  21.856  26.032  1.00  0.00     0.137 A 
ATOM     24  C   UNL A   1      34.131  21.604  27.167  1.00  0.00     0.091 C 
ENDBRANCH  17  18
ENDBRANCH  16  17
ENDBRANCH  15  16
ENDBRANCH  13  15
ENDBRANCH   8  13
ENDBRANCH   4   7
ENDBRANCH   2   3
ENDBRANCH   1   2
BRANCH   1  25
ATOM     25  C   UNL A   1      33.878  29.168  26.979  1.00  0.00     0.002 C 
BRANCH  25  26
ATOM     26  C   UNL A   1      35.059  29.771  27.747  1.00  0.00     0.002 C 
BRANCH  26  27
ATOM     27  C   UNL A   1      34.906  31.240  28.137  1.00  0.00     0.021 C 
BRANCH  27  28
ATOM     28  C   UNL A   1      35.896  31.732  29.184  1.00  0.00     0.116 C 
BRANCH  28  29
ATOM     29  N   UNL A   1      35.829  30.968  30.419  1.00  0.00    -0.352 N 
ATOM     30  C   UNL A   1      36.783  30.154  30.979  1.00  0.00     0.251 C 
ATOM     31  H   UNL A   1      34.986  31.044  30.920  1.00  0.00     0.163 HD
ATOM     32  O   UNL A   1      36.507  29.459  31.953  1.00  0.00    -0.269 OA
BRANCH  30  33
ATOM     33  C   UNL A   1      38.132  30.099  30.379  1.00  0.00     0.039 A 
ATOM     34  C   UNL A   1      39.245  30.107  31.223  1.00  0.00     0.014 A 
ATOM     35  C   UNL A   1      38.293  29.991  28.995  1.00  0.00     0.014 A 
ATOM     36  C   UNL A   1      40.519  29.923  30.682  1.00  0.00     0.010 A 
ATOM     37  C   UNL A   1      39.557  29.742  28.466  1.00  0.00     0.010 A 
ATOM     38  C   UNL A   1      40.679  29.692  29.307  1.00  0.00    -0.014 A 
BRANCH  38  39
ATOM     39  C   UNL A   1      42.003  29.337  28.734  1.00  0.00     0.031 A 
ATOM     40  C   UNL A   1      42.284  27.934  28.278  1.00  0.00     0.074 A 
ATOM     41  C   UNL A   1      42.979  30.267  28.709  1.00  0.00     0.049 A 
ATOM     42  N   UNL A   1      43.404  27.419  27.841  1.00  0.00    -0.248 NA
ATOM     43  C   UNL A   1      41.167  26.979  28.342  1.00  0.00     0.031 C 
ATOM     44  C   UNL A   1      42.840  31.651  29.171  1.00  0.00     0.029 A 
ATOM     45  N   UNL A   1      44.286  30.187  28.299  1.00  0.00    -0.354 N 
ATOM     46  C   UNL A   1      43.133  26.080  27.589  1.00  0.00     0.074 A 
ATOM     47  C   UNL A   1      41.753  25.852  27.964  1.00  0.00     0.031 C 
ATOM     48  C   UNL A   1      44.010  32.289  29.009  1.00  0.00     0.029 A 
ATOM     49  C   UNL A   1      44.993  31.352  28.475  1.00  0.00     0.049 A 
ATOM     50  H   UNL A   1      44.680  29.371  27.914  1.00  0.00     0.167 HD
ATOM     51  C   UNL A   1      43.955  25.132  27.077  1.00  0.00     0.037 A 
ATOM     52  C   UNL A   1      46.293  31.633  28.254  1.00  0.00     0.037 A 
ATOM     53  C   UNL A   1      45.322  25.374  26.692  1.00  0.00     0.049 A 
ATOM     54  C   UNL A   1      47.192  30.559  27.707  1.00  0.00     0.074 A 
ATOM     55  C   UNL A   1      46.212  24.501  26.093  1.00  0.00     0.029 A 
ATOM     56  N   UNL A   1      46.002  26.569  26.881  1.00  0.00    -0.354 N 
ATOM     57  N   UNL A   1      46.897  29.318  27.399  1.00  0.00    -0.248 NA
ATOM     58  C   UNL A   1      48.598  30.920  27.480  1.00  0.00     0.031 C 
ATOM     59  C   UNL A   1      47.446  25.149  25.970  1.00  0.00     0.029 A 
ATOM     60  C   UNL A   1      47.312  26.443  26.446  1.00  0.00     0.049 A 
ATOM     61  H   UNL A   1      45.611  27.385  27.268  1.00  0.00     0.167 HD
ATOM     62  C   UNL A   1      48.079  28.753  26.933  1.00  0.00     0.074 A 
ATOM     63  C   UNL A   1      49.085  29.793  26.978  1.00  0.00     0.031 C 
ATOM     64  C   UNL A   1      48.308  27.484  26.511  1.00  0.00     0.037 A 
BRANCH  51  65
ATOM     65  C   UNL A   1      43.403  23.744  26.908  1.00  0.00     0.058 A 
ATOM     66  C   UNL A   1      42.997  23.258  25.654  1.00  0.00     0.135 A 
ATOM     67  C   UNL A   1      43.315  22.872  28.005  1.00  0.00     0.135 A 
ATOM     68  F   UNL A   1      43.047  24.052  24.573  1.00  0.00    -0.206 F 
ATOM     69  C   UNL A   1      42.498  21.969  25.500  1.00  0.00     0.059 A 
ATOM     70  C   UNL A   1      42.845  21.569  27.869  1.00  0.00     0.059 A 
ATOM     71  F   UNL A   1      43.688  23.285  29.227  1.00  0.00    -0.206 F 
ATOM     72  C   UNL A   1      42.426  21.131  26.614  1.00  0.00     0.060 A 
BRANCH  72  73
ATOM     73  S   UNL A   1      41.777  19.461  26.395  1.00  0.00     0.124 S 
ATOM     74  O   UNL A   1      42.564  18.990  25.259  1.00  0.00    -0.237 OA
ATOM     75  O   UNL A   1      42.082  18.838  27.678  1.00  0.00    -0.237 OA
ATOM     76  O   UNL A   1      40.359  19.679  26.128  1.00  0.00    -0.744 OA
ENDBRANCH  72  73
ENDBRANCH  51  65
BRANCH  52  77
ATOM     77  C   UNL A   1      46.818  32.991  28.560  1.00  0.00     0.058 A 
ATOM     78  C   UNL A   1      47.322  33.302  29.830  1.00  0.00     0.135 A 
ATOM     79  C   UNL A   1      46.850  33.995  27.578  1.00  0.00     0.135 A 
ATOM     80  F   UNL A   1      47.305  32.378  30.803  1.00  0.00    -0.206 F 
ATOM     81  C   UNL A   1      47.834  34.562  30.121  1.00  0.00     0.059 A 
ATOM     82  C   UNL A   1      47.380  35.254  27.839  1.00  0.00     0.059 A 
ATOM     83  F   UNL A   1      46.392  33.743  26.342  1.00  0.00    -0.206 F 
ATOM     84  C   UNL A   1      47.865  35.530  29.117  1.00  0.00     0.060 A 
BRANCH  84  85
ATOM     85  S   UNL A   1      48.591  37.141  29.486  1.00  0.00     0.124 S 
ATOM     86  O   UNL A   1      49.335  36.855  30.707  1.00  0.00    -0.237 OA
ATOM     87  O   UNL A   1      49.392  37.396  28.293  1.00  0.00    -0.237 OA
ATOM     88  O   UNL A   1      47.425  38.005  29.645  1.00  0.00    -0.744 OA
ENDBRANCH  84  85
ENDBRANCH  52  77
BRANCH  64  89
ATOM     89  C   UNL A   1      49.704  27.147  26.066  1.00  0.00     0.058 A 
ATOM     90  C   UNL A   1      50.661  26.656  26.968  1.00  0.00     0.135 A 
ATOM     91  C   UNL A   1      50.073  27.259  24.716  1.00  0.00     0.135 A 
ATOM     92  F   UNL A   1      50.362  26.539  28.272  1.00  0.00    -0.206 F 
ATOM     93  C   UNL A   1      51.941  26.305  26.551  1.00  0.00     0.059 A 
ATOM     94  C   UNL A   1      51.339  26.889  24.271  1.00  0.00     0.059 A 
ATOM     95  F   UNL A   1      49.194  27.716  23.810  1.00  0.00    -0.206 F 
ATOM     96  C   UNL A   1      52.269  26.421  25.198  1.00  0.00     0.060 A 
BRANCH  96  97
ATOM     97  S   UNL A   1      53.919  25.919  24.665  1.00  0.00     0.124 S 
ATOM     98  O   UNL A   1      53.821  24.464  24.736  1.00  0.00    -0.237 OA
ATOM     99  O   UNL A   1      53.998  26.484  23.322  1.00  0.00    -0.237 OA
ATOM    100  O   UNL A   1      54.798  26.537  25.652  1.00  0.00    -0.744 OA
ENDBRANCH  96  97
ENDBRANCH  64  89
ENDBRANCH  38  39
ENDBRANCH  30  33
ENDBRANCH  28  29
ENDBRANCH  27  28
ENDBRANCH  26  27
ENDBRANCH  25  26
ENDBRANCH   1  25
TORSDOF 21
ENDMDL
MODEL 2
REMARK VINA RESULT:     -10.8      4.549     10.984
REMARK SMILES Cc1noc(C)c1CSCC(=O)N1CC[C@H](C(=O)NCCCCCCNC(=O)c2ccc(-c3c4nc(c(-c5c(F)cc(S(=O)(=O)[O-])cc5F)c5ccc([nH]5)c(-c5c(F)cc(S(=O)(=O)[O-])cc5F)c5nc(c(-c6c(F)cc(S(=O)(=O)[O-])cc6F)c6ccc3[nH]6)C=C5)C=C4)cc2)[C@@H]1C
REMARK SMILES IDX 21 1 20 2 19 3 17 4 18 5 16 7 13 8 14 9 95 10 15 11 96 12
REMARK SMILES IDX 11 13 12 14 10 15 9 16 8 17 7 18 1 19 2 20 3 21 4 22 5 23
REMARK SMILES IDX 6 24 22 25 23 26 24 27 25 28 26 29 27 30 28 32 29 33 30 34
REMARK SMILES IDX 94 35 31 36 93 37 32 38 33 39 34 40 87 41 35 42 92 43 86 44
REMARK SMILES IDX 88 45 36 46 91 47 85 48 84 49 37 51 71 52 50 53 70 54 51 55
REMARK SMILES IDX 54 56 69 57 89 58 52 59 53 60 68 62 90 63 55 64 38 65 39 66
REMARK SMILES IDX 48 67 40 68 41 69 47 70 49 71 42 72 43 73 44 74 45 75 46 76
REMARK SMILES IDX 72 77 73 78 82 79 74 80 75 81 81 82 83 83 76 84 77 85 78 86
REMARK SMILES IDX 79 87 80 88 56 89 57 90 66 91 58 92 59 93 65 94 67 95 60 96
REMARK SMILES IDX 61 97 62 98 63 99 64 100
REMARK H PARENT 19 6 26 31 88 50 54 61
REMARK Flexibility Score: inf
ROOT
ATOM      1  C   UNL A   1      42.658  35.019  31.023  1.00  0.00     0.021 C 
ENDROOT
BRANCH   1   2
ATOM      2  C   UNL A   1      42.942  33.609  31.534  1.00  0.00     0.116 C 
BRANCH   2   3
ATOM      3  N   UNL A   1      42.789  33.538  32.970  1.00  0.00    -0.356 N 
ATOM      4  C   UNL A   1      41.827  32.978  33.743  1.00  0.00     0.225 C 
ATOM      5  O   UNL A   1      41.957  33.160  34.952  1.00  0.00    -0.275 OA
ATOM      6  H   UNL A   1      43.514  33.972  33.476  1.00  0.00     0.163 HD
BRANCH   4   7
ATOM      7  C   UNL A   1      40.674  32.209  33.088  1.00  0.00     0.102 C 
ATOM      8  N   UNL A   1      38.461  32.415  34.021  1.00  0.00    -0.338 N 
ATOM      9  C   UNL A   1      39.243  31.553  34.884  1.00  0.00     0.120 C 
ATOM     10  C   UNL A   1      39.303  32.947  32.930  1.00  0.00     0.094 C 
ATOM     11  C   UNL A   1      40.302  30.997  33.953  1.00  0.00     0.037 C 
ATOM     12  C   UNL A   1      39.423  34.470  32.958  1.00  0.00     0.032 C 
BRANCH   8  13
ATOM     13  C   UNL A   1      37.113  32.534  34.277  1.00  0.00     0.232 C 
ATOM     14  O   UNL A   1      36.714  32.695  35.436  1.00  0.00    -0.274 OA
BRANCH  13  15
ATOM     15  C   UNL A   1      36.089  32.259  33.189  1.00  0.00     0.170 C 
BRANCH  15  16
ATOM     16  S   UNL A   1      34.668  33.358  33.056  1.00  0.00    -0.147 SA
BRANCH  16  17
ATOM     17  C   UNL A   1      35.188  34.457  31.700  1.00  0.00     0.111 C 
BRANCH  17  18
ATOM     18  C   UNL A   1      34.096  35.278  31.137  1.00  0.00     0.027 A 
ATOM     19  C   UNL A   1      33.635  37.030  33.030  1.00  0.00     0.071 C 
ATOM     20  C   UNL A   1      33.408  36.383  31.715  1.00  0.00     0.085 A 
ATOM     21  N   UNL A   1      32.430  36.823  30.914  1.00  0.00    -0.085 NA
ATOM     22  O   UNL A   1      32.450  36.000  29.805  1.00  0.00    -0.361 OA
ATOM     23  C   UNL A   1      33.432  35.074  29.945  1.00  0.00     0.137 A 
ATOM     24  C   UNL A   1      33.551  34.070  28.868  1.00  0.00     0.091 C 
ENDBRANCH  17  18
ENDBRANCH  16  17
ENDBRANCH  15  16
ENDBRANCH  13  15
ENDBRANCH   8  13
ENDBRANCH   4   7
ENDBRANCH   2   3
ENDBRANCH   1   2
BRANCH   1  25
ATOM     25  C   UNL A   1      42.228  35.110  29.553  1.00  0.00     0.002 C 
BRANCH  25  26
ATOM     26  C   UNL A   1      43.338  35.433  28.547  1.00  0.00     0.002 C 
BRANCH  26  27
ATOM     27  C   UNL A   1      44.227  36.620  28.913  1.00  0.00     0.021 C 
BRANCH  27  28
ATOM     28  C   UNL A   1      44.937  37.277  27.736  1.00  0.00     0.116 C 
BRANCH  28  29
ATOM     29  N   UNL A   1      46.305  37.656  28.051  1.00  0.00    -0.352 N 
ATOM     30  C   UNL A   1      47.376  36.849  28.342  1.00  0.00     0.251 C 
ATOM     31  H   UNL A   1      46.487  38.624  28.055  1.00  0.00     0.163 HD
ATOM     32  O   UNL A   1      48.431  37.338  28.737  1.00  0.00    -0.269 OA
BRANCH  30  33
ATOM     33  C   UNL A   1      47.236  35.383  28.211  1.00  0.00     0.039 A 
ATOM     34  C   UNL A   1      47.287  34.596  29.363  1.00  0.00     0.014 A 
ATOM     35  C   UNL A   1      47.008  34.798  26.962  1.00  0.00     0.014 A 
ATOM     36  C   UNL A   1      47.027  33.227  29.272  1.00  0.00     0.010 A 
ATOM     37  C   UNL A   1      46.683  33.446  26.884  1.00  0.00     0.010 A 
ATOM     38  C   UNL A   1      46.676  32.651  28.041  1.00  0.00    -0.014 A 
BRANCH  38  39
ATOM     39  C   UNL A   1      46.242  31.234  27.949  1.00  0.00     0.031 A 
ATOM     40  C   UNL A   1      47.205  30.170  27.506  1.00  0.00     0.074 A 
ATOM     41  C   UNL A   1      44.951  30.925  28.182  1.00  0.00     0.049 A 
ATOM     42  N   UNL A   1      46.984  28.902  27.277  1.00  0.00    -0.248 NA
ATOM     43  C   UNL A   1      48.595  30.592  27.266  1.00  0.00     0.031 C 
ATOM     44  C   UNL A   1      43.910  31.881  28.571  1.00  0.00     0.029 A 
ATOM     45  N   UNL A   1      44.286  29.727  28.107  1.00  0.00    -0.354 N 
ATOM     46  C   UNL A   1      48.199  28.374  26.856  1.00  0.00     0.074 A 
ATOM     47  C   UNL A   1      49.144  29.471  26.820  1.00  0.00     0.031 C 
ATOM     48  C   UNL A   1      42.744  31.230  28.710  1.00  0.00     0.029 A 
ATOM     49  C   UNL A   1      42.941  29.823  28.377  1.00  0.00     0.049 A 
ATOM     50  H   UNL A   1      44.731  28.878  27.882  1.00  0.00     0.167 HD
ATOM     51  C   UNL A   1      48.501  27.090  26.545  1.00  0.00     0.037 A 
ATOM     52  C   UNL A   1      41.970  28.890  28.340  1.00  0.00     0.037 A 
ATOM     53  C   UNL A   1      47.556  26.004  26.602  1.00  0.00     0.049 A 
ATOM     54  C   UNL A   1      42.324  27.477  27.970  1.00  0.00     0.074 A 
ATOM     55  C   UNL A   1      47.782  24.657  26.382  1.00  0.00     0.029 A 
ATOM     56  N   UNL A   1      46.205  26.140  26.884  1.00  0.00    -0.354 N 
ATOM     57  N   UNL A   1      43.496  26.979  27.652  1.00  0.00    -0.248 NA
ATOM     58  C   UNL A   1      41.228  26.498  27.950  1.00  0.00     0.031 C 
ATOM     59  C   UNL A   1      46.559  23.986  26.475  1.00  0.00     0.029 A 
ATOM     60  C   UNL A   1      45.577  24.906  26.804  1.00  0.00     0.049 A 
ATOM     61  H   UNL A   1      45.756  26.988  27.107  1.00  0.00     0.167 HD
ATOM     62  C   UNL A   1      43.279  25.628  27.404  1.00  0.00     0.074 A 
ATOM     63  C   UNL A   1      41.870  25.383  27.630  1.00  0.00     0.031 C 
ATOM     64  C   UNL A   1      44.169  24.679  27.018  1.00  0.00     0.037 A 
BRANCH  51  65
ATOM     65  C   UNL A   1      49.908  26.788  26.111  1.00  0.00     0.058 A 
ATOM     66  C   UNL A   1      50.348  27.040  24.802  1.00  0.00     0.135 A 
ATOM     67  C   UNL A   1      50.842  26.276  27.027  1.00  0.00     0.135 A 
ATOM     68  F   UNL A   1      49.495  27.516  23.882  1.00  0.00    -0.206 F 
ATOM     69  C   UNL A   1      51.655  26.770  24.408  1.00  0.00     0.059 A 
ATOM     70  C   UNL A   1      52.162  26.026  26.663  1.00  0.00     0.059 A 
ATOM     71  F   UNL A   1      50.476  26.016  28.292  1.00  0.00    -0.206 F 
ATOM     72  C   UNL A   1      52.555  26.263  25.346  1.00  0.00     0.060 A 
BRANCH  72  73
ATOM     73  S   UNL A   1      54.247  25.920  24.819  1.00  0.00     0.124 S 
ATOM     74  O   UNL A   1      55.012  26.772  25.725  1.00  0.00    -0.237 OA
ATOM     75  O   UNL A   1      54.361  24.485  25.052  1.00  0.00    -0.237 OA
ATOM     76  O   UNL A   1      54.256  26.328  23.418  1.00  0.00    -0.744 OA
ENDBRANCH  72  73
ENDBRANCH  51  65
BRANCH  52  77
ATOM     77  C   UNL A   1      40.567  29.272  28.656  1.00  0.00     0.058 A 
ATOM     78  C   UNL A   1      39.614  29.429  27.640  1.00  0.00     0.135 A 
ATOM     79  C   UNL A   1      40.147  29.459  29.983  1.00  0.00     0.135 A 
ATOM     80  F   UNL A   1      39.969  29.268  26.356  1.00  0.00    -0.206 F 
ATOM     81  C   UNL A   1      38.294  29.765  27.926  1.00  0.00     0.059 A 
ATOM     82  C   UNL A   1      38.828  29.771  30.294  1.00  0.00     0.059 A 
ATOM     83  F   UNL A   1      41.018  29.305  30.993  1.00  0.00    -0.206 F 
ATOM     84  C   UNL A   1      37.909  29.928  29.257  1.00  0.00     0.060 A 
BRANCH  84  85
ATOM     85  S   UNL A   1      36.181  30.300  29.621  1.00  0.00     0.124 S 
ATOM     86  O   UNL A   1      36.205  31.756  29.707  1.00  0.00    -0.237 OA
ATOM     87  O   UNL A   1      35.497  29.739  28.461  1.00  0.00    -0.237 OA
ATOM     88  O   UNL A   1      35.945  29.597  30.878  1.00  0.00    -0.744 OA
ENDBRANCH  84  85
ENDBRANCH  52  77
BRANCH  64  89
ATOM     89  C   UNL A   1      43.644  23.285  26.812  1.00  0.00     0.058 A 
ATOM     90  C   UNL A   1      43.485  22.746  25.526  1.00  0.00     0.135 A 
ATOM     91  C   UNL A   1      43.352  22.460  27.910  1.00  0.00     0.135 A 
ATOM     92  F   UNL A   1      43.741  23.497  24.443  1.00  0.00    -0.206 F 
ATOM     93  C   UNL A   1      43.039  21.443  25.334  1.00  0.00     0.059 A 
ATOM     94  C   UNL A   1      42.930  21.144  27.743  1.00  0.00     0.059 A 
ATOM     95  F   UNL A   1      43.494  22.923  29.161  1.00  0.00    -0.206 F 
ATOM     96  C   UNL A   1      42.768  20.648  26.450  1.00  0.00     0.060 A 
BRANCH  96  97
ATOM     97  S   UNL A   1      42.233  18.944  26.185  1.00  0.00     0.124 S 
ATOM     98  O   UNL A   1      40.861  19.135  25.727  1.00  0.00    -0.237 OA
ATOM     99  O   UNL A   1      43.178  18.473  25.178  1.00  0.00    -0.237 OA
ATOM    100  O   UNL A   1      42.375  18.335  27.504  1.00  0.00    -0.744 OA
ENDBRANCH  96  97
ENDBRANCH  64  89
ENDBRANCH  38  39
ENDBRANCH  30  33
ENDBRANCH  28  29
ENDBRANCH  27  28
ENDBRANCH  26  27
ENDBRANCH  25  26
ENDBRANCH   1  25
TORSDOF 21
ENDMDL
MODEL 3
REMARK VINA RESULT:      -9.9      1.944      3.891
REMARK SMILES Cc1noc(C)c1CSCC(=O)N1CC[C@H](C(=O)NCCCCCCNC(=O)c2ccc(-c3c4nc(c(-c5c(F)cc(S(=O)(=O)[O-])cc5F)c5ccc([nH]5)c(-c5c(F)cc(S(=O)(=O)[O-])cc5F)c5nc(c(-c6c(F)cc(S(=O)(=O)[O-])cc6F)c6ccc3[nH]6)C=C5)C=C4)cc2)[C@@H]1C
REMARK SMILES IDX 21 1 20 2 19 3 17 4 18 5 16 7 13 8 14 9 95 10 15 11 96 12
REMARK SMILES IDX 11 13 12 14 10 15 9 16 8 17 7 18 1 19 2 20 3 21 4 22 5 23
REMARK SMILES IDX 6 24 22 25 23 26 24 27 25 28 26 29 27 30 28 32 29 33 30 34
REMARK SMILES IDX 94 35 31 36 93 37 32 38 33 39 34 40 87 41 35 42 92 43 86 44
REMARK SMILES IDX 88 45 36 46 91 47 85 48 84 49 37 51 71 52 50 53 70 54 51 55
REMARK SMILES IDX 54 56 69 57 89 58 52 59 53 60 68 62 90 63 55 64 38 65 39 66
REMARK SMILES IDX 48 67 40 68 41 69 47 70 49 71 42 72 43 73 44 74 45 75 46 76
REMARK SMILES IDX 72 77 73 78 82 79 74 80 75 81 81 82 83 83 76 84 77 85 78 86
REMARK SMILES IDX 79 87 80 88 56 89 57 90 66 91 58 92 59 93 65 94 67 95 60 96
REMARK SMILES IDX 61 97 62 98 63 99 64 100
REMARK H PARENT 19 6 26 31 88 50 54 61
REMARK Flexibility Score: inf
ROOT
ATOM      1  C   UNL A   1      38.242  34.299  30.699  1.00  0.00     0.021 C 
ENDROOT
BRANCH   1   2
ATOM      2  C   UNL A   1      36.822  33.801  30.441  1.00  0.00     0.116 C 
BRANCH   2   3
ATOM      3  N   UNL A   1      36.335  34.265  29.160  1.00  0.00    -0.356 N 
ATOM      4  C   UNL A   1      35.309  33.842  28.384  1.00  0.00     0.225 C 
ATOM      5  O   UNL A   1      35.204  34.412  27.299  1.00  0.00    -0.275 OA
ATOM      6  H   UNL A   1      36.839  35.025  28.787  1.00  0.00     0.163 HD
BRANCH   4   7
ATOM      7  C   UNL A   1      34.397  32.711  28.874  1.00  0.00     0.102 C 
ATOM      8  N   UNL A   1      33.805  30.947  27.342  1.00  0.00    -0.338 N 
ATOM      9  C   UNL A   1      33.039  32.127  26.999  1.00  0.00     0.120 C 
ATOM     10  C   UNL A   1      34.750  31.250  28.437  1.00  0.00     0.094 C 
ATOM     11  C   UNL A   1      32.985  32.898  28.304  1.00  0.00     0.037 C 
ATOM     12  C   UNL A   1      36.211  31.070  28.031  1.00  0.00     0.032 C 
BRANCH   8  13
ATOM     13  C   UNL A   1      33.499  29.768  26.698  1.00  0.00     0.232 C 
ATOM     14  O   UNL A   1      34.390  29.122  26.134  1.00  0.00    -0.274 OA
BRANCH  13  15
ATOM     15  C   UNL A   1      32.055  29.352  26.486  1.00  0.00     0.170 C 
BRANCH  15  16
ATOM     16  S   UNL A   1      31.346  29.537  24.839  1.00  0.00    -0.147 SA
BRANCH  16  17
ATOM     17  C   UNL A   1      31.975  28.046  24.006  1.00  0.00     0.111 C 
BRANCH  17  18
ATOM     18  C   UNL A   1      31.506  26.778  24.603  1.00  0.00     0.027 A 
ATOM     19  C   UNL A   1      33.701  25.732  25.576  1.00  0.00     0.071 C 
ATOM     20  C   UNL A   1      32.251  25.764  25.269  1.00  0.00     0.085 A 
ATOM     21  N   UNL A   1      31.473  24.731  25.611  1.00  0.00    -0.085 NA
ATOM     22  O   UNL A   1      30.207  25.044  25.158  1.00  0.00    -0.361 OA
ATOM     23  C   UNL A   1      30.230  26.255  24.547  1.00  0.00     0.137 A 
ATOM     24  C   UNL A   1      28.962  26.717  23.946  1.00  0.00     0.091 C 
ENDBRANCH  17  18
ENDBRANCH  16  17
ENDBRANCH  15  16
ENDBRANCH  13  15
ENDBRANCH   8  13
ENDBRANCH   4   7
ENDBRANCH   2   3
ENDBRANCH   1   2
BRANCH   1  25
ATOM     25  C   UNL A   1      38.730  34.164  32.148  1.00  0.00     0.002 C 
BRANCH  25  26
ATOM     26  C   UNL A   1      37.700  34.484  33.236  1.00  0.00     0.002 C 
BRANCH  26  27
ATOM     27  C   UNL A   1      37.227  33.289  34.062  1.00  0.00     0.021 C 
BRANCH  27  28
ATOM     28  C   UNL A   1      37.897  31.965  33.719  1.00  0.00     0.116 C 
BRANCH  28  29
ATOM     29  N   UNL A   1      36.981  31.019  33.104  1.00  0.00    -0.352 N 
ATOM     30  C   UNL A   1      37.182  30.214  32.010  1.00  0.00     0.251 C 
ATOM     31  H   UNL A   1      36.097  30.945  33.531  1.00  0.00     0.163 HD
ATOM     32  O   UNL A   1      36.246  29.581  31.528  1.00  0.00    -0.269 OA
BRANCH  30  33
ATOM     33  C   UNL A   1      38.525  30.144  31.398  1.00  0.00     0.039 A 
ATOM     34  C   UNL A   1      39.539  29.465  32.077  1.00  0.00     0.014 A 
ATOM     35  C   UNL A   1      38.766  30.705  30.141  1.00  0.00     0.014 A 
ATOM     36  C   UNL A   1      40.776  29.277  31.456  1.00  0.00     0.010 A 
ATOM     37  C   UNL A   1      39.977  30.459  29.498  1.00  0.00     0.010 A 
ATOM     38  C   UNL A   1      40.987  29.730  30.144  1.00  0.00    -0.014 A 
BRANCH  38  39
ATOM     39  C   UNL A   1      42.235  29.403  29.407  1.00  0.00     0.031 A 
ATOM     40  C   UNL A   1      42.453  28.024  28.855  1.00  0.00     0.074 A 
ATOM     41  C   UNL A   1      43.207  30.333  29.316  1.00  0.00     0.049 A 
ATOM     42  N   UNL A   1      43.512  27.530  28.268  1.00  0.00    -0.248 NA
ATOM     43  C   UNL A   1      41.344  27.068  29.000  1.00  0.00     0.031 C 
ATOM     44  C   UNL A   1      43.130  31.692  29.857  1.00  0.00     0.029 A 
ATOM     45  N   UNL A   1      44.458  30.272  28.756  1.00  0.00    -0.354 N 
ATOM     46  C   UNL A   1      43.206  26.205  27.985  1.00  0.00     0.074 A 
ATOM     47  C   UNL A   1      41.876  25.960  28.503  1.00  0.00     0.031 C 
ATOM     48  C   UNL A   1      44.277  32.337  29.593  1.00  0.00     0.029 A 
ATOM     49  C   UNL A   1      45.188  31.427  28.906  1.00  0.00     0.049 A 
ATOM     50  H   UNL A   1      44.801  29.475  28.289  1.00  0.00     0.167 HD
ATOM     51  C   UNL A   1      43.959  25.283  27.337  1.00  0.00     0.037 A 
ATOM     52  C   UNL A   1      46.456  31.717  28.552  1.00  0.00     0.037 A 
ATOM     53  C   UNL A   1      45.274  25.542  26.810  1.00  0.00     0.049 A 
ATOM     54  C   UNL A   1      47.279  30.671  27.855  1.00  0.00     0.074 A 
ATOM     55  C   UNL A   1      46.085  24.699  26.071  1.00  0.00     0.029 A 
ATOM     56  N   UNL A   1      45.978  26.726  26.978  1.00  0.00    -0.354 N 
ATOM     57  N   UNL A   1      46.944  29.446  27.523  1.00  0.00    -0.248 NA
ATOM     58  C   UNL A   1      48.653  31.041  27.486  1.00  0.00     0.031 C 
ATOM     59  C   UNL A   1      47.300  25.352  25.840  1.00  0.00     0.029 A 
ATOM     60  C   UNL A   1      47.229  26.621  26.391  1.00  0.00     0.049 A 
ATOM     61  H   UNL A   1      45.639  27.523  27.446  1.00  0.00     0.167 HD
ATOM     62  C   UNL A   1      48.061  28.903  26.898  1.00  0.00     0.074 A 
ATOM     63  C   UNL A   1      49.073  29.940  26.878  1.00  0.00     0.031 C 
ATOM     64  C   UNL A   1      48.233  27.657  26.391  1.00  0.00     0.037 A 
BRANCH  51  65
ATOM     65  C   UNL A   1      43.382  23.905  27.164  1.00  0.00     0.058 A 
ATOM     66  C   UNL A   1      43.426  22.951  28.194  1.00  0.00     0.135 A 
ATOM     67  C   UNL A   1      42.740  23.545  25.968  1.00  0.00     0.135 A 
ATOM     68  F   UNL A   1      44.039  23.235  29.354  1.00  0.00    -0.206 F 
ATOM     69  C   UNL A   1      42.880  21.681  28.034  1.00  0.00     0.059 A 
ATOM     70  C   UNL A   1      42.162  22.290  25.796  1.00  0.00     0.059 A 
ATOM     71  F   UNL A   1      42.669  24.418  24.951  1.00  0.00    -0.206 F 
ATOM     72  C   UNL A   1      42.250  21.360  26.831  1.00  0.00     0.060 A 
BRANCH  72  73
ATOM     73  S   UNL A   1      41.546  19.709  26.641  1.00  0.00     0.124 S 
ATOM     74  O   UNL A   1      41.857  19.419  25.244  1.00  0.00    -0.237 OA
ATOM     75  O   UNL A   1      42.291  18.937  27.629  1.00  0.00    -0.237 OA
ATOM     76  O   UNL A   1      40.131  19.907  26.939  1.00  0.00    -0.744 OA
ENDBRANCH  72  73
ENDBRANCH  51  65
BRANCH  52  77
ATOM     77  C   UNL A   1      47.020  33.058  28.861  1.00  0.00     0.058 A 
ATOM     78  C   UNL A   1      47.678  33.304  30.075  1.00  0.00     0.135 A 
ATOM     79  C   UNL A   1      46.936  34.112  27.937  1.00  0.00     0.135 A 
ATOM     80  F   UNL A   1      47.776  32.330  30.993  1.00  0.00    -0.206 F 
ATOM     81  C   UNL A   1      48.228  34.548  30.366  1.00  0.00     0.059 A 
ATOM     82  C   UNL A   1      47.500  35.357  28.195  1.00  0.00     0.059 A 
ATOM     83  F   UNL A   1      46.330  33.924  26.754  1.00  0.00    -0.206 F 
ATOM     84  C   UNL A   1      48.140  35.567  29.416  1.00  0.00     0.060 A 
BRANCH  84  85
ATOM     85  S   UNL A   1      48.913  37.158  29.777  1.00  0.00     0.124 S 
ATOM     86  O   UNL A   1      48.481  37.959  28.638  1.00  0.00    -0.237 OA
ATOM     87  O   UNL A   1      48.319  37.501  31.065  1.00  0.00    -0.237 OA
ATOM     88  O   UNL A   1      50.336  36.836  29.819  1.00  0.00    -0.744 OA
ENDBRANCH  84  85
ENDBRANCH  52  77
BRANCH  64  89
ATOM     89  C   UNL A   1      49.567  27.341  25.774  1.00  0.00     0.058 A 
ATOM     90  C   UNL A   1      50.654  26.918  26.556  1.00  0.00     0.135 A 
ATOM     91  C   UNL A   1      49.746  27.405  24.383  1.00  0.00     0.135 A 
ATOM     92  F   UNL A   1      50.537  26.850  27.892  1.00  0.00    -0.206 F 
ATOM     93  C   UNL A   1      51.876  26.586  25.983  1.00  0.00     0.059 A 
ATOM     94  C   UNL A   1      50.952  27.051  23.785  1.00  0.00     0.059 A 
ATOM     95  F   UNL A   1      48.738  27.796  23.588  1.00  0.00    -0.206 F 
ATOM     96  C   UNL A   1      52.015  26.652  24.595  1.00  0.00     0.060 A 
BRANCH  96  97
ATOM     97  S   UNL A   1      53.594  26.174  23.862  1.00  0.00     0.124 S 
ATOM     98  O   UNL A   1      53.922  24.975  24.626  1.00  0.00    -0.237 OA
ATOM     99  O   UNL A   1      53.236  25.959  22.464  1.00  0.00    -0.237 OA
ATOM    100  O   UNL A   1      54.448  27.330  24.113  1.00  0.00    -0.744 OA
ENDBRANCH  96  97
ENDBRANCH  64  89
ENDBRANCH  38  39
ENDBRANCH  30  33
ENDBRANCH  28  29
ENDBRANCH  27  28
ENDBRANCH  26  27
ENDBRANCH  25  26
ENDBRANCH   1  25
TORSDOF 21
ENDMDL
