MODEL 1
REMARK VINA RESULT:     -12.2      0.000      0.000
REMARK SMILES COc1ccc2[nH]c(C(=O)c3cc(C)ccn3)c(CC(=O)NCCCCCCNC(=O)c3ccc(-c4c5nc(c(-c6c(F)cc(S(=O)(=O)[O-])cc6F)c6ccc([nH]6)c(-c6c(F)cc(S(=O)(=O)[O-])cc6F)c6nc(c(-c7c(F)cc(S(=O)(=O)[O-])cc7F)c7ccc4[nH]7)C=C6)C=C5)cc3)c2c1
REMARK SMILES IDX 25 1 24 2 23 3 22 4 20 5 21 6 19 8 18 9 3 10 4 11 99 12 5 13
REMARK SMILES IDX 98 14 6 15 7 16 8 17 2 19 1 20 9 21 10 22 11 23 12 24 17 25
REMARK SMILES IDX 13 26 16 27 14 28 15 29 26 30 27 31 28 32 29 33 30 34 31 36
REMARK SMILES IDX 32 37 33 38 97 39 34 40 96 41 35 42 36 43 37 44 90 45 38 46
REMARK SMILES IDX 95 47 89 48 91 49 39 50 94 51 88 52 87 53 40 55 74 56 53 57
REMARK SMILES IDX 73 58 54 59 57 60 72 61 92 62 55 63 56 64 71 66 93 67 58 68
REMARK SMILES IDX 41 69 42 70 51 71 43 72 44 73 50 74 52 75 45 76 46 77 47 78
REMARK SMILES IDX 48 79 49 80 75 81 76 82 85 83 77 84 78 85 84 86 86 87 79 88
REMARK SMILES IDX 80 89 81 90 82 91 83 92 59 93 60 94 69 95 61 96 62 97 68 98
REMARK SMILES IDX 70 99 63 100 64 101 65 102 66 103 67 104
REMARK H PARENT 22 7 7 18 29 35 91 54 57 65
REMARK Flexibility Score: inf
ROOT
ATOM      1  C   UNL A   1      33.159  28.979  27.251  1.00  0.00     0.002 C 
ENDROOT
BRANCH   1   2
ATOM      2  C   UNL A   1      32.423  28.106  26.226  1.00  0.00     0.021 C 
BRANCH   2   3
ATOM      3  C   UNL A   1      33.068  26.741  25.991  1.00  0.00     0.116 C 
BRANCH   3   4
ATOM      4  N   UNL A   1      32.239  25.658  26.476  1.00  0.00    -0.356 N 
ATOM      5  C   UNL A   1      32.355  24.311  26.288  1.00  0.00     0.224 C 
ATOM      6  O   UNL A   1      31.607  23.589  26.955  1.00  0.00    -0.275 OA
ATOM      7  H   UNL A   1      31.472  25.937  27.028  1.00  0.00     0.163 HD
BRANCH   5   8
ATOM      8  C   UNL A   1      33.454  23.719  25.411  1.00  0.00     0.138 C 
BRANCH   8   9
ATOM      9  C   UNL A   1      32.982  22.942  24.209  1.00  0.00    -0.002 A 
ATOM     10  C   UNL A   1      32.474  19.186  24.816  1.00  0.00     0.119 A 
ATOM     11  C   UNL A   1      32.180  18.866  23.493  1.00  0.00     0.048 A 
ATOM     12  C   UNL A   1      32.711  20.517  25.177  1.00  0.00     0.057 A 
ATOM     13  C   UNL A   1      32.133  19.858  22.504  1.00  0.00     0.030 A 
ATOM     14  C   UNL A   1      32.698  21.532  24.197  1.00  0.00     0.008 A 
ATOM     15  C   UNL A   1      32.400  21.178  22.887  1.00  0.00     0.046 A 
ATOM     16  N   UNL A   1      32.440  22.329  22.141  1.00  0.00    -0.352 N 
ATOM     17  C   UNL A   1      32.707  23.430  22.932  1.00  0.00     0.093 A 
ATOM     18  H   UNL A   1      32.297  22.366  21.167  1.00  0.00     0.167 HD
BRANCH  10  19
ATOM     19  O   UNL A   1      32.534  18.295  25.854  1.00  0.00    -0.497 OA
ATOM     20  C   UNL A   1      32.939  16.972  25.516  1.00  0.00     0.278 C 
ENDBRANCH  10  19
BRANCH  17  21
ATOM     21  C   UNL A   1      32.716  24.815  22.472  1.00  0.00     0.227 C 
ATOM     22  O   UNL A   1      33.644  25.310  21.833  1.00  0.00    -0.285 OA
BRANCH  21  23
ATOM     23  C   UNL A   1      31.593  25.711  22.848  1.00  0.00     0.113 A 
ATOM     24  C   UNL A   1      31.585  27.030  22.401  1.00  0.00     0.036 A 
ATOM     25  N   UNL A   1      30.610  25.162  23.604  1.00  0.00    -0.253 NA
ATOM     26  C   UNL A   1      30.504  27.841  22.751  1.00  0.00    -0.047 A 
ATOM     27  C   UNL A   1      29.566  25.959  23.905  1.00  0.00     0.112 A 
ATOM     28  C   UNL A   1      30.430  29.271  22.310  1.00  0.00     0.044 C 
ATOM     29  C   UNL A   1      29.471  27.286  23.511  1.00  0.00     0.023 A 
ENDBRANCH  21  23
ENDBRANCH  17  21
ENDBRANCH   8   9
ENDBRANCH   5   8
ENDBRANCH   3   4
ENDBRANCH   2   3
ENDBRANCH   1   2
BRANCH   1  30
ATOM     30  C   UNL A   1      33.237  30.471  26.907  1.00  0.00     0.002 C 
BRANCH  30  31
ATOM     31  C   UNL A   1      34.364  31.243  27.597  1.00  0.00     0.021 C 
BRANCH  31  32
ATOM     32  C   UNL A   1      35.324  30.381  28.411  1.00  0.00     0.116 C 
BRANCH  32  33
ATOM     33  N   UNL A   1      35.387  30.799  29.803  1.00  0.00    -0.352 N 
ATOM     34  C   UNL A   1      36.417  30.682  30.700  1.00  0.00     0.251 C 
ATOM     35  H   UNL A   1      34.571  31.228  30.151  1.00  0.00     0.163 HD
ATOM     36  O   UNL A   1      36.217  30.918  31.891  1.00  0.00    -0.269 OA
BRANCH  34  37
ATOM     37  C   UNL A   1      37.761  30.264  30.244  1.00  0.00     0.039 A 
ATOM     38  C   UNL A   1      38.715  29.899  31.199  1.00  0.00     0.014 A 
ATOM     39  C   UNL A   1      38.095  30.265  28.887  1.00  0.00     0.014 A 
ATOM     40  C   UNL A   1      39.992  29.502  30.790  1.00  0.00     0.010 A 
ATOM     41  C   UNL A   1      39.344  29.804  28.478  1.00  0.00     0.010 A 
ATOM     42  C   UNL A   1      40.311  29.434  29.425  1.00  0.00    -0.014 A 
BRANCH  42  43
ATOM     43  C   UNL A   1      41.664  29.025  28.968  1.00  0.00     0.031 A 
ATOM     44  C   UNL A   1      42.771  30.043  28.902  1.00  0.00     0.074 A 
ATOM     45  C   UNL A   1      41.884  27.758  28.566  1.00  0.00     0.049 A 
ATOM     46  N   UNL A   1      43.994  29.909  28.458  1.00  0.00    -0.248 NA
ATOM     47  C   UNL A   1      42.452  31.402  29.371  1.00  0.00     0.031 C 
ATOM     48  C   UNL A   1      40.883  26.689  28.547  1.00  0.00     0.029 A 
ATOM     49  N   UNL A   1      43.021  27.155  28.089  1.00  0.00    -0.354 N 
ATOM     50  C   UNL A   1      44.582  31.163  28.578  1.00  0.00     0.074 A 
ATOM     51  C   UNL A   1      43.566  32.058  29.085  1.00  0.00     0.031 C 
ATOM     52  C   UNL A   1      41.455  25.559  28.099  1.00  0.00     0.029 A 
ATOM     53  C   UNL A   1      42.851  25.828  27.769  1.00  0.00     0.049 A 
ATOM     54  H   UNL A   1      43.877  27.628  27.983  1.00  0.00     0.167 HD
ATOM     55  C   UNL A   1      45.860  31.529  28.316  1.00  0.00     0.037 A 
ATOM     56  C   UNL A   1      43.722  24.933  27.263  1.00  0.00     0.037 A 
ATOM     57  C   UNL A   1      46.877  30.625  27.847  1.00  0.00     0.049 A 
ATOM     58  C   UNL A   1      45.139  25.361  26.991  1.00  0.00     0.074 A 
ATOM     59  C   UNL A   1      48.211  30.887  27.593  1.00  0.00     0.029 A 
ATOM     60  N   UNL A   1      46.673  29.281  27.569  1.00  0.00    -0.354 N 
ATOM     61  N   UNL A   1      45.689  26.542  27.151  1.00  0.00    -0.248 NA
ATOM     62  C   UNL A   1      46.058  24.336  26.479  1.00  0.00     0.031 C 
ATOM     63  C   UNL A   1      48.807  29.709  27.130  1.00  0.00     0.029 A 
ATOM     64  C   UNL A   1      47.855  28.703  27.139  1.00  0.00     0.049 A 
ATOM     65  H   UNL A   1      45.815  28.808  27.664  1.00  0.00     0.167 HD
ATOM     66  C   UNL A   1      47.025  26.391  26.795  1.00  0.00     0.074 A 
ATOM     67  C   UNL A   1      47.201  25.004  26.415  1.00  0.00     0.031 C 
ATOM     68  C   UNL A   1      48.017  27.315  26.784  1.00  0.00     0.037 A 
BRANCH  55  69
ATOM     69  C   UNL A   1      46.232  32.969  28.540  1.00  0.00     0.058 A 
ATOM     70  C   UNL A   1      46.713  33.421  29.781  1.00  0.00     0.135 A 
ATOM     71  C   UNL A   1      46.138  33.904  27.497  1.00  0.00     0.135 A 
ATOM     72  F   UNL A   1      46.808  32.574  30.817  1.00  0.00    -0.206 F 
ATOM     73  C   UNL A   1      47.059  34.752  29.986  1.00  0.00     0.059 A 
ATOM     74  C   UNL A   1      46.505  35.236  27.672  1.00  0.00     0.059 A 
ATOM     75  F   UNL A   1      45.683  33.529  26.291  1.00  0.00    -0.206 F 
ATOM     76  C   UNL A   1      46.950  35.653  28.926  1.00  0.00     0.060 A 
BRANCH  76  77
ATOM     77  S   UNL A   1      47.406  37.377  29.208  1.00  0.00     0.124 S 
ATOM     78  O   UNL A   1      47.448  37.431  30.666  1.00  0.00    -0.237 OA
ATOM     79  O   UNL A   1      48.696  37.474  28.533  1.00  0.00    -0.237 OA
ATOM     80  O   UNL A   1      46.317  38.122  28.584  1.00  0.00    -0.744 OA
ENDBRANCH  76  77
ENDBRANCH  55  69
BRANCH  56  81
ATOM     81  C   UNL A   1      43.289  23.533  27.007  1.00  0.00     0.058 A 
ATOM     82  C   UNL A   1      43.007  23.092  25.706  1.00  0.00     0.135 A 
ATOM     83  C   UNL A   1      43.147  22.610  28.055  1.00  0.00     0.135 A 
ATOM     84  F   UNL A   1      43.123  23.940  24.671  1.00  0.00    -0.206 F 
ATOM     85  C   UNL A   1      42.576  21.794  25.452  1.00  0.00     0.059 A 
ATOM     86  C   UNL A   1      42.742  21.299  27.824  1.00  0.00     0.059 A 
ATOM     87  F   UNL A   1      43.422  22.977  29.316  1.00  0.00    -0.206 F 
ATOM     88  C   UNL A   1      42.446  20.905  26.520  1.00  0.00     0.060 A 
BRANCH  88  89
ATOM     89  S   UNL A   1      41.916  19.212  26.177  1.00  0.00     0.124 S 
ATOM     90  O   UNL A   1      42.287  18.533  27.414  1.00  0.00    -0.237 OA
ATOM     91  O   UNL A   1      40.486  19.380  25.943  1.00  0.00    -0.237 OA
ATOM     92  O   UNL A   1      42.698  18.850  24.998  1.00  0.00    -0.744 OA
ENDBRANCH  88  89
ENDBRANCH  56  81
BRANCH  68  93
ATOM     93  C   UNL A   1      49.395  26.850  26.402  1.00  0.00     0.058 A 
ATOM     94  C   UNL A   1      50.250  26.232  27.326  1.00  0.00     0.135 A 
ATOM     95  C   UNL A   1      49.841  26.979  25.077  1.00  0.00     0.135 A 
ATOM     96  F   UNL A   1      49.873  26.089  28.606  1.00  0.00    -0.206 F 
ATOM     97  C   UNL A   1      51.512  25.778  26.955  1.00  0.00     0.059 A 
ATOM     98  C   UNL A   1      51.087  26.509  24.677  1.00  0.00     0.059 A 
ATOM     99  F   UNL A   1      49.056  27.554  24.151  1.00  0.00    -0.206 F 
ATOM    100  C   UNL A   1      51.921  25.921  25.627  1.00  0.00     0.060 A 
BRANCH 100 101
ATOM    101  S   UNL A   1      53.546  25.296  25.150  1.00  0.00     0.124 S 
ATOM    102  O   UNL A   1      54.415  25.987  26.096  1.00  0.00    -0.237 OA
ATOM    103  O   UNL A   1      53.401  23.857  25.354  1.00  0.00    -0.237 OA
ATOM    104  O   UNL A   1      53.675  25.714  23.756  1.00  0.00    -0.744 OA
ENDBRANCH 100 101
ENDBRANCH  68  93
ENDBRANCH  42  43
ENDBRANCH  34  37
ENDBRANCH  32  33
ENDBRANCH  31  32
ENDBRANCH  30  31
ENDBRANCH   1  30
TORSDOF 20
ENDMDL
MODEL 2
REMARK VINA RESULT:     -12.0      6.126     11.352
REMARK SMILES COc1ccc2[nH]c(C(=O)c3cc(C)ccn3)c(CC(=O)NCCCCCCNC(=O)c3ccc(-c4c5nc(c(-c6c(F)cc(S(=O)(=O)[O-])cc6F)c6ccc([nH]6)c(-c6c(F)cc(S(=O)(=O)[O-])cc6F)c6nc(c(-c7c(F)cc(S(=O)(=O)[O-])cc7F)c7ccc4[nH]7)C=C6)C=C5)cc3)c2c1
REMARK SMILES IDX 25 1 24 2 23 3 22 4 20 5 21 6 19 8 18 9 3 10 4 11 99 12 5 13
REMARK SMILES IDX 98 14 6 15 7 16 8 17 2 19 1 20 9 21 10 22 11 23 12 24 17 25
REMARK SMILES IDX 13 26 16 27 14 28 15 29 26 30 27 31 28 32 29 33 30 34 31 36
REMARK SMILES IDX 32 37 33 38 97 39 34 40 96 41 35 42 36 43 37 44 90 45 38 46
REMARK SMILES IDX 95 47 89 48 91 49 39 50 94 51 88 52 87 53 40 55 74 56 53 57
REMARK SMILES IDX 73 58 54 59 57 60 72 61 92 62 55 63 56 64 71 66 93 67 58 68
REMARK SMILES IDX 41 69 42 70 51 71 43 72 44 73 50 74 52 75 45 76 46 77 47 78
REMARK SMILES IDX 48 79 49 80 75 81 76 82 85 83 77 84 78 85 84 86 86 87 79 88
REMARK SMILES IDX 80 89 81 90 82 91 83 92 59 93 60 94 69 95 61 96 62 97 68 98
REMARK SMILES IDX 70 99 63 100 64 101 65 102 66 103 67 104
REMARK H PARENT 22 7 7 18 29 35 91 54 57 65
REMARK Flexibility Score: inf
ROOT
ATOM      1  C   UNL A   1      39.999  22.543  27.378  1.00  0.00     0.002 C 
ENDROOT
BRANCH   1   2
ATOM      2  C   UNL A   1      39.277  23.516  26.437  1.00  0.00     0.021 C 
BRANCH   2   3
ATOM      3  C   UNL A   1      37.860  23.083  26.059  1.00  0.00     0.116 C 
BRANCH   3   4
ATOM      4  N   UNL A   1      37.698  22.950  24.626  1.00  0.00    -0.356 N 
ATOM      5  C   UNL A   1      36.579  23.072  23.855  1.00  0.00     0.224 C 
ATOM      6  O   UNL A   1      36.745  23.076  22.631  1.00  0.00    -0.275 OA
ATOM      7  H   UNL A   1      38.524  22.738  24.132  1.00  0.00     0.163 HD
BRANCH   5   8
ATOM      8  C   UNL A   1      35.210  23.340  24.471  1.00  0.00     0.138 C 
BRANCH   8   9
ATOM      9  C   UNL A   1      34.036  22.742  23.738  1.00  0.00    -0.002 A 
ATOM     10  C   UNL A   1      33.410  19.024  24.458  1.00  0.00     0.119 A 
ATOM     11  C   UNL A   1      32.381  18.871  23.533  1.00  0.00     0.048 A 
ATOM     12  C   UNL A   1      34.002  20.279  24.644  1.00  0.00     0.057 A 
ATOM     13  C   UNL A   1      31.934  19.954  22.765  1.00  0.00     0.030 A 
ATOM     14  C   UNL A   1      33.591  21.381  23.864  1.00  0.00     0.008 A 
ATOM     15  C   UNL A   1      32.561  21.192  22.951  1.00  0.00     0.046 A 
ATOM     16  N   UNL A   1      32.344  22.400  22.336  1.00  0.00    -0.352 N 
ATOM     17  C   UNL A   1      33.167  23.382  22.854  1.00  0.00     0.093 A 
ATOM     18  H   UNL A   1      31.687  22.548  21.617  1.00  0.00     0.167 HD
BRANCH  10  19
ATOM     19  O   UNL A   1      33.910  18.034  25.261  1.00  0.00    -0.497 OA
ATOM     20  C   UNL A   1      33.012  16.973  25.573  1.00  0.00     0.278 C 
ENDBRANCH  10  19
BRANCH  17  21
ATOM     21  C   UNL A   1      33.121  24.795  22.495  1.00  0.00     0.227 C 
ATOM     22  O   UNL A   1      34.044  25.381  21.930  1.00  0.00    -0.285 OA
BRANCH  21  23
ATOM     23  C   UNL A   1      31.941  25.605  22.891  1.00  0.00     0.113 A 
ATOM     24  C   UNL A   1      31.939  26.978  22.662  1.00  0.00     0.036 A 
ATOM     25  N   UNL A   1      30.903  24.929  23.444  1.00  0.00    -0.253 NA
ATOM     26  C   UNL A   1      30.806  27.709  23.024  1.00  0.00    -0.047 A 
ATOM     27  C   UNL A   1      29.811  25.653  23.759  1.00  0.00     0.112 A 
ATOM     28  C   UNL A   1      30.735  29.191  22.812  1.00  0.00     0.044 C 
ATOM     29  C   UNL A   1      29.719  27.025  23.575  1.00  0.00     0.023 A 
ENDBRANCH  21  23
ENDBRANCH  17  21
ENDBRANCH   8   9
ENDBRANCH   5   8
ENDBRANCH   3   4
ENDBRANCH   2   3
ENDBRANCH   1   2
BRANCH   1  30
ATOM     30  C   UNL A   1      41.429  22.172  26.968  1.00  0.00     0.002 C 
BRANCH  30  31
ATOM     31  C   UNL A   1      42.506  22.460  28.016  1.00  0.00     0.021 C 
BRANCH  31  32
ATOM     32  C   UNL A   1      43.500  23.550  27.628  1.00  0.00     0.116 C 
BRANCH  32  33
ATOM     33  N   UNL A   1      43.135  24.200  26.378  1.00  0.00    -0.352 N 
ATOM     34  C   UNL A   1      42.447  25.368  26.174  1.00  0.00     0.251 C 
ATOM     35  H   UNL A   1      43.426  23.734  25.561  1.00  0.00     0.163 HD
ATOM     36  O   UNL A   1      42.063  25.660  25.041  1.00  0.00    -0.269 OA
BRANCH  34  37
ATOM     37  C   UNL A   1      42.154  26.271  27.309  1.00  0.00     0.039 A 
ATOM     38  C   UNL A   1      42.935  27.418  27.480  1.00  0.00     0.014 A 
ATOM     39  C   UNL A   1      41.138  25.974  28.223  1.00  0.00     0.014 A 
ATOM     40  C   UNL A   1      42.675  28.283  28.547  1.00  0.00     0.010 A 
ATOM     41  C   UNL A   1      40.837  26.872  29.244  1.00  0.00     0.010 A 
ATOM     42  C   UNL A   1      41.613  28.027  29.427  1.00  0.00    -0.014 A 
BRANCH  42  43
ATOM     43  C   UNL A   1      41.325  28.928  30.573  1.00  0.00     0.031 A 
ATOM     44  C   UNL A   1      42.148  28.826  31.830  1.00  0.00     0.074 A 
ATOM     45  C   UNL A   1      40.298  29.798  30.504  1.00  0.00     0.049 A 
ATOM     46  N   UNL A   1      42.008  29.461  32.965  1.00  0.00    -0.248 NA
ATOM     47  C   UNL A   1      43.259  27.860  31.819  1.00  0.00     0.031 C 
ATOM     48  C   UNL A   1      39.404  29.964  29.356  1.00  0.00     0.029 A 
ATOM     49  N   UNL A   1      39.827  30.702  31.423  1.00  0.00    -0.354 N 
ATOM     50  C   UNL A   1      42.998  28.962  33.804  1.00  0.00     0.074 A 
ATOM     51  C   UNL A   1      43.696  27.933  33.067  1.00  0.00     0.031 C 
ATOM     52  C   UNL A   1      38.506  30.924  29.633  1.00  0.00     0.029 A 
ATOM     53  C   UNL A   1      38.738  31.418  30.988  1.00  0.00     0.049 A 
ATOM     54  H   UNL A   1      40.231  30.824  32.313  1.00  0.00     0.167 HD
ATOM     55  C   UNL A   1      43.312  29.345  35.064  1.00  0.00     0.037 A 
ATOM     56  C   UNL A   1      38.007  32.362  31.611  1.00  0.00     0.037 A 
ATOM     57  C   UNL A   1      42.638  30.395  35.780  1.00  0.00     0.049 A 
ATOM     58  C   UNL A   1      38.384  32.779  33.007  1.00  0.00     0.074 A 
ATOM     59  C   UNL A   1      42.909  30.889  37.044  1.00  0.00     0.029 A 
ATOM     60  N   UNL A   1      41.561  31.121  35.290  1.00  0.00    -0.354 N 
ATOM     61  N   UNL A   1      39.350  32.326  33.770  1.00  0.00    -0.248 NA
ATOM     62  C   UNL A   1      37.580  33.842  33.625  1.00  0.00     0.031 C 
ATOM     63  C   UNL A   1      41.976  31.891  37.331  1.00  0.00     0.029 A 
ATOM     64  C   UNL A   1      41.152  32.052  36.229  1.00  0.00     0.049 A 
ATOM     65  H   UNL A   1      41.149  30.992  34.405  1.00  0.00     0.167 HD
ATOM     66  C   UNL A   1      39.292  33.073  34.942  1.00  0.00     0.074 A 
ATOM     67  C   UNL A   1      38.200  34.010  34.785  1.00  0.00     0.031 C 
ATOM     68  C   UNL A   1      40.074  32.992  36.048  1.00  0.00     0.037 A 
BRANCH  55  69
ATOM     69  C   UNL A   1      44.445  28.628  35.748  1.00  0.00     0.058 A 
ATOM     70  C   UNL A   1      44.223  27.500  36.554  1.00  0.00     0.135 A 
ATOM     71  C   UNL A   1      45.772  29.053  35.571  1.00  0.00     0.135 A 
ATOM     72  F   UNL A   1      42.974  27.060  36.771  1.00  0.00    -0.206 F 
ATOM     73  C   UNL A   1      45.271  26.837  37.183  1.00  0.00     0.059 A 
ATOM     74  C   UNL A   1      46.839  28.388  36.167  1.00  0.00     0.059 A 
ATOM     75  F   UNL A   1      46.043  30.127  34.811  1.00  0.00    -0.206 F 
ATOM     76  C   UNL A   1      46.577  27.290  36.985  1.00  0.00     0.060 A 
BRANCH  76  77
ATOM     77  S   UNL A   1      47.927  26.417  37.806  1.00  0.00     0.124 S 
ATOM     78  O   UNL A   1      47.360  25.081  37.956  1.00  0.00    -0.237 OA
ATOM     79  O   UNL A   1      49.014  26.539  36.839  1.00  0.00    -0.237 OA
ATOM     80  O   UNL A   1      48.109  27.164  39.047  1.00  0.00    -0.744 OA
ENDBRANCH  76  77
ENDBRANCH  55  69
BRANCH  56  81
ATOM     81  C   UNL A   1      36.861  33.002  30.911  1.00  0.00     0.058 A 
ATOM     82  C   UNL A   1      37.069  34.016  29.965  1.00  0.00     0.135 A 
ATOM     83  C   UNL A   1      35.537  32.615  31.173  1.00  0.00     0.135 A 
ATOM     84  F   UNL A   1      38.317  34.424  29.683  1.00  0.00    -0.206 F 
ATOM     85  C   UNL A   1      36.008  34.643  29.320  1.00  0.00     0.059 A 
ATOM     86  C   UNL A   1      34.461  33.209  30.523  1.00  0.00     0.059 A 
ATOM     87  F   UNL A   1      35.285  31.637  32.056  1.00  0.00    -0.206 F 
ATOM     88  C   UNL A   1      34.706  34.232  29.608  1.00  0.00     0.060 A 
BRANCH  88  89
ATOM     89  S   UNL A   1      33.335  35.030  28.743  1.00  0.00     0.124 S 
ATOM     90  O   UNL A   1      34.033  36.038  27.954  1.00  0.00    -0.237 OA
ATOM     91  O   UNL A   1      32.756  33.919  27.994  1.00  0.00    -0.237 OA
ATOM     92  O   UNL A   1      32.506  35.541  29.831  1.00  0.00    -0.744 OA
ENDBRANCH  88  89
ENDBRANCH  56  81
BRANCH  68  93
ATOM     93  C   UNL A   1      39.815  33.976  37.154  1.00  0.00     0.058 A 
ATOM     94  C   UNL A   1      38.923  33.694  38.200  1.00  0.00     0.135 A 
ATOM     95  C   UNL A   1      40.509  35.195  37.193  1.00  0.00     0.135 A 
ATOM     96  F   UNL A   1      38.230  32.544  38.207  1.00  0.00    -0.206 F 
ATOM     97  C   UNL A   1      38.712  34.598  39.236  1.00  0.00     0.059 A 
ATOM     98  C   UNL A   1      40.334  36.103  38.232  1.00  0.00     0.059 A 
ATOM     99  F   UNL A   1      41.382  35.508  36.221  1.00  0.00    -0.206 F 
ATOM    100  C   UNL A   1      39.423  35.801  39.243  1.00  0.00     0.060 A 
BRANCH 100 101
ATOM    101  S   UNL A   1      39.167  36.951  40.611  1.00  0.00     0.124 S 
ATOM    102  O   UNL A   1      40.527  37.414  40.863  1.00  0.00    -0.237 OA
ATOM    103  O   UNL A   1      38.259  37.934  40.027  1.00  0.00    -0.237 OA
ATOM    104  O   UNL A   1      38.585  36.112  41.655  1.00  0.00    -0.744 OA
ENDBRANCH 100 101
ENDBRANCH  68  93
ENDBRANCH  42  43
ENDBRANCH  34  37
ENDBRANCH  32  33
ENDBRANCH  31  32
ENDBRANCH  30  31
ENDBRANCH   1  30
TORSDOF 20
ENDMDL
MODEL 3
REMARK VINA RESULT:     -12.0      1.373      3.725
REMARK SMILES COc1ccc2[nH]c(C(=O)c3cc(C)ccn3)c(CC(=O)NCCCCCCNC(=O)c3ccc(-c4c5nc(c(-c6c(F)cc(S(=O)(=O)[O-])cc6F)c6ccc([nH]6)c(-c6c(F)cc(S(=O)(=O)[O-])cc6F)c6nc(c(-c7c(F)cc(S(=O)(=O)[O-])cc7F)c7ccc4[nH]7)C=C6)C=C5)cc3)c2c1
REMARK SMILES IDX 25 1 24 2 23 3 22 4 20 5 21 6 19 8 18 9 3 10 4 11 99 12 5 13
REMARK SMILES IDX 98 14 6 15 7 16 8 17 2 19 1 20 9 21 10 22 11 23 12 24 17 25
REMARK SMILES IDX 13 26 16 27 14 28 15 29 26 30 27 31 28 32 29 33 30 34 31 36
REMARK SMILES IDX 32 37 33 38 97 39 34 40 96 41 35 42 36 43 37 44 90 45 38 46
REMARK SMILES IDX 95 47 89 48 91 49 39 50 94 51 88 52 87 53 40 55 74 56 53 57
REMARK SMILES IDX 73 58 54 59 57 60 72 61 92 62 55 63 56 64 71 66 93 67 58 68
REMARK SMILES IDX 41 69 42 70 51 71 43 72 44 73 50 74 52 75 45 76 46 77 47 78
REMARK SMILES IDX 48 79 49 80 75 81 76 82 85 83 77 84 78 85 84 86 86 87 79 88
REMARK SMILES IDX 80 89 81 90 82 91 83 92 59 93 60 94 69 95 61 96 62 97 68 98
REMARK SMILES IDX 70 99 63 100 64 101 65 102 66 103 67 104
REMARK H PARENT 22 7 7 18 29 35 91 54 57 65
REMARK Flexibility Score: inf
ROOT
ATOM      1  C   UNL A   1      32.349  28.358  26.416  1.00  0.00     0.002 C 
ENDROOT
BRANCH   1   2
ATOM      2  C   UNL A   1      31.284  27.466  27.067  1.00  0.00     0.021 C 
BRANCH   2   3
ATOM      3  C   UNL A   1      30.668  26.437  26.120  1.00  0.00     0.116 C 
BRANCH   3   4
ATOM      4  N   UNL A   1      30.707  25.099  26.673  1.00  0.00    -0.356 N 
ATOM      5  C   UNL A   1      31.736  24.205  26.734  1.00  0.00     0.224 C 
ATOM      6  O   UNL A   1      31.551  23.190  27.413  1.00  0.00    -0.275 OA
ATOM      7  H   UNL A   1      29.859  24.786  27.066  1.00  0.00     0.163 HD
BRANCH   5   8
ATOM      8  C   UNL A   1      33.098  24.512  26.121  1.00  0.00     0.138 C 
BRANCH   8   9
ATOM      9  C   UNL A   1      33.285  24.071  24.692  1.00  0.00    -0.002 A 
ATOM     10  C   UNL A   1      32.090  26.593  22.057  1.00  0.00     0.119 A 
ATOM     11  C   UNL A   1      32.321  25.772  20.957  1.00  0.00     0.048 A 
ATOM     12  C   UNL A   1      32.418  26.149  23.343  1.00  0.00     0.057 A 
ATOM     13  C   UNL A   1      32.864  24.489  21.116  1.00  0.00     0.030 A 
ATOM     14  C   UNL A   1      32.939  24.851  23.535  1.00  0.00     0.008 A 
ATOM     15  C   UNL A   1      33.157  24.058  22.415  1.00  0.00     0.046 A 
ATOM     16  N   UNL A   1      33.671  22.867  22.863  1.00  0.00    -0.352 N 
ATOM     17  C   UNL A   1      33.841  22.876  24.234  1.00  0.00     0.093 A 
ATOM     18  H   UNL A   1      33.891  22.103  22.280  1.00  0.00     0.167 HD
BRANCH  10  19
ATOM     19  O   UNL A   1      31.575  27.861  22.006  1.00  0.00    -0.497 OA
ATOM     20  C   UNL A   1      32.134  28.797  22.922  1.00  0.00     0.278 C 
ENDBRANCH  10  19
BRANCH  17  21
ATOM     21  C   UNL A   1      34.459  21.809  25.013  1.00  0.00     0.227 C 
ATOM     22  O   UNL A   1      33.819  20.911  25.559  1.00  0.00    -0.285 OA
BRANCH  21  23
ATOM     23  C   UNL A   1      35.928  21.832  25.236  1.00  0.00     0.113 A 
ATOM     24  C   UNL A   1      36.533  22.987  25.722  1.00  0.00     0.036 A 
ATOM     25  N   UNL A   1      36.596  20.683  24.964  1.00  0.00    -0.253 NA
ATOM     26  C   UNL A   1      37.911  22.970  25.944  1.00  0.00    -0.047 A 
ATOM     27  C   UNL A   1      37.921  20.685  25.212  1.00  0.00     0.112 A 
ATOM     28  C   UNL A   1      38.632  24.177  26.461  1.00  0.00     0.044 C 
ATOM     29  C   UNL A   1      38.613  21.788  25.691  1.00  0.00     0.023 A 
ENDBRANCH  21  23
ENDBRANCH  17  21
ENDBRANCH   8   9
ENDBRANCH   5   8
ENDBRANCH   3   4
ENDBRANCH   2   3
ENDBRANCH   1   2
BRANCH   1  30
ATOM     30  C   UNL A   1      33.613  28.590  27.253  1.00  0.00     0.002 C 
BRANCH  30  31
ATOM     31  C   UNL A   1      34.121  30.033  27.285  1.00  0.00     0.021 C 
BRANCH  31  32
ATOM     32  C   UNL A   1      35.525  30.204  27.857  1.00  0.00     0.116 C 
BRANCH  32  33
ATOM     33  N   UNL A   1      35.501  30.496  29.282  1.00  0.00    -0.352 N 
ATOM     34  C   UNL A   1      36.469  30.285  30.229  1.00  0.00     0.251 C 
ATOM     35  H   UNL A   1      34.668  30.904  29.614  1.00  0.00     0.163 HD
ATOM     36  O   UNL A   1      36.195  30.417  31.422  1.00  0.00    -0.269 OA
BRANCH  34  37
ATOM     37  C   UNL A   1      37.837  29.889  29.824  1.00  0.00     0.039 A 
ATOM     38  C   UNL A   1      38.199  29.988  28.477  1.00  0.00     0.014 A 
ATOM     39  C   UNL A   1      38.748  29.389  30.759  1.00  0.00     0.014 A 
ATOM     40  C   UNL A   1      39.485  29.618  28.074  1.00  0.00     0.010 A 
ATOM     41  C   UNL A   1      40.050  29.087  30.367  1.00  0.00     0.010 A 
ATOM     42  C   UNL A   1      40.427  29.181  29.019  1.00  0.00    -0.014 A 
BRANCH  42  43
ATOM     43  C   UNL A   1      41.797  28.774  28.611  1.00  0.00     0.031 A 
ATOM     44  C   UNL A   1      42.895  29.802  28.550  1.00  0.00     0.074 A 
ATOM     45  C   UNL A   1      42.041  27.499  28.248  1.00  0.00     0.049 A 
ATOM     46  N   UNL A   1      44.132  29.669  28.145  1.00  0.00    -0.248 NA
ATOM     47  C   UNL A   1      42.550  31.169  28.975  1.00  0.00     0.031 C 
ATOM     48  C   UNL A   1      41.050  26.421  28.228  1.00  0.00     0.029 A 
ATOM     49  N   UNL A   1      43.196  26.896  27.819  1.00  0.00    -0.354 N 
ATOM     50  C   UNL A   1      44.704  30.932  28.250  1.00  0.00     0.074 A 
ATOM     51  C   UNL A   1      43.666  31.829  28.705  1.00  0.00     0.031 C 
ATOM     52  C   UNL A   1      41.645  25.285  27.826  1.00  0.00     0.029 A 
ATOM     53  C   UNL A   1      43.048  25.561  27.528  1.00  0.00     0.049 A 
ATOM     54  H   UNL A   1      44.050  27.376  27.725  1.00  0.00     0.167 HD
ATOM     55  C   UNL A   1      45.985  31.304  28.014  1.00  0.00     0.037 A 
ATOM     56  C   UNL A   1      43.941  24.662  27.070  1.00  0.00     0.037 A 
ATOM     57  C   UNL A   1      47.024  30.399  27.597  1.00  0.00     0.049 A 
ATOM     58  C   UNL A   1      45.361  25.098  26.827  1.00  0.00     0.074 A 
ATOM     59  C   UNL A   1      48.362  30.669  27.374  1.00  0.00     0.029 A 
ATOM     60  N   UNL A   1      46.841  29.046  27.347  1.00  0.00    -0.354 N 
ATOM     61  N   UNL A   1      45.895  26.287  26.973  1.00  0.00    -0.248 NA
ATOM     62  C   UNL A   1      46.304  24.069  26.367  1.00  0.00     0.031 C 
ATOM     63  C   UNL A   1      48.983  29.485  26.958  1.00  0.00     0.029 A 
ATOM     64  C   UNL A   1      48.040  28.470  26.967  1.00  0.00     0.049 A 
ATOM     65  H   UNL A   1      45.984  28.567  27.431  1.00  0.00     0.167 HD
ATOM     66  C   UNL A   1      47.242  26.141  26.658  1.00  0.00     0.074 A 
ATOM     67  C   UNL A   1      47.442  24.747  26.319  1.00  0.00     0.031 C 
ATOM     68  C   UNL A   1      48.226  27.075  26.652  1.00  0.00     0.037 A 
BRANCH  55  69
ATOM     69  C   UNL A   1      46.337  32.753  28.212  1.00  0.00     0.058 A 
ATOM     70  C   UNL A   1      46.210  33.690  27.173  1.00  0.00     0.135 A 
ATOM     71  C   UNL A   1      46.776  33.219  29.462  1.00  0.00     0.135 A 
ATOM     72  F   UNL A   1      45.811  33.297  25.954  1.00  0.00    -0.206 F 
ATOM     73  C   UNL A   1      46.534  35.030  27.358  1.00  0.00     0.059 A 
ATOM     74  C   UNL A   1      47.077  34.561  29.677  1.00  0.00     0.059 A 
ATOM     75  F   UNL A   1      46.916  32.368  30.490  1.00  0.00    -0.206 F 
ATOM     76  C   UNL A   1      46.968  35.456  28.614  1.00  0.00     0.060 A 
BRANCH  76  77
ATOM     77  S   UNL A   1      47.381  37.199  28.839  1.00  0.00     0.124 S 
ATOM     78  O   UNL A   1      48.713  37.260  28.246  1.00  0.00    -0.237 OA
ATOM     79  O   UNL A   1      46.323  37.871  28.090  1.00  0.00    -0.237 OA
ATOM     80  O   UNL A   1      47.330  37.376  30.286  1.00  0.00    -0.744 OA
ENDBRANCH  76  77
ENDBRANCH  55  69
BRANCH  56  81
ATOM     81  C   UNL A   1      43.529  23.252  26.838  1.00  0.00     0.058 A 
ATOM     82  C   UNL A   1      43.290  22.384  27.914  1.00  0.00     0.135 A 
ATOM     83  C   UNL A   1      43.367  22.743  25.540  1.00  0.00     0.135 A 
ATOM     84  F   UNL A   1      43.437  22.823  29.174  1.00  0.00    -0.206 F 
ATOM     85  C   UNL A   1      42.929  21.056  27.714  1.00  0.00     0.059 A 
ATOM     86  C   UNL A   1      42.982  21.425  25.315  1.00  0.00     0.059 A 
ATOM     87  F   UNL A   1      43.565  23.537  24.477  1.00  0.00    -0.206 F 
ATOM     88  C   UNL A   1      42.779  20.585  26.409  1.00  0.00     0.060 A 
BRANCH  88  89
ATOM     89  S   UNL A   1      42.280  18.868  26.160  1.00  0.00     0.124 S 
ATOM     90  O   UNL A   1      42.542  18.292  27.474  1.00  0.00    -0.237 OA
ATOM     91  O   UNL A   1      40.875  19.006  25.791  1.00  0.00    -0.237 OA
ATOM     92  O   UNL A   1      43.160  18.417  25.085  1.00  0.00    -0.744 OA
ENDBRANCH  88  89
ENDBRANCH  56  81
BRANCH  68  93
ATOM     93  C   UNL A   1      49.618  26.615  26.320  1.00  0.00     0.058 A 
ATOM     94  C   UNL A   1      50.165  26.780  25.040  1.00  0.00     0.135 A 
ATOM     95  C   UNL A   1      50.430  26.049  27.315  1.00  0.00     0.135 A 
ATOM     96  F   UNL A   1      49.428  27.312  24.051  1.00  0.00    -0.206 F 
ATOM     97  C   UNL A   1      51.465  26.378  24.750  1.00  0.00     0.059 A 
ATOM     98  C   UNL A   1      51.741  25.664  27.056  1.00  0.00     0.059 A 
ATOM     99  F   UNL A   1      49.956  25.879  28.560  1.00  0.00    -0.206 F 
ATOM    100  C   UNL A   1      52.246  25.822  25.766  1.00  0.00     0.060 A 
BRANCH 100 101
ATOM    101  S   UNL A   1      53.944  25.336  25.387  1.00  0.00     0.124 S 
ATOM    102  O   UNL A   1      54.115  25.891  24.049  1.00  0.00    -0.237 OA
ATOM    103  O   UNL A   1      54.702  25.993  26.448  1.00  0.00    -0.237 OA
ATOM    104  O   UNL A   1      53.905  23.878  25.464  1.00  0.00    -0.744 OA
ENDBRANCH 100 101
ENDBRANCH  68  93
ENDBRANCH  42  43
ENDBRANCH  34  37
ENDBRANCH  32  33
ENDBRANCH  31  32
ENDBRANCH  30  31
ENDBRANCH   1  30
TORSDOF 20
ENDMDL
