MODEL 1
REMARK VINA RESULT:     -11.9      0.000      0.000
REMARK SMILES COc1cc(/C=C2/S/C(=[NH+]\C(C)=O)NC2=O)cc(Br)c1OCC(=O)NCCCCCCNC(=O)c1ccc(-c2c3nc(c(-c4c(F)cc(S(=O)(=O)[O-])cc4F)c4ccc([nH]4)c(-c4c(F)cc(S(=O)(=O)[O-])cc4F)c4nc(c(-c5c(F)cc(S(=O)(=O)[O-])cc5F)c5ccc2[nH]5)C=C4)C=C3)cc1
REMARK SMILES IDX 28 1 27 2 26 3 25 4 23 5 24 6 22 8 21 9 20 10 3 11 4 12 5 13
REMARK SMILES IDX 18 14 17 15 19 16 2 17 1 18 6 19 7 20 8 21 15 22 9 23 14 24
REMARK SMILES IDX 16 25 10 26 11 28 12 30 13 31 29 32 30 33 31 34 32 35 33 36
REMARK SMILES IDX 34 38 35 39 36 40 100 41 37 42 99 43 38 44 39 45 40 46 93 47
REMARK SMILES IDX 41 48 98 49 92 50 94 51 42 52 97 53 91 54 90 55 43 57 77 58
REMARK SMILES IDX 56 59 76 60 57 61 60 62 75 63 95 64 58 65 59 66 74 68 96 69
REMARK SMILES IDX 61 70 44 71 45 72 54 73 46 74 47 75 53 76 55 77 48 78 49 79
REMARK SMILES IDX 50 80 51 81 52 82 78 83 79 84 88 85 80 86 81 87 87 88 89 89
REMARK SMILES IDX 82 90 83 91 84 92 85 93 86 94 62 95 63 96 72 97 64 98 65 99
REMARK SMILES IDX 71 100 73 101 66 102 67 103 68 104 69 105 70 106
REMARK H PARENT 25 7 14 27 10 29 32 37 94 56 60 67
REMARK Flexibility Score: inf
ROOT
ATOM      1  C   UNL A   1      36.610  23.226  25.471  1.00  0.00     0.002 C 
ENDROOT
BRANCH   1   2
ATOM      2  C   UNL A   1      36.433  21.703  25.518  1.00  0.00     0.021 C 
BRANCH   2   3
ATOM      3  C   UNL A   1      35.255  21.164  24.712  1.00  0.00     0.116 C 
BRANCH   3   4
ATOM      4  N   UNL A   1      34.643  20.025  25.362  1.00  0.00    -0.353 N 
ATOM      5  C   UNL A   1      33.325  19.799  25.626  1.00  0.00     0.257 C 
ATOM      6  O   UNL A   1      33.013  18.724  26.142  1.00  0.00    -0.271 OA
ATOM      7  H   UNL A   1      35.262  19.317  25.653  1.00  0.00     0.163 HD
BRANCH   5   8
ATOM      8  C   UNL A   1      32.273  20.833  25.193  1.00  0.00     0.329 C 
BRANCH   8   9
ATOM      9  O   UNL A   1      32.281  22.164  25.668  1.00  0.00    -0.479 OA
BRANCH   9  10
ATOM     10  C   UNL A   1      31.623  23.162  24.999  1.00  0.00     0.176 A 
ATOM     11  C   UNL A   1      30.715  23.896  25.805  1.00  0.00     0.162 A 
ATOM     12  C   UNL A   1      30.003  24.982  25.277  1.00  0.00     0.058 A 
ATOM     13  C   UNL A   1      30.156  25.338  23.940  1.00  0.00    -0.019 A 
ATOM     14  C   UNL A   1      31.825  23.578  23.675  1.00  0.00     0.064 A 
ATOM     15  C   UNL A   1      31.072  24.640  23.149  1.00  0.00     0.028 A 
ATOM     16  Br  UNL A   1      33.181  22.929  22.513  1.00  0.00    -0.047 Br
BRANCH  11  17
ATOM     17  O   UNL A   1      30.613  23.502  27.122  1.00  0.00    -0.493 OA
ATOM     18  C   UNL A   1      29.454  22.762  27.490  1.00  0.00     0.278 C 
ENDBRANCH  11  17
BRANCH  13  19
ATOM     19  C   UNL A   1      29.386  26.455  23.384  1.00  0.00     0.032 C 
ATOM     20  C   UNL A   1      29.811  27.726  23.360  1.00  0.00     0.110 C 
ATOM     21  S   UNL A   1      28.837  29.062  22.836  1.00  0.00     0.007 SA
ATOM     22  C   UNL A   1      31.121  28.243  23.848  1.00  0.00     0.346 C 
ATOM     23  C   UNL A   1      29.903  30.229  23.558  1.00  0.00     0.324 C 
ATOM     24  N   UNL A   1      31.043  29.603  23.953  1.00  0.00    -0.199 N 
ATOM     25  O   UNL A   1      32.108  27.589  24.119  1.00  0.00    -0.240 OA
ATOM     26  N   UNL A   1      29.818  31.487  23.774  1.00  0.00    -0.204 N 
ATOM     27  H   UNL A   1      31.800  30.122  24.310  1.00  0.00     0.316 HD
ATOM     28  C   UNL A   1      28.820  32.364  23.451  1.00  0.00     0.304 C 
ATOM     29  H   UNL A   1      30.586  31.883  24.246  1.00  0.00     0.316 HD
ATOM     30  C   UNL A   1      27.383  31.955  23.285  1.00  0.00     0.144 C 
ATOM     31  O   UNL A   1      29.077  33.566  23.356  1.00  0.00    -0.247 OA
ENDBRANCH  13  19
ENDBRANCH   9  10
ENDBRANCH   8   9
ENDBRANCH   5   8
ENDBRANCH   3   4
ENDBRANCH   2   3
ENDBRANCH   1   2
BRANCH   1  32
ATOM     32  C   UNL A   1      37.878  23.768  26.139  1.00  0.00     0.002 C 
BRANCH  32  33
ATOM     33  C   UNL A   1      38.974  22.733  26.395  1.00  0.00     0.021 C 
BRANCH  33  34
ATOM     34  C   UNL A   1      40.242  23.288  27.035  1.00  0.00     0.116 C 
BRANCH  34  35
ATOM     35  N   UNL A   1      41.137  23.885  26.059  1.00  0.00    -0.352 N 
ATOM     36  C   UNL A   1      41.636  25.163  26.009  1.00  0.00     0.251 C 
ATOM     37  H   UNL A   1      41.428  23.288  25.332  1.00  0.00     0.163 HD
ATOM     38  O   UNL A   1      42.237  25.547  25.009  1.00  0.00    -0.269 OA
BRANCH  36  39
ATOM     39  C   UNL A   1      41.431  26.082  27.151  1.00  0.00     0.039 A 
ATOM     40  C   UNL A   1      40.409  25.810  28.063  1.00  0.00     0.014 A 
ATOM     41  C   UNL A   1      42.239  27.211  27.319  1.00  0.00     0.014 A 
ATOM     42  C   UNL A   1      40.232  26.641  29.171  1.00  0.00     0.010 A 
ATOM     43  C   UNL A   1      42.114  27.989  28.466  1.00  0.00     0.010 A 
ATOM     44  C   UNL A   1      41.103  27.721  29.401  1.00  0.00    -0.014 A 
BRANCH  44  45
ATOM     45  C   UNL A   1      40.963  28.580  30.605  1.00  0.00     0.031 A 
ATOM     46  C   UNL A   1      39.909  29.656  30.649  1.00  0.00     0.074 A 
ATOM     47  C   UNL A   1      41.817  28.429  31.636  1.00  0.00     0.049 A 
ATOM     48  N   UNL A   1      39.667  30.537  31.584  1.00  0.00    -0.248 NA
ATOM     49  C   UNL A   1      39.029  29.774  29.475  1.00  0.00     0.031 C 
ATOM     50  C   UNL A   1      42.910  27.455  31.694  1.00  0.00     0.029 A 
ATOM     51  N   UNL A   1      41.908  29.096  32.833  1.00  0.00    -0.354 N 
ATOM     52  C   UNL A   1      38.620  31.319  31.109  1.00  0.00     0.074 A 
ATOM     53  C   UNL A   1      38.313  30.847  29.777  1.00  0.00     0.031 C 
ATOM     54  C   UNL A   1      43.543  27.571  32.872  1.00  0.00     0.029 A 
ATOM     55  C   UNL A   1      42.932  28.653  33.637  1.00  0.00     0.049 A 
ATOM     56  H   UNL A   1      41.297  29.824  33.091  1.00  0.00     0.167 HD
ATOM     57  C   UNL A   1      37.959  32.322  31.735  1.00  0.00     0.037 A 
ATOM     58  C   UNL A   1      43.338  29.075  34.852  1.00  0.00     0.037 A 
ATOM     59  C   UNL A   1      38.258  32.772  33.070  1.00  0.00     0.049 A 
ATOM     60  C   UNL A   1      42.591  30.194  35.525  1.00  0.00     0.074 A 
ATOM     61  C   UNL A   1      37.612  33.743  33.814  1.00  0.00     0.029 A 
ATOM     62  N   UNL A   1      39.290  32.285  33.860  1.00  0.00    -0.354 N 
ATOM     63  N   UNL A   1      41.561  30.880  35.086  1.00  0.00    -0.248 NA
ATOM     64  C   UNL A   1      43.053  30.595  36.861  1.00  0.00     0.031 C 
ATOM     65  C   UNL A   1      38.287  33.883  35.031  1.00  0.00     0.029 A 
ATOM     66  C   UNL A   1      39.313  32.952  35.073  1.00  0.00     0.049 A 
ATOM     67  H   UNL A   1      39.914  31.571  33.596  1.00  0.00     0.167 HD
ATOM     68  C   UNL A   1      41.231  31.766  36.107  1.00  0.00     0.074 A 
ATOM     69  C   UNL A   1      42.165  31.524  37.187  1.00  0.00     0.031 C 
ATOM     70  C   UNL A   1      40.241  32.693  36.146  1.00  0.00     0.037 A 
BRANCH  57  71
ATOM     71  C   UNL A   1      36.844  33.002  30.986  1.00  0.00     0.058 A 
ATOM     72  C   UNL A   1      37.097  33.970  29.999  1.00  0.00     0.135 A 
ATOM     73  C   UNL A   1      35.505  32.653  31.228  1.00  0.00     0.135 A 
ATOM     74  F   UNL A   1      38.356  34.353  29.735  1.00  0.00    -0.206 F 
ATOM     75  C   UNL A   1      36.064  34.587  29.302  1.00  0.00     0.059 A 
ATOM     76  C   UNL A   1      34.457  33.234  30.519  1.00  0.00     0.059 A 
ATOM     77  F   UNL A   1      35.203  31.735  32.160  1.00  0.00    -0.206 F 
ATOM     78  C   UNL A   1      34.746  34.211  29.568  1.00  0.00     0.060 A 
BRANCH  78  79
ATOM     79  S   UNL A   1      33.419  35.017  28.648  1.00  0.00     0.124 S 
ATOM     80  O   UNL A   1      34.148  36.068  27.945  1.00  0.00    -0.237 OA
ATOM     81  O   UNL A   1      32.913  33.931  27.815  1.00  0.00    -0.237 OA
ATOM     82  O   UNL A   1      32.510  35.477  29.694  1.00  0.00    -0.744 OA
ENDBRANCH  78  79
ENDBRANCH  57  71
BRANCH  58  83
ATOM     83  C   UNL A   1      44.496  28.419  35.517  1.00  0.00     0.058 A 
ATOM     84  C   UNL A   1      45.807  28.869  35.300  1.00  0.00     0.135 A 
ATOM     85  C   UNL A   1      44.317  27.334  36.390  1.00  0.00     0.135 A 
ATOM     86  F   UNL A   1      46.033  29.900  34.471  1.00  0.00    -0.206 F 
ATOM     87  C   UNL A   1      46.900  28.257  35.906  1.00  0.00     0.059 A 
ATOM     88  C   UNL A   1      45.391  26.723  37.030  1.00  0.00     0.059 A 
ATOM     89  F   UNL A   1      43.083  26.873  36.646  1.00  0.00    -0.206 F 
ATOM     90  C   UNL A   1      46.680  27.185  36.773  1.00  0.00     0.060 A 
BRANCH  90  91
ATOM     91  S   UNL A   1      48.101  26.424  37.587  1.00  0.00     0.124 S 
ATOM     92  O   UNL A   1      47.749  26.574  38.994  1.00  0.00    -0.237 OA
ATOM     93  O   UNL A   1      48.063  25.064  37.059  1.00  0.00    -0.237 OA
ATOM     94  O   UNL A   1      49.225  27.235  37.127  1.00  0.00    -0.744 OA
ENDBRANCH  90  91
ENDBRANCH  58  83
BRANCH  70  95
ATOM     95  C   UNL A   1      40.079  33.484  37.417  1.00  0.00     0.058 A 
ATOM     96  C   UNL A   1      40.849  34.625  37.686  1.00  0.00     0.135 A 
ATOM     97  C   UNL A   1      39.096  33.121  38.352  1.00  0.00     0.135 A 
ATOM     98  F   UNL A   1      41.806  35.014  36.828  1.00  0.00    -0.206 F 
ATOM     99  C   UNL A   1      40.669  35.364  38.851  1.00  0.00     0.059 A 
ATOM    100  C   UNL A   1      38.876  33.863  39.508  1.00  0.00     0.059 A 
ATOM    101  F   UNL A   1      38.323  32.043  38.140  1.00  0.00    -0.206 F 
ATOM    102  C   UNL A   1      39.677  34.977  39.755  1.00  0.00     0.060 A 
BRANCH 102 103
ATOM    103  S   UNL A   1      39.430  35.965  41.244  1.00  0.00     0.124 S 
ATOM    104  O   UNL A   1      38.762  35.011  42.124  1.00  0.00    -0.237 OA
ATOM    105  O   UNL A   1      40.797  36.319  41.614  1.00  0.00    -0.237 OA
ATOM    106  O   UNL A   1      38.605  37.077  40.784  1.00  0.00    -0.744 OA
ENDBRANCH 102 103
ENDBRANCH  70  95
ENDBRANCH  44  45
ENDBRANCH  36  39
ENDBRANCH  34  35
ENDBRANCH  33  34
ENDBRANCH  32  33
ENDBRANCH   1  32
TORSDOF 20
ENDMDL
MODEL 2
REMARK VINA RESULT:     -11.6      6.375     11.894
REMARK SMILES COc1cc(/C=C2/S/C(=[NH+]\C(C)=O)NC2=O)cc(Br)c1OCC(=O)NCCCCCCNC(=O)c1ccc(-c2c3nc(c(-c4c(F)cc(S(=O)(=O)[O-])cc4F)c4ccc([nH]4)c(-c4c(F)cc(S(=O)(=O)[O-])cc4F)c4nc(c(-c5c(F)cc(S(=O)(=O)[O-])cc5F)c5ccc2[nH]5)C=C4)C=C3)cc1
REMARK SMILES IDX 28 1 27 2 26 3 25 4 23 5 24 6 22 8 21 9 20 10 3 11 4 12 5 13
REMARK SMILES IDX 18 14 17 15 19 16 2 17 1 18 6 19 7 20 8 21 15 22 9 23 14 24
REMARK SMILES IDX 16 25 10 26 11 28 12 30 13 31 29 32 30 33 31 34 32 35 33 36
REMARK SMILES IDX 34 38 35 39 36 40 100 41 37 42 99 43 38 44 39 45 40 46 93 47
REMARK SMILES IDX 41 48 98 49 92 50 94 51 42 52 97 53 91 54 90 55 43 57 77 58
REMARK SMILES IDX 56 59 76 60 57 61 60 62 75 63 95 64 58 65 59 66 74 68 96 69
REMARK SMILES IDX 61 70 44 71 45 72 54 73 46 74 47 75 53 76 55 77 48 78 49 79
REMARK SMILES IDX 50 80 51 81 52 82 78 83 79 84 88 85 80 86 81 87 87 88 89 89
REMARK SMILES IDX 82 90 83 91 84 92 85 93 86 94 62 95 63 96 72 97 64 98 65 99
REMARK SMILES IDX 71 100 73 101 66 102 67 103 68 104 69 105 70 106
REMARK H PARENT 25 7 14 27 10 29 32 37 94 56 60 67
REMARK Flexibility Score: inf
ROOT
ATOM      1  C   UNL A   1      33.871  28.513  25.291  1.00  0.00     0.002 C 
ENDROOT
BRANCH   1   2
ATOM      2  C   UNL A   1      32.889  29.501  24.649  1.00  0.00     0.021 C 
BRANCH   2   3
ATOM      3  C   UNL A   1      31.415  29.222  24.931  1.00  0.00     0.116 C 
BRANCH   3   4
ATOM      4  N   UNL A   1      30.568  29.722  23.868  1.00  0.00    -0.353 N 
ATOM      5  C   UNL A   1      30.365  29.205  22.624  1.00  0.00     0.257 C 
ATOM      6  O   UNL A   1      29.548  29.763  21.890  1.00  0.00    -0.271 OA
ATOM      7  H   UNL A   1      30.070  30.547  24.072  1.00  0.00     0.163 HD
BRANCH   5   8
ATOM      8  C   UNL A   1      31.077  27.906  22.213  1.00  0.00     0.329 C 
BRANCH   8   9
ATOM      9  O   UNL A   1      30.511  26.630  22.435  1.00  0.00    -0.479 OA
BRANCH   9  10
ATOM     10  C   UNL A   1      31.289  25.557  22.782  1.00  0.00     0.176 A 
ATOM     11  C   UNL A   1      30.917  24.948  24.008  1.00  0.00     0.162 A 
ATOM     12  C   UNL A   1      31.586  23.807  24.475  1.00  0.00     0.058 A 
ATOM     13  C   UNL A   1      32.648  23.272  23.751  1.00  0.00    -0.019 A 
ATOM     14  C   UNL A   1      32.310  24.964  22.027  1.00  0.00     0.064 A 
ATOM     15  C   UNL A   1      32.998  23.848  22.528  1.00  0.00     0.028 A 
ATOM     16  Br  UNL A   1      32.777  25.437  20.246  1.00  0.00    -0.047 Br
BRANCH  11  17
ATOM     17  O   UNL A   1      29.853  25.517  24.674  1.00  0.00    -0.493 OA
ATOM     18  C   UNL A   1      30.057  25.876  26.037  1.00  0.00     0.278 C 
ENDBRANCH  11  17
BRANCH  13  19
ATOM     19  C   UNL A   1      33.366  22.098  24.258  1.00  0.00     0.032 C 
ATOM     20  C   UNL A   1      33.142  20.842  23.846  1.00  0.00     0.110 C 
ATOM     21  S   UNL A   1      33.888  19.444  24.553  1.00  0.00     0.007 SA
ATOM     22  C   UNL A   1      32.175  20.399  22.802  1.00  0.00     0.346 C 
ATOM     23  C   UNL A   1      32.745  18.361  23.817  1.00  0.00     0.324 C 
ATOM     24  N   UNL A   1      32.008  19.047  22.904  1.00  0.00    -0.199 N 
ATOM     25  O   UNL A   1      31.610  21.100  21.986  1.00  0.00    -0.240 OA
ATOM     26  N   UNL A   1      32.486  17.118  23.967  1.00  0.00    -0.204 N 
ATOM     27  H   UNL A   1      31.364  18.576  22.326  1.00  0.00     0.316 HD
ATOM     28  C   UNL A   1      33.087  16.190  24.772  1.00  0.00     0.304 C 
ATOM     29  H   UNL A   1      31.740  16.777  23.422  1.00  0.00     0.316 HD
ATOM     30  C   UNL A   1      33.794  16.541  26.052  1.00  0.00     0.144 C 
ATOM     31  O   UNL A   1      32.995  14.993  24.491  1.00  0.00    -0.247 OA
ENDBRANCH  13  19
ENDBRANCH   9  10
ENDBRANCH   8   9
ENDBRANCH   5   8
ENDBRANCH   3   4
ENDBRANCH   2   3
ENDBRANCH   1   2
BRANCH   1  32
ATOM     32  C   UNL A   1      33.954  28.559  26.821  1.00  0.00     0.002 C 
BRANCH  32  33
ATOM     33  C   UNL A   1      34.779  29.710  27.395  1.00  0.00     0.021 C 
BRANCH  33  34
ATOM     34  C   UNL A   1      35.488  29.397  28.708  1.00  0.00     0.116 C 
BRANCH  34  35
ATOM     35  N   UNL A   1      35.650  30.575  29.543  1.00  0.00    -0.352 N 
ATOM     36  C   UNL A   1      36.791  31.081  30.115  1.00  0.00     0.251 C 
ATOM     37  H   UNL A   1      34.825  31.083  29.723  1.00  0.00     0.163 HD
ATOM     38  O   UNL A   1      36.712  31.986  30.941  1.00  0.00    -0.269 OA
BRANCH  36  39
ATOM     39  C   UNL A   1      38.112  30.522  29.750  1.00  0.00     0.039 A 
ATOM     40  C   UNL A   1      38.424  30.347  28.400  1.00  0.00     0.014 A 
ATOM     41  C   UNL A   1      39.038  30.165  30.735  1.00  0.00     0.014 A 
ATOM     42  C   UNL A   1      39.683  29.864  28.038  1.00  0.00     0.010 A 
ATOM     43  C   UNL A   1      40.319  29.762  30.370  1.00  0.00     0.010 A 
ATOM     44  C   UNL A   1      40.654  29.597  29.018  1.00  0.00    -0.014 A 
BRANCH  44  45
ATOM     45  C   UNL A   1      42.017  29.136  28.646  1.00  0.00     0.031 A 
ATOM     46  C   UNL A   1      43.164  30.113  28.614  1.00  0.00     0.074 A 
ATOM     47  C   UNL A   1      42.213  27.852  28.285  1.00  0.00     0.049 A 
ATOM     48  N   UNL A   1      44.408  29.915  28.265  1.00  0.00    -0.248 NA
ATOM     49  C   UNL A   1      42.865  31.502  28.999  1.00  0.00     0.031 C 
ATOM     50  C   UNL A   1      41.174  26.822  28.229  1.00  0.00     0.029 A 
ATOM     51  N   UNL A   1      43.352  27.195  27.890  1.00  0.00    -0.354 N 
ATOM     52  C   UNL A   1      45.037  31.150  28.377  1.00  0.00     0.074 A 
ATOM     53  C   UNL A   1      44.022  32.104  28.767  1.00  0.00     0.031 C 
ATOM     54  C   UNL A   1      41.727  25.658  27.850  1.00  0.00     0.029 A 
ATOM     55  C   UNL A   1      43.148  25.867  27.593  1.00  0.00     0.049 A 
ATOM     56  H   UNL A   1      44.231  27.632  27.824  1.00  0.00     0.167 HD
ATOM     57  C   UNL A   1      46.343  31.457  28.194  1.00  0.00     0.037 A 
ATOM     58  C   UNL A   1      44.008  24.925  27.156  1.00  0.00     0.037 A 
ATOM     59  C   UNL A   1      47.350  30.495  27.825  1.00  0.00     0.049 A 
ATOM     60  C   UNL A   1      45.454  25.290  26.955  1.00  0.00     0.074 A 
ATOM     61  C   UNL A   1      48.711  30.693  27.669  1.00  0.00     0.029 A 
ATOM     62  N   UNL A   1      47.108  29.156  27.552  1.00  0.00    -0.354 N 
ATOM     63  N   UNL A   1      46.043  26.450  27.127  1.00  0.00    -0.248 NA
ATOM     64  C   UNL A   1      46.356  24.220  26.509  1.00  0.00     0.031 C 
ATOM     65  C   UNL A   1      49.283  29.489  27.248  1.00  0.00     0.029 A 
ATOM     66  C   UNL A   1      48.290  28.523  27.205  1.00  0.00     0.049 A 
ATOM     67  H   UNL A   1      46.226  28.721  27.598  1.00  0.00     0.167 HD
ATOM     68  C   UNL A   1      47.389  26.239  26.846  1.00  0.00     0.074 A 
ATOM     69  C   UNL A   1      47.528  24.840  26.501  1.00  0.00     0.031 C 
ATOM     70  C   UNL A   1      48.417  27.124  26.876  1.00  0.00     0.037 A 
BRANCH  57  71
ATOM     71  C   UNL A   1      46.763  32.889  28.392  1.00  0.00     0.058 A 
ATOM     72  C   UNL A   1      47.139  33.384  29.651  1.00  0.00     0.135 A 
ATOM     73  C   UNL A   1      46.829  33.770  27.299  1.00  0.00     0.135 A 
ATOM     74  F   UNL A   1      47.081  32.591  30.734  1.00  0.00    -0.206 F 
ATOM     75  C   UNL A   1      47.537  34.704  29.826  1.00  0.00     0.059 A 
ATOM     76  C   UNL A   1      47.256  35.087  27.446  1.00  0.00     0.059 A 
ATOM     77  F   UNL A   1      46.481  33.353  26.072  1.00  0.00    -0.206 F 
ATOM     78  C   UNL A   1      47.594  35.549  28.716  1.00  0.00     0.060 A 
BRANCH  78  79
ATOM     79  S   UNL A   1      48.119  37.258  28.961  1.00  0.00     0.124 S 
ATOM     80  O   UNL A   1      47.472  37.584  30.228  1.00  0.00    -0.237 OA
ATOM     81  O   UNL A   1      49.573  37.133  29.006  1.00  0.00    -0.237 OA
ATOM     82  O   UNL A   1      47.588  37.949  27.790  1.00  0.00    -0.744 OA
ENDBRANCH  78  79
ENDBRANCH  57  71
BRANCH  58  83
ATOM     83  C   UNL A   1      43.526  23.540  26.901  1.00  0.00     0.058 A 
ATOM     84  C   UNL A   1      43.306  22.643  27.956  1.00  0.00     0.135 A 
ATOM     85  C   UNL A   1      43.269  23.087  25.597  1.00  0.00     0.135 A 
ATOM     86  F   UNL A   1      43.542  23.025  29.221  1.00  0.00    -0.206 F 
ATOM     87  C   UNL A   1      42.868  21.341  27.730  1.00  0.00     0.059 A 
ATOM     88  C   UNL A   1      42.802  21.799  25.347  1.00  0.00     0.059 A 
ATOM     89  F   UNL A   1      43.447  23.909  24.551  1.00  0.00    -0.206 F 
ATOM     90  C   UNL A   1      42.616  20.931  26.421  1.00  0.00     0.060 A 
BRANCH  90  91
ATOM     91  S   UNL A   1      42.007  19.253  26.142  1.00  0.00     0.124 S 
ATOM     92  O   UNL A   1      42.803  18.839  24.992  1.00  0.00    -0.237 OA
ATOM     93  O   UNL A   1      42.324  18.600  27.407  1.00  0.00    -0.237 OA
ATOM     94  O   UNL A   1      40.584  19.451  25.887  1.00  0.00    -0.744 OA
ENDBRANCH  90  91
ENDBRANCH  58  83
BRANCH  70  95
ATOM     95  C   UNL A   1      49.796  26.599  26.575  1.00  0.00     0.058 A 
ATOM     96  C   UNL A   1      50.667  26.173  27.589  1.00  0.00     0.135 A 
ATOM     97  C   UNL A   1      50.227  26.471  25.245  1.00  0.00     0.135 A 
ATOM     98  F   UNL A   1      50.307  26.277  28.879  1.00  0.00    -0.206 F 
ATOM     99  C   UNL A   1      51.927  25.662  27.296  1.00  0.00     0.059 A 
ATOM    100  C   UNL A   1      51.470  25.933  24.926  1.00  0.00     0.059 A 
ATOM    101  F   UNL A   1      49.429  26.854  24.234  1.00  0.00    -0.206 F 
ATOM    102  C   UNL A   1      52.318  25.543  25.960  1.00  0.00     0.060 A 
BRANCH 102 103
ATOM    103  S   UNL A   1      53.942  24.847  25.594  1.00  0.00     0.124 S 
ATOM    104  O   UNL A   1      54.592  24.911  26.899  1.00  0.00    -0.237 OA
ATOM    105  O   UNL A   1      53.607  23.508  25.118  1.00  0.00    -0.237 OA
ATOM    106  O   UNL A   1      54.480  25.749  24.580  1.00  0.00    -0.744 OA
ENDBRANCH 102 103
ENDBRANCH  70  95
ENDBRANCH  44  45
ENDBRANCH  36  39
ENDBRANCH  34  35
ENDBRANCH  33  34
ENDBRANCH  32  33
ENDBRANCH   1  32
TORSDOF 20
ENDMDL
MODEL 3
REMARK VINA RESULT:     -11.5      0.775      7.944
REMARK SMILES COc1cc(/C=C2/S/C(=[NH+]\C(C)=O)NC2=O)cc(Br)c1OCC(=O)NCCCCCCNC(=O)c1ccc(-c2c3nc(c(-c4c(F)cc(S(=O)(=O)[O-])cc4F)c4ccc([nH]4)c(-c4c(F)cc(S(=O)(=O)[O-])cc4F)c4nc(c(-c5c(F)cc(S(=O)(=O)[O-])cc5F)c5ccc2[nH]5)C=C4)C=C3)cc1
REMARK SMILES IDX 28 1 27 2 26 3 25 4 23 5 24 6 22 8 21 9 20 10 3 11 4 12 5 13
REMARK SMILES IDX 18 14 17 15 19 16 2 17 1 18 6 19 7 20 8 21 15 22 9 23 14 24
REMARK SMILES IDX 16 25 10 26 11 28 12 30 13 31 29 32 30 33 31 34 32 35 33 36
REMARK SMILES IDX 34 38 35 39 36 40 100 41 37 42 99 43 38 44 39 45 40 46 93 47
REMARK SMILES IDX 41 48 98 49 92 50 94 51 42 52 97 53 91 54 90 55 43 57 77 58
REMARK SMILES IDX 56 59 76 60 57 61 60 62 75 63 95 64 58 65 59 66 74 68 96 69
REMARK SMILES IDX 61 70 44 71 45 72 54 73 46 74 47 75 53 76 55 77 48 78 49 79
REMARK SMILES IDX 50 80 51 81 52 82 78 83 79 84 88 85 80 86 81 87 87 88 89 89
REMARK SMILES IDX 82 90 83 91 84 92 85 93 86 94 62 95 63 96 72 97 64 98 65 99
REMARK SMILES IDX 71 100 73 101 66 102 67 103 68 104 69 105 70 106
REMARK H PARENT 25 7 14 27 10 29 32 37 94 56 60 67
REMARK Flexibility Score: inf
ROOT
ATOM      1  C   UNL A   1      37.347  22.885  25.957  1.00  0.00     0.002 C 
ENDROOT
BRANCH   1   2
ATOM      2  C   UNL A   1      37.288  21.472  25.362  1.00  0.00     0.021 C 
BRANCH   2   3
ATOM      3  C   UNL A   1      36.045  21.173  24.528  1.00  0.00     0.116 C 
BRANCH   3   4
ATOM      4  N   UNL A   1      35.433  19.920  24.917  1.00  0.00    -0.353 N 
ATOM      5  C   UNL A   1      34.113  19.589  24.949  1.00  0.00     0.257 C 
ATOM      6  O   UNL A   1      33.811  18.435  25.260  1.00  0.00    -0.271 OA
ATOM      7  H   UNL A   1      36.057  19.210  25.196  1.00  0.00     0.163 HD
BRANCH   5   8
ATOM      8  C   UNL A   1      33.058  20.619  24.512  1.00  0.00     0.329 C 
BRANCH   8   9
ATOM      9  O   UNL A   1      32.894  21.859  25.169  1.00  0.00    -0.479 OA
BRANCH   9  10
ATOM     10  C   UNL A   1      32.165  22.873  24.606  1.00  0.00     0.176 A 
ATOM     11  C   UNL A   1      31.068  23.303  25.396  1.00  0.00     0.162 A 
ATOM     12  C   UNL A   1      30.256  24.367  24.977  1.00  0.00     0.058 A 
ATOM     13  C   UNL A   1      30.499  24.999  23.761  1.00  0.00    -0.019 A 
ATOM     14  C   UNL A   1      32.445  23.566  23.420  1.00  0.00     0.064 A 
ATOM     15  C   UNL A   1      31.597  24.601  22.994  1.00  0.00     0.028 A 
ATOM     16  Br  UNL A   1      34.008  23.350  22.361  1.00  0.00    -0.047 Br
BRANCH  11  17
ATOM     17  O   UNL A   1      30.884  22.645  26.593  1.00  0.00    -0.493 OA
ATOM     18  C   UNL A   1      29.652  22.865  27.271  1.00  0.00     0.278 C 
ENDBRANCH  11  17
BRANCH  13  19
ATOM     19  C   UNL A   1      29.628  26.090  23.313  1.00  0.00     0.032 C 
ATOM     20  C   UNL A   1      29.993  27.379  23.279  1.00  0.00     0.110 C 
ATOM     21  S   UNL A   1      28.913  28.680  22.888  1.00  0.00     0.007 SA
ATOM     22  C   UNL A   1      31.321  27.947  23.646  1.00  0.00     0.346 C 
ATOM     23  C   UNL A   1      29.994  29.879  23.530  1.00  0.00     0.324 C 
ATOM     24  N   UNL A   1      31.195  29.299  23.793  1.00  0.00    -0.199 N 
ATOM     25  O   UNL A   1      32.358  27.333  23.802  1.00  0.00    -0.240 OA
ATOM     26  N   UNL A   1      29.876  31.127  23.785  1.00  0.00    -0.204 N 
ATOM     27  H   UNL A   1      31.961  29.845  24.085  1.00  0.00     0.316 HD
ATOM     28  C   UNL A   1      28.813  31.964  23.585  1.00  0.00     0.304 C 
ATOM     29  H   UNL A   1      30.670  31.549  24.187  1.00  0.00     0.316 HD
ATOM     30  C   UNL A   1      27.386  31.493  23.553  1.00  0.00     0.144 C 
ATOM     31  O   UNL A   1      29.006  33.178  23.495  1.00  0.00    -0.247 OA
ENDBRANCH  13  19
ENDBRANCH   9  10
ENDBRANCH   8   9
ENDBRANCH   5   8
ENDBRANCH   3   4
ENDBRANCH   2   3
ENDBRANCH   1   2
BRANCH   1  32
ATOM     32  C   UNL A   1      38.693  23.294  26.564  1.00  0.00     0.002 C 
BRANCH  32  33
ATOM     33  C   UNL A   1      39.805  22.252  26.447  1.00  0.00     0.021 C 
BRANCH  33  34
ATOM     34  C   UNL A   1      41.159  22.697  26.990  1.00  0.00     0.116 C 
BRANCH  34  35
ATOM     35  N   UNL A   1      41.976  23.342  25.976  1.00  0.00    -0.352 N 
ATOM     36  C   UNL A   1      42.429  24.637  25.923  1.00  0.00     0.251 C 
ATOM     37  H   UNL A   1      42.244  22.768  25.221  1.00  0.00     0.163 HD
ATOM     38  O   UNL A   1      42.957  25.059  24.898  1.00  0.00    -0.269 OA
BRANCH  36  39
ATOM     39  C   UNL A   1      42.260  25.528  27.092  1.00  0.00     0.039 A 
ATOM     40  C   UNL A   1      42.813  26.810  27.053  1.00  0.00     0.014 A 
ATOM     41  C   UNL A   1      41.564  25.100  28.227  1.00  0.00     0.014 A 
ATOM     42  C   UNL A   1      42.623  27.679  28.129  1.00  0.00     0.010 A 
ATOM     43  C   UNL A   1      41.306  25.994  29.262  1.00  0.00     0.010 A 
ATOM     44  C   UNL A   1      41.841  27.291  29.230  1.00  0.00    -0.014 A 
BRANCH  44  45
ATOM     45  C   UNL A   1      41.581  28.224  30.358  1.00  0.00     0.031 A 
ATOM     46  C   UNL A   1      42.413  28.145  31.612  1.00  0.00     0.074 A 
ATOM     47  C   UNL A   1      40.565  29.105  30.276  1.00  0.00     0.049 A 
ATOM     48  N   UNL A   1      42.306  28.834  32.718  1.00  0.00    -0.248 NA
ATOM     49  C   UNL A   1      43.490  27.142  31.634  1.00  0.00     0.031 C 
ATOM     50  C   UNL A   1      39.657  29.245  29.135  1.00  0.00     0.029 A 
ATOM     51  N   UNL A   1      40.117  30.045  31.170  1.00  0.00    -0.354 N 
ATOM     52  C   UNL A   1      43.289  28.342  33.570  1.00  0.00     0.074 A 
ATOM     53  C   UNL A   1      43.944  27.256  32.874  1.00  0.00     0.031 C 
ATOM     54  C   UNL A   1      38.780  30.229  29.387  1.00  0.00     0.029 A 
ATOM     55  C   UNL A   1      39.032  30.762  30.722  1.00  0.00     0.049 A 
ATOM     56  H   UNL A   1      40.533  30.192  32.051  1.00  0.00     0.167 HD
ATOM     57  C   UNL A   1      43.632  28.772  34.807  1.00  0.00     0.037 A 
ATOM     58  C   UNL A   1      38.315  31.734  31.321  1.00  0.00     0.037 A 
ATOM     59  C   UNL A   1      42.988  29.868  35.484  1.00  0.00     0.049 A 
ATOM     60  C   UNL A   1      38.711  32.191  32.699  1.00  0.00     0.074 A 
ATOM     61  C   UNL A   1      43.296  30.417  36.717  1.00  0.00     0.029 A 
ATOM     62  N   UNL A   1      41.906  30.582  34.989  1.00  0.00    -0.354 N 
ATOM     63  N   UNL A   1      39.685  31.757  33.464  1.00  0.00    -0.248 NA
ATOM     64  C   UNL A   1      37.919  33.276  33.295  1.00  0.00     0.031 C 
ATOM     65  C   UNL A   1      42.366  31.424  36.992  1.00  0.00     0.029 A 
ATOM     66  C   UNL A   1      41.519  31.549  35.902  1.00  0.00     0.049 A 
ATOM     67  H   UNL A   1      41.476  30.423  34.118  1.00  0.00     0.167 HD
ATOM     68  C   UNL A   1      39.644  32.539  34.614  1.00  0.00     0.074 A 
ATOM     69  C   UNL A   1      38.555  33.478  34.440  1.00  0.00     0.031 C 
ATOM     70  C   UNL A   1      40.440  32.487  35.712  1.00  0.00     0.037 A 
BRANCH  57  71
ATOM     71  C   UNL A   1      44.754  28.058  35.513  1.00  0.00     0.058 A 
ATOM     72  C   UNL A   1      46.091  28.473  35.387  1.00  0.00     0.135 A 
ATOM     73  C   UNL A   1      44.487  26.970  36.360  1.00  0.00     0.135 A 
ATOM     74  F   UNL A   1      46.407  29.498  34.580  1.00  0.00    -0.206 F 
ATOM     75  C   UNL A   1      47.122  27.817  36.050  1.00  0.00     0.059 A 
ATOM     76  C   UNL A   1      45.500  26.319  37.059  1.00  0.00     0.059 A 
ATOM     77  F   UNL A   1      43.228  26.529  36.518  1.00  0.00    -0.206 F 
ATOM     78  C   UNL A   1      46.817  26.741  36.886  1.00  0.00     0.060 A 
BRANCH  78  79
ATOM     79  S   UNL A   1      48.168  25.907  37.744  1.00  0.00     0.124 S 
ATOM     80  O   UNL A   1      49.255  26.868  37.580  1.00  0.00    -0.237 OA
ATOM     81  O   UNL A   1      47.640  25.774  39.099  1.00  0.00    -0.237 OA
ATOM     82  O   UNL A   1      48.319  24.656  37.007  1.00  0.00    -0.744 OA
ENDBRANCH  78  79
ENDBRANCH  57  71
BRANCH  58  83
ATOM     83  C   UNL A   1      37.164  32.355  30.611  1.00  0.00     0.058 A 
ATOM     84  C   UNL A   1      35.876  31.807  30.699  1.00  0.00     0.135 A 
ATOM     85  C   UNL A   1      37.327  33.513  29.834  1.00  0.00     0.135 A 
ATOM     86  F   UNL A   1      35.669  30.697  31.425  1.00  0.00    -0.206 F 
ATOM     87  C   UNL A   1      34.794  32.369  30.029  1.00  0.00     0.059 A 
ATOM     88  C   UNL A   1      36.255  34.112  29.178  1.00  0.00     0.059 A 
ATOM     89  F   UNL A   1      38.534  34.089  29.728  1.00  0.00    -0.206 F 
ATOM     90  C   UNL A   1      34.994  33.525  29.273  1.00  0.00     0.060 A 
BRANCH  90  91
ATOM     91  S   UNL A   1      33.576  34.272  28.442  1.00  0.00     0.124 S 
ATOM     92  O   UNL A   1      34.220  35.285  27.613  1.00  0.00    -0.237 OA
ATOM     93  O   UNL A   1      33.004  33.133  27.731  1.00  0.00    -0.237 OA
ATOM     94  O   UNL A   1      32.768  34.779  29.547  1.00  0.00    -0.744 OA
ENDBRANCH  90  91
ENDBRANCH  58  83
BRANCH  70  95
ATOM     95  C   UNL A   1      40.199  33.505  36.794  1.00  0.00     0.058 A 
ATOM     96  C   UNL A   1      40.885  34.728  36.832  1.00  0.00     0.135 A 
ATOM     97  C   UNL A   1      39.223  33.271  37.777  1.00  0.00     0.135 A 
ATOM     98  F   UNL A   1      41.832  35.001  35.919  1.00  0.00    -0.206 F 
ATOM     99  C   UNL A   1      40.632  35.672  37.821  1.00  0.00     0.059 A 
ATOM    100  C   UNL A   1      38.930  34.214  38.757  1.00  0.00     0.059 A 
ATOM    101  F   UNL A   1      38.528  32.121  37.782  1.00  0.00    -0.206 F 
ATOM    102  C   UNL A   1      39.650  35.407  38.778  1.00  0.00     0.060 A 
BRANCH 102 103
ATOM    103  S   UNL A   1      39.307  36.656  40.035  1.00  0.00     0.124 S 
ATOM    104  O   UNL A   1      38.822  37.767  39.221  1.00  0.00    -0.237 OA
ATOM    105  O   UNL A   1      38.306  35.996  40.867  1.00  0.00    -0.237 OA
ATOM    106  O   UNL A   1      40.604  36.865  40.672  1.00  0.00    -0.744 OA
ENDBRANCH 102 103
ENDBRANCH  70  95
ENDBRANCH  44  45
ENDBRANCH  36  39
ENDBRANCH  34  35
ENDBRANCH  33  34
ENDBRANCH  32  33
ENDBRANCH   1  32
TORSDOF 20
ENDMDL
