MODEL 1
REMARK VINA RESULT:     -10.9      0.000      0.000
REMARK SMILES CC(C)CS(=O)(=O)Cc1c(C(=O)NCCCCCCNC(=O)c2ccc(-c3c4nc(c(-c5c(F)cc(S(=O)(=O)[O-])cc5F)c5ccc([nH]5)c(-c5c(F)cc(S(=O)(=O)[O-])cc5F)c5nc(c(-c6c(F)cc(S(=O)(=O)[O-])cc6F)c6ccc3[nH]6)C=C5)C=C4)cc2)oc2ccccc12
REMARK SMILES IDX 16 1 15 2 14 3 13 4 11 5 12 6 10 8 9 9 95 10 89 11 90 12
REMARK SMILES IDX 94 13 91 14 93 15 92 16 8 17 5 18 6 19 7 20 4 21 2 22 1 23
REMARK SMILES IDX 3 24 17 25 18 26 19 27 20 28 21 29 22 31 23 32 24 33 88 34
REMARK SMILES IDX 25 35 87 36 26 37 27 38 28 39 81 40 29 41 86 42 80 43 82 44
REMARK SMILES IDX 30 45 85 46 79 47 78 48 31 50 65 51 44 52 64 53 45 54 48 55
REMARK SMILES IDX 63 56 83 57 46 58 47 59 62 61 84 62 49 63 32 64 33 65 42 66
REMARK SMILES IDX 34 67 35 68 41 69 43 70 36 71 37 72 38 73 39 74 40 75 66 76
REMARK SMILES IDX 67 77 76 78 68 79 69 80 75 81 77 82 70 83 71 84 72 85 73 86
REMARK SMILES IDX 74 87 50 88 51 89 60 90 52 91 53 92 59 93 61 94 54 95 55 96
REMARK SMILES IDX 56 97 57 98 58 99
REMARK H PARENT 13 7 20 30 82 49 48 60
REMARK Flexibility Score: inf
ROOT
ATOM      1  C   UNL A   1      37.204  21.914  24.637  1.00  0.00     0.002 C 
ENDROOT
BRANCH   1   2
ATOM      2  C   UNL A   1      37.058  22.888  25.812  1.00  0.00     0.021 C 
BRANCH   2   3
ATOM      3  C   UNL A   1      36.390  24.220  25.471  1.00  0.00     0.116 C 
BRANCH   3   4
ATOM      4  N   UNL A   1      35.519  24.123  24.311  1.00  0.00    -0.349 N 
ATOM      5  C   UNL A   1      34.414  24.840  23.923  1.00  0.00     0.287 C 
ATOM      6  O   UNL A   1      33.929  24.526  22.829  1.00  0.00    -0.266 OA
ATOM      7  H   UNL A   1      35.770  23.407  23.684  1.00  0.00     0.163 HD
BRANCH   5   8
ATOM      8  C   UNL A   1      33.831  25.887  24.746  1.00  0.00     0.196 A 
ATOM      9  C   UNL A   1      33.058  25.826  25.910  1.00  0.00     0.027 A 
ATOM     10  C   UNL A   1      32.643  27.176  26.176  1.00  0.00     0.025 A 
ATOM     11  O   UNL A   1      33.961  27.188  24.363  1.00  0.00    -0.451 OA
ATOM     12  C   UNL A   1      33.249  27.960  25.209  1.00  0.00     0.135 A 
ATOM     13  C   UNL A   1      31.815  27.822  27.115  1.00  0.00     0.012 A 
ATOM     14  C   UNL A   1      33.127  29.342  25.108  1.00  0.00     0.048 A 
ATOM     15  C   UNL A   1      31.658  29.215  27.036  1.00  0.00     0.001 A 
ATOM     16  C   UNL A   1      32.307  29.962  26.053  1.00  0.00     0.004 A 
BRANCH   9  17
ATOM     17  C   UNL A   1      32.663  24.603  26.678  1.00  0.00     0.177 C 
BRANCH  17  18
ATOM     18  S   UNL A   1      31.171  23.763  26.119  1.00  0.00     0.154 S 
ATOM     19  O   UNL A   1      30.670  24.481  24.959  1.00  0.00    -0.228 OA
ATOM     20  O   UNL A   1      30.292  23.605  27.267  1.00  0.00    -0.228 OA
BRANCH  18  21
ATOM     21  C   UNL A   1      31.632  22.110  25.595  1.00  0.00     0.140 C 
BRANCH  21  22
ATOM     22  C   UNL A   1      33.139  21.845  25.472  1.00  0.00    -0.002 C 
ATOM     23  C   UNL A   1      33.708  21.111  26.679  1.00  0.00     0.008 C 
ATOM     24  C   UNL A   1      33.414  21.013  24.215  1.00  0.00     0.008 C 
ENDBRANCH  21  22
ENDBRANCH  18  21
ENDBRANCH  17  18
ENDBRANCH   9  17
ENDBRANCH   5   8
ENDBRANCH   3   4
ENDBRANCH   2   3
ENDBRANCH   1   2
BRANCH   1  25
ATOM     25  C   UNL A   1      37.049  20.429  24.981  1.00  0.00     0.002 C 
BRANCH  25  26
ATOM     26  C   UNL A   1      38.319  19.584  24.858  1.00  0.00     0.021 C 
BRANCH  26  27
ATOM     27  C   UNL A   1      39.475  20.016  25.754  1.00  0.00     0.116 C 
BRANCH  27  28
ATOM     28  N   UNL A   1      40.471  18.969  25.910  1.00  0.00    -0.352 N 
ATOM     29  C   UNL A   1      41.827  19.077  26.104  1.00  0.00     0.251 C 
ATOM     30  H   UNL A   1      40.124  18.049  25.873  1.00  0.00     0.163 HD
ATOM     31  O   UNL A   1      42.534  18.076  26.027  1.00  0.00    -0.269 OA
BRANCH  29  32
ATOM     32  C   UNL A   1      42.438  20.397  26.382  1.00  0.00     0.039 A 
ATOM     33  C   UNL A   1      43.053  21.089  25.336  1.00  0.00     0.014 A 
ATOM     34  C   UNL A   1      42.415  20.947  27.667  1.00  0.00     0.014 A 
ATOM     35  C   UNL A   1      43.590  22.359  25.567  1.00  0.00     0.010 A 
ATOM     36  C   UNL A   1      42.884  22.242  27.878  1.00  0.00     0.010 A 
ATOM     37  C   UNL A   1      43.478  22.963  26.830  1.00  0.00    -0.014 A 
BRANCH  37  38
ATOM     38  C   UNL A   1      43.973  24.344  27.071  1.00  0.00     0.031 A 
ATOM     39  C   UNL A   1      43.013  25.436  27.464  1.00  0.00     0.074 A 
ATOM     40  C   UNL A   1      45.276  24.629  26.879  1.00  0.00     0.049 A 
ATOM     41  N   UNL A   1      43.244  26.711  27.648  1.00  0.00    -0.248 NA
ATOM     42  C   UNL A   1      41.606  25.050  27.653  1.00  0.00     0.031 C 
ATOM     43  C   UNL A   1      46.298  23.668  26.453  1.00  0.00     0.029 A 
ATOM     44  N   UNL A   1      45.967  25.809  27.003  1.00  0.00    -0.354 N 
ATOM     45  C   UNL A   1      42.015  27.278  27.965  1.00  0.00     0.074 A 
ATOM     46  C   UNL A   1      41.032  26.220  27.895  1.00  0.00     0.031 C 
ATOM     47  C   UNL A   1      47.483  24.292  26.372  1.00  0.00     0.029 A 
ATOM     48  C   UNL A   1      47.305  25.702  26.697  1.00  0.00     0.049 A 
ATOM     49  H   UNL A   1      45.544  26.652  27.287  1.00  0.00     0.167 HD
ATOM     50  C   UNL A   1      41.736  28.559  28.310  1.00  0.00     0.037 A 
ATOM     51  C   UNL A   1      48.274  26.639  26.667  1.00  0.00     0.037 A 
ATOM     52  C   UNL A   1      42.723  29.604  28.399  1.00  0.00     0.049 A 
ATOM     53  C   UNL A   1      47.934  28.058  27.039  1.00  0.00     0.074 A 
ATOM     54  C   UNL A   1      42.548  30.921  28.786  1.00  0.00     0.029 A 
ATOM     55  N   UNL A   1      44.069  29.453  28.098  1.00  0.00    -0.354 N 
ATOM     56  N   UNL A   1      46.777  28.562  27.396  1.00  0.00    -0.248 NA
ATOM     57  C   UNL A   1      49.032  29.034  27.013  1.00  0.00     0.031 C 
ATOM     58  C   UNL A   1      43.776  31.578  28.672  1.00  0.00     0.029 A 
ATOM     59  C   UNL A   1      44.730  30.658  28.270  1.00  0.00     0.049 A 
ATOM     60  H   UNL A   1      44.491  28.613  27.806  1.00  0.00     0.167 HD
ATOM     61  C   UNL A   1      47.014  29.906  27.664  1.00  0.00     0.074 A 
ATOM     62  C   UNL A   1      48.427  30.132  27.444  1.00  0.00     0.031 C 
ATOM     63  C   UNL A   1      46.141  30.866  28.057  1.00  0.00     0.037 A 
BRANCH  50  64
ATOM     64  C   UNL A   1      40.306  28.905  28.627  1.00  0.00     0.058 A 
ATOM     65  C   UNL A   1      39.820  28.888  29.944  1.00  0.00     0.135 A 
ATOM     66  C   UNL A   1      39.427  29.317  27.612  1.00  0.00     0.135 A 
ATOM     67  F   UNL A   1      40.611  28.488  30.952  1.00  0.00    -0.206 F 
ATOM     68  C   UNL A   1      38.509  29.247  30.242  1.00  0.00     0.059 A 
ATOM     69  C   UNL A   1      38.121  29.709  27.890  1.00  0.00     0.059 A 
ATOM     70  F   UNL A   1      39.838  29.352  26.334  1.00  0.00    -0.206 F 
ATOM     71  C   UNL A   1      37.668  29.660  29.208  1.00  0.00     0.060 A 
BRANCH  71  72
ATOM     72  S   UNL A   1      35.977  30.143  29.617  1.00  0.00     0.124 S 
ATOM     73  O   UNL A   1      36.054  31.596  29.504  1.00  0.00    -0.237 OA
ATOM     74  O   UNL A   1      35.202  29.467  28.582  1.00  0.00    -0.237 OA
ATOM     75  O   UNL A   1      35.794  29.628  30.971  1.00  0.00    -0.744 OA
ENDBRANCH  71  72
ENDBRANCH  50  64
BRANCH  51  76
ATOM     76  C   UNL A   1      49.662  26.267  26.278  1.00  0.00     0.058 A 
ATOM     77  C   UNL A   1      50.532  25.655  27.193  1.00  0.00     0.135 A 
ATOM     78  C   UNL A   1      50.149  26.524  24.986  1.00  0.00     0.135 A 
ATOM     79  F   UNL A   1      50.116  25.392  28.441  1.00  0.00    -0.206 F 
ATOM     80  C   UNL A   1      51.843  25.337  26.852  1.00  0.00     0.059 A 
ATOM     81  C   UNL A   1      51.447  26.188  24.613  1.00  0.00     0.059 A 
ATOM     82  F   UNL A   1      49.353  27.091  24.067  1.00  0.00    -0.206 F 
ATOM     83  C   UNL A   1      52.291  25.610  25.559  1.00  0.00     0.060 A 
BRANCH  83  84
ATOM     84  S   UNL A   1      53.987  25.169  25.119  1.00  0.00     0.124 S 
ATOM     85  O   UNL A   1      54.157  25.884  23.859  1.00  0.00    -0.237 OA
ATOM     86  O   UNL A   1      54.743  25.685  26.255  1.00  0.00    -0.237 OA
ATOM     87  O   UNL A   1      53.938  23.713  25.016  1.00  0.00    -0.744 OA
ENDBRANCH  83  84
ENDBRANCH  51  76
BRANCH  63  88
ATOM     88  C   UNL A   1      46.692  32.243  28.316  1.00  0.00     0.058 A 
ATOM     89  C   UNL A   1      46.750  33.218  27.309  1.00  0.00     0.135 A 
ATOM     90  C   UNL A   1      47.117  32.605  29.605  1.00  0.00     0.135 A 
ATOM     91  F   UNL A   1      46.362  32.922  26.059  1.00  0.00    -0.206 F 
ATOM     92  C   UNL A   1      47.235  34.497  27.563  1.00  0.00     0.059 A 
ATOM     93  C   UNL A   1      47.576  33.888  29.889  1.00  0.00     0.059 A 
ATOM     94  F   UNL A   1      47.072  31.715  30.608  1.00  0.00    -0.206 F 
ATOM     95  C   UNL A   1      47.643  34.823  28.858  1.00  0.00     0.060 A 
BRANCH  95  96
ATOM     96  S   UNL A   1      48.237  36.497  29.181  1.00  0.00     0.124 S 
ATOM     97  O   UNL A   1      48.229  37.076  27.841  1.00  0.00    -0.237 OA
ATOM     98  O   UNL A   1      47.228  37.014  30.101  1.00  0.00    -0.237 OA
ATOM     99  O   UNL A   1      49.557  36.283  29.765  1.00  0.00    -0.744 OA
ENDBRANCH  95  96
ENDBRANCH  63  88
ENDBRANCH  37  38
ENDBRANCH  29  32
ENDBRANCH  27  28
ENDBRANCH  26  27
ENDBRANCH  25  26
ENDBRANCH   1  25
TORSDOF 20
ENDMDL
MODEL 2
REMARK VINA RESULT:     -10.7      2.572      8.833
REMARK SMILES CC(C)CS(=O)(=O)Cc1c(C(=O)NCCCCCCNC(=O)c2ccc(-c3c4nc(c(-c5c(F)cc(S(=O)(=O)[O-])cc5F)c5ccc([nH]5)c(-c5c(F)cc(S(=O)(=O)[O-])cc5F)c5nc(c(-c6c(F)cc(S(=O)(=O)[O-])cc6F)c6ccc3[nH]6)C=C5)C=C4)cc2)oc2ccccc12
REMARK SMILES IDX 16 1 15 2 14 3 13 4 11 5 12 6 10 8 9 9 95 10 89 11 90 12
REMARK SMILES IDX 94 13 91 14 93 15 92 16 8 17 5 18 6 19 7 20 4 21 2 22 1 23
REMARK SMILES IDX 3 24 17 25 18 26 19 27 20 28 21 29 22 31 23 32 24 33 88 34
REMARK SMILES IDX 25 35 87 36 26 37 27 38 28 39 81 40 29 41 86 42 80 43 82 44
REMARK SMILES IDX 30 45 85 46 79 47 78 48 31 50 65 51 44 52 64 53 45 54 48 55
REMARK SMILES IDX 63 56 83 57 46 58 47 59 62 61 84 62 49 63 32 64 33 65 42 66
REMARK SMILES IDX 34 67 35 68 41 69 43 70 36 71 37 72 38 73 39 74 40 75 66 76
REMARK SMILES IDX 67 77 76 78 68 79 69 80 75 81 77 82 70 83 71 84 72 85 73 86
REMARK SMILES IDX 74 87 50 88 51 89 60 90 52 91 53 92 59 93 61 94 54 95 55 96
REMARK SMILES IDX 56 97 57 98 58 99
REMARK H PARENT 13 7 20 30 82 49 48 60
REMARK Flexibility Score: inf
ROOT
ATOM      1  C   UNL A   1      33.800  30.993  27.807  1.00  0.00     0.002 C 
ENDROOT
BRANCH   1   2
ATOM      2  C   UNL A   1      34.747  29.931  27.237  1.00  0.00     0.021 C 
BRANCH   2   3
ATOM      3  C   UNL A   1      34.073  28.843  26.402  1.00  0.00     0.116 C 
BRANCH   3   4
ATOM      4  N   UNL A   1      33.924  29.227  25.007  1.00  0.00    -0.349 N 
ATOM      5  C   UNL A   1      33.490  28.540  23.901  1.00  0.00     0.287 C 
ATOM      6  O   UNL A   1      33.434  29.192  22.852  1.00  0.00    -0.266 OA
ATOM      7  H   UNL A   1      34.183  30.158  24.821  1.00  0.00     0.163 HD
BRANCH   5   8
ATOM      8  C   UNL A   1      33.138  27.130  23.944  1.00  0.00     0.196 A 
ATOM      9  C   UNL A   1      31.937  26.486  24.260  1.00  0.00     0.027 A 
ATOM     10  C   UNL A   1      32.240  25.081  24.283  1.00  0.00     0.025 A 
ATOM     11  O   UNL A   1      34.097  26.194  23.701  1.00  0.00    -0.451 OA
ATOM     12  C   UNL A   1      33.568  24.970  23.909  1.00  0.00     0.135 A 
ATOM     13  C   UNL A   1      31.547  23.893  24.589  1.00  0.00     0.012 A 
ATOM     14  C   UNL A   1      34.267  23.773  23.784  1.00  0.00     0.048 A 
ATOM     15  C   UNL A   1      32.224  22.667  24.487  1.00  0.00     0.001 A 
ATOM     16  C   UNL A   1      33.559  22.609  24.085  1.00  0.00     0.004 A 
BRANCH   9  17
ATOM     17  C   UNL A   1      30.624  27.121  24.597  1.00  0.00     0.177 C 
BRANCH  17  18
ATOM     18  S   UNL A   1      29.737  27.883  23.227  1.00  0.00     0.154 S 
ATOM     19  O   UNL A   1      28.342  27.486  23.329  1.00  0.00    -0.228 OA
ATOM     20  O   UNL A   1      30.456  27.571  22.002  1.00  0.00    -0.228 OA
BRANCH  18  21
ATOM     21  C   UNL A   1      29.826  29.663  23.434  1.00  0.00     0.140 C 
BRANCH  21  22
ATOM     22  C   UNL A   1      28.560  30.443  23.057  1.00  0.00    -0.002 C 
ATOM     23  C   UNL A   1      28.589  31.885  23.546  1.00  0.00     0.008 C 
ATOM     24  C   UNL A   1      28.389  30.443  21.534  1.00  0.00     0.008 C 
ENDBRANCH  21  22
ENDBRANCH  18  21
ENDBRANCH  17  18
ENDBRANCH   9  17
ENDBRANCH   5   8
ENDBRANCH   3   4
ENDBRANCH   2   3
ENDBRANCH   1   2
BRANCH   1  25
ATOM     25  C   UNL A   1      34.422  32.370  28.063  1.00  0.00     0.002 C 
BRANCH  25  26
ATOM     26  C   UNL A   1      35.944  32.448  27.914  1.00  0.00     0.021 C 
BRANCH  26  27
ATOM     27  C   UNL A   1      36.707  32.742  29.201  1.00  0.00     0.116 C 
BRANCH  27  28
ATOM     28  N   UNL A   1      36.222  31.951  30.320  1.00  0.00    -0.352 N 
ATOM     29  C   UNL A   1      36.717  30.780  30.842  1.00  0.00     0.251 C 
ATOM     30  H   UNL A   1      35.423  32.307  30.771  1.00  0.00     0.163 HD
ATOM     31  O   UNL A   1      36.062  30.159  31.674  1.00  0.00    -0.269 OA
BRANCH  29  32
ATOM     32  C   UNL A   1      38.025  30.257  30.386  1.00  0.00     0.039 A 
ATOM     33  C   UNL A   1      38.216  30.011  29.024  1.00  0.00     0.014 A 
ATOM     34  C   UNL A   1      39.056  29.998  31.295  1.00  0.00     0.014 A 
ATOM     35  C   UNL A   1      39.459  29.565  28.568  1.00  0.00     0.010 A 
ATOM     36  C   UNL A   1      40.315  29.625  30.830  1.00  0.00     0.010 A 
ATOM     37  C   UNL A   1      40.532  29.403  29.461  1.00  0.00    -0.014 A 
BRANCH  37  38
ATOM     38  C   UNL A   1      41.882  29.006  28.981  1.00  0.00     0.031 A 
ATOM     39  C   UNL A   1      42.981  30.031  28.878  1.00  0.00     0.074 A 
ATOM     40  C   UNL A   1      42.102  27.737  28.583  1.00  0.00     0.049 A 
ATOM     41  N   UNL A   1      44.199  29.890  28.417  1.00  0.00    -0.248 NA
ATOM     42  C   UNL A   1      42.666  31.395  29.328  1.00  0.00     0.031 C 
ATOM     43  C   UNL A   1      41.105  26.663  28.591  1.00  0.00     0.029 A 
ATOM     44  N   UNL A   1      43.229  27.135  28.082  1.00  0.00    -0.354 N 
ATOM     45  C   UNL A   1      44.789  31.145  28.515  1.00  0.00     0.074 A 
ATOM     46  C   UNL A   1      43.780  32.047  29.026  1.00  0.00     0.031 C 
ATOM     47  C   UNL A   1      41.670  25.534  28.138  1.00  0.00     0.029 A 
ATOM     48  C   UNL A   1      43.054  25.807  27.767  1.00  0.00     0.049 A 
ATOM     49  H   UNL A   1      44.084  27.609  27.961  1.00  0.00     0.167 HD
ATOM     50  C   UNL A   1      46.063  31.508  28.230  1.00  0.00     0.037 A 
ATOM     51  C   UNL A   1      43.907  24.914  27.226  1.00  0.00     0.037 A 
ATOM     52  C   UNL A   1      47.069  30.601  27.740  1.00  0.00     0.049 A 
ATOM     53  C   UNL A   1      45.314  25.346  26.904  1.00  0.00     0.074 A 
ATOM     54  C   UNL A   1      48.401  30.861  27.467  1.00  0.00     0.029 A 
ATOM     55  N   UNL A   1      46.858  29.261  27.451  1.00  0.00    -0.354 N 
ATOM     56  N   UNL A   1      45.871  26.524  27.061  1.00  0.00    -0.248 NA
ATOM     57  C   UNL A   1      46.209  24.329  26.338  1.00  0.00     0.031 C 
ATOM     58  C   UNL A   1      48.982  29.692  26.967  1.00  0.00     0.029 A 
ATOM     59  C   UNL A   1      48.029  28.688  26.981  1.00  0.00     0.049 A 
ATOM     60  H   UNL A   1      46.001  28.787  27.562  1.00  0.00     0.167 HD
ATOM     61  C   UNL A   1      47.189  26.379  26.642  1.00  0.00     0.074 A 
ATOM     62  C   UNL A   1      47.349  24.998  26.239  1.00  0.00     0.031 C 
ATOM     63  C   UNL A   1      48.177  27.307  26.594  1.00  0.00     0.037 A 
BRANCH  50  64
ATOM     64  C   UNL A   1      46.450  32.946  28.447  1.00  0.00     0.058 A 
ATOM     65  C   UNL A   1      46.322  33.903  27.428  1.00  0.00     0.135 A 
ATOM     66  C   UNL A   1      46.896  33.385  29.704  1.00  0.00     0.135 A 
ATOM     67  F   UNL A   1      45.915  33.538  26.203  1.00  0.00    -0.206 F 
ATOM     68  C   UNL A   1      46.643  35.241  27.641  1.00  0.00     0.059 A 
ATOM     69  C   UNL A   1      47.194  34.723  29.948  1.00  0.00     0.059 A 
ATOM     70  F   UNL A   1      47.038  32.512  30.714  1.00  0.00    -0.206 F 
ATOM     71  C   UNL A   1      47.074  35.642  28.907  1.00  0.00     0.060 A 
BRANCH  71  72
ATOM     72  S   UNL A   1      47.464  37.385  29.170  1.00  0.00     0.124 S 
ATOM     73  O   UNL A   1      48.303  37.674  28.012  1.00  0.00    -0.237 OA
ATOM     74  O   UNL A   1      46.141  38.002  29.165  1.00  0.00    -0.237 OA
ATOM     75  O   UNL A   1      48.150  37.389  30.458  1.00  0.00    -0.744 OA
ENDBRANCH  71  72
ENDBRANCH  50  64
BRANCH  51  76
ATOM     76  C   UNL A   1      43.462  23.519  26.961  1.00  0.00     0.058 A 
ATOM     77  C   UNL A   1      43.204  23.076  25.654  1.00  0.00     0.135 A 
ATOM     78  C   UNL A   1      43.275  22.602  28.008  1.00  0.00     0.135 A 
ATOM     79  F   UNL A   1      43.362  23.915  24.619  1.00  0.00    -0.206 F 
ATOM     80  C   UNL A   1      42.750  21.787  25.397  1.00  0.00     0.059 A 
ATOM     81  C   UNL A   1      42.851  21.298  27.773  1.00  0.00     0.059 A 
ATOM     82  F   UNL A   1      43.524  22.968  29.275  1.00  0.00    -0.206 F 
ATOM     83  C   UNL A   1      42.576  20.905  26.465  1.00  0.00     0.060 A 
BRANCH  83  84
ATOM     84  S   UNL A   1      42.013  19.224  26.117  1.00  0.00     0.124 S 
ATOM     85  O   UNL A   1      42.759  18.910  24.904  1.00  0.00    -0.237 OA
ATOM     86  O   UNL A   1      42.420  18.509  27.322  1.00  0.00    -0.237 OA
ATOM     87  O   UNL A   1      40.571  19.383  25.948  1.00  0.00    -0.744 OA
ENDBRANCH  83  84
ENDBRANCH  51  76
BRANCH  63  88
ATOM     88  C   UNL A   1      49.535  26.853  26.128  1.00  0.00     0.058 A 
ATOM     89  C   UNL A   1      49.923  26.943  24.783  1.00  0.00     0.135 A 
ATOM     90  C   UNL A   1      50.476  26.372  27.052  1.00  0.00     0.135 A 
ATOM     91  F   UNL A   1      49.059  27.390  23.858  1.00  0.00    -0.206 F 
ATOM     92  C   UNL A   1      51.190  26.547  24.365  1.00  0.00     0.059 A 
ATOM     93  C   UNL A   1      51.759  26.000  26.661  1.00  0.00     0.059 A 
ATOM     94  F   UNL A   1      50.161  26.276  28.353  1.00  0.00    -0.206 F 
ATOM     95  C   UNL A   1      52.102  26.080  25.313  1.00  0.00     0.060 A 
BRANCH  95  96
ATOM     96  S   UNL A   1      53.754  25.603  24.760  1.00  0.00     0.124 S 
ATOM     97  O   UNL A   1      54.588  26.141  25.830  1.00  0.00    -0.237 OA
ATOM     98  O   UNL A   1      53.656  24.148  24.704  1.00  0.00    -0.237 OA
ATOM     99  O   UNL A   1      53.884  26.267  23.467  1.00  0.00    -0.744 OA
ENDBRANCH  95  96
ENDBRANCH  63  88
ENDBRANCH  37  38
ENDBRANCH  29  32
ENDBRANCH  27  28
ENDBRANCH  26  27
ENDBRANCH  25  26
ENDBRANCH   1  25
TORSDOF 20
ENDMDL
MODEL 3
REMARK VINA RESULT:     -10.6      6.325     10.874
REMARK SMILES CC(C)CS(=O)(=O)Cc1c(C(=O)NCCCCCCNC(=O)c2ccc(-c3c4nc(c(-c5c(F)cc(S(=O)(=O)[O-])cc5F)c5ccc([nH]5)c(-c5c(F)cc(S(=O)(=O)[O-])cc5F)c5nc(c(-c6c(F)cc(S(=O)(=O)[O-])cc6F)c6ccc3[nH]6)C=C5)C=C4)cc2)oc2ccccc12
REMARK SMILES IDX 16 1 15 2 14 3 13 4 11 5 12 6 10 8 9 9 95 10 89 11 90 12
REMARK SMILES IDX 94 13 91 14 93 15 92 16 8 17 5 18 6 19 7 20 4 21 2 22 1 23
REMARK SMILES IDX 3 24 17 25 18 26 19 27 20 28 21 29 22 31 23 32 24 33 88 34
REMARK SMILES IDX 25 35 87 36 26 37 27 38 28 39 81 40 29 41 86 42 80 43 82 44
REMARK SMILES IDX 30 45 85 46 79 47 78 48 31 50 65 51 44 52 64 53 45 54 48 55
REMARK SMILES IDX 63 56 83 57 46 58 47 59 62 61 84 62 49 63 32 64 33 65 42 66
REMARK SMILES IDX 34 67 35 68 41 69 43 70 36 71 37 72 38 73 39 74 40 75 66 76
REMARK SMILES IDX 67 77 76 78 68 79 69 80 75 81 77 82 70 83 71 84 72 85 73 86
REMARK SMILES IDX 74 87 50 88 51 89 60 90 52 91 53 92 59 93 61 94 54 95 55 96
REMARK SMILES IDX 56 97 57 98 58 99
REMARK H PARENT 13 7 20 30 82 49 48 60
REMARK Flexibility Score: inf
ROOT
ATOM      1  C   UNL A   1      39.376  21.781  26.060  1.00  0.00     0.002 C 
ENDROOT
BRANCH   1   2
ATOM      2  C   UNL A   1      38.792  23.129  26.496  1.00  0.00     0.021 C 
BRANCH   2   3
ATOM      3  C   UNL A   1      37.392  23.433  25.963  1.00  0.00     0.116 C 
BRANCH   3   4
ATOM      4  N   UNL A   1      37.259  23.125  24.548  1.00  0.00    -0.349 N 
ATOM      5  C   UNL A   1      36.216  23.267  23.666  1.00  0.00     0.287 C 
ATOM      6  O   UNL A   1      36.457  22.951  22.495  1.00  0.00    -0.266 OA
ATOM      7  H   UNL A   1      38.072  22.744  24.146  1.00  0.00     0.163 HD
BRANCH   5   8
ATOM      8  C   UNL A   1      34.902  23.737  24.076  1.00  0.00     0.196 A 
ATOM      9  C   UNL A   1      33.888  23.118  24.814  1.00  0.00     0.027 A 
ATOM     10  C   UNL A   1      32.764  24.013  24.762  1.00  0.00     0.025 A 
ATOM     11  O   UNL A   1      34.474  24.963  23.668  1.00  0.00    -0.451 OA
ATOM     12  C   UNL A   1      33.197  25.131  24.069  1.00  0.00     0.135 A 
ATOM     13  C   UNL A   1      31.429  24.001  25.210  1.00  0.00     0.012 A 
ATOM     14  C   UNL A   1      32.424  26.257  23.803  1.00  0.00     0.048 A 
ATOM     15  C   UNL A   1      30.615  25.114  24.949  1.00  0.00     0.001 A 
ATOM     16  C   UNL A   1      31.106  26.225  24.262  1.00  0.00     0.004 A 
BRANCH   9  17
ATOM     17  C   UNL A   1      33.922  21.766  25.454  1.00  0.00     0.177 C 
BRANCH  17  18
ATOM     18  S   UNL A   1      32.999  20.467  24.613  1.00  0.00     0.154 S 
ATOM     19  O   UNL A   1      32.870  20.851  23.217  1.00  0.00    -0.228 OA
ATOM     20  O   UNL A   1      31.787  20.217  25.376  1.00  0.00    -0.228 OA
BRANCH  18  21
ATOM     21  C   UNL A   1      33.972  18.961  24.689  1.00  0.00     0.140 C 
BRANCH  21  22
ATOM     22  C   UNL A   1      33.234  17.669  24.313  1.00  0.00    -0.002 C 
ATOM     23  C   UNL A   1      33.855  16.964  23.115  1.00  0.00     0.008 C 
ATOM     24  C   UNL A   1      33.238  16.708  25.507  1.00  0.00     0.008 C 
ENDBRANCH  21  22
ENDBRANCH  18  21
ENDBRANCH  17  18
ENDBRANCH   9  17
ENDBRANCH   5   8
ENDBRANCH   3   4
ENDBRANCH   2   3
ENDBRANCH   1   2
BRANCH   1  25
ATOM     25  C   UNL A   1      40.654  21.345  26.783  1.00  0.00     0.002 C 
BRANCH  25  26
ATOM     26  C   UNL A   1      41.046  22.183  28.003  1.00  0.00     0.021 C 
BRANCH  26  27
ATOM     27  C   UNL A   1      42.300  23.032  27.830  1.00  0.00     0.116 C 
BRANCH  27  28
ATOM     28  N   UNL A   1      42.343  23.693  26.536  1.00  0.00    -0.352 N 
ATOM     29  C   UNL A   1      42.024  24.988  26.206  1.00  0.00     0.251 C 
ATOM     30  H   UNL A   1      42.646  23.131  25.787  1.00  0.00     0.163 HD
ATOM     31  O   UNL A   1      41.944  25.313  25.025  1.00  0.00    -0.269 OA
BRANCH  29  32
ATOM     32  C   UNL A   1      41.754  25.982  27.270  1.00  0.00     0.039 A 
ATOM     33  C   UNL A   1      40.640  25.804  28.093  1.00  0.00     0.014 A 
ATOM     34  C   UNL A   1      42.587  27.091  27.449  1.00  0.00     0.014 A 
ATOM     35  C   UNL A   1      40.397  26.704  29.135  1.00  0.00     0.010 A 
ATOM     36  C   UNL A   1      42.385  27.944  28.532  1.00  0.00     0.010 A 
ATOM     37  C   UNL A   1      41.287  27.761  29.387  1.00  0.00    -0.014 A 
BRANCH  37  38
ATOM     38  C   UNL A   1      41.086  28.679  30.540  1.00  0.00     0.031 A 
ATOM     39  C   UNL A   1      41.929  28.535  31.780  1.00  0.00     0.074 A 
ATOM     40  C   UNL A   1      40.107  29.604  30.493  1.00  0.00     0.049 A 
ATOM     41  N   UNL A   1      41.854  29.194  32.909  1.00  0.00    -0.248 NA
ATOM     42  C   UNL A   1      42.976  27.502  31.758  1.00  0.00     0.031 C 
ATOM     43  C   UNL A   1      39.193  29.812  29.366  1.00  0.00     0.029 A 
ATOM     44  N   UNL A   1      39.705  30.536  31.417  1.00  0.00    -0.354 N 
ATOM     45  C   UNL A   1      42.835  28.651  33.731  1.00  0.00     0.074 A 
ATOM     46  C   UNL A   1      43.455  27.572  32.992  1.00  0.00     0.031 C 
ATOM     47  C   UNL A   1      38.355  30.818  29.658  1.00  0.00     0.029 A 
ATOM     48  C   UNL A   1      38.638  31.301  31.005  1.00  0.00     0.049 A 
ATOM     49  H   UNL A   1      40.141  30.647  32.294  1.00  0.00     0.167 HD
ATOM     50  C   UNL A   1      43.204  29.033  34.977  1.00  0.00     0.037 A 
ATOM     51  C   UNL A   1      37.956  32.272  31.645  1.00  0.00     0.037 A 
ATOM     52  C   UNL A   1      42.597  30.122  35.700  1.00  0.00     0.049 A 
ATOM     53  C   UNL A   1      38.376  32.668  33.036  1.00  0.00     0.074 A 
ATOM     54  C   UNL A   1      42.932  30.617  36.948  1.00  0.00     0.029 A 
ATOM     55  N   UNL A   1      41.532  30.883  35.241  1.00  0.00    -0.354 N 
ATOM     56  N   UNL A   1      39.347  32.183  33.773  1.00  0.00    -0.248 NA
ATOM     57  C   UNL A   1      37.615  33.746  33.679  1.00  0.00     0.031 C 
ATOM     58  C   UNL A   1      42.039  31.645  37.265  1.00  0.00     0.029 A 
ATOM     59  C   UNL A   1      41.184  31.830  36.192  1.00  0.00     0.049 A 
ATOM     60  H   UNL A   1      41.089  30.768  34.370  1.00  0.00     0.167 HD
ATOM     61  C   UNL A   1      39.331  32.918  34.954  1.00  0.00     0.074 A 
ATOM     62  C   UNL A   1      38.264  33.889  34.826  1.00  0.00     0.031 C 
ATOM     63  C   UNL A   1      40.126  32.799  36.046  1.00  0.00     0.037 A 
BRANCH  50  64
ATOM     64  C   UNL A   1      44.323  28.278  35.642  1.00  0.00     0.058 A 
ATOM     65  C   UNL A   1      44.074  27.163  36.458  1.00  0.00     0.135 A 
ATOM     66  C   UNL A   1      45.662  28.634  35.414  1.00  0.00     0.135 A 
ATOM     67  F   UNL A   1      42.813  26.786  36.724  1.00  0.00    -0.206 F 
ATOM     68  C   UNL A   1      45.111  26.440  37.041  1.00  0.00     0.059 A 
ATOM     69  C   UNL A   1      46.716  27.908  35.962  1.00  0.00     0.059 A 
ATOM     70  F   UNL A   1      45.958  29.692  34.642  1.00  0.00    -0.206 F 
ATOM     71  C   UNL A   1      46.430  26.819  36.783  1.00  0.00     0.060 A 
BRANCH  71  72
ATOM     72  S   UNL A   1      47.762  25.856  37.530  1.00  0.00     0.124 S 
ATOM     73  O   UNL A   1      48.838  26.049  36.563  1.00  0.00    -0.237 OA
ATOM     74  O   UNL A   1      47.939  26.518  38.818  1.00  0.00    -0.237 OA
ATOM     75  O   UNL A   1      47.211  24.505  37.592  1.00  0.00    -0.744 OA
ENDBRANCH  71  72
ENDBRANCH  50  64
BRANCH  51  76
ATOM     76  C   UNL A   1      36.809  32.945  30.978  1.00  0.00     0.058 A 
ATOM     77  C   UNL A   1      37.013  33.881  29.952  1.00  0.00     0.135 A 
ATOM     78  C   UNL A   1      35.484  32.673  31.357  1.00  0.00     0.135 A 
ATOM     79  F   UNL A   1      38.260  34.180  29.557  1.00  0.00    -0.206 F 
ATOM     80  C   UNL A   1      35.951  34.545  29.347  1.00  0.00     0.059 A 
ATOM     81  C   UNL A   1      34.404  33.301  30.746  1.00  0.00     0.059 A 
ATOM     82  F   UNL A   1      35.231  31.773  32.319  1.00  0.00    -0.206 F 
ATOM     83  C   UNL A   1      34.649  34.248  29.753  1.00  0.00     0.060 A 
BRANCH  83  84
ATOM     84  S   UNL A   1      33.275  35.096  28.942  1.00  0.00     0.124 S 
ATOM     85  O   UNL A   1      33.948  36.247  28.353  1.00  0.00    -0.237 OA
ATOM     86  O   UNL A   1      32.800  34.083  28.005  1.00  0.00    -0.237 OA
ATOM     87  O   UNL A   1      32.366  35.392  30.047  1.00  0.00    -0.744 OA
ENDBRANCH  83  84
ENDBRANCH  51  76
BRANCH  63  88
ATOM     88  C   UNL A   1      39.905  33.768  37.177  1.00  0.00     0.058 A 
ATOM     89  C   UNL A   1      40.677  34.931  37.315  1.00  0.00     0.135 A 
ATOM     90  C   UNL A   1      38.870  33.554  38.101  1.00  0.00     0.135 A 
ATOM     91  F   UNL A   1      41.683  35.180  36.462  1.00  0.00    -0.206 F 
ATOM     92  C   UNL A   1      40.448  35.836  38.347  1.00  0.00     0.059 A 
ATOM     93  C   UNL A   1      38.603  34.461  39.122  1.00  0.00     0.059 A 
ATOM     94  F   UNL A   1      38.094  32.462  38.008  1.00  0.00    -0.206 F 
ATOM     95  C   UNL A   1      39.406  35.594  39.244  1.00  0.00     0.060 A 
BRANCH  95  96
ATOM     96  S   UNL A   1      39.098  36.795  40.556  1.00  0.00     0.124 S 
ATOM     97  O   UNL A   1      40.455  37.111  40.990  1.00  0.00    -0.237 OA
ATOM     98  O   UNL A   1      38.396  37.859  39.845  1.00  0.00    -0.237 OA
ATOM     99  O   UNL A   1      38.288  36.050  41.515  1.00  0.00    -0.744 OA
ENDBRANCH  95  96
ENDBRANCH  63  88
ENDBRANCH  37  38
ENDBRANCH  29  32
ENDBRANCH  27  28
ENDBRANCH  26  27
ENDBRANCH  25  26
ENDBRANCH   1  25
TORSDOF 20
ENDMDL
