MODEL 1
REMARK VINA RESULT:     -10.4      0.000      0.000
REMARK SMILES COC(=O)C[C@H](NC(=O)N(C)C[C@@H]1CCC[N@H+]1C)C(=O)NCCCCCCNC(=O)c1ccc(-c2c3nc(c(-c4c(F)cc(S(=O)(=O)[O-])cc4F)c4ccc([nH]4)c(-c4c(F)cc(S(=O)(=O)[O-])cc4F)c4nc(c(-c5c(F)cc(S(=O)(=O)[O-])cc5F)c5ccc2[nH]5)C=C4)C=C3)cc1
REMARK SMILES IDX 24 1 23 2 22 3 21 4 19 5 20 6 6 8 5 9 3 10 4 11 2 12 1 13
REMARK SMILES IDX 7 14 8 15 9 17 10 18 11 19 12 20 13 21 14 22 17 23 15 24
REMARK SMILES IDX 16 25 18 26 25 28 26 29 27 30 28 31 29 32 30 34 31 35 32 36
REMARK SMILES IDX 96 37 33 38 95 39 34 40 35 41 36 42 89 43 37 44 94 45 88 46
REMARK SMILES IDX 90 47 38 48 93 49 87 50 86 51 39 53 73 54 52 55 72 56 53 57
REMARK SMILES IDX 56 58 71 59 91 60 54 61 55 62 70 64 92 65 57 66 40 67 41 68
REMARK SMILES IDX 50 69 42 70 43 71 49 72 51 73 44 74 45 75 46 76 47 77 48 78
REMARK SMILES IDX 74 79 75 80 84 81 76 82 77 83 83 84 85 85 78 86 79 87 80 88
REMARK SMILES IDX 81 89 82 90 58 91 59 92 68 93 60 94 61 95 67 96 69 97 62 98
REMARK SMILES IDX 63 99 64 100 65 101 66 102
REMARK H PARENT 21 7 7 16 17 27 28 33 90 52 56 63
REMARK Flexibility Score: inf
ROOT
ATOM      1  C   UNL A   1      34.770  30.816  27.350  1.00  0.00     0.002 C 
ENDROOT
BRANCH   1   2
ATOM      2  C   UNL A   1      33.445  30.047  27.282  1.00  0.00     0.021 C 
BRANCH   2   3
ATOM      3  C   UNL A   1      33.573  28.578  26.893  1.00  0.00     0.116 C 
BRANCH   3   4
ATOM      4  N   UNL A   1      32.357  27.828  27.151  1.00  0.00    -0.354 N 
ATOM      5  C   UNL A   1      31.426  27.316  26.298  1.00  0.00     0.243 C 
ATOM      6  O   UNL A   1      30.612  26.514  26.771  1.00  0.00    -0.273 OA
ATOM      7  H   UNL A   1      32.176  27.660  28.104  1.00  0.00     0.163 HD
BRANCH   5   8
ATOM      8  C   UNL A   1      31.467  27.577  24.779  1.00  0.00     0.184 C 
BRANCH   8   9
ATOM      9  C   UNL A   1      30.068  27.315  24.218  1.00  0.00     0.157 C 
BRANCH   9  10
ATOM     10  C   UNL A   1      29.877  28.002  22.902  1.00  0.00     0.308 C 
ATOM     11  O   UNL A   1      30.568  27.773  21.916  1.00  0.00    -0.252 OA
BRANCH  10  12
ATOM     12  O   UNL A   1      28.864  28.903  22.961  1.00  0.00    -0.469 OA
ATOM     13  C   UNL A   1      28.966  29.939  21.984  1.00  0.00     0.282 C 
ENDBRANCH  10  12
ENDBRANCH   9  10
ENDBRANCH   8   9
BRANCH   8  14
ATOM     14  N   UNL A   1      32.500  26.787  24.111  1.00  0.00    -0.326 N 
ATOM     15  C   UNL A   1      32.716  25.490  23.861  1.00  0.00     0.318 C 
ATOM     16  H   UNL A   1      33.221  27.354  23.755  1.00  0.00     0.166 HD
ATOM     17  O   UNL A   1      33.769  25.270  23.248  1.00  0.00    -0.249 OA
BRANCH  15  18
ATOM     18  N   UNL A   1      31.872  24.475  24.205  1.00  0.00    -0.322 N 
ATOM     19  C   UNL A   1      30.727  23.931  23.494  1.00  0.00     0.149 C 
BRANCH  18  20
ATOM     20  C   UNL A   1      32.126  23.843  25.508  1.00  0.00     0.185 C 
BRANCH  20  21
ATOM     21  C   UNL A   1      33.367  22.907  25.580  1.00  0.00     0.203 C 
ATOM     22  C   UNL A   1      34.663  23.559  26.084  1.00  0.00     0.073 C 
ATOM     23  N   UNL A   1      33.805  22.283  24.306  1.00  0.00    -0.333 N 
ATOM     24  C   UNL A   1      35.797  22.757  25.461  1.00  0.00     0.068 C 
ATOM     25  C   UNL A   1      35.115  21.693  24.624  1.00  0.00     0.262 C 
ATOM     26  C   UNL A   1      32.889  21.247  23.832  1.00  0.00     0.333 C 
ATOM     27  H   UNL A   1      33.835  22.972  23.555  1.00  0.00     0.348 HD
ENDBRANCH  20  21
ENDBRANCH  18  20
ENDBRANCH  15  18
ENDBRANCH   8  14
ENDBRANCH   5   8
ENDBRANCH   3   4
ENDBRANCH   2   3
ENDBRANCH   1   2
BRANCH   1  28
ATOM     28  C   UNL A   1      34.708  32.183  28.039  1.00  0.00     0.002 C 
BRANCH  28  29
ATOM     29  C   UNL A   1      36.033  32.945  28.111  1.00  0.00     0.021 C 
BRANCH  29  30
ATOM     30  C   UNL A   1      36.689  32.960  29.486  1.00  0.00     0.116 C 
BRANCH  30  31
ATOM     31  N   UNL A   1      36.157  31.931  30.365  1.00  0.00    -0.352 N 
ATOM     32  C   UNL A   1      36.686  30.699  30.671  1.00  0.00     0.251 C 
ATOM     33  H   UNL A   1      35.300  32.146  30.800  1.00  0.00     0.163 HD
ATOM     34  O   UNL A   1      36.019  29.879  31.294  1.00  0.00    -0.269 OA
BRANCH  32  35
ATOM     35  C   UNL A   1      38.056  30.365  30.225  1.00  0.00     0.039 A 
ATOM     36  C   UNL A   1      39.089  30.331  31.165  1.00  0.00     0.014 A 
ATOM     37  C   UNL A   1      38.313  30.071  28.884  1.00  0.00     0.014 A 
ATOM     38  C   UNL A   1      40.372  29.946  30.767  1.00  0.00     0.010 A 
ATOM     39  C   UNL A   1      39.570  29.610  28.507  1.00  0.00     0.010 A 
ATOM     40  C   UNL A   1      40.616  29.552  29.441  1.00  0.00    -0.014 A 
BRANCH  40  41
ATOM     41  C   UNL A   1      41.958  29.098  28.994  1.00  0.00     0.031 A 
ATOM     42  C   UNL A   1      43.082  30.093  28.885  1.00  0.00     0.074 A 
ATOM     43  C   UNL A   1      42.146  27.820  28.609  1.00  0.00     0.049 A 
ATOM     44  N   UNL A   1      44.289  29.930  28.406  1.00  0.00    -0.248 NA
ATOM     45  C   UNL A   1      42.800  31.462  29.346  1.00  0.00     0.031 C 
ATOM     46  C   UNL A   1      41.125  26.771  28.633  1.00  0.00     0.029 A 
ATOM     47  N   UNL A   1      43.256  27.192  28.104  1.00  0.00    -0.354 N 
ATOM     48  C   UNL A   1      44.899  31.178  28.488  1.00  0.00     0.074 A 
ATOM     49  C   UNL A   1      43.911  32.097  29.008  1.00  0.00     0.031 C 
ATOM     50  C   UNL A   1      41.661  25.627  28.177  1.00  0.00     0.029 A 
ATOM     51  C   UNL A   1      43.046  25.870  27.784  1.00  0.00     0.049 A 
ATOM     52  H   UNL A   1      44.121  27.643  27.982  1.00  0.00     0.167 HD
ATOM     53  C   UNL A   1      46.172  31.520  28.179  1.00  0.00     0.037 A 
ATOM     54  C   UNL A   1      43.869  24.962  27.225  1.00  0.00     0.037 A 
ATOM     55  C   UNL A   1      47.153  30.592  27.679  1.00  0.00     0.049 A 
ATOM     56  C   UNL A   1      45.277  25.364  26.877  1.00  0.00     0.074 A 
ATOM     57  C   UNL A   1      48.485  30.824  27.385  1.00  0.00     0.029 A 
ATOM     58  N   UNL A   1      46.908  29.256  27.394  1.00  0.00    -0.354 N 
ATOM     59  N   UNL A   1      45.856  26.534  27.012  1.00  0.00    -0.248 NA
ATOM     60  C   UNL A   1      46.145  24.325  26.307  1.00  0.00     0.031 C 
ATOM     61  C   UNL A   1      49.031  29.643  26.870  1.00  0.00     0.029 A 
ATOM     62  C   UNL A   1      48.057  28.656  26.906  1.00  0.00     0.049 A 
ATOM     63  H   UNL A   1      46.044  28.800  27.520  1.00  0.00     0.167 HD
ATOM     64  C   UNL A   1      47.167  26.363  26.577  1.00  0.00     0.074 A 
ATOM     65  C   UNL A   1      47.294  24.976  26.178  1.00  0.00     0.031 C 
ATOM     66  C   UNL A   1      48.174  27.269  26.523  1.00  0.00     0.037 A 
BRANCH  53  67
ATOM     67  C   UNL A   1      46.569  32.961  28.363  1.00  0.00     0.058 A 
ATOM     68  C   UNL A   1      47.093  33.437  29.577  1.00  0.00     0.135 A 
ATOM     69  C   UNL A   1      46.434  33.878  27.308  1.00  0.00     0.135 A 
ATOM     70  F   UNL A   1      47.233  32.609  30.625  1.00  0.00    -0.206 F 
ATOM     71  C   UNL A   1      47.423  34.777  29.752  1.00  0.00     0.059 A 
ATOM     72  C   UNL A   1      46.791  35.216  27.450  1.00  0.00     0.059 A 
ATOM     73  F   UNL A   1      45.943  33.479  26.123  1.00  0.00    -0.206 F 
ATOM     74  C   UNL A   1      47.265  35.659  28.683  1.00  0.00     0.060 A 
BRANCH  74  75
ATOM     75  S   UNL A   1      47.681  37.398  28.933  1.00  0.00     0.124 S 
ATOM     76  O   UNL A   1      49.045  37.448  28.413  1.00  0.00    -0.237 OA
ATOM     77  O   UNL A   1      46.672  38.079  28.128  1.00  0.00    -0.237 OA
ATOM     78  O   UNL A   1      47.554  37.576  30.376  1.00  0.00    -0.744 OA
ENDBRANCH  74  75
ENDBRANCH  53  67
BRANCH  54  79
ATOM     79  C   UNL A   1      43.382  23.577  26.981  1.00  0.00     0.058 A 
ATOM     80  C   UNL A   1      43.095  23.130  25.684  1.00  0.00     0.135 A 
ATOM     81  C   UNL A   1      43.233  22.661  28.035  1.00  0.00     0.135 A 
ATOM     82  F   UNL A   1      43.214  23.970  24.643  1.00  0.00    -0.206 F 
ATOM     83  C   UNL A   1      42.669  21.829  25.437  1.00  0.00     0.059 A 
ATOM     84  C   UNL A   1      42.834  21.346  27.812  1.00  0.00     0.059 A 
ATOM     85  F   UNL A   1      43.510  23.033  29.295  1.00  0.00    -0.206 F 
ATOM     86  C   UNL A   1      42.550  20.941  26.509  1.00  0.00     0.060 A 
BRANCH  86  87
ATOM     87  S   UNL A   1      42.066  19.235  26.167  1.00  0.00     0.124 S 
ATOM     88  O   UNL A   1      40.628  19.371  25.965  1.00  0.00    -0.237 OA
ATOM     89  O   UNL A   1      42.853  18.928  24.976  1.00  0.00    -0.237 OA
ATOM     90  O   UNL A   1      42.470  18.522  27.375  1.00  0.00    -0.744 OA
ENDBRANCH  86  87
ENDBRANCH  54  79
BRANCH  66  91
ATOM     91  C   UNL A   1      49.524  26.790  26.062  1.00  0.00     0.058 A 
ATOM     92  C   UNL A   1      50.014  27.066  24.777  1.00  0.00     0.135 A 
ATOM     93  C   UNL A   1      50.369  26.105  26.951  1.00  0.00     0.135 A 
ATOM     94  F   UNL A   1      49.247  27.712  23.884  1.00  0.00    -0.206 F 
ATOM     95  C   UNL A   1      51.288  26.666  24.384  1.00  0.00     0.059 A 
ATOM     96  C   UNL A   1      51.656  25.723  26.591  1.00  0.00     0.059 A 
ATOM     97  F   UNL A   1      49.954  25.824  28.197  1.00  0.00    -0.206 F 
ATOM     98  C   UNL A   1      52.104  26.001  25.301  1.00  0.00     0.060 A 
BRANCH  98  99
ATOM     99  S   UNL A   1      53.773  25.532  24.793  1.00  0.00     0.124 S 
ATOM    100  O   UNL A   1      54.591  26.287  25.736  1.00  0.00    -0.237 OA
ATOM    101  O   UNL A   1      53.760  24.084  24.981  1.00  0.00    -0.237 OA
ATOM    102  O   UNL A   1      53.844  25.977  23.405  1.00  0.00    -0.744 OA
ENDBRANCH  98  99
ENDBRANCH  66  91
ENDBRANCH  40  41
ENDBRANCH  32  35
ENDBRANCH  30  31
ENDBRANCH  29  30
ENDBRANCH  28  29
ENDBRANCH   1  28
TORSDOF 23
ENDMDL
MODEL 2
REMARK VINA RESULT:     -10.3      1.451      3.153
REMARK SMILES COC(=O)C[C@H](NC(=O)N(C)C[C@@H]1CCC[N@H+]1C)C(=O)NCCCCCCNC(=O)c1ccc(-c2c3nc(c(-c4c(F)cc(S(=O)(=O)[O-])cc4F)c4ccc([nH]4)c(-c4c(F)cc(S(=O)(=O)[O-])cc4F)c4nc(c(-c5c(F)cc(S(=O)(=O)[O-])cc5F)c5ccc2[nH]5)C=C4)C=C3)cc1
REMARK SMILES IDX 24 1 23 2 22 3 21 4 19 5 20 6 6 8 5 9 3 10 4 11 2 12 1 13
REMARK SMILES IDX 7 14 8 15 9 17 10 18 11 19 12 20 13 21 14 22 17 23 15 24
REMARK SMILES IDX 16 25 18 26 25 28 26 29 27 30 28 31 29 32 30 34 31 35 32 36
REMARK SMILES IDX 96 37 33 38 95 39 34 40 35 41 36 42 89 43 37 44 94 45 88 46
REMARK SMILES IDX 90 47 38 48 93 49 87 50 86 51 39 53 73 54 52 55 72 56 53 57
REMARK SMILES IDX 56 58 71 59 91 60 54 61 55 62 70 64 92 65 57 66 40 67 41 68
REMARK SMILES IDX 50 69 42 70 43 71 49 72 51 73 44 74 45 75 46 76 47 77 48 78
REMARK SMILES IDX 74 79 75 80 84 81 76 82 77 83 83 84 85 85 78 86 79 87 80 88
REMARK SMILES IDX 81 89 82 90 58 91 59 92 68 93 60 94 61 95 67 96 69 97 62 98
REMARK SMILES IDX 63 99 64 100 65 101 66 102
REMARK H PARENT 21 7 7 16 17 27 28 33 90 52 56 63
REMARK Flexibility Score: inf
ROOT
ATOM      1  C   UNL A   1      33.963  28.213  27.034  1.00  0.00     0.002 C 
ENDROOT
BRANCH   1   2
ATOM      2  C   UNL A   1      33.504  27.061  26.132  1.00  0.00     0.021 C 
BRANCH   2   3
ATOM      3  C   UNL A   1      31.994  26.870  26.049  1.00  0.00     0.116 C 
BRANCH   3   4
ATOM      4  N   UNL A   1      31.530  25.759  26.860  1.00  0.00    -0.354 N 
ATOM      5  C   UNL A   1      31.531  24.417  26.621  1.00  0.00     0.243 C 
ATOM      6  O   UNL A   1      31.295  23.676  27.581  1.00  0.00    -0.273 OA
ATOM      7  H   UNL A   1      31.152  26.019  27.730  1.00  0.00     0.163 HD
BRANCH   5   8
ATOM      8  C   UNL A   1      31.968  23.820  25.267  1.00  0.00     0.184 C 
BRANCH   8   9
ATOM      9  C   UNL A   1      31.683  22.317  25.300  1.00  0.00     0.157 C 
BRANCH   9  10
ATOM     10  C   UNL A   1      32.938  21.535  25.528  1.00  0.00     0.308 C 
ATOM     11  O   UNL A   1      33.540  21.524  26.595  1.00  0.00    -0.252 OA
BRANCH  10  12
ATOM     12  O   UNL A   1      33.312  20.869  24.406  1.00  0.00    -0.469 OA
ATOM     13  C   UNL A   1      32.324  19.952  23.934  1.00  0.00     0.282 C 
ENDBRANCH  10  12
ENDBRANCH   9  10
ENDBRANCH   8   9
BRANCH   8  14
ATOM     14  N   UNL A   1      33.363  24.123  24.955  1.00  0.00    -0.326 N 
ATOM     15  C   UNL A   1      34.086  24.322  23.846  1.00  0.00     0.318 C 
ATOM     16  H   UNL A   1      33.912  24.202  25.769  1.00  0.00     0.166 HD
ATOM     17  O   UNL A   1      35.283  24.552  24.067  1.00  0.00    -0.249 OA
BRANCH  15  18
ATOM     18  N   UNL A   1      33.590  24.309  22.575  1.00  0.00    -0.322 N 
ATOM     19  C   UNL A   1      33.172  23.188  21.749  1.00  0.00     0.149 C 
BRANCH  18  20
ATOM     20  C   UNL A   1      33.483  25.617  21.914  1.00  0.00     0.185 C 
BRANCH  20  21
ATOM     21  C   UNL A   1      32.567  26.661  22.616  1.00  0.00     0.203 C 
ATOM     22  C   UNL A   1      31.060  26.488  22.379  1.00  0.00     0.073 C 
ATOM     23  N   UNL A   1      32.780  28.084  22.253  1.00  0.00    -0.333 N 
ATOM     24  C   UNL A   1      30.455  27.877  22.536  1.00  0.00     0.068 C 
ATOM     25  C   UNL A   1      31.630  28.785  22.844  1.00  0.00     0.262 C 
ATOM     26  C   UNL A   1      34.028  28.629  22.784  1.00  0.00     0.333 C 
ATOM     27  H   UNL A   1      32.854  28.195  21.241  1.00  0.00     0.348 HD
ENDBRANCH  20  21
ENDBRANCH  18  20
ENDBRANCH  15  18
ENDBRANCH   8  14
ENDBRANCH   5   8
ENDBRANCH   3   4
ENDBRANCH   2   3
ENDBRANCH   1   2
BRANCH   1  28
ATOM     28  C   UNL A   1      33.508  29.612  26.607  1.00  0.00     0.002 C 
BRANCH  28  29
ATOM     29  C   UNL A   1      34.242  30.776  27.275  1.00  0.00     0.021 C 
BRANCH  29  30
ATOM     30  C   UNL A   1      35.460  30.377  28.098  1.00  0.00     0.116 C 
BRANCH  30  31
ATOM     31  N   UNL A   1      35.339  30.771  29.494  1.00  0.00    -0.352 N 
ATOM     32  C   UNL A   1      36.283  30.712  30.491  1.00  0.00     0.251 C 
ATOM     33  H   UNL A   1      34.461  31.126  29.760  1.00  0.00     0.163 HD
ATOM     34  O   UNL A   1      35.962  30.919  31.657  1.00  0.00    -0.269 OA
BRANCH  32  35
ATOM     35  C   UNL A   1      37.683  30.378  30.148  1.00  0.00     0.039 A 
ATOM     36  C   UNL A   1      38.504  29.803  31.122  1.00  0.00     0.014 A 
ATOM     37  C   UNL A   1      38.176  30.620  28.864  1.00  0.00     0.014 A 
ATOM     38  C   UNL A   1      39.804  29.417  30.788  1.00  0.00     0.010 A 
ATOM     39  C   UNL A   1      39.441  30.162  28.513  1.00  0.00     0.010 A 
ATOM     40  C   UNL A   1      40.273  29.564  29.473  1.00  0.00    -0.014 A 
BRANCH  40  41
ATOM     41  C   UNL A   1      41.636  29.128  29.074  1.00  0.00     0.031 A 
ATOM     42  C   UNL A   1      42.755  30.134  29.021  1.00  0.00     0.074 A 
ATOM     43  C   UNL A   1      41.851  27.856  28.682  1.00  0.00     0.049 A 
ATOM     44  N   UNL A   1      43.981  29.988  28.590  1.00  0.00    -0.248 NA
ATOM     45  C   UNL A   1      42.441  31.495  29.487  1.00  0.00     0.031 C 
ATOM     46  C   UNL A   1      40.841  26.798  28.654  1.00  0.00     0.029 A 
ATOM     47  N   UNL A   1      42.987  27.244  28.215  1.00  0.00    -0.354 N 
ATOM     48  C   UNL A   1      44.575  31.239  28.710  1.00  0.00     0.074 A 
ATOM     49  C   UNL A   1      43.559  32.143  29.201  1.00  0.00     0.031 C 
ATOM     50  C   UNL A   1      41.405  25.664  28.206  1.00  0.00     0.029 A 
ATOM     51  C   UNL A   1      42.802  25.925  27.872  1.00  0.00     0.049 A 
ATOM     52  H   UNL A   1      43.852  27.704  28.133  1.00  0.00     0.167 HD
ATOM     53  C   UNL A   1      45.857  31.597  28.456  1.00  0.00     0.037 A 
ATOM     54  C   UNL A   1      43.655  25.031  27.335  1.00  0.00     0.037 A 
ATOM     55  C   UNL A   1      46.865  30.683  27.985  1.00  0.00     0.049 A 
ATOM     56  C   UNL A   1      45.072  25.449  27.048  1.00  0.00     0.074 A 
ATOM     57  C   UNL A   1      48.206  30.931  27.748  1.00  0.00     0.029 A 
ATOM     58  N   UNL A   1      46.645  29.348  27.675  1.00  0.00    -0.354 N 
ATOM     59  N   UNL A   1      45.635  26.622  27.220  1.00  0.00    -0.248 NA
ATOM     60  C   UNL A   1      45.972  24.425  26.502  1.00  0.00     0.031 C 
ATOM     61  C   UNL A   1      48.783  29.761  27.241  1.00  0.00     0.029 A 
ATOM     62  C   UNL A   1      47.818  28.765  27.227  1.00  0.00     0.049 A 
ATOM     63  H   UNL A   1      45.781  28.884  27.761  1.00  0.00     0.167 HD
ATOM     64  C   UNL A   1      46.964  26.468  26.837  1.00  0.00     0.074 A 
ATOM     65  C   UNL A   1      47.119  25.087  26.427  1.00  0.00     0.031 C 
ATOM     66  C   UNL A   1      47.963  27.384  26.833  1.00  0.00     0.037 A 
BRANCH  53  67
ATOM     67  C   UNL A   1      46.233  33.039  28.672  1.00  0.00     0.058 A 
ATOM     68  C   UNL A   1      46.118  33.996  27.650  1.00  0.00     0.135 A 
ATOM     69  C   UNL A   1      46.705  33.474  29.921  1.00  0.00     0.135 A 
ATOM     70  F   UNL A   1      45.685  33.636  26.431  1.00  0.00    -0.206 F 
ATOM     71  C   UNL A   1      46.501  35.319  27.844  1.00  0.00     0.059 A 
ATOM     72  C   UNL A   1      47.061  34.800  30.148  1.00  0.00     0.059 A 
ATOM     73  F   UNL A   1      46.832  32.605  30.937  1.00  0.00    -0.206 F 
ATOM     74  C   UNL A   1      46.975  35.711  29.096  1.00  0.00     0.060 A 
BRANCH  74  75
ATOM     75  S   UNL A   1      47.485  37.427  29.326  1.00  0.00     0.124 S 
ATOM     76  O   UNL A   1      48.831  37.259  29.868  1.00  0.00    -0.237 OA
ATOM     77  O   UNL A   1      47.410  37.959  27.970  1.00  0.00    -0.237 OA
ATOM     78  O   UNL A   1      46.496  37.955  30.260  1.00  0.00    -0.744 OA
ENDBRANCH  74  75
ENDBRANCH  53  67
BRANCH  54  79
ATOM     79  C   UNL A   1      43.192  23.644  27.057  1.00  0.00     0.058 A 
ATOM     80  C   UNL A   1      42.932  23.219  25.746  1.00  0.00     0.135 A 
ATOM     81  C   UNL A   1      43.037  22.706  28.090  1.00  0.00     0.135 A 
ATOM     82  F   UNL A   1      43.057  24.080  24.724  1.00  0.00    -0.206 F 
ATOM     83  C   UNL A   1      42.528  21.917  25.467  1.00  0.00     0.059 A 
ATOM     84  C   UNL A   1      42.661  21.390  27.834  1.00  0.00     0.059 A 
ATOM     85  F   UNL A   1      43.288  23.056  29.361  1.00  0.00    -0.206 F 
ATOM     86  C   UNL A   1      42.403  21.007  26.519  1.00  0.00     0.060 A 
BRANCH  86  87
ATOM     87  S   UNL A   1      41.949  19.301  26.136  1.00  0.00     0.124 S 
ATOM     88  O   UNL A   1      42.787  19.026  24.975  1.00  0.00    -0.237 OA
ATOM     89  O   UNL A   1      42.313  18.606  27.367  1.00  0.00    -0.237 OA
ATOM     90  O   UNL A   1      40.515  19.386  25.875  1.00  0.00    -0.744 OA
ENDBRANCH  86  87
ENDBRANCH  54  79
BRANCH  66  91
ATOM     91  C   UNL A   1      49.335  26.922  26.421  1.00  0.00     0.058 A 
ATOM     92  C   UNL A   1      50.194  26.255  27.306  1.00  0.00     0.135 A 
ATOM     93  C   UNL A   1      49.764  27.088  25.092  1.00  0.00     0.135 A 
ATOM     94  F   UNL A   1      49.837  26.075  28.587  1.00  0.00    -0.206 F 
ATOM     95  C   UNL A   1      51.436  25.782  26.894  1.00  0.00     0.059 A 
ATOM     96  C   UNL A   1      50.987  26.597  24.652  1.00  0.00     0.059 A 
ATOM     97  F   UNL A   1      48.977  27.711  24.201  1.00  0.00    -0.206 F 
ATOM     98  C   UNL A   1      51.821  25.952  25.563  1.00  0.00     0.060 A 
BRANCH  98  99
ATOM     99  S   UNL A   1      53.415  25.289  25.031  1.00  0.00     0.124 S 
ATOM    100  O   UNL A   1      54.345  26.079  25.831  1.00  0.00    -0.237 OA
ATOM    101  O   UNL A   1      53.303  23.880  25.395  1.00  0.00    -0.237 OA
ATOM    102  O   UNL A   1      53.435  25.560  23.597  1.00  0.00    -0.744 OA
ENDBRANCH  98  99
ENDBRANCH  66  91
ENDBRANCH  40  41
ENDBRANCH  32  35
ENDBRANCH  30  31
ENDBRANCH  29  30
ENDBRANCH  28  29
ENDBRANCH   1  28
TORSDOF 23
ENDMDL
MODEL 3
REMARK VINA RESULT:     -10.3      6.362     12.085
REMARK SMILES COC(=O)C[C@H](NC(=O)N(C)C[C@@H]1CCC[N@H+]1C)C(=O)NCCCCCCNC(=O)c1ccc(-c2c3nc(c(-c4c(F)cc(S(=O)(=O)[O-])cc4F)c4ccc([nH]4)c(-c4c(F)cc(S(=O)(=O)[O-])cc4F)c4nc(c(-c5c(F)cc(S(=O)(=O)[O-])cc5F)c5ccc2[nH]5)C=C4)C=C3)cc1
REMARK SMILES IDX 24 1 23 2 22 3 21 4 19 5 20 6 6 8 5 9 3 10 4 11 2 12 1 13
REMARK SMILES IDX 7 14 8 15 9 17 10 18 11 19 12 20 13 21 14 22 17 23 15 24
REMARK SMILES IDX 16 25 18 26 25 28 26 29 27 30 28 31 29 32 30 34 31 35 32 36
REMARK SMILES IDX 96 37 33 38 95 39 34 40 35 41 36 42 89 43 37 44 94 45 88 46
REMARK SMILES IDX 90 47 38 48 93 49 87 50 86 51 39 53 73 54 52 55 72 56 53 57
REMARK SMILES IDX 56 58 71 59 91 60 54 61 55 62 70 64 92 65 57 66 40 67 41 68
REMARK SMILES IDX 50 69 42 70 43 71 49 72 51 73 44 74 45 75 46 76 47 77 48 78
REMARK SMILES IDX 74 79 75 80 84 81 76 82 77 83 83 84 85 85 78 86 79 87 80 88
REMARK SMILES IDX 81 89 82 90 58 91 59 92 68 93 60 94 61 95 67 96 69 97 62 98
REMARK SMILES IDX 63 99 64 100 65 101 66 102
REMARK H PARENT 21 7 7 16 17 27 28 33 90 52 56 63
REMARK Flexibility Score: inf
ROOT
ATOM      1  C   UNL A   1      39.182  22.049  26.166  1.00  0.00     0.002 C 
ENDROOT
BRANCH   1   2
ATOM      2  C   UNL A   1      38.224  21.117  25.413  1.00  0.00     0.021 C 
BRANCH   2   3
ATOM      3  C   UNL A   1      36.874  21.731  25.060  1.00  0.00     0.116 C 
BRANCH   3   4
ATOM      4  N   UNL A   1      35.978  21.795  26.201  1.00  0.00    -0.354 N 
ATOM      5  C   UNL A   1      34.659  21.474  26.320  1.00  0.00     0.243 C 
ATOM      6  O   UNL A   1      34.201  21.397  27.466  1.00  0.00    -0.273 OA
ATOM      7  H   UNL A   1      36.395  22.125  27.029  1.00  0.00     0.163 HD
BRANCH   5   8
ATOM      8  C   UNL A   1      33.799  21.055  25.110  1.00  0.00     0.184 C 
BRANCH   8   9
ATOM      9  C   UNL A   1      34.051  19.570  24.843  1.00  0.00     0.157 C 
BRANCH   9  10
ATOM     10  C   UNL A   1      32.773  18.792  24.874  1.00  0.00     0.308 C 
ATOM     11  O   UNL A   1      31.823  19.028  24.137  1.00  0.00    -0.252 OA
BRANCH  10  12
ATOM     12  O   UNL A   1      32.813  17.821  25.822  1.00  0.00    -0.469 OA
ATOM     13  C   UNL A   1      33.530  16.657  25.413  1.00  0.00     0.282 C 
ENDBRANCH  10  12
ENDBRANCH   9  10
ENDBRANCH   8   9
BRANCH   8  14
ATOM     14  N   UNL A   1      34.052  21.891  23.938  1.00  0.00    -0.326 N 
ATOM     15  C   UNL A   1      33.770  23.145  23.563  1.00  0.00     0.318 C 
ATOM     16  H   UNL A   1      34.561  21.409  23.247  1.00  0.00     0.166 HD
ATOM     17  O   UNL A   1      34.192  23.435  22.436  1.00  0.00    -0.249 OA
BRANCH  15  18
ATOM     18  N   UNL A   1      33.106  24.059  24.328  1.00  0.00    -0.322 N 
ATOM     19  C   UNL A   1      33.560  24.814  25.484  1.00  0.00     0.149 C 
BRANCH  18  20
ATOM     20  C   UNL A   1      31.705  24.308  23.959  1.00  0.00     0.185 C 
BRANCH  20  21
ATOM     21  C   UNL A   1      31.294  25.802  23.813  1.00  0.00     0.203 C 
ATOM     22  C   UNL A   1      29.827  26.122  24.134  1.00  0.00     0.073 C 
ATOM     23  N   UNL A   1      31.462  26.411  22.470  1.00  0.00    -0.333 N 
ATOM     24  C   UNL A   1      29.489  27.365  23.322  1.00  0.00     0.068 C 
ATOM     25  C   UNL A   1      30.760  27.700  22.567  1.00  0.00     0.262 C 
ATOM     26  C   UNL A   1      32.862  26.626  22.110  1.00  0.00     0.333 C 
ATOM     27  H   UNL A   1      31.094  25.796  21.744  1.00  0.00     0.348 HD
ENDBRANCH  20  21
ENDBRANCH  18  20
ENDBRANCH  15  18
ENDBRANCH   8  14
ENDBRANCH   5   8
ENDBRANCH   3   4
ENDBRANCH   2   3
ENDBRANCH   1   2
BRANCH   1  28
ATOM     28  C   UNL A   1      40.487  21.408  26.649  1.00  0.00     0.002 C 
BRANCH  28  29
ATOM     29  C   UNL A   1      41.131  22.065  27.871  1.00  0.00     0.021 C 
BRANCH  29  30
ATOM     30  C   UNL A   1      42.378  22.888  27.573  1.00  0.00     0.116 C 
BRANCH  30  31
ATOM     31  N   UNL A   1      42.261  23.644  26.336  1.00  0.00    -0.352 N 
ATOM     32  C   UNL A   1      41.911  24.962  26.161  1.00  0.00     0.251 C 
ATOM     33  H   UNL A   1      42.458  23.143  25.512  1.00  0.00     0.163 HD
ATOM     34  O   UNL A   1      41.688  25.397  25.035  1.00  0.00    -0.269 OA
BRANCH  32  35
ATOM     35  C   UNL A   1      41.787  25.845  27.342  1.00  0.00     0.039 A 
ATOM     36  C   UNL A   1      42.789  26.785  27.597  1.00  0.00     0.014 A 
ATOM     37  C   UNL A   1      40.677  25.752  28.183  1.00  0.00     0.014 A 
ATOM     38  C   UNL A   1      42.646  27.672  28.667  1.00  0.00     0.010 A 
ATOM     39  C   UNL A   1      40.498  26.687  29.197  1.00  0.00     0.010 A 
ATOM     40  C   UNL A   1      41.485  27.652  29.456  1.00  0.00    -0.014 A 
BRANCH  40  41
ATOM     41  C   UNL A   1      41.283  28.606  30.577  1.00  0.00     0.031 A 
ATOM     42  C   UNL A   1      42.116  28.480  31.823  1.00  0.00     0.074 A 
ATOM     43  C   UNL A   1      40.302  29.529  30.509  1.00  0.00     0.049 A 
ATOM     44  N   UNL A   1      42.020  29.130  32.954  1.00  0.00    -0.248 NA
ATOM     45  C   UNL A   1      43.179  27.462  31.806  1.00  0.00     0.031 C 
ATOM     46  C   UNL A   1      39.404  29.726  29.371  1.00  0.00     0.029 A 
ATOM     47  N   UNL A   1      39.885  30.460  31.427  1.00  0.00    -0.354 N 
ATOM     48  C   UNL A   1      42.992  28.586  33.787  1.00  0.00     0.074 A 
ATOM     49  C   UNL A   1      43.626  27.515  33.051  1.00  0.00     0.031 C 
ATOM     50  C   UNL A   1      38.551  30.725  29.653  1.00  0.00     0.029 A 
ATOM     51  C   UNL A   1      38.810  31.208  31.006  1.00  0.00     0.049 A 
ATOM     52  H   UNL A   1      40.314  30.582  32.304  1.00  0.00     0.167 HD
ATOM     53  C   UNL A   1      43.338  28.959  35.042  1.00  0.00     0.037 A 
ATOM     54  C   UNL A   1      38.103  32.161  31.643  1.00  0.00     0.037 A 
ATOM     55  C   UNL A   1      42.711  30.039  35.758  1.00  0.00     0.049 A 
ATOM     56  C   UNL A   1      38.495  32.555  33.042  1.00  0.00     0.074 A 
ATOM     57  C   UNL A   1      43.022  30.533  37.013  1.00  0.00     0.029 A 
ATOM     58  N   UNL A   1      41.643  30.790  35.287  1.00  0.00    -0.354 N 
ATOM     59  N   UNL A   1      39.452  32.069  33.796  1.00  0.00    -0.248 NA
ATOM     60  C   UNL A   1      37.717  33.628  33.675  1.00  0.00     0.031 C 
ATOM     61  C   UNL A   1      42.107  31.545  37.323  1.00  0.00     0.029 A 
ATOM     62  C   UNL A   1      41.267  31.727  36.235  1.00  0.00     0.049 A 
ATOM     63  H   UNL A   1      41.215  30.673  34.408  1.00  0.00     0.167 HD
ATOM     64  C   UNL A   1      39.415  32.801  34.979  1.00  0.00     0.074 A 
ATOM     65  C   UNL A   1      38.342  33.764  34.837  1.00  0.00     0.031 C 
ATOM     66  C   UNL A   1      40.204  32.690  36.077  1.00  0.00     0.037 A 
BRANCH  53  67
ATOM     67  C   UNL A   1      44.436  28.183  35.720  1.00  0.00     0.058 A 
ATOM     68  C   UNL A   1      45.788  28.547  35.596  1.00  0.00     0.135 A 
ATOM     69  C   UNL A   1      44.134  27.065  36.514  1.00  0.00     0.135 A 
ATOM     70  F   UNL A   1      46.138  29.600  34.839  1.00  0.00    -0.206 F 
ATOM     71  C   UNL A   1      46.800  27.806  36.194  1.00  0.00     0.059 A 
ATOM     72  C   UNL A   1      45.128  26.329  37.151  1.00  0.00     0.059 A 
ATOM     73  F   UNL A   1      42.860  26.672  36.673  1.00  0.00    -0.206 F 
ATOM     74  C   UNL A   1      46.461  26.695  36.968  1.00  0.00     0.060 A 
BRANCH  74  75
ATOM     75  S   UNL A   1      47.788  25.733  37.723  1.00  0.00     0.124 S 
ATOM     76  O   UNL A   1      47.736  26.201  39.105  1.00  0.00    -0.237 OA
ATOM     77  O   UNL A   1      47.342  24.361  37.502  1.00  0.00    -0.237 OA
ATOM     78  O   UNL A   1      48.972  26.134  36.969  1.00  0.00    -0.744 OA
ENDBRANCH  74  75
ENDBRANCH  53  67
BRANCH  54  79
ATOM     79  C   UNL A   1      36.965  32.824  30.948  1.00  0.00     0.058 A 
ATOM     80  C   UNL A   1      37.186  33.847  30.015  1.00  0.00     0.135 A 
ATOM     81  C   UNL A   1      35.639  32.422  31.175  1.00  0.00     0.135 A 
ATOM     82  F   UNL A   1      38.434  34.273  29.769  1.00  0.00    -0.206 F 
ATOM     83  C   UNL A   1      36.134  34.455  29.336  1.00  0.00     0.059 A 
ATOM     84  C   UNL A   1      34.572  32.995  30.489  1.00  0.00     0.059 A 
ATOM     85  F   UNL A   1      35.374  31.437  32.047  1.00  0.00    -0.206 F 
ATOM     86  C   UNL A   1      34.830  34.015  29.574  1.00  0.00     0.060 A 
BRANCH  86  87
ATOM     87  S   UNL A   1      33.482  34.762  28.633  1.00  0.00     0.124 S 
ATOM     88  O   UNL A   1      34.150  35.899  28.011  1.00  0.00    -0.237 OA
ATOM     89  O   UNL A   1      33.100  33.675  27.735  1.00  0.00    -0.237 OA
ATOM     90  O   UNL A   1      32.498  35.091  29.659  1.00  0.00    -0.744 OA
ENDBRANCH  86  87
ENDBRANCH  54  79
BRANCH  66  91
ATOM     91  C   UNL A   1      39.978  33.664  37.201  1.00  0.00     0.058 A 
ATOM     92  C   UNL A   1      40.636  34.901  37.259  1.00  0.00     0.135 A 
ATOM     93  C   UNL A   1      39.030  33.380  38.199  1.00  0.00     0.135 A 
ATOM     94  F   UNL A   1      41.556  35.222  36.336  1.00  0.00    -0.206 F 
ATOM     95  C   UNL A   1      40.374  35.817  38.274  1.00  0.00     0.059 A 
ATOM     96  C   UNL A   1      38.730  34.292  39.205  1.00  0.00     0.059 A 
ATOM     97  F   UNL A   1      38.364  32.214  38.186  1.00  0.00    -0.206 F 
ATOM     98  C   UNL A   1      39.414  35.505  39.239  1.00  0.00     0.060 A 
BRANCH  98  99
ATOM     99  S   UNL A   1      39.049  36.723  40.522  1.00  0.00     0.124 S 
ATOM    100  O   UNL A   1      40.367  36.935  41.111  1.00  0.00    -0.237 OA
ATOM    101  O   UNL A   1      38.512  37.838  39.748  1.00  0.00    -0.237 OA
ATOM    102  O   UNL A   1      38.083  36.038  41.376  1.00  0.00    -0.744 OA
ENDBRANCH  98  99
ENDBRANCH  66  91
ENDBRANCH  40  41
ENDBRANCH  32  35
ENDBRANCH  30  31
ENDBRANCH  29  30
ENDBRANCH  28  29
ENDBRANCH   1  28
TORSDOF 23
ENDMDL
