MODEL 1
REMARK VINA RESULT:     -12.3      0.000      0.000
REMARK SMILES C[C@H]1CN(C(=O)N2CC[NH+]([C@@H](C)C(=O)NCCCCCCNC(=O)c3ccc(-c4c5nc(c(-c6c(F)cc(S(=O)(=O)[O-])cc6F)c6ccc([nH]6)c(-c6c(F)cc(S(=O)(=O)[O-])cc6F)c6nc(c(-c7c(F)cc(S(=O)(=O)[O-])cc7F)c7ccc4[nH]7)C=C6)C=C5)cc3)CC2)C[C@@H]1C
REMARK SMILES IDX 19 1 18 2 17 3 16 4 15 5 13 6 14 7 11 9 12 10 10 11 1 12
REMARK SMILES IDX 2 13 3 14 94 15 4 16 93 17 95 18 5 19 6 20 7 21 8 22 92 23
REMARK SMILES IDX 9 24 91 25 20 27 21 28 22 29 23 30 24 32 25 33 26 34 90 35
REMARK SMILES IDX 27 36 89 37 28 38 29 39 30 40 83 41 31 42 88 43 82 44 84 45
REMARK SMILES IDX 32 46 87 47 81 48 80 49 33 51 67 52 46 53 66 54 47 55 50 56
REMARK SMILES IDX 65 57 85 58 48 59 49 60 64 62 86 63 51 64 34 65 35 66 44 67
REMARK SMILES IDX 36 68 37 69 43 70 45 71 38 72 39 73 40 74 41 75 42 76 68 77
REMARK SMILES IDX 69 78 78 79 70 80 71 81 77 82 79 83 72 84 73 85 74 86 75 87
REMARK SMILES IDX 76 88 52 89 53 90 62 91 54 92 55 93 61 94 63 95 56 96 57 97
REMARK SMILES IDX 58 98 59 99 60 100
REMARK H PARENT 15 8 10 26 22 31 84 50 50 61
REMARK Flexibility Score: inf
ROOT
ATOM      1  C   UNL A   1      38.055  23.986  26.253  1.00  0.00     0.002 C 
ENDROOT
BRANCH   1   2
ATOM      2  C   UNL A   1      36.924  23.733  25.252  1.00  0.00     0.002 C 
BRANCH   2   3
ATOM      3  C   UNL A   1      35.530  23.644  25.871  1.00  0.00     0.021 C 
BRANCH   3   4
ATOM      4  C   UNL A   1      34.587  24.788  25.468  1.00  0.00     0.116 C 
BRANCH   4   5
ATOM      5  N   UNL A   1      33.390  24.782  26.289  1.00  0.00    -0.351 N 
ATOM      6  C   UNL A   1      32.062  24.776  25.986  1.00  0.00     0.278 C 
ATOM      7  O   UNL A   1      31.293  24.921  26.948  1.00  0.00    -0.268 OA
ATOM      8  H   UNL A   1      33.575  24.783  27.256  1.00  0.00     0.163 HD
BRANCH   6   9
ATOM      9  C   UNL A   1      31.488  24.558  24.557  1.00  0.00     0.271 C 
ATOM     10  C   UNL A   1      30.557  25.676  24.093  1.00  0.00     0.086 C 
BRANCH   9  11
ATOM     11  N   UNL A   1      31.160  23.143  24.258  1.00  0.00    -0.322 N 
ATOM     12  C   UNL A   1      32.618  16.282  26.044  1.00  0.00     0.010 C 
ATOM     13  C   UNL A   1      32.737  16.836  24.622  1.00  0.00     0.010 C 
ATOM     14  C   UNL A   1      32.573  18.353  24.610  1.00  0.00     0.125 C 
ATOM     15  C   UNL A   1      34.155  16.649  24.043  1.00  0.00     0.010 C 
ATOM     16  N   UNL A   1      33.920  18.873  24.780  1.00  0.00    -0.324 N 
ATOM     17  C   UNL A   1      34.923  17.826  24.661  1.00  0.00     0.125 C 
ATOM     18  C   UNL A   1      34.157  16.741  22.509  1.00  0.00     0.010 C 
ATOM     19  C   UNL A   1      34.265  20.203  24.760  1.00  0.00     0.320 C 
ATOM     20  O   UNL A   1      35.422  20.610  24.744  1.00  0.00    -0.248 OA
ATOM     21  N   UNL A   1      33.190  21.052  24.600  1.00  0.00    -0.313 N 
ATOM     22  C   UNL A   1      33.255  21.961  23.476  1.00  0.00     0.183 C 
ATOM     23  C   UNL A   1      32.514  21.574  25.780  1.00  0.00     0.183 C 
ATOM     24  C   UNL A   1      31.856  22.491  23.144  1.00  0.00     0.284 C 
ATOM     25  C   UNL A   1      31.163  22.243  25.434  1.00  0.00     0.284 C 
ATOM     26  H   UNL A   1      30.204  23.276  23.933  1.00  0.00     0.348 HD
ENDBRANCH   9  11
ENDBRANCH   6   9
ENDBRANCH   4   5
ENDBRANCH   3   4
ENDBRANCH   2   3
ENDBRANCH   1   2
BRANCH   1  27
ATOM     27  C   UNL A   1      39.056  22.839  26.427  1.00  0.00     0.021 C 
BRANCH  27  28
ATOM     28  C   UNL A   1      40.385  23.225  27.073  1.00  0.00     0.116 C 
BRANCH  28  29
ATOM     29  N   UNL A   1      41.314  23.796  26.111  1.00  0.00    -0.352 N 
ATOM     30  C   UNL A   1      41.777  25.083  25.994  1.00  0.00     0.251 C 
ATOM     31  H   UNL A   1      41.663  23.165  25.440  1.00  0.00     0.163 HD
ATOM     32  O   UNL A   1      42.376  25.427  24.980  1.00  0.00    -0.269 OA
BRANCH  30  33
ATOM     33  C   UNL A   1      41.549  26.055  27.085  1.00  0.00     0.039 A 
ATOM     34  C   UNL A   1      40.556  25.790  28.032  1.00  0.00     0.014 A 
ATOM     35  C   UNL A   1      42.289  27.239  27.155  1.00  0.00     0.014 A 
ATOM     36  C   UNL A   1      40.343  26.687  29.081  1.00  0.00     0.010 A 
ATOM     37  C   UNL A   1      42.120  28.099  28.237  1.00  0.00     0.010 A 
ATOM     38  C   UNL A   1      41.143  27.835  29.208  1.00  0.00    -0.014 A 
BRANCH  38  39
ATOM     39  C   UNL A   1      40.970  28.771  30.348  1.00  0.00     0.031 A 
ATOM     40  C   UNL A   1      41.833  28.637  31.574  1.00  0.00     0.074 A 
ATOM     41  C   UNL A   1      39.992  29.696  30.306  1.00  0.00     0.049 A 
ATOM     42  N   UNL A   1      41.788  29.312  32.694  1.00  0.00    -0.248 NA
ATOM     43  C   UNL A   1      42.867  27.590  31.547  1.00  0.00     0.031 C 
ATOM     44  C   UNL A   1      39.059  29.888  29.194  1.00  0.00     0.029 A 
ATOM     45  N   UNL A   1      39.610  30.640  31.226  1.00  0.00    -0.354 N 
ATOM     46  C   UNL A   1      42.770  28.763  33.509  1.00  0.00     0.074 A 
ATOM     47  C   UNL A   1      43.362  27.667  32.773  1.00  0.00     0.031 C 
ATOM     48  C   UNL A   1      38.224  30.898  29.489  1.00  0.00     0.029 A 
ATOM     49  C   UNL A   1      38.539  31.402  30.822  1.00  0.00     0.049 A 
ATOM     50  H   UNL A   1      40.060  30.759  32.094  1.00  0.00     0.167 HD
ATOM     51  C   UNL A   1      43.157  29.150  34.748  1.00  0.00     0.037 A 
ATOM     52  C   UNL A   1      37.880  32.390  31.458  1.00  0.00     0.037 A 
ATOM     53  C   UNL A   1      42.579  30.258  35.463  1.00  0.00     0.049 A 
ATOM     54  C   UNL A   1      38.333  32.810  32.828  1.00  0.00     0.074 A 
ATOM     55  C   UNL A   1      42.940  30.769  36.697  1.00  0.00     0.029 A 
ATOM     56  N   UNL A   1      41.513  31.023  35.010  1.00  0.00    -0.354 N 
ATOM     57  N   UNL A   1      39.306  32.321  33.559  1.00  0.00    -0.248 NA
ATOM     58  C   UNL A   1      37.603  33.918  33.459  1.00  0.00     0.031 C 
ATOM     59  C   UNL A   1      42.067  31.818  37.007  1.00  0.00     0.029 A 
ATOM     60  C   UNL A   1      41.192  31.990  35.948  1.00  0.00     0.049 A 
ATOM     61  H   UNL A   1      41.054  30.897  34.148  1.00  0.00     0.167 HD
ATOM     62  C   UNL A   1      39.323  33.078  34.726  1.00  0.00     0.074 A 
ATOM     63  C   UNL A   1      38.270  34.063  34.598  1.00  0.00     0.031 C 
ATOM     64  C   UNL A   1      40.139  32.967  35.804  1.00  0.00     0.037 A 
BRANCH  51  65
ATOM     65  C   UNL A   1      44.261  28.368  35.408  1.00  0.00     0.058 A 
ATOM     66  C   UNL A   1      45.614  28.692  35.214  1.00  0.00     0.135 A 
ATOM     67  C   UNL A   1      43.964  27.291  36.260  1.00  0.00     0.135 A 
ATOM     68  F   UNL A   1      45.956  29.702  34.398  1.00  0.00    -0.206 F 
ATOM     69  C   UNL A   1      46.632  27.957  35.810  1.00  0.00     0.059 A 
ATOM     70  C   UNL A   1      44.967  26.560  36.890  1.00  0.00     0.059 A 
ATOM     71  F   UNL A   1      42.688  26.938  36.483  1.00  0.00    -0.206 F 
ATOM     72  C   UNL A   1      46.299  26.889  36.644  1.00  0.00     0.060 A 
BRANCH  72  73
ATOM     73  S   UNL A   1      47.631  25.936  37.403  1.00  0.00     0.124 S 
ATOM     74  O   UNL A   1      47.253  24.573  37.044  1.00  0.00    -0.237 OA
ATOM     75  O   UNL A   1      48.815  26.462  36.729  1.00  0.00    -0.237 OA
ATOM     76  O   UNL A   1      47.522  26.265  38.820  1.00  0.00    -0.744 OA
ENDBRANCH  72  73
ENDBRANCH  51  65
BRANCH  52  77
ATOM     77  C   UNL A   1      36.740  33.067  30.784  1.00  0.00     0.058 A 
ATOM     78  C   UNL A   1      35.417  32.807  31.174  1.00  0.00     0.135 A 
ATOM     79  C   UNL A   1      36.949  34.008  29.764  1.00  0.00     0.135 A 
ATOM     80  F   UNL A   1      35.166  31.911  32.140  1.00  0.00    -0.206 F 
ATOM     81  C   UNL A   1      34.340  33.450  30.571  1.00  0.00     0.059 A 
ATOM     82  C   UNL A   1      35.891  34.682  29.163  1.00  0.00     0.059 A 
ATOM     83  F   UNL A   1      38.197  34.302  29.367  1.00  0.00    -0.206 F 
ATOM     84  C   UNL A   1      34.588  34.390  29.569  1.00  0.00     0.060 A 
BRANCH  84  85
ATOM     85  S   UNL A   1      33.186  35.264  28.838  1.00  0.00     0.124 S 
ATOM     86  O   UNL A   1      33.855  36.334  28.109  1.00  0.00    -0.237 OA
ATOM     87  O   UNL A   1      32.569  34.224  28.021  1.00  0.00    -0.237 OA
ATOM     88  O   UNL A   1      32.408  35.681  30.001  1.00  0.00    -0.744 OA
ENDBRANCH  84  85
ENDBRANCH  52  77
BRANCH  64  89
ATOM     89  C   UNL A   1      39.944  33.953  36.921  1.00  0.00     0.058 A 
ATOM     90  C   UNL A   1      40.540  35.224  36.895  1.00  0.00     0.135 A 
ATOM     91  C   UNL A   1      39.108  33.643  38.006  1.00  0.00     0.135 A 
ATOM     92  F   UNL A   1      41.353  35.568  35.883  1.00  0.00    -0.206 F 
ATOM     93  C   UNL A   1      40.331  36.145  37.916  1.00  0.00     0.059 A 
ATOM     94  C   UNL A   1      38.864  34.558  39.025  1.00  0.00     0.059 A 
ATOM     95  F   UNL A   1      38.505  32.445  38.074  1.00  0.00    -0.206 F 
ATOM     96  C   UNL A   1      39.490  35.803  38.976  1.00  0.00     0.060 A 
BRANCH  96  97
ATOM     97  S   UNL A   1      39.198  37.020  40.278  1.00  0.00     0.124 S 
ATOM     98  O   UNL A   1      38.562  38.101  39.532  1.00  0.00    -0.237 OA
ATOM     99  O   UNL A   1      38.331  36.291  41.199  1.00  0.00    -0.237 OA
ATOM    100  O   UNL A   1      40.538  37.307  40.782  1.00  0.00    -0.744 OA
ENDBRANCH  96  97
ENDBRANCH  64  89
ENDBRANCH  38  39
ENDBRANCH  30  33
ENDBRANCH  28  29
ENDBRANCH  27  28
ENDBRANCH   1  27
TORSDOF 17
ENDMDL
MODEL 2
REMARK VINA RESULT:     -12.0      6.329     11.680
REMARK SMILES C[C@H]1CN(C(=O)N2CC[NH+]([C@@H](C)C(=O)NCCCCCCNC(=O)c3ccc(-c4c5nc(c(-c6c(F)cc(S(=O)(=O)[O-])cc6F)c6ccc([nH]6)c(-c6c(F)cc(S(=O)(=O)[O-])cc6F)c6nc(c(-c7c(F)cc(S(=O)(=O)[O-])cc7F)c7ccc4[nH]7)C=C6)C=C5)cc3)CC2)C[C@@H]1C
REMARK SMILES IDX 19 1 18 2 17 3 16 4 15 5 13 6 14 7 11 9 12 10 10 11 1 12
REMARK SMILES IDX 2 13 3 14 94 15 4 16 93 17 95 18 5 19 6 20 7 21 8 22 92 23
REMARK SMILES IDX 9 24 91 25 20 27 21 28 22 29 23 30 24 32 25 33 26 34 90 35
REMARK SMILES IDX 27 36 89 37 28 38 29 39 30 40 83 41 31 42 88 43 82 44 84 45
REMARK SMILES IDX 32 46 87 47 81 48 80 49 33 51 67 52 46 53 66 54 47 55 50 56
REMARK SMILES IDX 65 57 85 58 48 59 49 60 64 62 86 63 51 64 34 65 35 66 44 67
REMARK SMILES IDX 36 68 37 69 43 70 45 71 38 72 39 73 40 74 41 75 42 76 68 77
REMARK SMILES IDX 69 78 78 79 70 80 71 81 77 82 79 83 72 84 73 85 74 86 75 87
REMARK SMILES IDX 76 88 52 89 53 90 62 91 54 92 55 93 61 94 63 95 56 96 57 97
REMARK SMILES IDX 58 98 59 99 60 100
REMARK H PARENT 15 8 10 26 22 31 84 50 50 61
REMARK Flexibility Score: inf
ROOT
ATOM      1  C   UNL A   1      33.242  29.224  27.247  1.00  0.00     0.002 C 
ENDROOT
BRANCH   1   2
ATOM      2  C   UNL A   1      32.631  30.618  27.077  1.00  0.00     0.002 C 
BRANCH   2   3
ATOM      3  C   UNL A   1      31.643  30.746  25.918  1.00  0.00     0.021 C 
BRANCH   3   4
ATOM      4  C   UNL A   1      31.399  29.439  25.149  1.00  0.00     0.116 C 
BRANCH   4   5
ATOM      5  N   UNL A   1      30.955  29.713  23.795  1.00  0.00    -0.351 N 
ATOM      6  C   UNL A   1      30.476  28.915  22.800  1.00  0.00     0.278 C 
ATOM      7  O   UNL A   1      30.324  29.465  21.700  1.00  0.00    -0.268 OA
ATOM      8  H   UNL A   1      31.010  30.665  23.547  1.00  0.00     0.163 HD
BRANCH   6   9
ATOM      9  C   UNL A   1      30.085  27.421  22.984  1.00  0.00     0.271 C 
ATOM     10  C   UNL A   1      29.052  27.189  24.085  1.00  0.00     0.086 C 
BRANCH   9  11
ATOM     11  N   UNL A   1      31.222  26.483  22.818  1.00  0.00    -0.322 N 
ATOM     12  C   UNL A   1      33.725  19.929  24.598  1.00  0.00     0.010 C 
ATOM     13  C   UNL A   1      34.487  21.231  24.855  1.00  0.00     0.010 C 
ATOM     14  C   UNL A   1      33.609  22.446  24.568  1.00  0.00     0.125 C 
ATOM     15  C   UNL A   1      34.833  21.415  26.348  1.00  0.00     0.010 C 
ATOM     16  N   UNL A   1      32.954  22.738  25.833  1.00  0.00    -0.324 N 
ATOM     17  C   UNL A   1      33.522  21.965  26.927  1.00  0.00     0.125 C 
ATOM     18  C   UNL A   1      35.980  22.420  26.542  1.00  0.00     0.010 C 
ATOM     19  C   UNL A   1      32.117  23.801  26.065  1.00  0.00     0.320 C 
ATOM     20  O   UNL A   1      31.705  24.119  27.176  1.00  0.00    -0.248 OA
ATOM     21  N   UNL A   1      31.897  24.588  24.953  1.00  0.00    -0.313 N 
ATOM     22  C   UNL A   1      32.221  25.991  25.089  1.00  0.00     0.183 C 
ATOM     23  C   UNL A   1      30.763  24.294  24.087  1.00  0.00     0.183 C 
ATOM     24  C   UNL A   1      32.378  26.633  23.706  1.00  0.00     0.284 C 
ATOM     25  C   UNL A   1      30.841  25.054  22.742  1.00  0.00     0.284 C 
ATOM     26  H   UNL A   1      31.544  26.799  21.905  1.00  0.00     0.348 HD
ENDBRANCH   9  11
ENDBRANCH   6   9
ENDBRANCH   4   5
ENDBRANCH   3   4
ENDBRANCH   2   3
ENDBRANCH   1   2
BRANCH   1  27
ATOM     27  C   UNL A   1      34.731  29.194  27.609  1.00  0.00     0.021 C 
BRANCH  27  28
ATOM     28  C   UNL A   1      35.365  30.557  27.878  1.00  0.00     0.116 C 
BRANCH  28  29
ATOM     29  N   UNL A   1      35.363  30.890  29.294  1.00  0.00    -0.352 N 
ATOM     30  C   UNL A   1      36.301  30.624  30.260  1.00  0.00     0.251 C 
ATOM     31  H   UNL A   1      34.568  31.378  29.609  1.00  0.00     0.163 HD
ATOM     32  O   UNL A   1      36.020  30.779  31.444  1.00  0.00    -0.269 OA
BRANCH  30  33
ATOM     33  C   UNL A   1      37.647  30.145  29.875  1.00  0.00     0.039 A 
ATOM     34  C   UNL A   1      37.989  30.104  28.521  1.00  0.00     0.014 A 
ATOM     35  C   UNL A   1      38.555  29.707  30.843  1.00  0.00     0.014 A 
ATOM     36  C   UNL A   1      39.264  29.676  28.142  1.00  0.00     0.010 A 
ATOM     37  C   UNL A   1      39.845  29.342  30.469  1.00  0.00     0.010 A 
ATOM     38  C   UNL A   1      40.211  29.318  29.115  1.00  0.00    -0.014 A 
BRANCH  38  39
ATOM     39  C   UNL A   1      41.589  28.915  28.735  1.00  0.00     0.031 A 
ATOM     40  C   UNL A   1      42.690  29.939  28.681  1.00  0.00     0.074 A 
ATOM     41  C   UNL A   1      41.833  27.640  28.375  1.00  0.00     0.049 A 
ATOM     42  N   UNL A   1      43.935  29.795  28.308  1.00  0.00    -0.248 NA
ATOM     43  C   UNL A   1      42.337  31.313  29.074  1.00  0.00     0.031 C 
ATOM     44  C   UNL A   1      40.835  26.567  28.338  1.00  0.00     0.029 A 
ATOM     45  N   UNL A   1      42.990  27.030  27.957  1.00  0.00    -0.354 N 
ATOM     46  C   UNL A   1      44.510  31.057  28.404  1.00  0.00     0.074 A 
ATOM     47  C   UNL A   1      43.463  31.964  28.823  1.00  0.00     0.031 C 
ATOM     48  C   UNL A   1      41.427  25.430  27.938  1.00  0.00     0.029 A 
ATOM     49  C   UNL A   1      42.834  25.698  27.658  1.00  0.00     0.049 A 
ATOM     50  H   UNL A   1      43.850  27.504  27.880  1.00  0.00     0.167 HD
ATOM     51  C   UNL A   1      45.796  31.422  28.183  1.00  0.00     0.037 A 
ATOM     52  C   UNL A   1      43.723  24.795  27.200  1.00  0.00     0.037 A 
ATOM     53  C   UNL A   1      46.836  30.508  27.790  1.00  0.00     0.049 A 
ATOM     54  C   UNL A   1      45.147  25.220  26.971  1.00  0.00     0.074 A 
ATOM     55  C   UNL A   1      48.182  30.765  27.600  1.00  0.00     0.029 A 
ATOM     56  N   UNL A   1      46.645  29.159  27.521  1.00  0.00    -0.354 N 
ATOM     57  N   UNL A   1      45.688  26.405  27.128  1.00  0.00    -0.248 NA
ATOM     58  C   UNL A   1      46.084  24.186  26.509  1.00  0.00     0.031 C 
ATOM     59  C   UNL A   1      48.798  29.581  27.177  1.00  0.00     0.029 A 
ATOM     60  C   UNL A   1      47.845  28.576  27.149  1.00  0.00     0.049 A 
ATOM     61  H   UNL A   1      45.784  28.687  27.586  1.00  0.00     0.167 HD
ATOM     62  C   UNL A   1      47.033  26.254  26.808  1.00  0.00     0.074 A 
ATOM     63  C   UNL A   1      47.225  24.861  26.460  1.00  0.00     0.031 C 
ATOM     64  C   UNL A   1      48.019  27.185  26.806  1.00  0.00     0.037 A 
BRANCH  51  65
ATOM     65  C   UNL A   1      46.147  32.874  28.363  1.00  0.00     0.058 A 
ATOM     66  C   UNL A   1      46.075  33.789  27.300  1.00  0.00     0.135 A 
ATOM     67  C   UNL A   1      46.541  33.364  29.619  1.00  0.00     0.135 A 
ATOM     68  F   UNL A   1      45.717  33.374  26.074  1.00  0.00    -0.206 F 
ATOM     69  C   UNL A   1      46.417  35.127  27.464  1.00  0.00     0.059 A 
ATOM     70  C   UNL A   1      46.860  34.705  29.813  1.00  0.00     0.059 A 
ATOM     71  F   UNL A   1      46.626  32.536  30.672  1.00  0.00    -0.206 F 
ATOM     72  C   UNL A   1      46.813  35.575  28.725  1.00  0.00     0.060 A 
BRANCH  72  73
ATOM     73  S   UNL A   1      47.264  37.312  28.922  1.00  0.00     0.124 S 
ATOM     74  O   UNL A   1      47.959  37.286  30.205  1.00  0.00    -0.237 OA
ATOM     75  O   UNL A   1      48.103  37.552  27.752  1.00  0.00    -0.237 OA
ATOM     76  O   UNL A   1      45.978  38.001  28.919  1.00  0.00    -0.744 OA
ENDBRANCH  72  73
ENDBRANCH  51  65
BRANCH  52  77
ATOM     77  C   UNL A   1      43.292  23.393  26.959  1.00  0.00     0.058 A 
ATOM     78  C   UNL A   1      43.094  22.915  25.655  1.00  0.00     0.135 A 
ATOM     79  C   UNL A   1      43.100  22.495  28.021  1.00  0.00     0.135 A 
ATOM     80  F   UNL A   1      43.258  23.737  24.607  1.00  0.00    -0.206 F 
ATOM     81  C   UNL A   1      42.713  21.599  25.410  1.00  0.00     0.059 A 
ATOM     82  C   UNL A   1      42.744  21.168  27.801  1.00  0.00     0.059 A 
ATOM     83  F   UNL A   1      43.293  22.900  29.286  1.00  0.00    -0.206 F 
ATOM     84  C   UNL A   1      42.546  20.731  26.491  1.00  0.00     0.060 A 
BRANCH  84  85
ATOM     85  S   UNL A   1      42.114  19.009  26.158  1.00  0.00     0.124 S 
ATOM     86  O   UNL A   1      43.020  18.686  25.063  1.00  0.00    -0.237 OA
ATOM     87  O   UNL A   1      42.403  18.368  27.436  1.00  0.00    -0.237 OA
ATOM     88  O   UNL A   1      40.698  19.081  25.808  1.00  0.00    -0.744 OA
ENDBRANCH  84  85
ENDBRANCH  52  77
BRANCH  64  89
ATOM     89  C   UNL A   1      49.403  26.724  26.441  1.00  0.00     0.058 A 
ATOM     90  C   UNL A   1      50.239  26.091  27.374  1.00  0.00     0.135 A 
ATOM     91  C   UNL A   1      49.877  26.869  25.127  1.00  0.00     0.135 A 
ATOM     92  F   UNL A   1      49.836  25.934  28.645  1.00  0.00    -0.206 F 
ATOM     93  C   UNL A   1      51.507  25.639  27.023  1.00  0.00     0.059 A 
ATOM     94  C   UNL A   1      51.130  26.400  24.747  1.00  0.00     0.059 A 
ATOM     95  F   UNL A   1      49.113  27.457  24.194  1.00  0.00    -0.206 F 
ATOM     96  C   UNL A   1      51.942  25.796  25.707  1.00  0.00     0.060 A 
BRANCH  96  97
ATOM     97  S   UNL A   1      53.575  25.171  25.254  1.00  0.00     0.124 S 
ATOM     98  O   UNL A   1      53.723  25.690  23.898  1.00  0.00    -0.237 OA
ATOM     99  O   UNL A   1      54.435  25.782  26.264  1.00  0.00    -0.237 OA
ATOM    100  O   UNL A   1      53.426  23.722  25.360  1.00  0.00    -0.744 OA
ENDBRANCH  96  97
ENDBRANCH  64  89
ENDBRANCH  38  39
ENDBRANCH  30  33
ENDBRANCH  28  29
ENDBRANCH  27  28
ENDBRANCH   1  27
TORSDOF 17
ENDMDL
MODEL 3
REMARK VINA RESULT:     -12.0      6.379     11.744
REMARK SMILES C[C@H]1CN(C(=O)N2CC[NH+]([C@@H](C)C(=O)NCCCCCCNC(=O)c3ccc(-c4c5nc(c(-c6c(F)cc(S(=O)(=O)[O-])cc6F)c6ccc([nH]6)c(-c6c(F)cc(S(=O)(=O)[O-])cc6F)c6nc(c(-c7c(F)cc(S(=O)(=O)[O-])cc7F)c7ccc4[nH]7)C=C6)C=C5)cc3)CC2)C[C@@H]1C
REMARK SMILES IDX 19 1 18 2 17 3 16 4 15 5 13 6 14 7 11 9 12 10 10 11 1 12
REMARK SMILES IDX 2 13 3 14 94 15 4 16 93 17 95 18 5 19 6 20 7 21 8 22 92 23
REMARK SMILES IDX 9 24 91 25 20 27 21 28 22 29 23 30 24 32 25 33 26 34 90 35
REMARK SMILES IDX 27 36 89 37 28 38 29 39 30 40 83 41 31 42 88 43 82 44 84 45
REMARK SMILES IDX 32 46 87 47 81 48 80 49 33 51 67 52 46 53 66 54 47 55 50 56
REMARK SMILES IDX 65 57 85 58 48 59 49 60 64 62 86 63 51 64 34 65 35 66 44 67
REMARK SMILES IDX 36 68 37 69 43 70 45 71 38 72 39 73 40 74 41 75 42 76 68 77
REMARK SMILES IDX 69 78 78 79 70 80 71 81 77 82 79 83 72 84 73 85 74 86 75 87
REMARK SMILES IDX 76 88 52 89 53 90 62 91 54 92 55 93 61 94 63 95 56 96 57 97
REMARK SMILES IDX 58 98 59 99 60 100
REMARK H PARENT 15 8 10 26 22 31 84 50 50 61
REMARK Flexibility Score: inf
ROOT
ATOM      1  C   UNL A   1      34.582  32.298  28.128  1.00  0.00     0.002 C 
ENDROOT
BRANCH   1   2
ATOM      2  C   UNL A   1      34.444  30.845  27.666  1.00  0.00     0.002 C 
BRANCH   2   3
ATOM      3  C   UNL A   1      33.029  30.434  27.263  1.00  0.00     0.021 C 
BRANCH   3   4
ATOM      4  C   UNL A   1      32.855  30.157  25.762  1.00  0.00     0.116 C 
BRANCH   4   5
ATOM      5  N   UNL A   1      31.501  30.459  25.336  1.00  0.00    -0.351 N 
ATOM      6  C   UNL A   1      30.703  29.943  24.359  1.00  0.00     0.278 C 
ATOM      7  O   UNL A   1      29.635  30.542  24.170  1.00  0.00    -0.268 OA
ATOM      8  H   UNL A   1      31.075  31.179  25.855  1.00  0.00     0.163 HD
BRANCH   6   9
ATOM      9  C   UNL A   1      31.035  28.665  23.537  1.00  0.00     0.271 C 
ATOM     10  C   UNL A   1      30.657  28.769  22.061  1.00  0.00     0.086 C 
BRANCH   9  11
ATOM     11  N   UNL A   1      30.800  27.403  24.280  1.00  0.00    -0.322 N 
ATOM     12  C   UNL A   1      34.058  21.779  27.465  1.00  0.00     0.010 C 
ATOM     13  C   UNL A   1      33.004  21.642  26.363  1.00  0.00     0.010 C 
ATOM     14  C   UNL A   1      32.671  22.999  25.751  1.00  0.00     0.125 C 
ATOM     15  C   UNL A   1      33.534  20.850  25.150  1.00  0.00     0.010 C 
ATOM     16  N   UNL A   1      33.608  23.150  24.649  1.00  0.00    -0.324 N 
ATOM     17  C   UNL A   1      34.328  21.914  24.380  1.00  0.00     0.125 C 
ATOM     18  C   UNL A   1      32.386  20.297  24.290  1.00  0.00     0.010 C 
ATOM     19  C   UNL A   1      33.630  24.200  23.765  1.00  0.00     0.320 C 
ATOM     20  O   UNL A   1      34.320  24.228  22.751  1.00  0.00    -0.248 OA
ATOM     21  N   UNL A   1      32.684  25.169  24.031  1.00  0.00    -0.313 N 
ATOM     22  C   UNL A   1      31.766  25.477  22.957  1.00  0.00     0.183 C 
ATOM     23  C   UNL A   1      33.040  26.295  24.885  1.00  0.00     0.183 C 
ATOM     24  C   UNL A   1      30.526  26.187  23.510  1.00  0.00     0.284 C 
ATOM     25  C   UNL A   1      31.801  27.106  25.330  1.00  0.00     0.284 C 
ATOM     26  H   UNL A   1      29.912  27.650  24.715  1.00  0.00     0.348 HD
ENDBRANCH   9  11
ENDBRANCH   6   9
ENDBRANCH   4   5
ENDBRANCH   3   4
ENDBRANCH   2   3
ENDBRANCH   1   2
BRANCH   1  27
ATOM     27  C   UNL A   1      35.995  32.887  28.050  1.00  0.00     0.021 C 
BRANCH  27  28
ATOM     28  C   UNL A   1      36.725  33.008  29.386  1.00  0.00     0.116 C 
BRANCH  28  29
ATOM     29  N   UNL A   1      36.202  32.084  30.380  1.00  0.00    -0.352 N 
ATOM     30  C   UNL A   1      36.643  30.834  30.735  1.00  0.00     0.251 C 
ATOM     31  H   UNL A   1      35.411  32.402  30.872  1.00  0.00     0.163 HD
ATOM     32  O   UNL A   1      35.936  30.111  31.431  1.00  0.00    -0.269 OA
BRANCH  30  33
ATOM     33  C   UNL A   1      37.965  30.356  30.275  1.00  0.00     0.039 A 
ATOM     34  C   UNL A   1      38.160  30.109  28.914  1.00  0.00     0.014 A 
ATOM     35  C   UNL A   1      38.998  30.120  31.187  1.00  0.00     0.014 A 
ATOM     36  C   UNL A   1      39.409  29.678  28.460  1.00  0.00     0.010 A 
ATOM     37  C   UNL A   1      40.259  29.754  30.727  1.00  0.00     0.010 A 
ATOM     38  C   UNL A   1      40.477  29.524  29.360  1.00  0.00    -0.014 A 
BRANCH  38  39
ATOM     39  C   UNL A   1      41.827  29.122  28.890  1.00  0.00     0.031 A 
ATOM     40  C   UNL A   1      42.925  30.145  28.778  1.00  0.00     0.074 A 
ATOM     41  C   UNL A   1      42.044  27.851  28.500  1.00  0.00     0.049 A 
ATOM     42  N   UNL A   1      44.144  30.003  28.326  1.00  0.00    -0.248 NA
ATOM     43  C   UNL A   1      42.601  31.515  29.208  1.00  0.00     0.031 C 
ATOM     44  C   UNL A   1      41.043  26.781  28.513  1.00  0.00     0.029 A 
ATOM     45  N   UNL A   1      43.171  27.244  28.003  1.00  0.00    -0.354 N 
ATOM     46  C   UNL A   1      44.727  31.263  28.400  1.00  0.00     0.074 A 
ATOM     47  C   UNL A   1      43.711  32.167  28.894  1.00  0.00     0.031 C 
ATOM     48  C   UNL A   1      41.605  25.647  28.064  1.00  0.00     0.029 A 
ATOM     49  C   UNL A   1      42.993  25.916  27.699  1.00  0.00     0.049 A 
ATOM     50  H   UNL A   1      44.025  27.717  27.877  1.00  0.00     0.167 HD
ATOM     51  C   UNL A   1      45.997  31.627  28.103  1.00  0.00     0.037 A 
ATOM     52  C   UNL A   1      43.849  25.017  27.175  1.00  0.00     0.037 A 
ATOM     53  C   UNL A   1      47.008  30.716  27.635  1.00  0.00     0.049 A 
ATOM     54  C   UNL A   1      45.257  25.441  26.863  1.00  0.00     0.074 A 
ATOM     55  C   UNL A   1      48.341  30.972  27.364  1.00  0.00     0.029 A 
ATOM     56  N   UNL A   1      46.797  29.370  27.363  1.00  0.00    -0.354 N 
ATOM     57  N   UNL A   1      45.810  26.623  26.999  1.00  0.00    -0.248 NA
ATOM     58  C   UNL A   1      46.159  24.411  26.331  1.00  0.00     0.031 C 
ATOM     59  C   UNL A   1      48.925  29.793  26.890  1.00  0.00     0.029 A 
ATOM     60  C   UNL A   1      47.970  28.789  26.909  1.00  0.00     0.049 A 
ATOM     61  H   UNL A   1      45.940  28.899  27.477  1.00  0.00     0.167 HD
ATOM     62  C   UNL A   1      47.132  26.474  26.594  1.00  0.00     0.074 A 
ATOM     63  C   UNL A   1      47.297  25.084  26.218  1.00  0.00     0.031 C 
ATOM     64  C   UNL A   1      48.118  27.402  26.540  1.00  0.00     0.037 A 
BRANCH  51  65
ATOM     65  C   UNL A   1      46.363  33.076  28.278  1.00  0.00     0.058 A 
ATOM     66  C   UNL A   1      46.826  33.578  29.506  1.00  0.00     0.135 A 
ATOM     67  C   UNL A   1      46.269  33.973  27.201  1.00  0.00     0.135 A 
ATOM     68  F   UNL A   1      46.922  32.770  30.573  1.00  0.00    -0.206 F 
ATOM     69  C   UNL A   1      47.147  34.922  29.670  1.00  0.00     0.059 A 
ATOM     70  C   UNL A   1      46.612  35.315  27.335  1.00  0.00     0.059 A 
ATOM     71  F   UNL A   1      45.835  33.548  26.004  1.00  0.00    -0.206 F 
ATOM     72  C   UNL A   1      47.032  35.784  28.579  1.00  0.00     0.060 A 
BRANCH  72  73
ATOM     73  S   UNL A   1      47.441  37.527  28.809  1.00  0.00     0.124 S 
ATOM     74  O   UNL A   1      46.347  37.970  29.669  1.00  0.00    -0.237 OA
ATOM     75  O   UNL A   1      48.755  37.460  29.442  1.00  0.00    -0.237 OA
ATOM     76  O   UNL A   1      47.429  38.063  27.452  1.00  0.00    -0.744 OA
ENDBRANCH  72  73
ENDBRANCH  51  65
BRANCH  52  77
ATOM     77  C   UNL A   1      43.399  23.618  26.945  1.00  0.00     0.058 A 
ATOM     78  C   UNL A   1      43.221  22.734  28.020  1.00  0.00     0.135 A 
ATOM     79  C   UNL A   1      43.107  23.148  25.655  1.00  0.00     0.135 A 
ATOM     80  F   UNL A   1      43.493  23.135  29.271  1.00  0.00    -0.206 F 
ATOM     81  C   UNL A   1      42.778  21.429  27.824  1.00  0.00     0.059 A 
ATOM     82  C   UNL A   1      42.638  21.856  25.437  1.00  0.00     0.059 A 
ATOM     83  F   UNL A   1      43.245  23.961  24.597  1.00  0.00    -0.206 F 
ATOM     84  C   UNL A   1      42.484  21.002  26.529  1.00  0.00     0.060 A 
BRANCH  84  85
ATOM     85  S   UNL A   1      41.849  19.327  26.294  1.00  0.00     0.124 S 
ATOM     86  O   UNL A   1      42.633  18.872  25.153  1.00  0.00    -0.237 OA
ATOM     87  O   UNL A   1      42.160  18.699  27.574  1.00  0.00    -0.237 OA
ATOM     88  O   UNL A   1      40.426  19.540  26.040  1.00  0.00    -0.744 OA
ENDBRANCH  84  85
ENDBRANCH  52  77
BRANCH  64  89
ATOM     89  C   UNL A   1      49.475  26.943  26.084  1.00  0.00     0.058 A 
ATOM     90  C   UNL A   1      49.880  27.057  24.745  1.00  0.00     0.135 A 
ATOM     91  C   UNL A   1      50.401  26.432  27.008  1.00  0.00     0.135 A 
ATOM     92  F   UNL A   1      49.031  27.533  23.820  1.00  0.00    -0.206 F 
ATOM     93  C   UNL A   1      51.148  26.660  24.334  1.00  0.00     0.059 A 
ATOM     94  C   UNL A   1      51.683  26.053  26.625  1.00  0.00     0.059 A 
ATOM     95  F   UNL A   1      50.067  26.312  28.303  1.00  0.00    -0.206 F 
ATOM     96  C   UNL A   1      52.043  26.161  25.282  1.00  0.00     0.060 A 
BRANCH  96  97
ATOM     97  S   UNL A   1      53.699  25.683  24.743  1.00  0.00     0.124 S 
ATOM     98  O   UNL A   1      53.604  24.227  24.757  1.00  0.00    -0.237 OA
ATOM     99  O   UNL A   1      53.789  26.299  23.422  1.00  0.00    -0.237 OA
ATOM    100  O   UNL A   1      54.569  26.266  25.760  1.00  0.00    -0.744 OA
ENDBRANCH  96  97
ENDBRANCH  64  89
ENDBRANCH  38  39
ENDBRANCH  30  33
ENDBRANCH  28  29
ENDBRANCH  27  28
ENDBRANCH   1  27
TORSDOF 17
ENDMDL
