MODEL 1
REMARK VINA RESULT:     -11.5      0.000      0.000
REMARK SMILES O=C(Cc1ccc(NC(=O)C2CCCC2)cc1)NCCCCCCNC(=O)c1ccc(-c2c3nc(c(-c4c(F)cc(S(=O)(=O)[O-])cc4F)c4ccc([nH]4)c(-c4c(F)cc(S(=O)(=O)[O-])cc4F)c4nc(c(-c5c(F)cc(S(=O)(=O)[O-])cc5F)c5ccc2[nH]5)C=C4)C=C3)cc1
REMARK SMILES IDX 21 1 20 2 19 3 18 4 1 5 2 6 3 8 4 9 5 10 17 11 6 12 16 13
REMARK SMILES IDX 7 14 8 15 9 16 10 18 11 19 12 20 15 21 13 22 14 23 22 24
REMARK SMILES IDX 23 25 24 26 25 27 26 28 27 30 28 31 29 32 93 33 30 34 92 35
REMARK SMILES IDX 31 36 32 37 33 38 86 39 34 40 91 41 85 42 87 43 35 44 90 45
REMARK SMILES IDX 84 46 83 47 36 49 70 50 49 51 69 52 50 53 53 54 68 55 88 56
REMARK SMILES IDX 51 57 52 58 67 60 89 61 54 62 37 63 38 64 47 65 39 66 40 67
REMARK SMILES IDX 46 68 48 69 41 70 42 71 43 72 44 73 45 74 71 75 72 76 81 77
REMARK SMILES IDX 73 78 74 79 80 80 82 81 75 82 76 83 77 84 78 85 79 86 55 87
REMARK SMILES IDX 56 88 65 89 57 90 58 91 64 92 66 93 59 94 60 95 61 96 62 97
REMARK SMILES IDX 63 98
REMARK H PARENT 18 7 8 17 25 29 87 48 53 59
REMARK Flexibility Score: inf
ROOT
ATOM      1  C   UNL A   1      34.838  23.261  25.829  1.00  0.00     0.002 C 
ENDROOT
BRANCH   1   2
ATOM      2  C   UNL A   1      35.084  21.903  26.498  1.00  0.00     0.021 C 
BRANCH   2   3
ATOM      3  C   UNL A   1      34.835  20.692  25.602  1.00  0.00     0.116 C 
BRANCH   3   4
ATOM      4  N   UNL A   1      34.121  21.044  24.389  1.00  0.00    -0.356 N 
ATOM      5  O   UNL A   1      32.131  20.035  24.948  1.00  0.00    -0.275 OA
ATOM      6  C   UNL A   1      32.797  20.718  24.176  1.00  0.00     0.224 C 
ATOM      7  H   UNL A   1      34.603  21.538  23.686  1.00  0.00     0.163 HD
BRANCH   6   8
ATOM      8  C   UNL A   1      32.210  21.275  22.886  1.00  0.00     0.135 C 
BRANCH   8   9
ATOM      9  C   UNL A   1      32.147  22.787  22.818  1.00  0.00    -0.039 A 
ATOM     10  C   UNL A   1      33.147  23.543  22.199  1.00  0.00     0.006 A 
ATOM     11  C   UNL A   1      31.071  23.466  23.403  1.00  0.00     0.006 A 
ATOM     12  C   UNL A   1      32.993  24.919  22.025  1.00  0.00     0.026 A 
ATOM     13  C   UNL A   1      30.925  24.849  23.234  1.00  0.00     0.026 A 
ATOM     14  C   UNL A   1      31.837  25.564  22.455  1.00  0.00     0.041 A 
BRANCH  14  15
ATOM     15  N   UNL A   1      31.510  26.891  22.132  1.00  0.00    -0.326 N 
ATOM     16  C   UNL A   1      31.537  28.042  22.878  1.00  0.00     0.227 C 
ATOM     17  H   UNL A   1      31.204  27.018  21.205  1.00  0.00     0.169 HD
ATOM     18  O   UNL A   1      31.135  29.078  22.339  1.00  0.00    -0.274 OA
BRANCH  16  19
ATOM     19  C   UNL A   1      32.095  28.049  24.295  1.00  0.00     0.079 C 
ATOM     20  C   UNL A   1      33.623  28.062  24.367  1.00  0.00     0.013 C 
ATOM     21  C   UNL A   1      31.764  29.308  25.103  1.00  0.00     0.013 C 
ATOM     22  C   UNL A   1      33.888  28.351  25.836  1.00  0.00     0.001 C 
ATOM     23  C   UNL A   1      32.761  29.289  26.264  1.00  0.00     0.001 C 
ENDBRANCH  16  19
ENDBRANCH  14  15
ENDBRANCH   8   9
ENDBRANCH   6   8
ENDBRANCH   3   4
ENDBRANCH   2   3
ENDBRANCH   1   2
BRANCH   1  24
ATOM     24  C   UNL A   1      36.060  24.181  25.726  1.00  0.00     0.002 C 
BRANCH  24  25
ATOM     25  C   UNL A   1      37.419  23.480  25.756  1.00  0.00     0.021 C 
BRANCH  25  26
ATOM     26  C   UNL A   1      38.488  24.168  26.601  1.00  0.00     0.116 C 
BRANCH  26  27
ATOM     27  N   UNL A   1      39.828  24.006  26.055  1.00  0.00    -0.352 N 
ATOM     28  C   UNL A   1      40.983  24.675  26.387  1.00  0.00     0.251 C 
ATOM     29  H   UNL A   1      39.920  23.321  25.354  1.00  0.00     0.163 HD
ATOM     30  O   UNL A   1      42.000  24.514  25.717  1.00  0.00    -0.269 OA
BRANCH  28  31
ATOM     31  C   UNL A   1      40.986  25.610  27.533  1.00  0.00     0.039 A 
ATOM     32  C   UNL A   1      42.004  26.561  27.634  1.00  0.00     0.014 A 
ATOM     33  C   UNL A   1      39.975  25.558  28.498  1.00  0.00     0.014 A 
ATOM     34  C   UNL A   1      41.970  27.507  28.664  1.00  0.00     0.010 A 
ATOM     35  C   UNL A   1      39.907  26.541  29.481  1.00  0.00     0.010 A 
ATOM     36  C   UNL A   1      40.901  27.528  29.575  1.00  0.00    -0.014 A 
BRANCH  36  37
ATOM     37  C   UNL A   1      40.796  28.565  30.636  1.00  0.00     0.031 A 
ATOM     38  C   UNL A   1      41.655  28.462  31.869  1.00  0.00     0.074 A 
ATOM     39  C   UNL A   1      39.875  29.545  30.533  1.00  0.00     0.049 A 
ATOM     40  N   UNL A   1      41.621  29.180  32.962  1.00  0.00    -0.248 NA
ATOM     41  C   UNL A   1      42.665  27.390  31.890  1.00  0.00     0.031 C 
ATOM     42  C   UNL A   1      38.957  29.731  29.406  1.00  0.00     0.029 A 
ATOM     43  N   UNL A   1      39.540  30.557  31.400  1.00  0.00    -0.354 N 
ATOM     44  C   UNL A   1      42.580  28.632  33.806  1.00  0.00     0.074 A 
ATOM     45  C   UNL A   1      43.156  27.500  33.116  1.00  0.00     0.031 C 
ATOM     46  C   UNL A   1      38.172  30.795  29.647  1.00  0.00     0.029 A 
ATOM     47  C   UNL A   1      38.496  31.340  30.962  1.00  0.00     0.049 A 
ATOM     48  H   UNL A   1      40.003  30.708  32.255  1.00  0.00     0.167 HD
ATOM     49  C   UNL A   1      42.957  29.048  35.038  1.00  0.00     0.037 A 
ATOM     50  C   UNL A   1      37.860  32.368  31.559  1.00  0.00     0.037 A 
ATOM     51  C   UNL A   1      42.415  30.205  35.700  1.00  0.00     0.049 A 
ATOM     52  C   UNL A   1      38.305  32.810  32.930  1.00  0.00     0.074 A 
ATOM     53  C   UNL A   1      42.789  30.751  36.916  1.00  0.00     0.029 A 
ATOM     54  N   UNL A   1      41.390  30.995  35.204  1.00  0.00    -0.354 N 
ATOM     55  N   UNL A   1      39.261  32.321  33.684  1.00  0.00    -0.248 NA
ATOM     56  C   UNL A   1      37.589  33.944  33.533  1.00  0.00     0.031 C 
ATOM     57  C   UNL A   1      41.957  31.843  37.178  1.00  0.00     0.029 A 
ATOM     58  C   UNL A   1      41.103  32.011  36.101  1.00  0.00     0.049 A 
ATOM     59  H   UNL A   1      40.934  30.856  34.344  1.00  0.00     0.167 HD
ATOM     60  C   UNL A   1      39.288  33.115  34.826  1.00  0.00     0.074 A 
ATOM     61  C   UNL A   1      38.256  34.116  34.665  1.00  0.00     0.031 C 
ATOM     62  C   UNL A   1      40.097  33.024  35.910  1.00  0.00     0.037 A 
BRANCH  49  63
ATOM     63  C   UNL A   1      44.015  28.262  35.762  1.00  0.00     0.058 A 
ATOM     64  C   UNL A   1      45.380  28.559  35.625  1.00  0.00     0.135 A 
ATOM     65  C   UNL A   1      43.652  27.259  36.676  1.00  0.00     0.135 A 
ATOM     66  F   UNL A   1      45.783  29.496  34.752  1.00  0.00    -0.206 F 
ATOM     67  C   UNL A   1      46.347  27.887  36.362  1.00  0.00     0.059 A 
ATOM     68  C   UNL A   1      44.600  26.592  37.445  1.00  0.00     0.059 A 
ATOM     69  F   UNL A   1      42.361  26.932  36.844  1.00  0.00    -0.206 F 
ATOM     70  C   UNL A   1      45.947  26.911  37.277  1.00  0.00     0.060 A 
BRANCH  70  71
ATOM     71  S   UNL A   1      47.213  26.086  38.265  1.00  0.00     0.124 S 
ATOM     72  O   UNL A   1      48.424  26.409  37.516  1.00  0.00    -0.237 OA
ATOM     73  O   UNL A   1      47.076  26.745  39.560  1.00  0.00    -0.237 OA
ATOM     74  O   UNL A   1      46.812  24.683  38.233  1.00  0.00    -0.744 OA
ENDBRANCH  70  71
ENDBRANCH  49  63
BRANCH  50  75
ATOM     75  C   UNL A   1      36.729  33.057  30.878  1.00  0.00     0.058 A 
ATOM     76  C   UNL A   1      36.964  34.020  29.884  1.00  0.00     0.135 A 
ATOM     77  C   UNL A   1      35.396  32.801  31.234  1.00  0.00     0.135 A 
ATOM     78  F   UNL A   1      38.222  34.305  29.511  1.00  0.00    -0.206 F 
ATOM     79  C   UNL A   1      35.925  34.734  29.297  1.00  0.00     0.059 A 
ATOM     80  C   UNL A   1      34.336  33.480  30.640  1.00  0.00     0.059 A 
ATOM     81  F   UNL A   1      35.113  31.877  32.165  1.00  0.00    -0.206 F 
ATOM     82  C   UNL A   1      34.613  34.460  29.688  1.00  0.00     0.060 A 
BRANCH  82  83
ATOM     83  S   UNL A   1      33.268  35.393  28.924  1.00  0.00     0.124 S 
ATOM     84  O   UNL A   1      32.636  36.003  30.089  1.00  0.00    -0.237 OA
ATOM     85  O   UNL A   1      33.988  36.303  28.038  1.00  0.00    -0.237 OA
ATOM     86  O   UNL A   1      32.487  34.361  28.249  1.00  0.00    -0.744 OA
ENDBRANCH  82  83
ENDBRANCH  50  75
BRANCH  62  87
ATOM     87  C   UNL A   1      39.954  34.068  36.982  1.00  0.00     0.058 A 
ATOM     88  C   UNL A   1      40.534  35.340  36.861  1.00  0.00     0.135 A 
ATOM     89  C   UNL A   1      39.153  33.815  38.108  1.00  0.00     0.135 A 
ATOM     90  F   UNL A   1      41.313  35.630  35.807  1.00  0.00    -0.206 F 
ATOM     91  C   UNL A   1      40.337  36.321  37.828  1.00  0.00     0.059 A 
ATOM     92  C   UNL A   1      38.920  34.791  39.072  1.00  0.00     0.059 A 
ATOM     93  F   UNL A   1      38.567  32.619  38.266  1.00  0.00    -0.206 F 
ATOM     94  C   UNL A   1      39.523  36.039  38.926  1.00  0.00     0.060 A 
BRANCH  94  95
ATOM     95  S   UNL A   1      39.229  37.339  40.143  1.00  0.00     0.124 S 
ATOM     96  O   UNL A   1      38.404  38.272  39.384  1.00  0.00    -0.237 OA
ATOM     97  O   UNL A   1      38.549  36.618  41.214  1.00  0.00    -0.237 OA
ATOM     98  O   UNL A   1      40.572  37.810  40.469  1.00  0.00    -0.744 OA
ENDBRANCH  94  95
ENDBRANCH  62  87
ENDBRANCH  36  37
ENDBRANCH  28  31
ENDBRANCH  26  27
ENDBRANCH  25  26
ENDBRANCH  24  25
ENDBRANCH   1  24
TORSDOF 19
ENDMDL
MODEL 2
REMARK VINA RESULT:     -11.4      4.916     10.681
REMARK SMILES O=C(Cc1ccc(NC(=O)C2CCCC2)cc1)NCCCCCCNC(=O)c1ccc(-c2c3nc(c(-c4c(F)cc(S(=O)(=O)[O-])cc4F)c4ccc([nH]4)c(-c4c(F)cc(S(=O)(=O)[O-])cc4F)c4nc(c(-c5c(F)cc(S(=O)(=O)[O-])cc5F)c5ccc2[nH]5)C=C4)C=C3)cc1
REMARK SMILES IDX 21 1 20 2 19 3 18 4 1 5 2 6 3 8 4 9 5 10 17 11 6 12 16 13
REMARK SMILES IDX 7 14 8 15 9 16 10 18 11 19 12 20 15 21 13 22 14 23 22 24
REMARK SMILES IDX 23 25 24 26 25 27 26 28 27 30 28 31 29 32 93 33 30 34 92 35
REMARK SMILES IDX 31 36 32 37 33 38 86 39 34 40 91 41 85 42 87 43 35 44 90 45
REMARK SMILES IDX 84 46 83 47 36 49 70 50 49 51 69 52 50 53 53 54 68 55 88 56
REMARK SMILES IDX 51 57 52 58 67 60 89 61 54 62 37 63 38 64 47 65 39 66 40 67
REMARK SMILES IDX 46 68 48 69 41 70 42 71 43 72 44 73 45 74 71 75 72 76 81 77
REMARK SMILES IDX 73 78 74 79 80 80 82 81 75 82 76 83 77 84 78 85 79 86 55 87
REMARK SMILES IDX 56 88 65 89 57 90 58 91 64 92 66 93 59 94 60 95 61 96 62 97
REMARK SMILES IDX 63 98
REMARK H PARENT 18 7 8 17 25 29 87 48 53 59
REMARK Flexibility Score: inf
ROOT
ATOM      1  C   UNL A   1      31.176  26.882  24.915  1.00  0.00     0.002 C 
ENDROOT
BRANCH   1   2
ATOM      2  C   UNL A   1      31.349  28.122  24.030  1.00  0.00     0.021 C 
BRANCH   2   3
ATOM      3  C   UNL A   1      31.210  27.864  22.531  1.00  0.00     0.116 C 
BRANCH   3   4
ATOM      4  N   UNL A   1      31.578  26.508  22.170  1.00  0.00    -0.356 N 
ATOM      5  O   UNL A   1      33.748  26.974  21.563  1.00  0.00    -0.275 OA
ATOM      6  C   UNL A   1      32.846  26.161  21.749  1.00  0.00     0.224 C 
ATOM      7  H   UNL A   1      30.893  25.803  22.228  1.00  0.00     0.163 HD
BRANCH   6   8
ATOM      8  C   UNL A   1      33.051  24.669  21.526  1.00  0.00     0.135 C 
BRANCH   8   9
ATOM      9  C   UNL A   1      32.917  23.816  22.770  1.00  0.00    -0.039 A 
ATOM     10  C   UNL A   1      31.673  23.414  23.262  1.00  0.00     0.006 A 
ATOM     11  C   UNL A   1      34.064  23.423  23.472  1.00  0.00     0.006 A 
ATOM     12  C   UNL A   1      31.585  22.512  24.324  1.00  0.00     0.026 A 
ATOM     13  C   UNL A   1      33.972  22.525  24.542  1.00  0.00     0.026 A 
ATOM     14  C   UNL A   1      32.735  21.987  24.906  1.00  0.00     0.041 A 
BRANCH  14  15
ATOM     15  N   UNL A   1      32.738  20.925  25.824  1.00  0.00    -0.326 N 
ATOM     16  C   UNL A   1      32.937  19.578  25.657  1.00  0.00     0.227 C 
ATOM     17  H   UNL A   1      32.565  21.195  26.755  1.00  0.00     0.169 HD
ATOM     18  O   UNL A   1      32.827  18.859  26.655  1.00  0.00    -0.274 OA
BRANCH  16  19
ATOM     19  C   UNL A   1      33.334  19.003  24.304  1.00  0.00     0.079 C 
ATOM     20  C   UNL A   1      33.918  17.590  24.369  1.00  0.00     0.013 C 
ATOM     21  C   UNL A   1      32.163  18.779  23.341  1.00  0.00     0.013 C 
ATOM     22  C   UNL A   1      33.951  17.171  22.908  1.00  0.00     0.001 C 
ATOM     23  C   UNL A   1      32.717  17.821  22.283  1.00  0.00     0.001 C 
ENDBRANCH  16  19
ENDBRANCH  14  15
ENDBRANCH   8   9
ENDBRANCH   6   8
ENDBRANCH   3   4
ENDBRANCH   2   3
ENDBRANCH   1   2
BRANCH   1  24
ATOM     24  C   UNL A   1      32.339  26.579  25.867  1.00  0.00     0.002 C 
BRANCH  24  25
ATOM     25  C   UNL A   1      32.587  27.622  26.959  1.00  0.00     0.021 C 
BRANCH  25  26
ATOM     26  C   UNL A   1      33.816  28.503  26.751  1.00  0.00     0.116 C 
BRANCH  26  27
ATOM     27  N   UNL A   1      33.664  29.828  27.335  1.00  0.00    -0.352 N 
ATOM     28  C   UNL A   1      34.551  30.537  28.110  1.00  0.00     0.251 C 
ATOM     29  H   UNL A   1      32.810  30.279  27.147  1.00  0.00     0.163 HD
ATOM     30  O   UNL A   1      34.199  31.586  28.645  1.00  0.00    -0.269 OA
BRANCH  28  31
ATOM     31  C   UNL A   1      35.920  30.018  28.321  1.00  0.00     0.039 A 
ATOM     32  C   UNL A   1      36.850  30.104  27.281  1.00  0.00     0.014 A 
ATOM     33  C   UNL A   1      36.289  29.461  29.548  1.00  0.00     0.014 A 
ATOM     34  C   UNL A   1      38.170  29.698  27.496  1.00  0.00     0.010 A 
ATOM     35  C   UNL A   1      37.619  29.121  29.781  1.00  0.00     0.010 A 
ATOM     36  C   UNL A   1      38.575  29.236  28.759  1.00  0.00    -0.014 A 
BRANCH  36  37
ATOM     37  C   UNL A   1      39.988  28.866  29.042  1.00  0.00     0.031 A 
ATOM     38  C   UNL A   1      40.932  29.895  29.604  1.00  0.00     0.074 A 
ATOM     39  C   UNL A   1      40.442  27.638  28.714  1.00  0.00     0.049 A 
ATOM     40  N   UNL A   1      42.224  29.816  29.794  1.00  0.00    -0.248 NA
ATOM     41  C   UNL A   1      40.353  31.198  29.976  1.00  0.00     0.031 C 
ATOM     42  C   UNL A   1      39.637  26.565  28.127  1.00  0.00     0.029 A 
ATOM     43  N   UNL A   1      41.700  27.092  28.806  1.00  0.00    -0.354 N 
ATOM     44  C   UNL A   1      42.615  31.060  30.278  1.00  0.00     0.074 A 
ATOM     45  C   UNL A   1      41.431  31.889  30.320  1.00  0.00     0.031 C 
ATOM     46  C   UNL A   1      40.416  25.491  27.920  1.00  0.00     0.029 A 
ATOM     47  C   UNL A   1      41.784  25.809  28.315  1.00  0.00     0.049 A 
ATOM     48  H   UNL A   1      42.469  27.575  29.186  1.00  0.00     0.167 HD
ATOM     49  C   UNL A   1      43.846  31.466  30.666  1.00  0.00     0.037 A 
ATOM     50  C   UNL A   1      42.847  24.990  28.181  1.00  0.00     0.037 A 
ATOM     51  C   UNL A   1      45.011  30.621  30.669  1.00  0.00     0.049 A 
ATOM     52  C   UNL A   1      44.205  25.470  28.625  1.00  0.00     0.074 A 
ATOM     53  C   UNL A   1      46.285  30.919  31.118  1.00  0.00     0.029 A 
ATOM     54  N   UNL A   1      45.045  29.315  30.204  1.00  0.00    -0.354 N 
ATOM     55  N   UNL A   1      44.541  26.627  29.144  1.00  0.00    -0.248 NA
ATOM     56  C   UNL A   1      45.329  24.535  28.472  1.00  0.00     0.031 C 
ATOM     57  C   UNL A   1      47.103  29.811  30.881  1.00  0.00     0.029 A 
ATOM     58  C   UNL A   1      46.325  28.802  30.335  1.00  0.00     0.049 A 
ATOM     59  H   UNL A   1      44.275  28.825  29.835  1.00  0.00     0.167 HD
ATOM     60  C   UNL A   1      45.902  26.540  29.418  1.00  0.00     0.074 A 
ATOM     61  C   UNL A   1      46.328  25.219  29.010  1.00  0.00     0.031 C 
ATOM     62  C   UNL A   1      46.726  27.471  29.959  1.00  0.00     0.037 A 
BRANCH  49  63
ATOM     63  C   UNL A   1      44.012  32.884  31.136  1.00  0.00     0.058 A 
ATOM     64  C   UNL A   1      43.849  33.240  32.483  1.00  0.00     0.135 A 
ATOM     65  C   UNL A   1      44.430  33.883  30.241  1.00  0.00     0.135 A 
ATOM     66  F   UNL A   1      43.434  32.329  33.378  1.00  0.00    -0.206 F 
ATOM     67  C   UNL A   1      44.089  34.536  32.927  1.00  0.00     0.059 A 
ATOM     68  C   UNL A   1      44.702  35.179  30.667  1.00  0.00     0.059 A 
ATOM     69  F   UNL A   1      44.597  33.598  28.940  1.00  0.00    -0.206 F 
ATOM     70  C   UNL A   1      44.525  35.497  32.012  1.00  0.00     0.060 A 
BRANCH  70  71
ATOM     71  S   UNL A   1      44.883  37.160  32.616  1.00  0.00     0.124 S 
ATOM     72  O   UNL A   1      44.462  37.061  34.011  1.00  0.00    -0.237 OA
ATOM     73  O   UNL A   1      46.322  37.268  32.395  1.00  0.00    -0.237 OA
ATOM     74  O   UNL A   1      44.056  38.015  31.771  1.00  0.00    -0.744 OA
ENDBRANCH  70  71
ENDBRANCH  49  63
BRANCH  50  75
ATOM     75  C   UNL A   1      42.686  23.630  27.597  1.00  0.00     0.058 A 
ATOM     76  C   UNL A   1      42.431  22.518  28.415  1.00  0.00     0.135 A 
ATOM     77  C   UNL A   1      42.824  23.405  26.218  1.00  0.00     0.135 A 
ATOM     78  F   UNL A   1      42.295  22.680  29.741  1.00  0.00    -0.206 F 
ATOM     79  C   UNL A   1      42.360  21.229  27.897  1.00  0.00     0.059 A 
ATOM     80  C   UNL A   1      42.727  22.129  25.672  1.00  0.00     0.059 A 
ATOM     81  F   UNL A   1      43.049  24.434  25.387  1.00  0.00    -0.206 F 
ATOM     82  C   UNL A   1      42.517  21.045  26.523  1.00  0.00     0.060 A 
BRANCH  82  83
ATOM     83  S   UNL A   1      42.427  19.368  25.857  1.00  0.00     0.124 S 
ATOM     84  O   UNL A   1      43.256  19.483  24.662  1.00  0.00    -0.237 OA
ATOM     85  O   UNL A   1      42.986  18.573  26.947  1.00  0.00    -0.237 OA
ATOM     86  O   UNL A   1      41.000  19.178  25.621  1.00  0.00    -0.744 OA
ENDBRANCH  82  83
ENDBRANCH  50  75
BRANCH  62  87
ATOM     87  C   UNL A   1      48.156  27.082  30.211  1.00  0.00     0.058 A 
ATOM     88  C   UNL A   1      49.169  27.329  29.272  1.00  0.00     0.135 A 
ATOM     89  C   UNL A   1      48.527  26.528  31.448  1.00  0.00     0.135 A 
ATOM     90  F   UNL A   1      48.866  27.851  28.073  1.00  0.00    -0.206 F 
ATOM     91  C   UNL A   1      50.500  27.027  29.545  1.00  0.00     0.059 A 
ATOM     92  C   UNL A   1      49.854  26.245  31.753  1.00  0.00     0.059 A 
ATOM     93  F   UNL A   1      47.598  26.282  32.385  1.00  0.00    -0.206 F 
ATOM     94  C   UNL A   1      50.833  26.491  30.791  1.00  0.00     0.060 A 
BRANCH  94  95
ATOM     95  S   UNL A   1      52.569  26.158  31.153  1.00  0.00     0.124 S 
ATOM     96  O   UNL A   1      53.171  26.255  29.828  1.00  0.00    -0.237 OA
ATOM     97  O   UNL A   1      52.906  27.232  32.082  1.00  0.00    -0.237 OA
ATOM     98  O   UNL A   1      52.545  24.819  31.735  1.00  0.00    -0.744 OA
ENDBRANCH  94  95
ENDBRANCH  62  87
ENDBRANCH  36  37
ENDBRANCH  28  31
ENDBRANCH  26  27
ENDBRANCH  25  26
ENDBRANCH  24  25
ENDBRANCH   1  24
TORSDOF 19
ENDMDL
MODEL 3
REMARK VINA RESULT:     -11.3      5.332      8.765
REMARK SMILES O=C(Cc1ccc(NC(=O)C2CCCC2)cc1)NCCCCCCNC(=O)c1ccc(-c2c3nc(c(-c4c(F)cc(S(=O)(=O)[O-])cc4F)c4ccc([nH]4)c(-c4c(F)cc(S(=O)(=O)[O-])cc4F)c4nc(c(-c5c(F)cc(S(=O)(=O)[O-])cc5F)c5ccc2[nH]5)C=C4)C=C3)cc1
REMARK SMILES IDX 21 1 20 2 19 3 18 4 1 5 2 6 3 8 4 9 5 10 17 11 6 12 16 13
REMARK SMILES IDX 7 14 8 15 9 16 10 18 11 19 12 20 15 21 13 22 14 23 22 24
REMARK SMILES IDX 23 25 24 26 25 27 26 28 27 30 28 31 29 32 93 33 30 34 92 35
REMARK SMILES IDX 31 36 32 37 33 38 86 39 34 40 91 41 85 42 87 43 35 44 90 45
REMARK SMILES IDX 84 46 83 47 36 49 70 50 49 51 69 52 50 53 53 54 68 55 88 56
REMARK SMILES IDX 51 57 52 58 67 60 89 61 54 62 37 63 38 64 47 65 39 66 40 67
REMARK SMILES IDX 46 68 48 69 41 70 42 71 43 72 44 73 45 74 71 75 72 76 81 77
REMARK SMILES IDX 73 78 74 79 80 80 82 81 75 82 76 83 77 84 78 85 79 86 55 87
REMARK SMILES IDX 56 88 65 89 57 90 58 91 64 92 66 93 59 94 60 95 61 96 62 97
REMARK SMILES IDX 63 98
REMARK H PARENT 18 7 8 17 25 29 87 48 53 59
REMARK Flexibility Score: inf
ROOT
ATOM      1  C   UNL A   1      43.125  20.052  25.809  1.00  0.00     0.002 C 
ENDROOT
BRANCH   1   2
ATOM      2  C   UNL A   1      44.065  19.167  24.982  1.00  0.00     0.021 C 
BRANCH   2   3
ATOM      3  C   UNL A   1      45.279  19.889  24.400  1.00  0.00     0.116 C 
BRANCH   3   4
ATOM      4  N   UNL A   1      45.367  21.265  24.850  1.00  0.00    -0.356 N 
ATOM      5  O   UNL A   1      44.273  22.202  23.055  1.00  0.00    -0.275 OA
ATOM      6  C   UNL A   1      44.813  22.320  24.152  1.00  0.00     0.224 C 
ATOM      7  H   UNL A   1      45.842  21.456  25.691  1.00  0.00     0.163 HD
BRANCH   6   8
ATOM      8  C   UNL A   1      44.924  23.668  24.852  1.00  0.00     0.135 C 
BRANCH   8   9
ATOM      9  C   UNL A   1      44.568  23.650  26.324  1.00  0.00    -0.039 A 
ATOM     10  C   UNL A   1      43.244  23.563  26.764  1.00  0.00     0.006 A 
ATOM     11  C   UNL A   1      45.580  23.741  27.287  1.00  0.00     0.006 A 
ATOM     12  C   UNL A   1      42.955  23.404  28.120  1.00  0.00     0.026 A 
ATOM     13  C   UNL A   1      45.286  23.590  28.647  1.00  0.00     0.026 A 
ATOM     14  C   UNL A   1      43.979  23.319  29.059  1.00  0.00     0.041 A 
BRANCH  14  15
ATOM     15  N   UNL A   1      43.788  22.949  30.401  1.00  0.00    -0.326 N 
ATOM     16  C   UNL A   1      44.137  23.568  31.574  1.00  0.00     0.227 C 
ATOM     17  H   UNL A   1      43.322  22.090  30.520  1.00  0.00     0.169 HD
ATOM     18  O   UNL A   1      43.885  22.973  32.626  1.00  0.00    -0.274 OA
BRANCH  16  19
ATOM     19  C   UNL A   1      44.759  24.958  31.576  1.00  0.00     0.079 C 
ATOM     20  C   UNL A   1      43.777  26.085  31.252  1.00  0.00     0.013 C 
ATOM     21  C   UNL A   1      45.279  25.420  32.941  1.00  0.00     0.013 C 
ATOM     22  C   UNL A   1      44.572  27.334  31.598  1.00  0.00     0.001 C 
ATOM     23  C   UNL A   1      45.430  26.937  32.798  1.00  0.00     0.001 C 
ENDBRANCH  16  19
ENDBRANCH  14  15
ENDBRANCH   8   9
ENDBRANCH   6   8
ENDBRANCH   3   4
ENDBRANCH   2   3
ENDBRANCH   1   2
BRANCH   1  24
ATOM     24  C   UNL A   1      41.833  19.380  26.288  1.00  0.00     0.002 C 
BRANCH  24  25
ATOM     25  C   UNL A   1      40.770  20.322  26.856  1.00  0.00     0.021 C 
BRANCH  25  26
ATOM     26  C   UNL A   1      40.592  21.636  26.098  1.00  0.00     0.116 C 
BRANCH  26  27
ATOM     27  N   UNL A   1      39.194  21.990  25.905  1.00  0.00    -0.352 N 
ATOM     28  C   UNL A   1      38.548  23.162  26.222  1.00  0.00     0.251 C 
ATOM     29  H   UNL A   1      38.634  21.296  25.488  1.00  0.00     0.163 HD
ATOM     30  O   UNL A   1      37.325  23.235  26.126  1.00  0.00    -0.269 OA
BRANCH  28  31
ATOM     31  C   UNL A   1      39.327  24.322  26.707  1.00  0.00     0.039 A 
ATOM     32  C   UNL A   1      40.025  25.107  25.786  1.00  0.00     0.014 A 
ATOM     33  C   UNL A   1      39.356  24.642  28.067  1.00  0.00     0.014 A 
ATOM     34  C   UNL A   1      40.693  26.256  26.220  1.00  0.00     0.010 A 
ATOM     35  C   UNL A   1      39.964  25.822  28.486  1.00  0.00     0.010 A 
ATOM     36  C   UNL A   1      40.638  26.644  27.569  1.00  0.00    -0.014 A 
BRANCH  36  37
ATOM     37  C   UNL A   1      41.275  27.899  28.050  1.00  0.00     0.031 A 
ATOM     38  C   UNL A   1      42.776  28.020  28.054  1.00  0.00     0.074 A 
ATOM     39  C   UNL A   1      40.515  28.889  28.562  1.00  0.00     0.049 A 
ATOM     40  N   UNL A   1      43.527  28.967  28.554  1.00  0.00    -0.248 NA
ATOM     41  C   UNL A   1      43.536  26.917  27.442  1.00  0.00     0.031 C 
ATOM     42  C   UNL A   1      39.052  28.876  28.650  1.00  0.00     0.029 A 
ATOM     43  N   UNL A   1      40.866  30.090  29.127  1.00  0.00    -0.354 N 
ATOM     44  C   UNL A   1      44.841  28.563  28.342  1.00  0.00     0.074 A 
ATOM     45  C   UNL A   1      44.787  27.269  27.700  1.00  0.00     0.031 C 
ATOM     46  C   UNL A   1      38.634  30.015  29.225  1.00  0.00     0.029 A 
ATOM     47  C   UNL A   1      39.795  30.821  29.589  1.00  0.00     0.049 A 
ATOM     48  H   UNL A   1      41.799  30.399  29.196  1.00  0.00     0.167 HD
ATOM     49  C   UNL A   1      45.985  29.221  28.641  1.00  0.00     0.037 A 
ATOM     50  C   UNL A   1      39.755  31.997  30.247  1.00  0.00     0.037 A 
ATOM     51  C   UNL A   1      46.032  30.531  29.235  1.00  0.00     0.049 A 
ATOM     52  C   UNL A   1      41.047  32.707  30.563  1.00  0.00     0.074 A 
ATOM     53  C   UNL A   1      47.143  31.312  29.504  1.00  0.00     0.029 A 
ATOM     54  N   UNL A   1      44.923  31.254  29.648  1.00  0.00    -0.354 N 
ATOM     55  N   UNL A   1      42.276  32.339  30.293  1.00  0.00    -0.248 NA
ATOM     56  C   UNL A   1      40.948  33.993  31.269  1.00  0.00     0.031 C 
ATOM     57  C   UNL A   1      46.710  32.487  30.124  1.00  0.00     0.029 A 
ATOM     58  C   UNL A   1      45.327  32.464  30.191  1.00  0.00     0.049 A 
ATOM     59  H   UNL A   1      43.990  30.955  29.569  1.00  0.00     0.167 HD
ATOM     60  C   UNL A   1      43.091  33.368  30.756  1.00  0.00     0.074 A 
ATOM     61  C   UNL A   1      42.217  34.373  31.322  1.00  0.00     0.031 C 
ATOM     62  C   UNL A   1      44.442  33.471  30.716  1.00  0.00     0.037 A 
BRANCH  49  63
ATOM     63  C   UNL A   1      47.294  28.551  28.327  1.00  0.00     0.058 A 
ATOM     64  C   UNL A   1      48.006  27.829  29.297  1.00  0.00     0.135 A 
ATOM     65  C   UNL A   1      47.795  28.553  27.015  1.00  0.00     0.135 A 
ATOM     66  F   UNL A   1      47.580  27.808  30.571  1.00  0.00    -0.206 F 
ATOM     67  C   UNL A   1      49.170  27.138  28.981  1.00  0.00     0.059 A 
ATOM     68  C   UNL A   1      48.943  27.848  26.669  1.00  0.00     0.059 A 
ATOM     69  F   UNL A   1      47.156  29.231  26.048  1.00  0.00    -0.206 F 
ATOM     70  C   UNL A   1      49.626  27.146  27.661  1.00  0.00     0.060 A 
BRANCH  70  71
ATOM     71  S   UNL A   1      51.110  26.200  27.258  1.00  0.00     0.124 S 
ATOM     72  O   UNL A   1      51.988  26.546  28.371  1.00  0.00    -0.237 OA
ATOM     73  O   UNL A   1      50.611  24.828  27.248  1.00  0.00    -0.237 OA
ATOM     74  O   UNL A   1      51.509  26.729  25.957  1.00  0.00    -0.744 OA
ENDBRANCH  70  71
ENDBRANCH  49  63
BRANCH  50  75
ATOM     75  C   UNL A   1      38.452  32.588  30.663  1.00  0.00     0.058 A 
ATOM     76  C   UNL A   1      37.932  32.359  31.946  1.00  0.00     0.135 A 
ATOM     77  C   UNL A   1      37.682  33.356  29.776  1.00  0.00     0.135 A 
ATOM     78  F   UNL A   1      38.628  31.627  32.830  1.00  0.00    -0.206 F 
ATOM     79  C   UNL A   1      36.680  32.834  32.323  1.00  0.00     0.059 A 
ATOM     80  C   UNL A   1      36.440  33.867  30.139  1.00  0.00     0.059 A 
ATOM     81  F   UNL A   1      38.140  33.622  28.542  1.00  0.00    -0.206 F 
ATOM     82  C   UNL A   1      35.938  33.582  31.408  1.00  0.00     0.060 A 
BRANCH  82  83
ATOM     83  S   UNL A   1      34.311  34.192  31.902  1.00  0.00     0.124 S 
ATOM     84  O   UNL A   1      33.791  33.057  32.657  1.00  0.00    -0.237 OA
ATOM     85  O   UNL A   1      34.652  35.377  32.684  1.00  0.00    -0.237 OA
ATOM     86  O   UNL A   1      33.653  34.459  30.628  1.00  0.00    -0.744 OA
ENDBRANCH  82  83
ENDBRANCH  50  75
BRANCH  62  87
ATOM     87  C   UNL A   1      45.065  34.738  31.233  1.00  0.00     0.058 A 
ATOM     88  C   UNL A   1      45.504  34.862  32.559  1.00  0.00     0.135 A 
ATOM     89  C   UNL A   1      45.299  35.813  30.359  1.00  0.00     0.135 A 
ATOM     90  F   UNL A   1      45.298  33.866  33.435  1.00  0.00    -0.206 F 
ATOM     91  C   UNL A   1      46.141  36.015  33.007  1.00  0.00     0.059 A 
ATOM     92  C   UNL A   1      45.960  36.964  30.778  1.00  0.00     0.059 A 
ATOM     93  F   UNL A   1      44.909  35.741  29.078  1.00  0.00    -0.206 F 
ATOM     94  C   UNL A   1      46.370  37.058  32.107  1.00  0.00     0.060 A 
BRANCH  94  95
ATOM     95  S   UNL A   1      47.249  38.524  32.686  1.00  0.00     0.124 S 
ATOM     96  O   UNL A   1      46.181  39.266  33.347  1.00  0.00    -0.237 OA
ATOM     97  O   UNL A   1      48.263  37.953  33.568  1.00  0.00    -0.237 OA
ATOM     98  O   UNL A   1      47.762  39.122  31.457  1.00  0.00    -0.744 OA
ENDBRANCH  94  95
ENDBRANCH  62  87
ENDBRANCH  36  37
ENDBRANCH  28  31
ENDBRANCH  26  27
ENDBRANCH  25  26
ENDBRANCH  24  25
ENDBRANCH   1  24
TORSDOF 19
ENDMDL
