MODEL 1
REMARK VINA RESULT:     -11.7      0.000      0.000
REMARK SMILES CC(C)[N@@H+](C)Cc1cc2c(cc1Cl)C=C(C(=O)NCCCCCCNC(=O)c1ccc(-c3c4nc(c(-c5c(F)cc(S(=O)(=O)[O-])cc5F)c5ccc([nH]5)c(-c5c(F)cc(S(=O)(=O)[O-])cc5F)c5nc(c(-c6c(F)cc(S(=O)(=O)[O-])cc6F)c6ccc3[nH]6)C=C5)C=C4)cc1)[C@@H](C(F)(F)F)O2
REMARK SMILES IDX 21 1 20 2 19 3 18 4 16 5 17 6 15 8 7 9 8 10 12 11 9 12 11 13
REMARK SMILES IDX 13 14 10 15 99 16 14 17 94 18 6 19 4 20 5 21 2 23 1 24 3 25
REMARK SMILES IDX 95 26 96 27 97 28 98 29 22 30 23 31 24 32 25 33 26 34 27 36
REMARK SMILES IDX 28 37 29 38 93 39 30 40 92 41 31 42 32 43 33 44 86 45 34 46
REMARK SMILES IDX 91 47 85 48 87 49 35 50 90 51 84 52 83 53 36 55 70 56 49 57
REMARK SMILES IDX 69 58 50 59 53 60 68 61 88 62 51 63 52 64 67 66 89 67 54 68
REMARK SMILES IDX 37 69 38 70 47 71 39 72 40 73 46 74 48 75 41 76 42 77 43 78
REMARK SMILES IDX 44 79 45 80 71 81 72 82 81 83 73 84 74 85 80 86 82 87 75 88
REMARK SMILES IDX 76 89 77 90 78 91 79 92 55 93 56 94 65 95 57 96 58 97 64 98
REMARK SMILES IDX 66 99 59 100 60 101 61 102 62 103 63 104
REMARK H PARENT 18 7 4 22 25 35 87 54 53 65
REMARK Flexibility Score: inf
ROOT
ATOM      1  C   UNL A   1      32.426  30.452  26.510  1.00  0.00     0.002 C 
ENDROOT
BRANCH   1   2
ATOM      2  C   UNL A   1      31.462  29.983  25.418  1.00  0.00     0.021 C 
BRANCH   2   3
ATOM      3  C   UNL A   1      31.689  28.546  24.957  1.00  0.00     0.116 C 
BRANCH   3   4
ATOM      4  N   UNL A   1      30.463  27.918  24.496  1.00  0.00    -0.352 N 
ATOM      5  C   UNL A   1      30.070  26.686  24.094  1.00  0.00     0.251 C 
ATOM      6  O   UNL A   1      28.871  26.578  23.817  1.00  0.00    -0.270 OA
ATOM      7  H   UNL A   1      29.716  28.560  24.470  1.00  0.00     0.163 HD
BRANCH   5   8
ATOM      8  C   UNL A   1      30.964  25.495  23.958  1.00  0.00     0.067 C 
ATOM      9  C   UNL A   1      33.782  21.408  24.941  1.00  0.00     0.029 A 
ATOM     10  C   UNL A   1      33.235  21.992  23.793  1.00  0.00     0.058 A 
ATOM     11  C   UNL A   1      33.692  22.135  26.141  1.00  0.00     0.050 A 
ATOM     12  C   UNL A   1      32.495  23.165  23.862  1.00  0.00     0.128 A 
ATOM     13  C   UNL A   1      32.973  23.340  26.201  1.00  0.00     0.033 A 
ATOM     14  Cl  UNL A   1      34.431  21.598  27.608  1.00  0.00    -0.084 Cl
ATOM     15  C   UNL A   1      32.338  23.842  25.063  1.00  0.00     0.019 A 
ATOM     16  O   UNL A   1      31.891  23.531  22.703  1.00  0.00    -0.475 OA
ATOM     17  C   UNL A   1      31.477  25.016  25.108  1.00  0.00     0.025 C 
ATOM     18  C   UNL A   1      31.314  24.856  22.641  1.00  0.00     0.314 C 
BRANCH   9  19
ATOM     19  C   UNL A   1      34.405  20.033  24.821  1.00  0.00     0.300 C 
BRANCH  19  20
ATOM     20  N   UNL A   1      33.503  18.898  24.556  1.00  0.00    -0.332 N 
ATOM     21  C   UNL A   1      32.397  18.737  25.493  1.00  0.00     0.333 C 
ATOM     22  H   UNL A   1      33.105  19.254  23.687  1.00  0.00     0.348 HD
BRANCH  20  23
ATOM     23  C   UNL A   1      34.066  17.615  24.108  1.00  0.00     0.177 C 
ATOM     24  C   UNL A   1      35.524  17.458  24.547  1.00  0.00     0.075 C 
ATOM     25  C   UNL A   1      33.268  16.353  24.459  1.00  0.00     0.075 C 
ENDBRANCH  20  23
ENDBRANCH  19  20
ENDBRANCH   9  19
BRANCH  18  26
ATOM     26  C   UNL A   1      32.234  25.728  21.773  1.00  0.00     0.429 C 
ATOM     27  F   UNL A   1      32.887  26.635  22.540  1.00  0.00    -0.167 F 
ATOM     28  F   UNL A   1      33.184  25.012  21.132  1.00  0.00    -0.167 F 
ATOM     29  F   UNL A   1      31.547  26.411  20.828  1.00  0.00    -0.167 F 
ENDBRANCH  18  26
ENDBRANCH   5   8
ENDBRANCH   3   4
ENDBRANCH   2   3
ENDBRANCH   1   2
BRANCH   1  30
ATOM     30  C   UNL A   1      33.173  29.339  27.257  1.00  0.00     0.002 C 
BRANCH  30  31
ATOM     31  C   UNL A   1      34.687  29.281  27.031  1.00  0.00     0.021 C 
BRANCH  31  32
ATOM     32  C   UNL A   1      35.479  30.419  27.664  1.00  0.00     0.116 C 
BRANCH  32  33
ATOM     33  N   UNL A   1      35.345  30.456  29.110  1.00  0.00    -0.352 N 
ATOM     34  C   UNL A   1      36.293  30.218  30.076  1.00  0.00     0.251 C 
ATOM     35  H   UNL A   1      34.448  30.684  29.447  1.00  0.00     0.163 HD
ATOM     36  O   UNL A   1      35.962  30.147  31.257  1.00  0.00    -0.269 OA
BRANCH  34  37
ATOM     37  C   UNL A   1      37.704  30.017  29.683  1.00  0.00     0.039 A 
ATOM     38  C   UNL A   1      38.076  30.018  28.336  1.00  0.00     0.014 A 
ATOM     39  C   UNL A   1      38.663  29.806  30.678  1.00  0.00     0.014 A 
ATOM     40  C   UNL A   1      39.372  29.660  27.980  1.00  0.00     0.010 A 
ATOM     41  C   UNL A   1      39.984  29.522  30.318  1.00  0.00     0.010 A 
ATOM     42  C   UNL A   1      40.340  29.403  28.965  1.00  0.00    -0.014 A 
BRANCH  42  43
ATOM     43  C   UNL A   1      41.712  29.006  28.558  1.00  0.00     0.031 A 
ATOM     44  C   UNL A   1      42.851  29.987  28.641  1.00  0.00     0.074 A 
ATOM     45  C   UNL A   1      41.942  27.737  28.168  1.00  0.00     0.049 A 
ATOM     46  N   UNL A   1      44.114  29.810  28.344  1.00  0.00    -0.248 NA
ATOM     47  C   UNL A   1      42.534  31.344  29.116  1.00  0.00     0.031 C 
ATOM     48  C   UNL A   1      40.920  26.692  28.063  1.00  0.00     0.029 A 
ATOM     49  N   UNL A   1      43.104  27.101  27.815  1.00  0.00    -0.354 N 
ATOM     50  C   UNL A   1      44.738  31.029  28.583  1.00  0.00     0.074 A 
ATOM     51  C   UNL A   1      43.710  31.949  29.021  1.00  0.00     0.031 C 
ATOM     52  C   UNL A   1      41.509  25.534  27.730  1.00  0.00     0.029 A 
ATOM     53  C   UNL A   1      42.937  25.765  27.537  1.00  0.00     0.049 A 
ATOM     54  H   UNL A   1      43.975  27.557  27.766  1.00  0.00     0.167 HD
ATOM     55  C   UNL A   1      46.050  31.348  28.462  1.00  0.00     0.037 A 
ATOM     56  C   UNL A   1      43.830  24.830  27.159  1.00  0.00     0.037 A 
ATOM     57  C   UNL A   1      47.071  30.424  28.043  1.00  0.00     0.049 A 
ATOM     58  C   UNL A   1      45.270  25.220  26.987  1.00  0.00     0.074 A 
ATOM     59  C   UNL A   1      48.429  30.651  27.896  1.00  0.00     0.029 A 
ATOM     60  N   UNL A   1      46.851  29.096  27.707  1.00  0.00    -0.354 N 
ATOM     61  N   UNL A   1      45.838  26.382  27.206  1.00  0.00    -0.248 NA
ATOM     62  C   UNL A   1      46.186  24.180  26.504  1.00  0.00     0.031 C 
ATOM     63  C   UNL A   1      49.024  29.470  27.438  1.00  0.00     0.029 A 
ATOM     64  C   UNL A   1      48.043  28.496  27.338  1.00  0.00     0.049 A 
ATOM     65  H   UNL A   1      45.975  28.647  27.727  1.00  0.00     0.167 HD
ATOM     66  C   UNL A   1      47.181  26.212  26.891  1.00  0.00     0.074 A 
ATOM     67  C   UNL A   1      47.343  24.830  26.487  1.00  0.00     0.031 C 
ATOM     68  C   UNL A   1      48.186  27.120  26.929  1.00  0.00     0.037 A 
BRANCH  55  69
ATOM     69  C   UNL A   1      46.457  32.760  28.783  1.00  0.00     0.058 A 
ATOM     70  C   UNL A   1      46.453  33.766  27.804  1.00  0.00     0.135 A 
ATOM     71  C   UNL A   1      46.812  33.122  30.092  1.00  0.00     0.135 A 
ATOM     72  F   UNL A   1      46.138  33.471  26.532  1.00  0.00    -0.206 F 
ATOM     73  C   UNL A   1      46.809  35.077  28.106  1.00  0.00     0.059 A 
ATOM     74  C   UNL A   1      47.150  34.432  30.422  1.00  0.00     0.059 A 
ATOM     75  F   UNL A   1      46.832  32.199  31.067  1.00  0.00    -0.206 F 
ATOM     76  C   UNL A   1      47.157  35.399  29.419  1.00  0.00     0.060 A 
BRANCH  76  77
ATOM     77  S   UNL A   1      47.617  37.105  29.793  1.00  0.00     0.124 S 
ATOM     78  O   UNL A   1      46.626  37.457  30.805  1.00  0.00    -0.237 OA
ATOM     79  O   UNL A   1      48.988  36.961  30.272  1.00  0.00    -0.237 OA
ATOM     80  O   UNL A   1      47.472  37.786  28.511  1.00  0.00    -0.744 OA
ENDBRANCH  76  77
ENDBRANCH  55  69
BRANCH  56  81
ATOM     81  C   UNL A   1      43.377  23.435  26.927  1.00  0.00     0.058 A 
ATOM     82  C   UNL A   1      43.198  22.943  25.627  1.00  0.00     0.135 A 
ATOM     83  C   UNL A   1      43.166  22.551  27.998  1.00  0.00     0.135 A 
ATOM     84  F   UNL A   1      43.381  23.753  24.573  1.00  0.00    -0.206 F 
ATOM     85  C   UNL A   1      42.829  21.624  25.393  1.00  0.00     0.059 A 
ATOM     86  C   UNL A   1      42.820  21.221  27.789  1.00  0.00     0.059 A 
ATOM     87  F   UNL A   1      43.339  22.972  29.261  1.00  0.00    -0.206 F 
ATOM     88  C   UNL A   1      42.651  20.766  26.482  1.00  0.00     0.060 A 
BRANCH  88  89
ATOM     89  S   UNL A   1      42.251  19.035  26.164  1.00  0.00     0.124 S 
ATOM     90  O   UNL A   1      42.511  18.430  27.464  1.00  0.00    -0.237 OA
ATOM     91  O   UNL A   1      40.849  19.113  25.765  1.00  0.00    -0.237 OA
ATOM     92  O   UNL A   1      43.178  18.668  25.098  1.00  0.00    -0.744 OA
ENDBRANCH  88  89
ENDBRANCH  56  81
BRANCH  68  93
ATOM     93  C   UNL A   1      49.554  26.651  26.527  1.00  0.00     0.058 A 
ATOM     94  C   UNL A   1      50.419  26.045  27.452  1.00  0.00     0.135 A 
ATOM     95  C   UNL A   1      49.982  26.752  25.194  1.00  0.00     0.135 A 
ATOM     96  F   UNL A   1      50.060  25.934  28.740  1.00  0.00    -0.206 F 
ATOM     97  C   UNL A   1      51.667  25.567  27.070  1.00  0.00     0.059 A 
ATOM     98  C   UNL A   1      51.217  26.259  24.786  1.00  0.00     0.059 A 
ATOM     99  F   UNL A   1      49.188  27.317  24.270  1.00  0.00    -0.206 F 
ATOM    100  C   UNL A   1      52.057  25.674  25.734  1.00  0.00     0.060 A 
BRANCH 100 101
ATOM    101  S   UNL A   1      53.662  25.008  25.245  1.00  0.00     0.124 S 
ATOM    102  O   UNL A   1      53.363  23.585  25.117  1.00  0.00    -0.237 OA
ATOM    103  O   UNL A   1      53.925  25.715  23.996  1.00  0.00    -0.237 OA
ATOM    104  O   UNL A   1      54.534  25.370  26.358  1.00  0.00    -0.744 OA
ENDBRANCH 100 101
ENDBRANCH  68  93
ENDBRANCH  42  43
ENDBRANCH  34  37
ENDBRANCH  32  33
ENDBRANCH  31  32
ENDBRANCH  30  31
ENDBRANCH   1  30
TORSDOF 20
ENDMDL
MODEL 2
REMARK VINA RESULT:     -11.6      5.343     11.958
REMARK SMILES CC(C)[N@@H+](C)Cc1cc2c(cc1Cl)C=C(C(=O)NCCCCCCNC(=O)c1ccc(-c3c4nc(c(-c5c(F)cc(S(=O)(=O)[O-])cc5F)c5ccc([nH]5)c(-c5c(F)cc(S(=O)(=O)[O-])cc5F)c5nc(c(-c6c(F)cc(S(=O)(=O)[O-])cc6F)c6ccc3[nH]6)C=C5)C=C4)cc1)[C@@H](C(F)(F)F)O2
REMARK SMILES IDX 21 1 20 2 19 3 18 4 16 5 17 6 15 8 7 9 8 10 12 11 9 12 11 13
REMARK SMILES IDX 13 14 10 15 99 16 14 17 94 18 6 19 4 20 5 21 2 23 1 24 3 25
REMARK SMILES IDX 95 26 96 27 97 28 98 29 22 30 23 31 24 32 25 33 26 34 27 36
REMARK SMILES IDX 28 37 29 38 93 39 30 40 92 41 31 42 32 43 33 44 86 45 34 46
REMARK SMILES IDX 91 47 85 48 87 49 35 50 90 51 84 52 83 53 36 55 70 56 49 57
REMARK SMILES IDX 69 58 50 59 53 60 68 61 88 62 51 63 52 64 67 66 89 67 54 68
REMARK SMILES IDX 37 69 38 70 47 71 39 72 40 73 46 74 48 75 41 76 42 77 43 78
REMARK SMILES IDX 44 79 45 80 71 81 72 82 81 83 73 84 74 85 80 86 82 87 75 88
REMARK SMILES IDX 76 89 77 90 78 91 79 92 55 93 56 94 65 95 57 96 58 97 64 98
REMARK SMILES IDX 66 99 59 100 60 101 61 102 62 103 63 104
REMARK H PARENT 18 7 4 22 25 35 87 54 53 65
REMARK Flexibility Score: inf
ROOT
ATOM      1  C   UNL A   1      42.946  22.621  26.270  1.00  0.00     0.002 C 
ENDROOT
BRANCH   1   2
ATOM      2  C   UNL A   1      44.093  23.068  27.180  1.00  0.00     0.021 C 
BRANCH   2   3
ATOM      3  C   UNL A   1      45.429  22.396  26.879  1.00  0.00     0.116 C 
BRANCH   3   4
ATOM      4  N   UNL A   1      45.960  22.788  25.584  1.00  0.00    -0.352 N 
ATOM      5  C   UNL A   1      46.260  23.943  24.944  1.00  0.00     0.251 C 
ATOM      6  O   UNL A   1      46.753  23.810  23.818  1.00  0.00    -0.270 OA
ATOM      7  H   UNL A   1      46.155  22.004  25.022  1.00  0.00     0.163 HD
BRANCH   5   8
ATOM      8  C   UNL A   1      46.031  25.318  25.486  1.00  0.00     0.067 C 
ATOM      9  C   UNL A   1      43.860  29.556  27.199  1.00  0.00     0.029 A 
ATOM     10  C   UNL A   1      45.150  29.013  27.224  1.00  0.00     0.058 A 
ATOM     11  C   UNL A   1      42.898  28.898  26.413  1.00  0.00     0.050 A 
ATOM     12  C   UNL A   1      45.431  27.790  26.629  1.00  0.00     0.128 A 
ATOM     13  C   UNL A   1      43.195  27.679  25.782  1.00  0.00     0.033 A 
ATOM     14  Cl  UNL A   1      41.302  29.522  26.186  1.00  0.00    -0.084 Cl
ATOM     15  C   UNL A   1      44.458  27.101  25.919  1.00  0.00     0.019 A 
ATOM     16  O   UNL A   1      46.677  27.310  26.866  1.00  0.00    -0.475 OA
ATOM     17  C   UNL A   1      44.770  25.779  25.391  1.00  0.00     0.025 C 
ATOM     18  C   UNL A   1      47.115  26.174  26.085  1.00  0.00     0.314 C 
BRANCH   9  19
ATOM     19  C   UNL A   1      43.583  30.789  28.033  1.00  0.00     0.300 C 
BRANCH  19  20
ATOM     20  N   UNL A   1      44.210  32.053  27.608  1.00  0.00    -0.332 N 
ATOM     21  C   UNL A   1      44.154  32.337  26.178  1.00  0.00     0.333 C 
ATOM     22  H   UNL A   1      43.546  32.680  28.060  1.00  0.00     0.348 HD
BRANCH  20  23
ATOM     23  C   UNL A   1      45.475  32.478  28.228  1.00  0.00     0.177 C 
ATOM     24  C   UNL A   1      45.672  33.992  28.121  1.00  0.00     0.075 C 
ATOM     25  C   UNL A   1      45.726  32.010  29.667  1.00  0.00     0.075 C 
ENDBRANCH  20  23
ENDBRANCH  19  20
ENDBRANCH   9  19
BRANCH  18  26
ATOM     26  C   UNL A   1      48.126  26.680  25.046  1.00  0.00     0.429 C 
ATOM     27  F   UNL A   1      49.055  25.729  24.785  1.00  0.00    -0.167 F 
ATOM     28  F   UNL A   1      47.550  26.989  23.862  1.00  0.00    -0.167 F 
ATOM     29  F   UNL A   1      48.781  27.787  25.468  1.00  0.00    -0.167 F 
ENDBRANCH  18  26
ENDBRANCH   5   8
ENDBRANCH   3   4
ENDBRANCH   2   3
ENDBRANCH   1   2
BRANCH   1  30
ATOM     30  C   UNL A   1      42.837  21.109  26.036  1.00  0.00     0.002 C 
BRANCH  30  31
ATOM     31  C   UNL A   1      41.455  20.494  26.272  1.00  0.00     0.021 C 
BRANCH  31  32
ATOM     32  C   UNL A   1      40.416  21.443  26.859  1.00  0.00     0.116 C 
BRANCH  32  33
ATOM     33  N   UNL A   1      39.332  21.726  25.933  1.00  0.00    -0.352 N 
ATOM     34  C   UNL A   1      38.609  22.884  25.771  1.00  0.00     0.251 C 
ATOM     35  H   UNL A   1      39.078  20.983  25.339  1.00  0.00     0.163 HD
ATOM     36  O   UNL A   1      37.624  22.895  25.039  1.00  0.00    -0.269 OA
BRANCH  34  37
ATOM     37  C   UNL A   1      39.007  24.104  26.505  1.00  0.00     0.039 A 
ATOM     38  C   UNL A   1      39.912  25.010  25.945  1.00  0.00     0.014 A 
ATOM     39  C   UNL A   1      38.480  24.333  27.779  1.00  0.00     0.014 A 
ATOM     40  C   UNL A   1      40.401  26.058  26.716  1.00  0.00     0.010 A 
ATOM     41  C   UNL A   1      38.917  25.433  28.523  1.00  0.00     0.010 A 
ATOM     42  C   UNL A   1      39.915  26.280  28.015  1.00  0.00    -0.014 A 
BRANCH  42  43
ATOM     43  C   UNL A   1      40.467  27.398  28.823  1.00  0.00     0.031 A 
ATOM     44  C   UNL A   1      39.644  28.629  29.095  1.00  0.00     0.074 A 
ATOM     45  C   UNL A   1      41.694  27.273  29.365  1.00  0.00     0.049 A 
ATOM     46  N   UNL A   1      39.958  29.692  29.791  1.00  0.00    -0.248 NA
ATOM     47  C   UNL A   1      38.296  28.676  28.507  1.00  0.00     0.031 C 
ATOM     48  C   UNL A   1      42.580  26.120  29.186  1.00  0.00     0.029 A 
ATOM     49  N   UNL A   1      42.400  28.107  30.195  1.00  0.00    -0.354 N 
ATOM     50  C   UNL A   1      38.856  30.537  29.716  1.00  0.00     0.074 A 
ATOM     51  C   UNL A   1      37.876  29.877  28.881  1.00  0.00     0.031 C 
ATOM     52  C   UNL A   1      43.682  26.293  29.929  1.00  0.00     0.029 A 
ATOM     53  C   UNL A   1      43.613  27.593  30.589  1.00  0.00     0.049 A 
ATOM     54  H   UNL A   1      42.069  28.989  30.481  1.00  0.00     0.167 HD
ATOM     55  C   UNL A   1      38.673  31.745  30.303  1.00  0.00     0.037 A 
ATOM     56  C   UNL A   1      44.567  28.112  31.384  1.00  0.00     0.037 A 
ATOM     57  C   UNL A   1      39.645  32.389  31.149  1.00  0.00     0.049 A 
ATOM     58  C   UNL A   1      44.360  29.473  31.984  1.00  0.00     0.074 A 
ATOM     59  C   UNL A   1      39.549  33.610  31.794  1.00  0.00     0.029 A 
ATOM     60  N   UNL A   1      40.888  31.864  31.471  1.00  0.00    -0.354 N 
ATOM     61  N   UNL A   1      43.317  30.262  31.891  1.00  0.00    -0.248 NA
ATOM     62  C   UNL A   1      45.463  30.020  32.784  1.00  0.00     0.031 C 
ATOM     63  C   UNL A   1      40.748  33.839  32.478  1.00  0.00     0.029 A 
ATOM     64  C   UNL A   1      41.575  32.743  32.292  1.00  0.00     0.049 A 
ATOM     65  H   UNL A   1      41.231  30.995  31.161  1.00  0.00     0.167 HD
ATOM     66  C   UNL A   1      43.635  31.399  32.624  1.00  0.00     0.074 A 
ATOM     67  C   UNL A   1      44.960  31.186  33.171  1.00  0.00     0.031 C 
ATOM     68  C   UNL A   1      42.898  32.519  32.821  1.00  0.00     0.037 A 
BRANCH  55  69
ATOM     69  C   UNL A   1      37.373  32.455  30.046  1.00  0.00     0.058 A 
ATOM     70  C   UNL A   1      36.210  32.143  30.767  1.00  0.00     0.135 A 
ATOM     71  C   UNL A   1      37.299  33.490  29.099  1.00  0.00     0.135 A 
ATOM     72  F   UNL A   1      36.221  31.152  31.673  1.00  0.00    -0.206 F 
ATOM     73  C   UNL A   1      35.013  32.817  30.544  1.00  0.00     0.059 A 
ATOM     74  C   UNL A   1      36.117  34.192  28.875  1.00  0.00     0.059 A 
ATOM     75  F   UNL A   1      38.381  33.829  28.382  1.00  0.00    -0.206 F 
ATOM     76  C   UNL A   1      34.976  33.839  29.594  1.00  0.00     0.060 A 
BRANCH  76  77
ATOM     77  S   UNL A   1      33.414  34.701  29.317  1.00  0.00     0.124 S 
ATOM     78  O   UNL A   1      32.945  34.899  30.685  1.00  0.00    -0.237 OA
ATOM     79  O   UNL A   1      33.843  35.907  28.614  1.00  0.00    -0.237 OA
ATOM     80  O   UNL A   1      32.640  33.756  28.519  1.00  0.00    -0.744 OA
ENDBRANCH  76  77
ENDBRANCH  55  69
BRANCH  56  81
ATOM     81  C   UNL A   1      45.799  27.329  31.658  1.00  0.00     0.058 A 
ATOM     82  C   UNL A   1      46.944  27.490  30.868  1.00  0.00     0.135 A 
ATOM     83  C   UNL A   1      45.872  26.444  32.747  1.00  0.00     0.135 A 
ATOM     84  F   UNL A   1      46.920  28.319  29.813  1.00  0.00    -0.206 F 
ATOM     85  C   UNL A   1      48.122  26.805  31.146  1.00  0.00     0.059 A 
ATOM     86  C   UNL A   1      47.045  25.767  33.059  1.00  0.00     0.059 A 
ATOM     87  F   UNL A   1      44.804  26.267  33.541  1.00  0.00    -0.206 F 
ATOM     88  C   UNL A   1      48.165  25.952  32.251  1.00  0.00     0.060 A 
BRANCH  88  89
ATOM     89  S   UNL A   1      49.723  25.131  32.650  1.00  0.00     0.124 S 
ATOM     90  O   UNL A   1      50.433  26.182  33.368  1.00  0.00    -0.237 OA
ATOM     91  O   UNL A   1      49.274  23.999  33.456  1.00  0.00    -0.237 OA
ATOM     92  O   UNL A   1      50.263  24.782  31.340  1.00  0.00    -0.744 OA
ENDBRANCH  88  89
ENDBRANCH  56  81
BRANCH  68  93
ATOM     93  C   UNL A   1      43.503  33.602  33.666  1.00  0.00     0.058 A 
ATOM     94  C   UNL A   1      43.315  33.633  35.057  1.00  0.00     0.135 A 
ATOM     95  C   UNL A   1      44.327  34.582  33.092  1.00  0.00     0.135 A 
ATOM     96  F   UNL A   1      42.528  32.724  35.652  1.00  0.00    -0.206 F 
ATOM     97  C   UNL A   1      43.914  34.608  35.847  1.00  0.00     0.059 A 
ATOM     98  C   UNL A   1      44.955  35.552  33.866  1.00  0.00     0.059 A 
ATOM     99  F   UNL A   1      44.544  34.590  31.766  1.00  0.00    -0.206 F 
ATOM    100  C   UNL A   1      44.736  35.561  35.244  1.00  0.00     0.060 A 
BRANCH 100 101
ATOM    101  S   UNL A   1      45.543  36.793  36.288  1.00  0.00     0.124 S 
ATOM    102  O   UNL A   1      45.391  38.003  35.487  1.00  0.00    -0.237 OA
ATOM    103  O   UNL A   1      44.745  36.736  37.509  1.00  0.00    -0.237 OA
ATOM    104  O   UNL A   1      46.907  36.290  36.415  1.00  0.00    -0.744 OA
ENDBRANCH 100 101
ENDBRANCH  68  93
ENDBRANCH  42  43
ENDBRANCH  34  37
ENDBRANCH  32  33
ENDBRANCH  31  32
ENDBRANCH  30  31
ENDBRANCH   1  30
TORSDOF 20
ENDMDL
MODEL 3
REMARK VINA RESULT:     -11.6      1.366      2.076
REMARK SMILES CC(C)[N@@H+](C)Cc1cc2c(cc1Cl)C=C(C(=O)NCCCCCCNC(=O)c1ccc(-c3c4nc(c(-c5c(F)cc(S(=O)(=O)[O-])cc5F)c5ccc([nH]5)c(-c5c(F)cc(S(=O)(=O)[O-])cc5F)c5nc(c(-c6c(F)cc(S(=O)(=O)[O-])cc6F)c6ccc3[nH]6)C=C5)C=C4)cc1)[C@@H](C(F)(F)F)O2
REMARK SMILES IDX 21 1 20 2 19 3 18 4 16 5 17 6 15 8 7 9 8 10 12 11 9 12 11 13
REMARK SMILES IDX 13 14 10 15 99 16 14 17 94 18 6 19 4 20 5 21 2 23 1 24 3 25
REMARK SMILES IDX 95 26 96 27 97 28 98 29 22 30 23 31 24 32 25 33 26 34 27 36
REMARK SMILES IDX 28 37 29 38 93 39 30 40 92 41 31 42 32 43 33 44 86 45 34 46
REMARK SMILES IDX 91 47 85 48 87 49 35 50 90 51 84 52 83 53 36 55 70 56 49 57
REMARK SMILES IDX 69 58 50 59 53 60 68 61 88 62 51 63 52 64 67 66 89 67 54 68
REMARK SMILES IDX 37 69 38 70 47 71 39 72 40 73 46 74 48 75 41 76 42 77 43 78
REMARK SMILES IDX 44 79 45 80 71 81 72 82 81 83 73 84 74 85 80 86 82 87 75 88
REMARK SMILES IDX 76 89 77 90 78 91 79 92 55 93 56 94 65 95 57 96 58 97 64 98
REMARK SMILES IDX 66 99 59 100 60 101 61 102 62 103 63 104
REMARK H PARENT 18 7 4 22 25 35 87 54 53 65
REMARK Flexibility Score: inf
ROOT
ATOM      1  C   UNL A   1      34.150  29.148  25.306  1.00  0.00     0.002 C 
ENDROOT
BRANCH   1   2
ATOM      2  C   UNL A   1      33.460  28.675  24.025  1.00  0.00     0.021 C 
BRANCH   2   3
ATOM      3  C   UNL A   1      33.901  27.294  23.550  1.00  0.00     0.116 C 
BRANCH   3   4
ATOM      4  N   UNL A   1      33.101  26.817  22.434  1.00  0.00    -0.352 N 
ATOM      5  C   UNL A   1      32.414  25.694  22.115  1.00  0.00     0.251 C 
ATOM      6  O   UNL A   1      31.815  25.731  21.035  1.00  0.00    -0.270 OA
ATOM      7  H   UNL A   1      33.042  27.491  21.719  1.00  0.00     0.163 HD
BRANCH   5   8
ATOM      8  C   UNL A   1      32.346  24.455  22.949  1.00  0.00     0.067 C 
ATOM      9  C   UNL A   1      32.485  19.640  24.500  1.00  0.00     0.029 A 
ATOM     10  C   UNL A   1      32.466  20.892  25.126  1.00  0.00     0.058 A 
ATOM     11  C   UNL A   1      32.284  19.610  23.109  1.00  0.00     0.050 A 
ATOM     12  C   UNL A   1      32.411  22.067  24.389  1.00  0.00     0.128 A 
ATOM     13  C   UNL A   1      32.193  20.801  22.369  1.00  0.00     0.033 A 
ATOM     14  Cl  UNL A   1      32.156  18.133  22.221  1.00  0.00    -0.084 Cl
ATOM     15  C   UNL A   1      32.293  22.039  23.007  1.00  0.00     0.019 A 
ATOM     16  O   UNL A   1      32.561  23.205  25.112  1.00  0.00    -0.475 OA
ATOM     17  C   UNL A   1      32.333  23.293  22.267  1.00  0.00     0.025 C 
ATOM     18  C   UNL A   1      32.272  24.459  24.452  1.00  0.00     0.314 C 
BRANCH   9  19
ATOM     19  C   UNL A   1      32.744  18.414  25.351  1.00  0.00     0.300 C 
BRANCH  19  20
ATOM     20  N   UNL A   1      34.063  17.769  25.229  1.00  0.00    -0.332 N 
ATOM     21  C   UNL A   1      35.108  18.577  24.613  1.00  0.00     0.333 C 
ATOM     22  H   UNL A   1      34.273  17.723  26.226  1.00  0.00     0.348 HD
BRANCH  20  23
ATOM     23  C   UNL A   1      34.142  16.348  24.855  1.00  0.00     0.177 C 
ATOM     24  C   UNL A   1      35.456  15.716  25.321  1.00  0.00     0.075 C 
ATOM     25  C   UNL A   1      32.956  15.463  25.260  1.00  0.00     0.075 C 
ENDBRANCH  20  23
ENDBRANCH  19  20
ENDBRANCH   9  19
BRANCH  18  26
ATOM     26  C   UNL A   1      30.927  24.972  24.987  1.00  0.00     0.429 C 
ATOM     27  F   UNL A   1      30.607  24.346  26.146  1.00  0.00    -0.167 F 
ATOM     28  F   UNL A   1      30.941  26.297  25.258  1.00  0.00    -0.167 F 
ATOM     29  F   UNL A   1      29.915  24.757  24.114  1.00  0.00    -0.167 F 
ENDBRANCH  18  26
ENDBRANCH   5   8
ENDBRANCH   3   4
ENDBRANCH   2   3
ENDBRANCH   1   2
BRANCH   1  30
ATOM     30  C   UNL A   1      33.320  30.077  26.202  1.00  0.00     0.002 C 
BRANCH  30  31
ATOM     31  C   UNL A   1      33.660  30.046  27.695  1.00  0.00     0.021 C 
BRANCH  31  32
ATOM     32  C   UNL A   1      35.078  30.483  28.044  1.00  0.00     0.116 C 
BRANCH  32  33
ATOM     33  N   UNL A   1      35.193  30.968  29.409  1.00  0.00    -0.352 N 
ATOM     34  C   UNL A   1      36.243  30.847  30.288  1.00  0.00     0.251 C 
ATOM     35  H   UNL A   1      34.407  31.451  29.755  1.00  0.00     0.163 HD
ATOM     36  O   UNL A   1      36.107  31.191  31.459  1.00  0.00    -0.269 OA
BRANCH  34  37
ATOM     37  C   UNL A   1      37.525  30.275  29.822  1.00  0.00     0.039 A 
ATOM     38  C   UNL A   1      38.393  29.649  30.721  1.00  0.00     0.014 A 
ATOM     39  C   UNL A   1      37.868  30.384  28.472  1.00  0.00     0.014 A 
ATOM     40  C   UNL A   1      39.663  29.270  30.299  1.00  0.00     0.010 A 
ATOM     41  C   UNL A   1      39.116  29.931  28.035  1.00  0.00     0.010 A 
ATOM     42  C   UNL A   1      40.042  29.410  28.953  1.00  0.00    -0.014 A 
BRANCH  42  43
ATOM     43  C   UNL A   1      41.410  29.013  28.532  1.00  0.00     0.031 A 
ATOM     44  C   UNL A   1      42.546  30.000  28.583  1.00  0.00     0.074 A 
ATOM     45  C   UNL A   1      41.639  27.738  28.161  1.00  0.00     0.049 A 
ATOM     46  N   UNL A   1      43.804  29.823  28.269  1.00  0.00    -0.248 NA
ATOM     47  C   UNL A   1      42.229  31.362  29.040  1.00  0.00     0.031 C 
ATOM     48  C   UNL A   1      40.621  26.687  28.088  1.00  0.00     0.029 A 
ATOM     49  N   UNL A   1      42.799  27.101  27.802  1.00  0.00    -0.354 N 
ATOM     50  C   UNL A   1      44.426  31.049  28.479  1.00  0.00     0.074 A 
ATOM     51  C   UNL A   1      43.401  31.971  28.917  1.00  0.00     0.031 C 
ATOM     52  C   UNL A   1      41.210  25.526  27.766  1.00  0.00     0.029 A 
ATOM     53  C   UNL A   1      42.634  25.759  27.548  1.00  0.00     0.049 A 
ATOM     54  H   UNL A   1      43.668  27.560  27.732  1.00  0.00     0.167 HD
ATOM     55  C   UNL A   1      45.735  31.371  28.334  1.00  0.00     0.037 A 
ATOM     56  C   UNL A   1      43.526  24.823  27.173  1.00  0.00     0.037 A 
ATOM     57  C   UNL A   1      46.754  30.444  27.915  1.00  0.00     0.049 A 
ATOM     58  C   UNL A   1      44.961  25.216  26.973  1.00  0.00     0.074 A 
ATOM     59  C   UNL A   1      48.109  30.675  27.744  1.00  0.00     0.029 A 
ATOM     60  N   UNL A   1      46.535  29.110  27.605  1.00  0.00    -0.354 N 
ATOM     61  N   UNL A   1      45.527  26.384  27.164  1.00  0.00    -0.248 NA
ATOM     62  C   UNL A   1      45.875  24.172  26.494  1.00  0.00     0.031 C 
ATOM     63  C   UNL A   1      48.702  29.489  27.298  1.00  0.00     0.029 A 
ATOM     64  C   UNL A   1      47.725  28.509  27.228  1.00  0.00     0.049 A 
ATOM     65  H   UNL A   1      45.661  28.658  27.646  1.00  0.00     0.167 HD
ATOM     66  C   UNL A   1      46.866  26.214  26.833  1.00  0.00     0.074 A 
ATOM     67  C   UNL A   1      47.029  24.826  26.449  1.00  0.00     0.031 C 
ATOM     68  C   UNL A   1      47.868  27.128  26.841  1.00  0.00     0.037 A 
BRANCH  55  69
ATOM     69  C   UNL A   1      46.140  32.790  28.625  1.00  0.00     0.058 A 
ATOM     70  C   UNL A   1      46.106  33.782  27.633  1.00  0.00     0.135 A 
ATOM     71  C   UNL A   1      46.525  33.172  29.920  1.00  0.00     0.135 A 
ATOM     72  F   UNL A   1      45.761  33.467  26.373  1.00  0.00    -0.206 F 
ATOM     73  C   UNL A   1      46.460  35.099  27.908  1.00  0.00     0.059 A 
ATOM     74  C   UNL A   1      46.862  34.489  30.223  1.00  0.00     0.059 A 
ATOM     75  F   UNL A   1      46.575  32.264  30.907  1.00  0.00    -0.206 F 
ATOM     76  C   UNL A   1      46.838  35.443  29.207  1.00  0.00     0.060 A 
BRANCH  76  77
ATOM     77  S   UNL A   1      47.295  37.156  29.546  1.00  0.00     0.124 S 
ATOM     78  O   UNL A   1      46.162  37.606  30.349  1.00  0.00    -0.237 OA
ATOM     79  O   UNL A   1      48.559  37.007  30.261  1.00  0.00    -0.237 OA
ATOM     80  O   UNL A   1      47.397  37.751  28.217  1.00  0.00    -0.744 OA
ENDBRANCH  76  77
ENDBRANCH  55  69
BRANCH  56  81
ATOM     81  C   UNL A   1      43.076  23.422  26.971  1.00  0.00     0.058 A 
ATOM     82  C   UNL A   1      42.823  22.926  25.686  1.00  0.00     0.135 A 
ATOM     83  C   UNL A   1      42.941  22.538  28.054  1.00  0.00     0.135 A 
ATOM     84  F   UNL A   1      42.932  23.735  24.621  1.00  0.00    -0.206 F 
ATOM     85  C   UNL A   1      42.456  21.601  25.476  1.00  0.00     0.059 A 
ATOM     86  C   UNL A   1      42.599  21.204  27.868  1.00  0.00     0.059 A 
ATOM     87  F   UNL A   1      43.186  22.963  29.304  1.00  0.00    -0.206 F 
ATOM     88  C   UNL A   1      42.355  20.744  26.575  1.00  0.00     0.060 A 
BRANCH  88  89
ATOM     89  S   UNL A   1      41.957  19.008  26.285  1.00  0.00     0.124 S 
ATOM     90  O   UNL A   1      42.958  18.639  25.292  1.00  0.00    -0.237 OA
ATOM     91  O   UNL A   1      42.131  18.428  27.613  1.00  0.00    -0.237 OA
ATOM     92  O   UNL A   1      40.579  19.055  25.806  1.00  0.00    -0.744 OA
ENDBRANCH  88  89
ENDBRANCH  56  81
BRANCH  68  93
ATOM     93  C   UNL A   1      49.232  26.658  26.427  1.00  0.00     0.058 A 
ATOM     94  C   UNL A   1      49.683  26.799  25.105  1.00  0.00     0.135 A 
ATOM     95  C   UNL A   1      50.120  26.117  27.370  1.00  0.00     0.135 A 
ATOM     96  F   UNL A   1      48.869  27.301  24.164  1.00  0.00    -0.206 F 
ATOM     97  C   UNL A   1      50.964  26.408  24.731  1.00  0.00     0.059 A 
ATOM     98  C   UNL A   1      51.413  25.741  27.023  1.00  0.00     0.059 A 
ATOM     99  F   UNL A   1      49.738  25.968  28.649  1.00  0.00    -0.206 F 
ATOM    100  C   UNL A   1      51.824  25.884  25.697  1.00  0.00     0.060 A 
BRANCH 100 101
ATOM    101  S   UNL A   1      53.498  25.423  25.206  1.00  0.00     0.124 S 
ATOM    102  O   UNL A   1      53.434  25.581  23.757  1.00  0.00    -0.237 OA
ATOM    103  O   UNL A   1      54.312  26.406  25.915  1.00  0.00    -0.237 OA
ATOM    104  O   UNL A   1      53.628  24.051  25.684  1.00  0.00    -0.744 OA
ENDBRANCH 100 101
ENDBRANCH  68  93
ENDBRANCH  42  43
ENDBRANCH  34  37
ENDBRANCH  32  33
ENDBRANCH  31  32
ENDBRANCH  30  31
ENDBRANCH   1  30
TORSDOF 20
ENDMDL
