MODEL 1
REMARK VINA RESULT:     -12.3      0.000      0.000
REMARK SMILES Cc1cccc(C(=O)NCCCCCCNC(=O)c2ccc(-c3c4nc(c(-c5c(F)cc(S(=O)(=O)[O-])cc5F)c5ccc([nH]5)c(-c5c(F)cc(S(=O)(=O)[O-])cc5F)c5nc(c(-c6c(F)cc(S(=O)(=O)[O-])cc6F)c6ccc3[nH]6)C=C5)C=C4)cc2)c1O[C@H](C)[C@H](C)O
REMARK SMILES IDX 12 1 11 2 10 3 9 4 7 5 8 6 6 8 1 9 2 10 3 11 85 12 4 13 5 14
REMARK SMILES IDX 86 15 87 16 88 17 89 18 90 19 91 20 13 22 14 23 15 24 16 25
REMARK SMILES IDX 17 26 18 28 19 29 20 30 84 31 21 32 83 33 22 34 23 35 24 36
REMARK SMILES IDX 77 37 25 38 82 39 76 40 78 41 26 42 81 43 75 44 74 45 27 47
REMARK SMILES IDX 61 48 40 49 60 50 41 51 44 52 59 53 79 54 42 55 43 56 58 58
REMARK SMILES IDX 80 59 45 60 28 61 29 62 38 63 30 64 31 65 37 66 39 67 32 68
REMARK SMILES IDX 33 69 34 70 35 71 36 72 62 73 63 74 72 75 64 76 65 77 71 78
REMARK SMILES IDX 73 79 66 80 67 81 68 82 69 83 70 84 46 85 47 86 56 87 48 88
REMARK SMILES IDX 49 89 55 90 57 91 50 92 51 93 52 94 53 95 54 96
REMARK H PARENT 9 7 91 21 16 27 78 46 44 57
REMARK Flexibility Score: inf
ROOT
ATOM      1  C   UNL A   1      33.300  29.074  25.103  1.00  0.00     0.002 C 
ENDROOT
BRANCH   1   2
ATOM      2  C   UNL A   1      32.735  27.657  25.086  1.00  0.00     0.021 C 
BRANCH   2   3
ATOM      3  C   UNL A   1      33.250  26.626  26.139  1.00  0.00     0.116 C 
BRANCH   3   4
ATOM      4  N   UNL A   1      34.220  25.540  25.676  1.00  0.00    -0.352 N 
ATOM      5  C   UNL A   1      34.480  24.297  25.080  1.00  0.00     0.255 C 
ATOM      6  O   UNL A   1      35.702  24.242  24.823  1.00  0.00    -0.269 OA
ATOM      7  H   UNL A   1      35.109  25.887  25.921  1.00  0.00     0.163 HD
BRANCH   5   8
ATOM      8  C   UNL A   1      33.688  23.032  24.648  1.00  0.00     0.082 A 
ATOM      9  C   UNL A   1      31.901  20.831  22.014  1.00  0.00     0.048 C 
ATOM     10  C   UNL A   1      32.436  21.291  23.358  1.00  0.00    -0.008 A 
ATOM     11  C   UNL A   1      32.414  20.424  24.435  1.00  0.00     0.007 A 
ATOM     12  C   UNL A   1      32.926  22.623  23.523  1.00  0.00     0.135 A 
ATOM     13  C   UNL A   1      32.954  20.850  25.633  1.00  0.00     0.001 A 
ATOM     14  C   UNL A   1      33.609  22.094  25.715  1.00  0.00     0.018 A 
BRANCH  12  15
ATOM     15  O   UNL A   1      32.405  23.332  22.477  1.00  0.00    -0.487 OA
BRANCH  15  16
ATOM     16  C   UNL A   1      31.871  24.612  22.740  1.00  0.00     0.198 C 
ATOM     17  C   UNL A   1      30.538  24.223  23.435  1.00  0.00     0.056 C 
BRANCH  16  18
ATOM     18  C   UNL A   1      32.458  25.463  21.521  1.00  0.00     0.151 C 
ATOM     19  C   UNL A   1      33.524  26.470  21.947  1.00  0.00     0.042 C 
BRANCH  18  20
ATOM     20  O   UNL A   1      31.710  26.065  20.481  1.00  0.00    -0.390 OA
ATOM     21  H   UNL A   1      31.907  27.015  20.448  1.00  0.00     0.211 HD
ENDBRANCH  18  20
ENDBRANCH  16  18
ENDBRANCH  15  16
ENDBRANCH  12  15
ENDBRANCH   5   8
ENDBRANCH   3   4
ENDBRANCH   2   3
ENDBRANCH   1   2
BRANCH   1  22
ATOM     22  C   UNL A   1      32.603  30.064  26.031  1.00  0.00     0.002 C 
BRANCH  22  23
ATOM     23  C   UNL A   1      33.393  30.554  27.251  1.00  0.00     0.021 C 
BRANCH  23  24
ATOM     24  C   UNL A   1      34.671  29.791  27.563  1.00  0.00     0.116 C 
BRANCH  24  25
ATOM     25  N   UNL A   1      35.840  30.601  27.269  1.00  0.00    -0.352 N 
ATOM     26  C   UNL A   1      36.916  30.722  28.123  1.00  0.00     0.251 C 
ATOM     27  H   UNL A   1      35.866  31.088  26.415  1.00  0.00     0.163 HD
ATOM     28  O   UNL A   1      37.144  31.688  28.844  1.00  0.00    -0.269 OA
BRANCH  26  29
ATOM     29  C   UNL A   1      37.717  29.498  28.221  1.00  0.00     0.039 A 
ATOM     30  C   UNL A   1      37.767  28.807  29.438  1.00  0.00     0.014 A 
ATOM     31  C   UNL A   1      38.690  29.362  27.234  1.00  0.00     0.014 A 
ATOM     32  C   UNL A   1      38.918  28.101  29.745  1.00  0.00     0.010 A 
ATOM     33  C   UNL A   1      39.876  28.796  27.596  1.00  0.00     0.010 A 
ATOM     34  C   UNL A   1      39.985  28.200  28.857  1.00  0.00    -0.014 A 
BRANCH  34  35
ATOM     35  C   UNL A   1      41.286  27.627  29.083  1.00  0.00     0.031 A 
ATOM     36  C   UNL A   1      41.441  26.227  28.675  1.00  0.00     0.074 A 
ATOM     37  C   UNL A   1      42.280  28.469  29.430  1.00  0.00     0.049 A 
ATOM     38  N   UNL A   1      42.362  25.452  29.106  1.00  0.00    -0.248 NA
ATOM     39  C   UNL A   1      40.515  25.559  27.757  1.00  0.00     0.031 C 
ATOM     40  C   UNL A   1      43.720  28.260  29.403  1.00  0.00     0.029 A 
ATOM     41  N   UNL A   1      42.125  29.697  30.087  1.00  0.00    -0.354 N 
ATOM     42  C   UNL A   1      42.369  24.343  28.287  1.00  0.00     0.074 A 
ATOM     43  C   UNL A   1      41.127  24.388  27.562  1.00  0.00     0.031 C 
ATOM     44  C   UNL A   1      44.292  29.128  30.260  1.00  0.00     0.029 A 
ATOM     45  C   UNL A   1      43.218  29.807  30.971  1.00  0.00     0.049 A 
ATOM     46  H   UNL A   1      41.400  30.350  29.957  1.00  0.00     0.167 HD
ATOM     47  C   UNL A   1      43.524  23.628  28.198  1.00  0.00     0.037 A 
ATOM     48  C   UNL A   1      42.971  29.693  32.313  1.00  0.00     0.037 A 
ATOM     49  C   UNL A   1      44.527  24.215  29.092  1.00  0.00     0.049 A 
ATOM     50  C   UNL A   1      43.492  28.390  32.913  1.00  0.00     0.074 A 
ATOM     51  C   UNL A   1      45.563  25.119  28.921  1.00  0.00     0.029 A 
ATOM     52  N   UNL A   1      44.258  24.212  30.443  1.00  0.00    -0.354 N 
ATOM     53  N   UNL A   1      44.016  27.412  32.222  1.00  0.00    -0.248 NA
ATOM     54  C   UNL A   1      43.424  28.072  34.338  1.00  0.00     0.031 C 
ATOM     55  C   UNL A   1      45.896  25.658  30.204  1.00  0.00     0.029 A 
ATOM     56  C   UNL A   1      45.070  25.073  31.146  1.00  0.00     0.049 A 
ATOM     57  H   UNL A   1      43.562  23.655  30.860  1.00  0.00     0.167 HD
ATOM     58  C   UNL A   1      44.317  26.356  33.043  1.00  0.00     0.074 A 
ATOM     59  C   UNL A   1      43.911  26.817  34.362  1.00  0.00     0.031 C 
ATOM     60  C   UNL A   1      44.852  25.180  32.583  1.00  0.00     0.037 A 
BRANCH  47  61
ATOM     61  C   UNL A   1      43.830  22.586  27.152  1.00  0.00     0.058 A 
ATOM     62  C   UNL A   1      42.998  21.451  27.042  1.00  0.00     0.135 A 
ATOM     63  C   UNL A   1      44.903  22.623  26.237  1.00  0.00     0.135 A 
ATOM     64  F   UNL A   1      41.911  21.299  27.808  1.00  0.00    -0.206 F 
ATOM     65  C   UNL A   1      43.242  20.414  26.146  1.00  0.00     0.059 A 
ATOM     66  C   UNL A   1      45.193  21.573  25.357  1.00  0.00     0.059 A 
ATOM     67  F   UNL A   1      45.692  23.700  26.121  1.00  0.00    -0.206 F 
ATOM     68  C   UNL A   1      44.351  20.471  25.317  1.00  0.00     0.060 A 
BRANCH  68  69
ATOM     69  S   UNL A   1      44.636  19.104  24.179  1.00  0.00     0.124 S 
ATOM     70  O   UNL A   1      44.356  19.722  22.886  1.00  0.00    -0.237 OA
ATOM     71  O   UNL A   1      46.035  18.783  24.440  1.00  0.00    -0.237 OA
ATOM     72  O   UNL A   1      43.671  18.096  24.608  1.00  0.00    -0.744 OA
ENDBRANCH  68  69
ENDBRANCH  47  61
BRANCH  48  73
ATOM     73  C   UNL A   1      41.705  30.404  32.697  1.00  0.00     0.058 A 
ATOM     74  C   UNL A   1      40.591  29.621  33.081  1.00  0.00     0.135 A 
ATOM     75  C   UNL A   1      41.706  31.746  33.104  1.00  0.00     0.135 A 
ATOM     76  F   UNL A   1      40.524  28.328  32.722  1.00  0.00    -0.206 F 
ATOM     77  C   UNL A   1      39.605  30.103  33.942  1.00  0.00     0.059 A 
ATOM     78  C   UNL A   1      40.719  32.253  33.955  1.00  0.00     0.059 A 
ATOM     79  F   UNL A   1      42.733  32.547  32.786  1.00  0.00    -0.206 F 
ATOM     80  C   UNL A   1      39.703  31.411  34.407  1.00  0.00     0.060 A 
BRANCH  80  81
ATOM     81  S   UNL A   1      38.582  31.943  35.721  1.00  0.00     0.124 S 
ATOM     82  O   UNL A   1      38.965  31.071  36.824  1.00  0.00    -0.237 OA
ATOM     83  O   UNL A   1      38.947  33.350  35.863  1.00  0.00    -0.237 OA
ATOM     84  O   UNL A   1      37.259  31.716  35.153  1.00  0.00    -0.744 OA
ENDBRANCH  80  81
ENDBRANCH  48  73
BRANCH  60  85
ATOM     85  C   UNL A   1      45.179  23.981  33.451  1.00  0.00     0.058 A 
ATOM     86  C   UNL A   1      44.202  23.080  33.897  1.00  0.00     0.135 A 
ATOM     87  C   UNL A   1      46.485  23.752  33.958  1.00  0.00     0.135 A 
ATOM     88  F   UNL A   1      42.907  23.264  33.600  1.00  0.00    -0.206 F 
ATOM     89  C   UNL A   1      44.518  21.971  34.687  1.00  0.00     0.059 A 
ATOM     90  C   UNL A   1      46.808  22.697  34.798  1.00  0.00     0.059 A 
ATOM     91  F   UNL A   1      47.533  24.521  33.641  1.00  0.00    -0.206 F 
ATOM     92  C   UNL A   1      45.827  21.784  35.123  1.00  0.00     0.060 A 
BRANCH  92  93
ATOM     93  S   UNL A   1      46.244  20.351  36.124  1.00  0.00     0.124 S 
ATOM     94  O   UNL A   1      45.668  20.698  37.419  1.00  0.00    -0.237 OA
ATOM     95  O   UNL A   1      45.567  19.282  35.394  1.00  0.00    -0.237 OA
ATOM     96  O   UNL A   1      47.702  20.313  36.081  1.00  0.00    -0.744 OA
ENDBRANCH  92  93
ENDBRANCH  60  85
ENDBRANCH  34  35
ENDBRANCH  26  29
ENDBRANCH  24  25
ENDBRANCH  23  24
ENDBRANCH  22  23
ENDBRANCH   1  22
TORSDOF 20
ENDMDL
MODEL 2
REMARK VINA RESULT:     -12.2      4.966     11.387
REMARK SMILES Cc1cccc(C(=O)NCCCCCCNC(=O)c2ccc(-c3c4nc(c(-c5c(F)cc(S(=O)(=O)[O-])cc5F)c5ccc([nH]5)c(-c5c(F)cc(S(=O)(=O)[O-])cc5F)c5nc(c(-c6c(F)cc(S(=O)(=O)[O-])cc6F)c6ccc3[nH]6)C=C5)C=C4)cc2)c1O[C@H](C)[C@H](C)O
REMARK SMILES IDX 12 1 11 2 10 3 9 4 7 5 8 6 6 8 1 9 2 10 3 11 85 12 4 13 5 14
REMARK SMILES IDX 86 15 87 16 88 17 89 18 90 19 91 20 13 22 14 23 15 24 16 25
REMARK SMILES IDX 17 26 18 28 19 29 20 30 84 31 21 32 83 33 22 34 23 35 24 36
REMARK SMILES IDX 77 37 25 38 82 39 76 40 78 41 26 42 81 43 75 44 74 45 27 47
REMARK SMILES IDX 61 48 40 49 60 50 41 51 44 52 59 53 79 54 42 55 43 56 58 58
REMARK SMILES IDX 80 59 45 60 28 61 29 62 38 63 30 64 31 65 37 66 39 67 32 68
REMARK SMILES IDX 33 69 34 70 35 71 36 72 62 73 63 74 72 75 64 76 65 77 71 78
REMARK SMILES IDX 73 79 66 80 67 81 68 82 69 83 70 84 46 85 47 86 56 87 48 88
REMARK SMILES IDX 49 89 55 90 57 91 50 92 51 93 52 94 53 95 54 96
REMARK H PARENT 9 7 91 21 16 27 78 46 44 57
REMARK Flexibility Score: inf
ROOT
ATOM      1  C   UNL A   1      34.300  23.542  25.842  1.00  0.00     0.002 C 
ENDROOT
BRANCH   1   2
ATOM      2  C   UNL A   1      33.401  22.449  26.411  1.00  0.00     0.021 C 
BRANCH   2   3
ATOM      3  C   UNL A   1      32.170  22.860  27.279  1.00  0.00     0.116 C 
BRANCH   3   4
ATOM      4  N   UNL A   1      31.454  24.169  26.948  1.00  0.00    -0.352 N 
ATOM      5  C   UNL A   1      31.189  25.241  26.081  1.00  0.00     0.255 C 
ATOM      6  O   UNL A   1      30.172  25.833  26.502  1.00  0.00    -0.269 OA
ATOM      7  H   UNL A   1      30.903  24.353  27.743  1.00  0.00     0.163 HD
BRANCH   5   8
ATOM      8  C   UNL A   1      31.780  25.849  24.780  1.00  0.00     0.082 A 
ATOM      9  C   UNL A   1      34.014  28.368  22.871  1.00  0.00     0.048 C 
ATOM     10  C   UNL A   1      33.036  27.234  23.115  1.00  0.00    -0.008 A 
ATOM     11  C   UNL A   1      32.664  26.415  22.065  1.00  0.00     0.007 A 
ATOM     12  C   UNL A   1      32.470  27.034  24.412  1.00  0.00     0.135 A 
ATOM     13  C   UNL A   1      31.812  25.359  22.324  1.00  0.00     0.001 A 
ATOM     14  C   UNL A   1      31.427  25.065  23.646  1.00  0.00     0.018 A 
BRANCH  12  15
ATOM     15  O   UNL A   1      32.651  28.217  25.072  1.00  0.00    -0.487 OA
BRANCH  15  16
ATOM     16  C   UNL A   1      31.542  28.786  25.734  1.00  0.00     0.198 C 
ATOM     17  C   UNL A   1      31.015  29.742  24.629  1.00  0.00     0.056 C 
BRANCH  16  18
ATOM     18  C   UNL A   1      32.029  28.763  27.256  1.00  0.00     0.151 C 
ATOM     19  C   UNL A   1      33.548  28.719  27.402  1.00  0.00     0.042 C 
BRANCH  18  20
ATOM     20  O   UNL A   1      31.489  27.971  28.298  1.00  0.00    -0.390 OA
ATOM     21  H   UNL A   1      31.648  27.033  28.108  1.00  0.00     0.211 HD
ENDBRANCH  18  20
ENDBRANCH  16  18
ENDBRANCH  15  16
ENDBRANCH  12  15
ENDBRANCH   5   8
ENDBRANCH   3   4
ENDBRANCH   2   3
ENDBRANCH   1   2
BRANCH   1  22
ATOM     22  C   UNL A   1      35.757  23.157  25.606  1.00  0.00     0.002 C 
BRANCH  22  23
ATOM     23  C   UNL A   1      36.828  24.102  26.164  1.00  0.00     0.021 C 
BRANCH  23  24
ATOM     24  C   UNL A   1      38.266  23.621  26.042  1.00  0.00     0.116 C 
BRANCH  24  25
ATOM     25  N   UNL A   1      38.908  23.578  27.343  1.00  0.00    -0.352 N 
ATOM     26  C   UNL A   1      39.958  24.397  27.702  1.00  0.00     0.251 C 
ATOM     27  H   UNL A   1      38.576  22.929  28.004  1.00  0.00     0.163 HD
ATOM     28  O   UNL A   1      41.136  24.059  27.751  1.00  0.00    -0.269 OA
BRANCH  26  29
ATOM     29  C   UNL A   1      39.563  25.797  27.879  1.00  0.00     0.039 A 
ATOM     30  C   UNL A   1      40.111  26.776  27.040  1.00  0.00     0.014 A 
ATOM     31  C   UNL A   1      39.015  26.091  29.126  1.00  0.00     0.014 A 
ATOM     32  C   UNL A   1      40.276  28.055  27.544  1.00  0.00     0.010 A 
ATOM     33  C   UNL A   1      39.313  27.304  29.672  1.00  0.00     0.010 A 
ATOM     34  C   UNL A   1      39.966  28.259  28.885  1.00  0.00    -0.014 A 
BRANCH  34  35
ATOM     35  C   UNL A   1      40.190  29.493  29.592  1.00  0.00     0.031 A 
ATOM     36  C   UNL A   1      39.115  30.486  29.489  1.00  0.00     0.074 A 
ATOM     37  C   UNL A   1      41.233  29.536  30.445  1.00  0.00     0.049 A 
ATOM     38  N   UNL A   1      39.266  31.734  29.724  1.00  0.00    -0.248 NA
ATOM     39  C   UNL A   1      37.758  30.147  29.053  1.00  0.00     0.031 C 
ATOM     40  C   UNL A   1      41.515  30.483  31.513  1.00  0.00     0.029 A 
ATOM     41  N   UNL A   1      42.397  28.761  30.359  1.00  0.00    -0.354 N 
ATOM     42  C   UNL A   1      38.005  32.279  29.821  1.00  0.00     0.074 A 
ATOM     43  C   UNL A   1      37.114  31.298  29.262  1.00  0.00     0.031 C 
ATOM     44  C   UNL A   1      42.837  30.454  31.770  1.00  0.00     0.029 A 
ATOM     45  C   UNL A   1      43.455  29.599  30.766  1.00  0.00     0.049 A 
ATOM     46  H   UNL A   1      42.462  27.821  30.074  1.00  0.00     0.167 HD
ATOM     47  C   UNL A   1      37.864  33.427  30.540  1.00  0.00     0.037 A 
ATOM     48  C   UNL A   1      44.338  30.025  29.809  1.00  0.00     0.037 A 
ATOM     49  C   UNL A   1      39.178  33.860  31.023  1.00  0.00     0.049 A 
ATOM     50  C   UNL A   1      44.195  31.507  29.475  1.00  0.00     0.074 A 
ATOM     51  C   UNL A   1      39.875  33.696  32.208  1.00  0.00     0.029 A 
ATOM     52  N   UNL A   1      40.126  34.194  30.080  1.00  0.00    -0.354 N 
ATOM     53  N   UNL A   1      43.258  32.288  29.945  1.00  0.00    -0.248 NA
ATOM     54  C   UNL A   1      45.076  32.216  28.548  1.00  0.00     0.031 C 
ATOM     55  C   UNL A   1      41.261  33.933  31.944  1.00  0.00     0.029 A 
ATOM     56  C   UNL A   1      41.397  34.248  30.604  1.00  0.00     0.049 A 
ATOM     57  H   UNL A   1      39.916  34.374  29.135  1.00  0.00     0.167 HD
ATOM     58  C   UNL A   1      43.362  33.541  29.398  1.00  0.00     0.074 A 
ATOM     59  C   UNL A   1      44.512  33.438  28.514  1.00  0.00     0.031 C 
ATOM     60  C   UNL A   1      42.489  34.558  29.690  1.00  0.00     0.037 A 
BRANCH  47  61
ATOM     61  C   UNL A   1      36.555  34.008  31.013  1.00  0.00     0.058 A 
ATOM     62  C   UNL A   1      35.607  34.444  30.063  1.00  0.00     0.135 A 
ATOM     63  C   UNL A   1      36.162  34.172  32.358  1.00  0.00     0.135 A 
ATOM     64  F   UNL A   1      35.816  34.307  28.747  1.00  0.00    -0.206 F 
ATOM     65  C   UNL A   1      34.401  35.045  30.411  1.00  0.00     0.059 A 
ATOM     66  C   UNL A   1      34.975  34.813  32.733  1.00  0.00     0.059 A 
ATOM     67  F   UNL A   1      36.887  33.676  33.369  1.00  0.00    -0.206 F 
ATOM     68  C   UNL A   1      34.097  35.243  31.749  1.00  0.00     0.060 A 
BRANCH  68  69
ATOM     69  S   UNL A   1      32.532  36.035  32.158  1.00  0.00     0.124 S 
ATOM     70  O   UNL A   1      32.122  36.584  30.868  1.00  0.00    -0.237 OA
ATOM     71  O   UNL A   1      31.743  34.909  32.647  1.00  0.00    -0.237 OA
ATOM     72  O   UNL A   1      32.903  37.025  33.165  1.00  0.00    -0.744 OA
ENDBRANCH  68  69
ENDBRANCH  47  61
BRANCH  48  73
ATOM     73  C   UNL A   1      44.669  28.924  28.843  1.00  0.00     0.058 A 
ATOM     74  C   UNL A   1      44.094  28.976  27.552  1.00  0.00     0.135 A 
ATOM     75  C   UNL A   1      45.812  28.127  28.995  1.00  0.00     0.135 A 
ATOM     76  F   UNL A   1      42.995  29.719  27.336  1.00  0.00    -0.206 F 
ATOM     77  C   UNL A   1      44.701  28.387  26.442  1.00  0.00     0.059 A 
ATOM     78  C   UNL A   1      46.428  27.515  27.899  1.00  0.00     0.059 A 
ATOM     79  F   UNL A   1      46.419  28.036  30.187  1.00  0.00    -0.206 F 
ATOM     80  C   UNL A   1      45.894  27.692  26.623  1.00  0.00     0.060 A 
BRANCH  80  81
ATOM     81  S   UNL A   1      46.810  27.163  25.159  1.00  0.00     0.124 S 
ATOM     82  O   UNL A   1      48.022  26.600  25.741  1.00  0.00    -0.237 OA
ATOM     83  O   UNL A   1      45.882  26.203  24.565  1.00  0.00    -0.237 OA
ATOM     84  O   UNL A   1      46.977  28.394  24.396  1.00  0.00    -0.744 OA
ENDBRANCH  80  81
ENDBRANCH  48  73
BRANCH  60  85
ATOM     85  C   UNL A   1      42.553  35.949  29.092  1.00  0.00     0.058 A 
ATOM     86  C   UNL A   1      41.947  36.279  27.872  1.00  0.00     0.135 A 
ATOM     87  C   UNL A   1      43.324  36.987  29.680  1.00  0.00     0.135 A 
ATOM     88  F   UNL A   1      41.304  35.349  27.148  1.00  0.00    -0.206 F 
ATOM     89  C   UNL A   1      42.003  37.568  27.336  1.00  0.00     0.059 A 
ATOM     90  C   UNL A   1      43.449  38.255  29.132  1.00  0.00     0.059 A 
ATOM     91  F   UNL A   1      43.975  36.841  30.839  1.00  0.00    -0.206 F 
ATOM     92  C   UNL A   1      42.748  38.552  27.981  1.00  0.00     0.060 A 
BRANCH  92  93
ATOM     93  S   UNL A   1      42.810  40.217  27.309  1.00  0.00     0.124 S 
ATOM     94  O   UNL A   1      42.075  40.984  28.310  1.00  0.00    -0.237 OA
ATOM     95  O   UNL A   1      44.249  40.455  27.258  1.00  0.00    -0.237 OA
ATOM     96  O   UNL A   1      42.149  40.090  26.014  1.00  0.00    -0.744 OA
ENDBRANCH  92  93
ENDBRANCH  60  85
ENDBRANCH  34  35
ENDBRANCH  26  29
ENDBRANCH  24  25
ENDBRANCH  23  24
ENDBRANCH  22  23
ENDBRANCH   1  22
TORSDOF 20
ENDMDL
MODEL 3
REMARK VINA RESULT:     -12.1      1.235      2.240
REMARK SMILES Cc1cccc(C(=O)NCCCCCCNC(=O)c2ccc(-c3c4nc(c(-c5c(F)cc(S(=O)(=O)[O-])cc5F)c5ccc([nH]5)c(-c5c(F)cc(S(=O)(=O)[O-])cc5F)c5nc(c(-c6c(F)cc(S(=O)(=O)[O-])cc6F)c6ccc3[nH]6)C=C5)C=C4)cc2)c1O[C@H](C)[C@H](C)O
REMARK SMILES IDX 12 1 11 2 10 3 9 4 7 5 8 6 6 8 1 9 2 10 3 11 85 12 4 13 5 14
REMARK SMILES IDX 86 15 87 16 88 17 89 18 90 19 91 20 13 22 14 23 15 24 16 25
REMARK SMILES IDX 17 26 18 28 19 29 20 30 84 31 21 32 83 33 22 34 23 35 24 36
REMARK SMILES IDX 77 37 25 38 82 39 76 40 78 41 26 42 81 43 75 44 74 45 27 47
REMARK SMILES IDX 61 48 40 49 60 50 41 51 44 52 59 53 79 54 42 55 43 56 58 58
REMARK SMILES IDX 80 59 45 60 28 61 29 62 38 63 30 64 31 65 37 66 39 67 32 68
REMARK SMILES IDX 33 69 34 70 35 71 36 72 62 73 63 74 72 75 64 76 65 77 71 78
REMARK SMILES IDX 73 79 66 80 67 81 68 82 69 83 70 84 46 85 47 86 56 87 48 88
REMARK SMILES IDX 49 89 55 90 57 91 50 92 51 93 52 94 53 95 54 96
REMARK H PARENT 9 7 91 21 16 27 78 46 44 57
REMARK Flexibility Score: inf
ROOT
ATOM      1  C   UNL A   1      33.212  28.730  25.169  1.00  0.00     0.002 C 
ENDROOT
BRANCH   1   2
ATOM      2  C   UNL A   1      32.391  27.458  25.349  1.00  0.00     0.021 C 
BRANCH   2   3
ATOM      3  C   UNL A   1      33.109  26.159  25.832  1.00  0.00     0.116 C 
BRANCH   3   4
ATOM      4  N   UNL A   1      33.476  25.103  24.790  1.00  0.00    -0.352 N 
ATOM      5  C   UNL A   1      34.237  23.999  24.374  1.00  0.00     0.255 C 
ATOM      6  O   UNL A   1      33.685  23.511  23.364  1.00  0.00    -0.269 OA
ATOM      7  H   UNL A   1      32.881  25.292  24.030  1.00  0.00     0.163 HD
BRANCH   5   8
ATOM      8  C   UNL A   1      35.513  23.237  24.825  1.00  0.00     0.082 A 
ATOM      9  C   UNL A   1      37.743  20.080  25.015  1.00  0.00     0.048 C 
ATOM     10  C   UNL A   1      37.275  21.506  25.234  1.00  0.00    -0.008 A 
ATOM     11  C   UNL A   1      38.141  22.433  25.783  1.00  0.00     0.007 A 
ATOM     12  C   UNL A   1      35.935  21.885  24.911  1.00  0.00     0.135 A 
ATOM     13  C   UNL A   1      37.707  23.736  25.925  1.00  0.00     0.001 A 
ATOM     14  C   UNL A   1      36.453  24.127  25.417  1.00  0.00     0.018 A 
BRANCH  12  15
ATOM     15  O   UNL A   1      35.234  20.713  24.845  1.00  0.00    -0.487 OA
BRANCH  15  16
ATOM     16  C   UNL A   1      33.910  20.700  25.334  1.00  0.00     0.198 C 
ATOM     17  C   UNL A   1      34.152  21.106  26.814  1.00  0.00     0.056 C 
BRANCH  16  18
ATOM     18  C   UNL A   1      33.244  19.564  24.429  1.00  0.00     0.151 C 
ATOM     19  C   UNL A   1      32.272  20.115  23.388  1.00  0.00     0.042 C 
BRANCH  18  20
ATOM     20  O   UNL A   1      32.710  18.335  24.885  1.00  0.00    -0.390 OA
ATOM     21  H   UNL A   1      33.407  17.819  25.320  1.00  0.00     0.211 HD
ENDBRANCH  18  20
ENDBRANCH  16  18
ENDBRANCH  15  16
ENDBRANCH  12  15
ENDBRANCH   5   8
ENDBRANCH   3   4
ENDBRANCH   2   3
ENDBRANCH   1   2
BRANCH   1  22
ATOM     22  C   UNL A   1      32.701  29.968  25.899  1.00  0.00     0.002 C 
BRANCH  22  23
ATOM     23  C   UNL A   1      33.450  30.388  27.170  1.00  0.00     0.021 C 
BRANCH  23  24
ATOM     24  C   UNL A   1      34.720  29.612  27.479  1.00  0.00     0.116 C 
BRANCH  24  25
ATOM     25  N   UNL A   1      35.889  30.463  27.353  1.00  0.00    -0.352 N 
ATOM     26  C   UNL A   1      36.880  30.541  28.309  1.00  0.00     0.251 C 
ATOM     27  H   UNL A   1      35.979  31.013  26.542  1.00  0.00     0.163 HD
ATOM     28  O   UNL A   1      37.017  31.454  29.116  1.00  0.00    -0.269 OA
BRANCH  26  29
ATOM     29  C   UNL A   1      37.700  29.328  28.391  1.00  0.00     0.039 A 
ATOM     30  C   UNL A   1      37.773  28.630  29.603  1.00  0.00     0.014 A 
ATOM     31  C   UNL A   1      38.666  29.214  27.393  1.00  0.00     0.014 A 
ATOM     32  C   UNL A   1      38.938  27.940  29.894  1.00  0.00     0.010 A 
ATOM     33  C   UNL A   1      39.864  28.664  27.741  1.00  0.00     0.010 A 
ATOM     34  C   UNL A   1      39.994  28.061  28.996  1.00  0.00    -0.014 A 
BRANCH  34  35
ATOM     35  C   UNL A   1      41.306  27.506  29.207  1.00  0.00     0.031 A 
ATOM     36  C   UNL A   1      41.486  26.120  28.760  1.00  0.00     0.074 A 
ATOM     37  C   UNL A   1      42.284  28.357  29.576  1.00  0.00     0.049 A 
ATOM     38  N   UNL A   1      42.422  25.351  29.170  1.00  0.00    -0.248 NA
ATOM     39  C   UNL A   1      40.572  25.461  27.825  1.00  0.00     0.031 C 
ATOM     40  C   UNL A   1      43.728  28.176  29.543  1.00  0.00     0.029 A 
ATOM     41  N   UNL A   1      42.107  29.563  30.266  1.00  0.00    -0.354 N 
ATOM     42  C   UNL A   1      42.449  24.266  28.321  1.00  0.00     0.074 A 
ATOM     43  C   UNL A   1      41.206  24.308  27.598  1.00  0.00     0.031 C 
ATOM     44  C   UNL A   1      44.285  29.030  30.422  1.00  0.00     0.029 A 
ATOM     45  C   UNL A   1      43.199  29.670  31.152  1.00  0.00     0.049 A 
ATOM     46  H   UNL A   1      41.370  30.206  30.154  1.00  0.00     0.167 HD
ATOM     47  C   UNL A   1      43.617  23.575  28.213  1.00  0.00     0.037 A 
ATOM     48  C   UNL A   1      42.954  29.515  32.491  1.00  0.00     0.037 A 
ATOM     49  C   UNL A   1      44.610  24.157  29.121  1.00  0.00     0.049 A 
ATOM     50  C   UNL A   1      43.500  28.206  33.055  1.00  0.00     0.074 A 
ATOM     51  C   UNL A   1      45.628  25.083  28.975  1.00  0.00     0.029 A 
ATOM     52  N   UNL A   1      44.342  24.112  30.472  1.00  0.00    -0.354 N 
ATOM     53  N   UNL A   1      44.042  27.257  32.337  1.00  0.00    -0.248 NA
ATOM     54  C   UNL A   1      43.440  27.848  34.471  1.00  0.00     0.031 C 
ATOM     55  C   UNL A   1      45.953  25.593  30.272  1.00  0.00     0.029 A 
ATOM     56  C   UNL A   1      45.138  24.968  31.198  1.00  0.00     0.049 A 
ATOM     57  H   UNL A   1      43.656  23.530  30.874  1.00  0.00     0.167 HD
ATOM     58  C   UNL A   1      44.363  26.184  33.130  1.00  0.00     0.074 A 
ATOM     59  C   UNL A   1      43.950  26.602  34.460  1.00  0.00     0.031 C 
ATOM     60  C   UNL A   1      44.919  25.032  32.637  1.00  0.00     0.037 A 
BRANCH  47  61
ATOM     61  C   UNL A   1      43.941  22.568  27.139  1.00  0.00     0.058 A 
ATOM     62  C   UNL A   1      43.119  21.431  26.985  1.00  0.00     0.135 A 
ATOM     63  C   UNL A   1      45.024  22.640  26.236  1.00  0.00     0.135 A 
ATOM     64  F   UNL A   1      42.025  21.247  27.735  1.00  0.00    -0.206 F 
ATOM     65  C   UNL A   1      43.379  20.423  26.060  1.00  0.00     0.059 A 
ATOM     66  C   UNL A   1      45.330  21.620  25.328  1.00  0.00     0.059 A 
ATOM     67  F   UNL A   1      45.805  23.726  26.161  1.00  0.00    -0.206 F 
ATOM     68  C   UNL A   1      44.496  20.514  25.245  1.00  0.00     0.060 A 
BRANCH  68  69
ATOM     69  S   UNL A   1      44.803  19.184  24.069  1.00  0.00     0.124 S 
ATOM     70  O   UNL A   1      44.459  19.817  22.799  1.00  0.00    -0.237 OA
ATOM     71  O   UNL A   1      46.222  18.917  24.281  1.00  0.00    -0.237 OA
ATOM     72  O   UNL A   1      43.894  18.128  24.504  1.00  0.00    -0.744 OA
ENDBRANCH  68  69
ENDBRANCH  47  61
BRANCH  48  73
ATOM     73  C   UNL A   1      41.676  30.192  32.895  1.00  0.00     0.058 A 
ATOM     74  C   UNL A   1      40.583  29.378  33.275  1.00  0.00     0.135 A 
ATOM     75  C   UNL A   1      41.650  31.527  33.322  1.00  0.00     0.135 A 
ATOM     76  F   UNL A   1      40.542  28.089  32.897  1.00  0.00    -0.206 F 
ATOM     77  C   UNL A   1      39.593  29.824  34.150  1.00  0.00     0.059 A 
ATOM     78  C   UNL A   1      40.659  31.999  34.187  1.00  0.00     0.059 A 
ATOM     79  F   UNL A   1      42.656  32.356  33.008  1.00  0.00    -0.206 F 
ATOM     80  C   UNL A   1      39.665  31.128  34.634  1.00  0.00     0.060 A 
BRANCH  80  81
ATOM     81  S   UNL A   1      38.542  31.615  35.963  1.00  0.00     0.124 S 
ATOM     82  O   UNL A   1      37.788  30.389  36.193  1.00  0.00    -0.237 OA
ATOM     83  O   UNL A   1      39.484  31.993  37.015  1.00  0.00    -0.237 OA
ATOM     84  O   UNL A   1      37.797  32.728  35.390  1.00  0.00    -0.744 OA
ENDBRANCH  80  81
ENDBRANCH  48  73
BRANCH  60  85
ATOM     85  C   UNL A   1      45.269  23.816  33.472  1.00  0.00     0.058 A 
ATOM     86  C   UNL A   1      44.307  22.895  33.910  1.00  0.00     0.135 A 
ATOM     87  C   UNL A   1      46.585  23.587  33.955  1.00  0.00     0.135 A 
ATOM     88  F   UNL A   1      43.006  23.075  33.637  1.00  0.00    -0.206 F 
ATOM     89  C   UNL A   1      44.644  21.772  34.670  1.00  0.00     0.059 A 
ATOM     90  C   UNL A   1      46.929  22.516  34.766  1.00  0.00     0.059 A 
ATOM     91  F   UNL A   1      47.621  24.373  33.642  1.00  0.00    -0.206 F 
ATOM     92  C   UNL A   1      45.961  21.586  35.083  1.00  0.00     0.060 A 
BRANCH  92  93
ATOM     93  S   UNL A   1      46.404  20.134  36.044  1.00  0.00     0.124 S 
ATOM     94  O   UNL A   1      45.963  19.043  35.181  1.00  0.00    -0.237 OA
ATOM     95  O   UNL A   1      47.849  20.301  36.169  1.00  0.00    -0.237 OA
ATOM     96  O   UNL A   1      45.646  20.295  37.280  1.00  0.00    -0.744 OA
ENDBRANCH  92  93
ENDBRANCH  60  85
ENDBRANCH  34  35
ENDBRANCH  26  29
ENDBRANCH  24  25
ENDBRANCH  23  24
ENDBRANCH  22  23
ENDBRANCH   1  22
TORSDOF 20
ENDMDL
