MODEL 1
REMARK VINA RESULT:     -11.9      0.000      0.000
REMARK SMILES O=C(C[NH+]1CCN(c2ncc(C(F)(F)F)cc2Cl)CC1)NCCCCCCNC(=O)c1ccc(-c2c3nc(c(-c4c(F)cc(S(=O)(=O)[O-])cc4F)c4ccc([nH]4)c(-c4c(F)cc(S(=O)(=O)[O-])cc4F)c4nc(c(-c5c(F)cc(S(=O)(=O)[O-])cc5F)c5ccc2[nH]5)C=C4)C=C3)cc1
REMARK SMILES IDX 24 1 23 2 22 3 21 4 1 5 2 6 3 8 4 9 5 10 20 11 6 13 19 14
REMARK SMILES IDX 7 15 8 16 9 17 17 18 10 19 16 20 18 21 11 22 12 23 13 24
REMARK SMILES IDX 14 25 15 26 25 27 26 28 27 29 28 30 29 31 30 33 31 34 32 35
REMARK SMILES IDX 96 36 33 37 95 38 34 39 35 40 36 41 89 42 37 43 94 44 88 45
REMARK SMILES IDX 90 46 38 47 93 48 87 49 86 50 39 52 73 53 52 54 72 55 53 56
REMARK SMILES IDX 56 57 71 58 91 59 54 60 55 61 70 63 92 64 57 65 40 66 41 67
REMARK SMILES IDX 50 68 42 69 43 70 49 71 51 72 44 73 45 74 46 75 47 76 48 77
REMARK SMILES IDX 74 78 75 79 84 80 76 81 77 82 83 83 85 84 78 85 79 86 80 87
REMARK SMILES IDX 81 88 82 89 58 90 59 91 68 92 60 93 61 94 67 95 69 96 62 97
REMARK SMILES IDX 63 98 64 99 65 100 66 101
REMARK H PARENT 21 7 4 12 28 32 90 51 56 62
REMARK Flexibility Score: inf
ROOT
ATOM      1  C   UNL A   1      33.313  29.732  27.206  1.00  0.00     0.002 C 
ENDROOT
BRANCH   1   2
ATOM      2  C   UNL A   1      31.878  29.219  26.966  1.00  0.00     0.021 C 
BRANCH   2   3
ATOM      3  C   UNL A   1      31.582  28.741  25.541  1.00  0.00     0.116 C 
BRANCH   3   4
ATOM      4  N   UNL A   1      31.361  27.314  25.548  1.00  0.00    -0.351 N 
ATOM      5  O   UNL A   1      29.930  27.090  23.758  1.00  0.00    -0.269 OA
ATOM      6  C   UNL A   1      30.593  26.595  24.660  1.00  0.00     0.275 C 
ATOM      7  H   UNL A   1      31.806  26.801  26.261  1.00  0.00     0.163 HD
BRANCH   6   8
ATOM      8  C   UNL A   1      30.665  25.088  24.965  1.00  0.00     0.363 C 
BRANCH   8   9
ATOM      9  N   UNL A   1      31.897  24.670  25.669  1.00  0.00    -0.324 N 
ATOM     10  C   UNL A   1      31.796  23.482  26.546  1.00  0.00     0.284 C 
ATOM     11  C   UNL A   1      33.011  24.465  24.703  1.00  0.00     0.284 C 
ATOM     12  H   UNL A   1      32.079  25.452  26.299  1.00  0.00     0.348 HD
ATOM     13  C   UNL A   1      31.768  22.110  25.839  1.00  0.00     0.179 C 
ATOM     14  C   UNL A   1      33.032  23.094  23.963  1.00  0.00     0.179 C 
ATOM     15  N   UNL A   1      32.910  22.008  24.937  1.00  0.00    -0.344 N 
BRANCH  15  16
ATOM     16  C   UNL A   1      33.279  20.719  24.584  1.00  0.00     0.147 A 
ATOM     17  N   UNL A   1      32.309  19.895  24.109  1.00  0.00    -0.237 NA
ATOM     18  C   UNL A   1      34.567  20.232  24.854  1.00  0.00     0.084 A 
ATOM     19  C   UNL A   1      32.601  18.582  23.937  1.00  0.00     0.126 A 
ATOM     20  C   UNL A   1      34.836  18.872  24.681  1.00  0.00     0.039 A 
ATOM     21  Cl  UNL A   1      35.820  21.223  25.517  1.00  0.00    -0.080 Cl
ATOM     22  C   UNL A   1      33.831  18.016  24.228  1.00  0.00     0.075 A 
BRANCH  22  23
ATOM     23  C   UNL A   1      34.034  16.540  24.083  1.00  0.00     0.417 C 
ATOM     24  F   UNL A   1      34.401  16.184  22.823  1.00  0.00    -0.166 F 
ATOM     25  F   UNL A   1      35.002  16.064  24.911  1.00  0.00    -0.166 F 
ATOM     26  F   UNL A   1      32.915  15.815  24.363  1.00  0.00    -0.166 F 
ENDBRANCH  22  23
ENDBRANCH  15  16
ENDBRANCH   8   9
ENDBRANCH   6   8
ENDBRANCH   3   4
ENDBRANCH   2   3
ENDBRANCH   1   2
BRANCH   1  27
ATOM     27  C   UNL A   1      33.464  31.252  27.286  1.00  0.00     0.002 C 
BRANCH  27  28
ATOM     28  C   UNL A   1      34.747  31.727  27.967  1.00  0.00     0.021 C 
BRANCH  28  29
ATOM     29  C   UNL A   1      35.594  30.618  28.583  1.00  0.00     0.116 C 
BRANCH  29  30
ATOM     30  N   UNL A   1      35.503  30.578  30.034  1.00  0.00    -0.352 N 
ATOM     31  C   UNL A   1      36.481  30.283  30.954  1.00  0.00     0.251 C 
ATOM     32  H   UNL A   1      34.617  30.791  30.409  1.00  0.00     0.163 HD
ATOM     33  O   UNL A   1      36.189  30.151  32.137  1.00  0.00    -0.269 OA
BRANCH  31  34
ATOM     34  C   UNL A   1      37.881  30.092  30.505  1.00  0.00     0.039 A 
ATOM     35  C   UNL A   1      38.813  29.576  31.407  1.00  0.00     0.014 A 
ATOM     36  C   UNL A   1      38.270  30.399  29.197  1.00  0.00     0.014 A 
ATOM     37  C   UNL A   1      40.115  29.301  30.978  1.00  0.00     0.010 A 
ATOM     38  C   UNL A   1      39.543  30.050  28.750  1.00  0.00     0.010 A 
ATOM     39  C   UNL A   1      40.480  29.495  29.634  1.00  0.00    -0.014 A 
BRANCH  39  40
ATOM     40  C   UNL A   1      41.822  29.084  29.140  1.00  0.00     0.031 A 
ATOM     41  C   UNL A   1      42.962  30.067  29.097  1.00  0.00     0.074 A 
ATOM     42  C   UNL A   1      42.002  27.828  28.684  1.00  0.00     0.049 A 
ATOM     43  N   UNL A   1      44.196  29.882  28.701  1.00  0.00    -0.248 NA
ATOM     44  C   UNL A   1      42.671  31.443  29.529  1.00  0.00     0.031 C 
ATOM     45  C   UNL A   1      40.964  26.798  28.618  1.00  0.00     0.029 A 
ATOM     46  N   UNL A   1      43.119  27.203  28.189  1.00  0.00    -0.354 N 
ATOM     47  C   UNL A   1      44.826  31.115  28.830  1.00  0.00     0.074 A 
ATOM     48  C   UNL A   1      43.822  32.053  29.284  1.00  0.00     0.031 C 
ATOM     49  C   UNL A   1      41.500  25.660  28.152  1.00  0.00     0.029 A 
ATOM     50  C   UNL A   1      42.909  25.887  27.846  1.00  0.00     0.049 A 
ATOM     51  H   UNL A   1      43.989  27.653  28.089  1.00  0.00     0.167 HD
ATOM     52  C   UNL A   1      46.125  31.431  28.610  1.00  0.00     0.037 A 
ATOM     53  C   UNL A   1      43.754  24.966  27.343  1.00  0.00     0.037 A 
ATOM     54  C   UNL A   1      47.122  30.489  28.165  1.00  0.00     0.049 A 
ATOM     55  C   UNL A   1      45.189  25.341  27.099  1.00  0.00     0.074 A 
ATOM     56  C   UNL A   1      48.479  30.694  27.981  1.00  0.00     0.029 A 
ATOM     57  N   UNL A   1      46.870  29.168  27.822  1.00  0.00    -0.354 N 
ATOM     58  N   UNL A   1      45.788  26.490  27.308  1.00  0.00    -0.248 NA
ATOM     59  C   UNL A   1      46.064  24.294  26.556  1.00  0.00     0.031 C 
ATOM     60  C   UNL A   1      49.034  29.517  27.467  1.00  0.00     0.029 A 
ATOM     61  C   UNL A   1      48.038  28.557  27.391  1.00  0.00     0.049 A 
ATOM     62  H   UNL A   1      45.990  28.729  27.876  1.00  0.00     0.167 HD
ATOM     63  C   UNL A   1      47.116  26.297  26.942  1.00  0.00     0.074 A 
ATOM     64  C   UNL A   1      47.235  24.916  26.519  1.00  0.00     0.031 C 
ATOM     65  C   UNL A   1      48.144  27.184  26.958  1.00  0.00     0.037 A 
BRANCH  52  66
ATOM     66  C   UNL A   1      46.542  32.861  28.837  1.00  0.00     0.058 A 
ATOM     67  C   UNL A   1      46.989  33.315  30.091  1.00  0.00     0.135 A 
ATOM     68  C   UNL A   1      46.512  33.791  27.784  1.00  0.00     0.135 A 
ATOM     69  F   UNL A   1      47.029  32.476  31.139  1.00  0.00    -0.206 F 
ATOM     70  C   UNL A   1      47.346  34.643  30.302  1.00  0.00     0.059 A 
ATOM     71  C   UNL A   1      46.898  35.117  27.964  1.00  0.00     0.059 A 
ATOM     72  F   UNL A   1      46.099  33.415  26.564  1.00  0.00    -0.206 F 
ATOM     73  C   UNL A   1      47.293  35.537  29.231  1.00  0.00     0.060 A 
BRANCH  73  74
ATOM     74  S   UNL A   1      47.741  37.261  29.527  1.00  0.00     0.124 S 
ATOM     75  O   UNL A   1      46.491  37.945  29.206  1.00  0.00    -0.237 OA
ATOM     76  O   UNL A   1      48.111  37.251  30.938  1.00  0.00    -0.237 OA
ATOM     77  O   UNL A   1      48.839  37.493  28.594  1.00  0.00    -0.744 OA
ENDBRANCH  73  74
ENDBRANCH  52  66
BRANCH  53  78
ATOM     78  C   UNL A   1      43.266  23.586  27.075  1.00  0.00     0.058 A 
ATOM     79  C   UNL A   1      43.046  23.142  25.762  1.00  0.00     0.135 A 
ATOM     80  C   UNL A   1      43.040  22.673  28.118  1.00  0.00     0.135 A 
ATOM     81  F   UNL A   1      43.237  23.980  24.731  1.00  0.00    -0.206 F 
ATOM     82  C   UNL A   1      42.615  21.847  25.492  1.00  0.00     0.059 A 
ATOM     83  C   UNL A   1      42.637  21.366  27.872  1.00  0.00     0.059 A 
ATOM     84  F   UNL A   1      43.250  23.043  29.391  1.00  0.00    -0.206 F 
ATOM     85  C   UNL A   1      42.422  20.964  26.554  1.00  0.00     0.060 A 
BRANCH  85  86
ATOM     86  S   UNL A   1      41.933  19.264  26.185  1.00  0.00     0.124 S 
ATOM     87  O   UNL A   1      42.790  18.951  25.047  1.00  0.00    -0.237 OA
ATOM     88  O   UNL A   1      42.251  18.579  27.433  1.00  0.00    -0.237 OA
ATOM     89  O   UNL A   1      40.509  19.382  25.889  1.00  0.00    -0.744 OA
ENDBRANCH  85  86
ENDBRANCH  53  78
BRANCH  65  90
ATOM     90  C   UNL A   1      49.494  26.682  26.519  1.00  0.00     0.058 A 
ATOM     91  C   UNL A   1      50.346  25.988  27.393  1.00  0.00     0.135 A 
ATOM     92  C   UNL A   1      49.931  26.875  25.197  1.00  0.00     0.135 A 
ATOM     93  F   UNL A   1      49.983  25.781  28.668  1.00  0.00    -0.206 F 
ATOM     94  C   UNL A   1      51.597  25.535  26.983  1.00  0.00     0.059 A 
ATOM     95  C   UNL A   1      51.163  26.400  24.757  1.00  0.00     0.059 A 
ATOM     96  F   UNL A   1      49.153  27.521  24.315  1.00  0.00    -0.206 F 
ATOM     97  C   UNL A   1      51.996  25.746  25.663  1.00  0.00     0.060 A 
BRANCH  97  98
ATOM     98  S   UNL A   1      53.614  25.140  25.141  1.00  0.00     0.124 S 
ATOM     99  O   UNL A   1      53.643  25.547  23.741  1.00  0.00    -0.237 OA
ATOM    100  O   UNL A   1      54.519  25.862  26.031  1.00  0.00    -0.237 OA
ATOM    101  O   UNL A   1      53.531  23.701  25.375  1.00  0.00    -0.744 OA
ENDBRANCH  97  98
ENDBRANCH  65  90
ENDBRANCH  39  40
ENDBRANCH  31  34
ENDBRANCH  29  30
ENDBRANCH  28  29
ENDBRANCH  27  28
ENDBRANCH   1  27
TORSDOF 19
ENDMDL
MODEL 2
REMARK VINA RESULT:     -11.7      4.184     10.100
REMARK SMILES O=C(C[NH+]1CCN(c2ncc(C(F)(F)F)cc2Cl)CC1)NCCCCCCNC(=O)c1ccc(-c2c3nc(c(-c4c(F)cc(S(=O)(=O)[O-])cc4F)c4ccc([nH]4)c(-c4c(F)cc(S(=O)(=O)[O-])cc4F)c4nc(c(-c5c(F)cc(S(=O)(=O)[O-])cc5F)c5ccc2[nH]5)C=C4)C=C3)cc1
REMARK SMILES IDX 24 1 23 2 22 3 21 4 1 5 2 6 3 8 4 9 5 10 20 11 6 13 19 14
REMARK SMILES IDX 7 15 8 16 9 17 17 18 10 19 16 20 18 21 11 22 12 23 13 24
REMARK SMILES IDX 14 25 15 26 25 27 26 28 27 29 28 30 29 31 30 33 31 34 32 35
REMARK SMILES IDX 96 36 33 37 95 38 34 39 35 40 36 41 89 42 37 43 94 44 88 45
REMARK SMILES IDX 90 46 38 47 93 48 87 49 86 50 39 52 73 53 52 54 72 55 53 56
REMARK SMILES IDX 56 57 71 58 91 59 54 60 55 61 70 63 92 64 57 65 40 66 41 67
REMARK SMILES IDX 50 68 42 69 43 70 49 71 51 72 44 73 45 74 46 75 47 76 48 77
REMARK SMILES IDX 74 78 75 79 84 80 76 81 77 82 83 83 85 84 78 85 79 86 80 87
REMARK SMILES IDX 81 88 82 89 58 90 59 91 68 92 60 93 61 94 67 95 69 96 62 97
REMARK SMILES IDX 63 98 64 99 65 100 66 101
REMARK H PARENT 21 7 4 12 28 32 90 51 56 62
REMARK Flexibility Score: inf
ROOT
ATOM      1  C   UNL A   1      34.118  21.456  27.027  1.00  0.00     0.002 C 
ENDROOT
BRANCH   1   2
ATOM      2  C   UNL A   1      33.964  20.639  25.729  1.00  0.00     0.021 C 
BRANCH   2   3
ATOM      3  C   UNL A   1      32.527  20.473  25.223  1.00  0.00     0.116 C 
BRANCH   3   4
ATOM      4  N   UNL A   1      32.101  21.690  24.574  1.00  0.00    -0.351 N 
ATOM      5  O   UNL A   1      30.447  22.392  26.013  1.00  0.00    -0.269 OA
ATOM      6  C   UNL A   1      31.134  22.565  25.015  1.00  0.00     0.275 C 
ATOM      7  H   UNL A   1      32.549  21.919  23.727  1.00  0.00     0.163 HD
BRANCH   6   8
ATOM      8  C   UNL A   1      31.020  23.778  24.075  1.00  0.00     0.363 C 
BRANCH   8   9
ATOM      9  N   UNL A   1      30.257  24.913  24.639  1.00  0.00    -0.324 N 
ATOM     10  C   UNL A   1      30.537  25.271  26.048  1.00  0.00     0.284 C 
ATOM     11  C   UNL A   1      30.413  26.125  23.791  1.00  0.00     0.284 C 
ATOM     12  H   UNL A   1      29.297  24.568  24.638  1.00  0.00     0.348 HD
ATOM     13  C   UNL A   1      31.841  26.055  26.308  1.00  0.00     0.179 C 
ATOM     14  C   UNL A   1      31.712  26.956  24.016  1.00  0.00     0.179 C 
ATOM     15  N   UNL A   1      31.880  27.230  25.444  1.00  0.00    -0.344 N 
BRANCH  15  16
ATOM     16  C   UNL A   1      32.725  28.247  25.858  1.00  0.00     0.147 A 
ATOM     17  N   UNL A   1      33.852  27.896  26.530  1.00  0.00    -0.237 NA
ATOM     18  C   UNL A   1      32.356  29.595  25.731  1.00  0.00     0.084 A 
ATOM     19  C   UNL A   1      34.594  28.873  27.108  1.00  0.00     0.126 A 
ATOM     20  C   UNL A   1      33.131  30.580  26.348  1.00  0.00     0.039 A 
ATOM     21  Cl  UNL A   1      30.901  30.095  24.940  1.00  0.00    -0.080 Cl
ATOM     22  C   UNL A   1      34.270  30.218  27.070  1.00  0.00     0.075 A 
BRANCH  22  23
ATOM     23  C   UNL A   1      35.107  31.215  27.808  1.00  0.00     0.417 C 
ATOM     24  F   UNL A   1      34.717  32.498  27.579  1.00  0.00    -0.166 F 
ATOM     25  F   UNL A   1      35.059  31.039  29.156  1.00  0.00    -0.166 F 
ATOM     26  F   UNL A   1      36.426  31.161  27.472  1.00  0.00    -0.166 F 
ENDBRANCH  22  23
ENDBRANCH  15  16
ENDBRANCH   8   9
ENDBRANCH   6   8
ENDBRANCH   3   4
ENDBRANCH   2   3
ENDBRANCH   1   2
BRANCH   1  27
ATOM     27  C   UNL A   1      34.686  22.866  26.855  1.00  0.00     0.002 C 
BRANCH  27  28
ATOM     28  C   UNL A   1      35.289  23.143  25.478  1.00  0.00     0.021 C 
BRANCH  28  29
ATOM     29  C   UNL A   1      36.728  23.648  25.497  1.00  0.00     0.116 C 
BRANCH  29  30
ATOM     30  N   UNL A   1      37.677  22.630  25.919  1.00  0.00    -0.352 N 
ATOM     31  C   UNL A   1      38.912  22.788  26.505  1.00  0.00     0.251 C 
ATOM     32  H   UNL A   1      37.397  21.699  25.762  1.00  0.00     0.163 HD
ATOM     33  O   UNL A   1      39.644  21.818  26.659  1.00  0.00    -0.269 OA
BRANCH  31  34
ATOM     34  C   UNL A   1      39.363  24.139  26.917  1.00  0.00     0.039 A 
ATOM     35  C   UNL A   1      39.189  24.531  28.246  1.00  0.00     0.014 A 
ATOM     36  C   UNL A   1      39.973  25.007  26.006  1.00  0.00     0.014 A 
ATOM     37  C   UNL A   1      39.690  25.762  28.676  1.00  0.00     0.010 A 
ATOM     38  C   UNL A   1      40.543  26.198  26.455  1.00  0.00     0.010 A 
ATOM     39  C   UNL A   1      40.410  26.589  27.796  1.00  0.00    -0.014 A 
BRANCH  39  40
ATOM     40  C   UNL A   1      41.057  27.838  28.278  1.00  0.00     0.031 A 
ATOM     41  C   UNL A   1      42.552  28.003  28.223  1.00  0.00     0.074 A 
ATOM     42  C   UNL A   1      40.294  28.813  28.813  1.00  0.00     0.049 A 
ATOM     43  N   UNL A   1      43.284  29.023  28.596  1.00  0.00    -0.248 NA
ATOM     44  C   UNL A   1      43.329  26.866  27.707  1.00  0.00     0.031 C 
ATOM     45  C   UNL A   1      38.840  28.751  28.977  1.00  0.00     0.029 A 
ATOM     46  N   UNL A   1      40.631  30.044  29.318  1.00  0.00    -0.354 N 
ATOM     47  C   UNL A   1      44.603  28.650  28.367  1.00  0.00     0.074 A 
ATOM     48  C   UNL A   1      44.574  27.288  27.879  1.00  0.00     0.031 C 
ATOM     49  C   UNL A   1      38.406  29.906  29.504  1.00  0.00     0.029 A 
ATOM     50  C   UNL A   1      39.551  30.776  29.754  1.00  0.00     0.049 A 
ATOM     51  H   UNL A   1      41.558  30.372  29.363  1.00  0.00     0.167 HD
ATOM     52  C   UNL A   1      45.733  29.381  28.528  1.00  0.00     0.037 A 
ATOM     53  C   UNL A   1      39.487  32.009  30.294  1.00  0.00     0.037 A 
ATOM     54  C   UNL A   1      45.754  30.740  29.008  1.00  0.00     0.049 A 
ATOM     55  C   UNL A   1      40.755  32.799  30.473  1.00  0.00     0.074 A 
ATOM     56  C   UNL A   1      46.839  31.590  29.140  1.00  0.00     0.029 A 
ATOM     57  N   UNL A   1      44.641  31.445  29.446  1.00  0.00    -0.354 N 
ATOM     58  N   UNL A   1      41.985  32.461  30.170  1.00  0.00    -0.248 NA
ATOM     59  C   UNL A   1      40.623  34.138  31.060  1.00  0.00     0.031 C 
ATOM     60  C   UNL A   1      46.392  32.784  29.717  1.00  0.00     0.029 A 
ATOM     61  C   UNL A   1      45.019  32.706  29.885  1.00  0.00     0.049 A 
ATOM     62  H   UNL A   1      43.719  31.101  29.447  1.00  0.00     0.167 HD
ATOM     63  C   UNL A   1      42.773  33.557  30.511  1.00  0.00     0.074 A 
ATOM     64  C   UNL A   1      41.875  34.572  31.023  1.00  0.00     0.031 C 
ATOM     65  C   UNL A   1      44.118  33.706  30.406  1.00  0.00     0.037 A 
BRANCH  52  66
ATOM     66  C   UNL A   1      47.045  28.719  28.194  1.00  0.00     0.058 A 
ATOM     67  C   UNL A   1      47.589  28.762  26.898  1.00  0.00     0.135 A 
ATOM     68  C   UNL A   1      47.780  28.046  29.185  1.00  0.00     0.135 A 
ATOM     69  F   UNL A   1      46.928  29.380  25.907  1.00  0.00    -0.206 F 
ATOM     70  C   UNL A   1      48.787  28.125  26.589  1.00  0.00     0.059 A 
ATOM     71  C   UNL A   1      48.997  27.432  28.905  1.00  0.00     0.059 A 
ATOM     72  F   UNL A   1      47.313  27.976  30.441  1.00  0.00    -0.206 F 
ATOM     73  C   UNL A   1      49.482  27.459  27.600  1.00  0.00     0.060 A 
BRANCH  73  74
ATOM     74  S   UNL A   1      51.024  26.622  27.177  1.00  0.00     0.124 S 
ATOM     75  O   UNL A   1      50.651  25.220  27.351  1.00  0.00    -0.237 OA
ATOM     76  O   UNL A   1      51.245  27.051  25.799  1.00  0.00    -0.237 OA
ATOM     77  O   UNL A   1      51.974  27.144  28.153  1.00  0.00    -0.744 OA
ENDBRANCH  73  74
ENDBRANCH  52  66
BRANCH  53  78
ATOM     78  C   UNL A   1      38.167  32.583  30.669  1.00  0.00     0.058 A 
ATOM     79  C   UNL A   1      37.618  32.358  31.940  1.00  0.00     0.135 A 
ATOM     80  C   UNL A   1      37.442  33.393  29.780  1.00  0.00     0.135 A 
ATOM     81  F   UNL A   1      38.267  31.583  32.823  1.00  0.00    -0.206 F 
ATOM     82  C   UNL A   1      36.397  32.910  32.316  1.00  0.00     0.059 A 
ATOM     83  C   UNL A   1      36.234  33.978  30.142  1.00  0.00     0.059 A 
ATOM     84  F   UNL A   1      37.930  33.652  28.556  1.00  0.00    -0.206 F 
ATOM     85  C   UNL A   1      35.717  33.725  31.412  1.00  0.00     0.060 A 
BRANCH  85  86
ATOM     86  S   UNL A   1      34.168  34.494  31.938  1.00  0.00     0.124 S 
ATOM     87  O   UNL A   1      33.651  33.503  32.875  1.00  0.00    -0.237 OA
ATOM     88  O   UNL A   1      34.635  35.746  32.524  1.00  0.00    -0.237 OA
ATOM     89  O   UNL A   1      33.423  34.634  30.691  1.00  0.00    -0.744 OA
ENDBRANCH  85  86
ENDBRANCH  53  78
BRANCH  65  90
ATOM     90  C   UNL A   1      44.701  35.026  30.841  1.00  0.00     0.058 A 
ATOM     91  C   UNL A   1      45.160  35.237  32.150  1.00  0.00     0.135 A 
ATOM     92  C   UNL A   1      44.825  36.085  29.927  1.00  0.00     0.135 A 
ATOM     93  F   UNL A   1      45.059  34.262  33.068  1.00  0.00    -0.206 F 
ATOM     94  C   UNL A   1      45.688  36.461  32.549  1.00  0.00     0.059 A 
ATOM     95  C   UNL A   1      45.382  37.307  30.293  1.00  0.00     0.059 A 
ATOM     96  F   UNL A   1      44.414  35.937  28.657  1.00  0.00    -0.206 F 
ATOM     97  C   UNL A   1      45.795  37.491  31.612  1.00  0.00     0.060 A 
BRANCH  97  98
ATOM     98  S   UNL A   1      46.496  39.069  32.138  1.00  0.00     0.124 S 
ATOM     99  O   UNL A   1      47.167  39.512  30.920  1.00  0.00    -0.237 OA
ATOM    100  O   UNL A   1      45.308  39.826  32.520  1.00  0.00    -0.237 OA
ATOM    101  O   UNL A   1      47.378  38.699  33.241  1.00  0.00    -0.744 OA
ENDBRANCH  97  98
ENDBRANCH  65  90
ENDBRANCH  39  40
ENDBRANCH  31  34
ENDBRANCH  29  30
ENDBRANCH  28  29
ENDBRANCH  27  28
ENDBRANCH   1  27
TORSDOF 19
ENDMDL
MODEL 3
REMARK VINA RESULT:     -11.6      5.095     10.616
REMARK SMILES O=C(C[NH+]1CCN(c2ncc(C(F)(F)F)cc2Cl)CC1)NCCCCCCNC(=O)c1ccc(-c2c3nc(c(-c4c(F)cc(S(=O)(=O)[O-])cc4F)c4ccc([nH]4)c(-c4c(F)cc(S(=O)(=O)[O-])cc4F)c4nc(c(-c5c(F)cc(S(=O)(=O)[O-])cc5F)c5ccc2[nH]5)C=C4)C=C3)cc1
REMARK SMILES IDX 24 1 23 2 22 3 21 4 1 5 2 6 3 8 4 9 5 10 20 11 6 13 19 14
REMARK SMILES IDX 7 15 8 16 9 17 17 18 10 19 16 20 18 21 11 22 12 23 13 24
REMARK SMILES IDX 14 25 15 26 25 27 26 28 27 29 28 30 29 31 30 33 31 34 32 35
REMARK SMILES IDX 96 36 33 37 95 38 34 39 35 40 36 41 89 42 37 43 94 44 88 45
REMARK SMILES IDX 90 46 38 47 93 48 87 49 86 50 39 52 73 53 52 54 72 55 53 56
REMARK SMILES IDX 56 57 71 58 91 59 54 60 55 61 70 63 92 64 57 65 40 66 41 67
REMARK SMILES IDX 50 68 42 69 43 70 49 71 51 72 44 73 45 74 46 75 47 76 48 77
REMARK SMILES IDX 74 78 75 79 84 80 76 81 77 82 83 83 85 84 78 85 79 86 80 87
REMARK SMILES IDX 81 88 82 89 58 90 59 91 68 92 60 93 61 94 67 95 69 96 62 97
REMARK SMILES IDX 63 98 64 99 65 100 66 101
REMARK H PARENT 21 7 4 12 28 32 90 51 56 62
REMARK Flexibility Score: inf
ROOT
ATOM      1  C   UNL A   1      33.862  22.903  27.194  1.00  0.00     0.002 C 
ENDROOT
BRANCH   1   2
ATOM      2  C   UNL A   1      34.025  21.371  27.120  1.00  0.00     0.021 C 
BRANCH   2   3
ATOM      3  C   UNL A   1      33.173  20.671  26.057  1.00  0.00     0.116 C 
BRANCH   3   4
ATOM      4  N   UNL A   1      32.631  21.654  25.148  1.00  0.00    -0.351 N 
ATOM      5  O   UNL A   1      30.468  21.811  25.920  1.00  0.00    -0.269 OA
ATOM      6  C   UNL A   1      31.355  22.170  25.157  1.00  0.00     0.275 C 
ATOM      7  H   UNL A   1      33.238  21.990  24.450  1.00  0.00     0.163 HD
BRANCH   6   8
ATOM      8  C   UNL A   1      31.188  23.243  24.067  1.00  0.00     0.363 C 
BRANCH   8   9
ATOM      9  N   UNL A   1      30.332  24.382  24.463  1.00  0.00    -0.324 N 
ATOM     10  C   UNL A   1      30.456  24.858  25.859  1.00  0.00     0.284 C 
ATOM     11  C   UNL A   1      30.525  25.532  23.539  1.00  0.00     0.284 C 
ATOM     12  H   UNL A   1      29.390  23.995  24.396  1.00  0.00     0.348 HD
ATOM     13  C   UNL A   1      31.697  25.718  26.180  1.00  0.00     0.179 C 
ATOM     14  C   UNL A   1      31.764  26.435  23.821  1.00  0.00     0.179 C 
ATOM     15  N   UNL A   1      31.778  26.824  25.232  1.00  0.00    -0.344 N 
BRANCH  15  16
ATOM     16  C   UNL A   1      32.539  27.907  25.643  1.00  0.00     0.147 A 
ATOM     17  N   UNL A   1      33.624  27.656  26.420  1.00  0.00    -0.237 NA
ATOM     18  C   UNL A   1      32.119  29.224  25.400  1.00  0.00     0.084 A 
ATOM     19  C   UNL A   1      34.271  28.704  26.989  1.00  0.00     0.126 A 
ATOM     20  C   UNL A   1      32.795  30.284  26.010  1.00  0.00     0.039 A 
ATOM     21  Cl  UNL A   1      30.710  29.599  24.469  1.00  0.00    -0.080 Cl
ATOM     22  C   UNL A   1      33.888  30.026  26.839  1.00  0.00     0.075 A 
BRANCH  22  23
ATOM     23  C   UNL A   1      34.617  31.108  27.573  1.00  0.00     0.417 C 
ATOM     24  F   UNL A   1      34.090  32.341  27.344  1.00  0.00    -0.166 F 
ATOM     25  F   UNL A   1      34.593  30.929  28.921  1.00  0.00    -0.166 F 
ATOM     26  F   UNL A   1      35.933  31.196  27.232  1.00  0.00    -0.166 F 
ENDBRANCH  22  23
ENDBRANCH  15  16
ENDBRANCH   8   9
ENDBRANCH   6   8
ENDBRANCH   3   4
ENDBRANCH   2   3
ENDBRANCH   1   2
BRANCH   1  27
ATOM     27  C   UNL A   1      35.107  23.716  26.830  1.00  0.00     0.002 C 
BRANCH  27  28
ATOM     28  C   UNL A   1      35.621  23.487  25.410  1.00  0.00     0.021 C 
BRANCH  28  29
ATOM     29  C   UNL A   1      37.055  23.947  25.166  1.00  0.00     0.116 C 
BRANCH  29  30
ATOM     30  N   UNL A   1      38.041  22.947  25.541  1.00  0.00    -0.352 N 
ATOM     31  C   UNL A   1      39.180  23.096  26.299  1.00  0.00     0.251 C 
ATOM     32  H   UNL A   1      37.870  22.037  25.206  1.00  0.00     0.163 HD
ATOM     33  O   UNL A   1      39.977  22.171  26.392  1.00  0.00    -0.269 OA
BRANCH  31  34
ATOM     34  C   UNL A   1      39.452  24.389  26.971  1.00  0.00     0.039 A 
ATOM     35  C   UNL A   1      39.045  24.557  28.297  1.00  0.00     0.014 A 
ATOM     36  C   UNL A   1      40.121  25.423  26.309  1.00  0.00     0.014 A 
ATOM     37  C   UNL A   1      39.373  25.732  28.978  1.00  0.00     0.010 A 
ATOM     38  C   UNL A   1      40.517  26.558  27.014  1.00  0.00     0.010 A 
ATOM     39  C   UNL A   1      40.150  26.726  28.357  1.00  0.00    -0.014 A 
BRANCH  39  40
ATOM     40  C   UNL A   1      40.612  27.919  29.116  1.00  0.00     0.031 A 
ATOM     41  C   UNL A   1      42.001  27.976  29.693  1.00  0.00     0.074 A 
ATOM     42  C   UNL A   1      39.756  28.940  29.326  1.00  0.00     0.049 A 
ATOM     43  N   UNL A   1      42.571  28.935  30.378  1.00  0.00    -0.248 NA
ATOM     44  C   UNL A   1      42.851  26.791  29.499  1.00  0.00     0.031 C 
ATOM     45  C   UNL A   1      38.365  28.982  28.870  1.00  0.00     0.029 A 
ATOM     46  N   UNL A   1      39.927  30.137  29.976  1.00  0.00    -0.354 N 
ATOM     47  C   UNL A   1      43.840  28.469  30.702  1.00  0.00     0.074 A 
ATOM     48  C   UNL A   1      43.934  27.119  30.189  1.00  0.00     0.031 C 
ATOM     49  C   UNL A   1      37.823  30.159  29.217  1.00  0.00     0.029 A 
ATOM     50  C   UNL A   1      38.810  30.940  29.955  1.00  0.00     0.049 A 
ATOM     51  H   UNL A   1      40.769  30.396  30.415  1.00  0.00     0.167 HD
ATOM     52  C   UNL A   1      44.843  29.114  31.347  1.00  0.00     0.037 A 
ATOM     53  C   UNL A   1      38.603  32.168  30.471  1.00  0.00     0.037 A 
ATOM     54  C   UNL A   1      44.745  30.462  31.848  1.00  0.00     0.049 A 
ATOM     55  C   UNL A   1      39.726  32.861  31.192  1.00  0.00     0.074 A 
ATOM     56  C   UNL A   1      45.725  31.229  32.454  1.00  0.00     0.029 A 
ATOM     57  N   UNL A   1      43.596  31.241  31.814  1.00  0.00    -0.354 N 
ATOM     58  N   UNL A   1      40.948  32.439  31.413  1.00  0.00    -0.248 NA
ATOM     59  C   UNL A   1      39.443  34.199  31.727  1.00  0.00     0.031 C 
ATOM     60  C   UNL A   1      45.153  32.445  32.843  1.00  0.00     0.029 A 
ATOM     61  C   UNL A   1      43.833  32.465  32.423  1.00  0.00     0.049 A 
ATOM     62  H   UNL A   1      42.738  30.965  31.418  1.00  0.00     0.167 HD
ATOM     63  C   UNL A   1      41.587  33.469  32.095  1.00  0.00     0.074 A 
ATOM     64  C   UNL A   1      40.621  34.541  32.230  1.00  0.00     0.031 C 
ATOM     65  C   UNL A   1      42.860  33.522  32.564  1.00  0.00     0.037 A 
BRANCH  52  66
ATOM     66  C   UNL A   1      46.131  28.363  31.560  1.00  0.00     0.058 A 
ATOM     67  C   UNL A   1      46.367  27.604  32.720  1.00  0.00     0.135 A 
ATOM     68  C   UNL A   1      47.142  28.385  30.583  1.00  0.00     0.135 A 
ATOM     69  F   UNL A   1      45.443  27.553  33.693  1.00  0.00    -0.206 F 
ATOM     70  C   UNL A   1      47.570  26.935  32.923  1.00  0.00     0.059 A 
ATOM     71  C   UNL A   1      48.339  27.695  30.750  1.00  0.00     0.059 A 
ATOM     72  F   UNL A   1      46.972  29.088  29.453  1.00  0.00    -0.206 F 
ATOM     73  C   UNL A   1      48.552  26.990  31.932  1.00  0.00     0.060 A 
BRANCH  73  74
ATOM     74  S   UNL A   1      50.114  26.133  32.221  1.00  0.00     0.124 S 
ATOM     75  O   UNL A   1      50.281  26.309  33.661  1.00  0.00    -0.237 OA
ATOM     76  O   UNL A   1      49.812  24.775  31.781  1.00  0.00    -0.237 OA
ATOM     77  O   UNL A   1      51.062  26.863  31.386  1.00  0.00    -0.744 OA
ENDBRANCH  73  74
ENDBRANCH  52  66
BRANCH  53  78
ATOM     78  C   UNL A   1      37.283  32.832  30.288  1.00  0.00     0.058 A 
ATOM     79  C   UNL A   1      36.270  32.699  31.248  1.00  0.00     0.135 A 
ATOM     80  C   UNL A   1      37.019  33.637  29.168  1.00  0.00     0.135 A 
ATOM     81  F   UNL A   1      36.470  31.932  32.332  1.00  0.00    -0.206 F 
ATOM     82  C   UNL A   1      35.041  33.335  31.106  1.00  0.00     0.059 A 
ATOM     83  C   UNL A   1      35.809  34.305  29.017  1.00  0.00     0.059 A 
ATOM     84  F   UNL A   1      37.961  33.809  28.227  1.00  0.00    -0.206 F 
ATOM     85  C   UNL A   1      34.824  34.143  29.989  1.00  0.00     0.060 A 
BRANCH  85  86
ATOM     86  S   UNL A   1      33.250  35.021  29.853  1.00  0.00     0.124 S 
ATOM     87  O   UNL A   1      33.687  36.345  29.425  1.00  0.00    -0.237 OA
ATOM     88  O   UNL A   1      32.545  34.225  28.854  1.00  0.00    -0.237 OA
ATOM     89  O   UNL A   1      32.705  34.942  31.205  1.00  0.00    -0.744 OA
ENDBRANCH  85  86
ENDBRANCH  53  78
BRANCH  65  90
ATOM     90  C   UNL A   1      43.287  34.790  33.256  1.00  0.00     0.058 A 
ATOM     91  C   UNL A   1      43.168  34.952  34.645  1.00  0.00     0.135 A 
ATOM     92  C   UNL A   1      43.848  35.848  32.521  1.00  0.00     0.135 A 
ATOM     93  F   UNL A   1      42.633  33.977  35.396  1.00  0.00    -0.206 F 
ATOM     94  C   UNL A   1      43.557  36.130  35.277  1.00  0.00     0.059 A 
ATOM     95  C   UNL A   1      44.275  37.021  33.136  1.00  0.00     0.059 A 
ATOM     96  F   UNL A   1      43.997  35.744  31.190  1.00  0.00    -0.206 F 
ATOM     97  C   UNL A   1      44.109  37.159  34.513  1.00  0.00     0.060 A 
BRANCH  97  98
ATOM     98  S   UNL A   1      44.622  38.675  35.347  1.00  0.00     0.124 S 
ATOM     99  O   UNL A   1      46.037  38.740  34.995  1.00  0.00    -0.237 OA
ATOM    100  O   UNL A   1      43.766  39.680  34.723  1.00  0.00    -0.237 OA
ATOM    101  O   UNL A   1      44.338  38.403  36.753  1.00  0.00    -0.744 OA
ENDBRANCH  97  98
ENDBRANCH  65  90
ENDBRANCH  39  40
ENDBRANCH  31  34
ENDBRANCH  29  30
ENDBRANCH  28  29
ENDBRANCH  27  28
ENDBRANCH   1  27
TORSDOF 19
ENDMDL
