MODEL 1
REMARK VINA RESULT:     -11.9      0.000      0.000
REMARK SMILES CC(C)C[C@H](CNC(=O)Nc1ccccc1Br)C(=O)NCCCCCCNC(=O)c1ccc(-c2c3nc(c(-c4c(F)cc(S(=O)(=O)[O-])cc4F)c4ccc([nH]4)c(-c4c(F)cc(S(=O)(=O)[O-])cc4F)c4nc(c(-c5c(F)cc(S(=O)(=O)[O-])cc5F)c5ccc2[nH]5)C=C4)C=C3)cc1
REMARK SMILES IDX 23 1 22 2 21 3 20 4 18 5 19 6 5 8 4 9 2 10 1 11 3 12 6 13
REMARK SMILES IDX 7 14 8 15 9 17 10 18 11 20 12 21 16 22 13 23 15 24 17 25
REMARK SMILES IDX 14 26 24 27 25 28 26 29 27 30 28 31 29 33 30 34 31 35 95 36
REMARK SMILES IDX 32 37 94 38 33 39 34 40 35 41 88 42 36 43 93 44 87 45 89 46
REMARK SMILES IDX 37 47 92 48 86 49 85 50 38 52 72 53 51 54 71 55 52 56 55 57
REMARK SMILES IDX 70 58 90 59 53 60 54 61 69 63 91 64 56 65 39 66 40 67 49 68
REMARK SMILES IDX 41 69 42 70 48 71 50 72 43 73 44 74 45 75 46 76 47 77 73 78
REMARK SMILES IDX 74 79 83 80 75 81 76 82 82 83 84 84 77 85 78 86 79 87 80 88
REMARK SMILES IDX 81 89 57 90 58 91 67 92 59 93 60 94 66 95 68 96 61 97 62 98
REMARK SMILES IDX 63 99 64 100 65 101
REMARK H PARENT 20 7 7 16 10 19 27 32 89 51 55 62
REMARK Flexibility Score: inf
ROOT
ATOM      1  C   UNL A   1      38.420  23.335  26.179  1.00  0.00     0.002 C 
ENDROOT
BRANCH   1   2
ATOM      2  C   UNL A   1      36.966  23.446  25.715  1.00  0.00     0.021 C 
BRANCH   2   3
ATOM      3  C   UNL A   1      36.186  22.144  25.821  1.00  0.00     0.116 C 
BRANCH   3   4
ATOM      4  N   UNL A   1      35.205  22.165  26.882  1.00  0.00    -0.356 N 
ATOM      5  C   UNL A   1      33.948  21.665  26.934  1.00  0.00     0.224 C 
ATOM      6  O   UNL A   1      33.393  21.690  28.039  1.00  0.00    -0.275 OA
ATOM      7  H   UNL A   1      35.502  22.619  27.703  1.00  0.00     0.163 HD
BRANCH   5   8
ATOM      8  C   UNL A   1      33.193  21.114  25.726  1.00  0.00     0.098 C 
BRANCH   8   9
ATOM      9  C   UNL A   1      33.947  20.196  24.730  1.00  0.00     0.018 C 
BRANCH   9  10
ATOM     10  C   UNL A   1      33.422  18.789  24.403  1.00  0.00    -0.017 C 
ATOM     11  C   UNL A   1      32.796  18.123  25.633  1.00  0.00     0.007 C 
ATOM     12  C   UNL A   1      32.336  18.853  23.318  1.00  0.00     0.007 C 
ENDBRANCH   9  10
ENDBRANCH   8   9
BRANCH   8  13
ATOM     13  C   UNL A   1      32.057  21.995  25.171  1.00  0.00     0.131 C 
BRANCH  13  14
ATOM     14  N   UNL A   1      30.900  22.272  26.002  1.00  0.00    -0.337 N 
ATOM     15  C   UNL A   1      30.532  23.302  26.794  1.00  0.00     0.319 C 
ATOM     16  H   UNL A   1      30.234  21.547  25.985  1.00  0.00     0.165 HD
ATOM     17  O   UNL A   1      29.616  23.110  27.597  1.00  0.00    -0.249 OA
ATOM     18  N   UNL A   1      31.214  24.464  26.835  1.00  0.00    -0.307 N 
ATOM     19  H   UNL A   1      31.170  24.937  27.698  1.00  0.00     0.171 HD
BRANCH  18  20
ATOM     20  C   UNL A   1      31.979  25.110  25.853  1.00  0.00     0.057 A 
ATOM     21  C   UNL A   1      33.361  25.113  26.064  1.00  0.00     0.027 A 
ATOM     22  C   UNL A   1      31.462  25.707  24.690  1.00  0.00     0.041 A 
ATOM     23  C   UNL A   1      34.227  25.540  25.058  1.00  0.00     0.002 A 
ATOM     24  C   UNL A   1      32.335  26.146  23.689  1.00  0.00     0.018 A 
ATOM     25  Br  UNL A   1      29.611  26.052  24.429  1.00  0.00    -0.049 Br
ATOM     26  C   UNL A   1      33.714  26.030  23.860  1.00  0.00     0.001 A 
ENDBRANCH  18  20
ENDBRANCH  13  14
ENDBRANCH   8  13
ENDBRANCH   5   8
ENDBRANCH   3   4
ENDBRANCH   2   3
ENDBRANCH   1   2
BRANCH   1  27
ATOM     27  C   UNL A   1      39.024  21.924  26.133  1.00  0.00     0.002 C 
BRANCH  27  28
ATOM     28  C   UNL A   1      40.449  21.785  26.683  1.00  0.00     0.021 C 
BRANCH  28  29
ATOM     29  C   UNL A   1      41.082  23.075  27.194  1.00  0.00     0.116 C 
BRANCH  29  30
ATOM     30  N   UNL A   1      41.577  23.907  26.112  1.00  0.00    -0.352 N 
ATOM     31  C   UNL A   1      41.696  25.269  26.030  1.00  0.00     0.251 C 
ATOM     32  H   UNL A   1      41.874  23.415  25.312  1.00  0.00     0.163 HD
ATOM     33  O   UNL A   1      41.965  25.787  24.950  1.00  0.00    -0.269 OA
BRANCH  31  34
ATOM     34  C   UNL A   1      41.485  26.112  27.225  1.00  0.00     0.039 A 
ATOM     35  C   UNL A   1      42.355  27.184  27.442  1.00  0.00     0.014 A 
ATOM     36  C   UNL A   1      40.470  25.835  28.147  1.00  0.00     0.014 A 
ATOM     37  C   UNL A   1      42.180  28.002  28.559  1.00  0.00     0.010 A 
ATOM     38  C   UNL A   1      40.256  26.691  29.225  1.00  0.00     0.010 A 
ATOM     39  C   UNL A   1      41.114  27.778  29.445  1.00  0.00    -0.014 A 
BRANCH  39  40
ATOM     40  C   UNL A   1      40.889  28.691  30.595  1.00  0.00     0.031 A 
ATOM     41  C   UNL A   1      41.743  28.594  31.828  1.00  0.00     0.074 A 
ATOM     42  C   UNL A   1      39.889  29.590  30.531  1.00  0.00     0.049 A 
ATOM     43  N   UNL A   1      41.711  29.328  32.911  1.00  0.00    -0.248 NA
ATOM     44  C   UNL A   1      42.748  27.520  31.861  1.00  0.00     0.031 C 
ATOM     45  C   UNL A   1      38.958  29.737  29.408  1.00  0.00     0.029 A 
ATOM     46  N   UNL A   1      39.489  30.552  31.422  1.00  0.00    -0.354 N 
ATOM     47  C   UNL A   1      42.681  28.802  33.757  1.00  0.00     0.074 A 
ATOM     48  C   UNL A   1      43.248  27.655  33.080  1.00  0.00     0.031 C 
ATOM     49  C   UNL A   1      38.122  30.756  29.662  1.00  0.00     0.029 A 
ATOM     50  C   UNL A   1      38.437  31.315  30.973  1.00  0.00     0.049 A 
ATOM     51  H   UNL A   1      39.915  30.685  32.299  1.00  0.00     0.167 HD
ATOM     52  C   UNL A   1      43.074  29.245  34.976  1.00  0.00     0.037 A 
ATOM     53  C   UNL A   1      37.805  32.356  31.548  1.00  0.00     0.037 A 
ATOM     54  C   UNL A   1      42.516  30.401  35.630  1.00  0.00     0.049 A 
ATOM     55  C   UNL A   1      38.271  32.841  32.892  1.00  0.00     0.074 A 
ATOM     56  C   UNL A   1      42.896  30.981  36.828  1.00  0.00     0.029 A 
ATOM     57  N   UNL A   1      41.450  31.148  35.148  1.00  0.00    -0.354 N 
ATOM     58  N   UNL A   1      39.246  32.384  33.642  1.00  0.00    -0.248 NA
ATOM     59  C   UNL A   1      37.554  33.987  33.465  1.00  0.00     0.031 C 
ATOM     60  C   UNL A   1      42.032  32.050  37.091  1.00  0.00     0.029 A 
ATOM     61  C   UNL A   1      41.141  32.165  36.036  1.00  0.00     0.049 A 
ATOM     62  H   UNL A   1      40.982  30.979  34.298  1.00  0.00     0.167 HD
ATOM     63  C   UNL A   1      39.271  33.197  34.768  1.00  0.00     0.074 A 
ATOM     64  C   UNL A   1      38.226  34.185  34.592  1.00  0.00     0.031 C 
ATOM     65  C   UNL A   1      40.086  33.131  35.852  1.00  0.00     0.037 A 
BRANCH  52  66
ATOM     66  C   UNL A   1      44.157  28.473  35.678  1.00  0.00     0.058 A 
ATOM     67  C   UNL A   1      45.519  28.751  35.471  1.00  0.00     0.135 A 
ATOM     68  C   UNL A   1      43.831  27.448  36.581  1.00  0.00     0.135 A 
ATOM     69  F   UNL A   1      45.889  29.712  34.609  1.00  0.00    -0.206 F 
ATOM     70  C   UNL A   1      46.517  28.015  36.103  1.00  0.00     0.059 A 
ATOM     71  C   UNL A   1      44.813  26.718  37.246  1.00  0.00     0.059 A 
ATOM     72  F   UNL A   1      42.546  27.141  36.820  1.00  0.00    -0.206 F 
ATOM     73  C   UNL A   1      46.154  26.997  36.985  1.00  0.00     0.060 A 
BRANCH  73  74
ATOM     74  S   UNL A   1      47.459  26.041  37.787  1.00  0.00     0.124 S 
ATOM     75  O   UNL A   1      48.644  26.520  37.081  1.00  0.00    -0.237 OA
ATOM     76  O   UNL A   1      47.342  26.457  39.180  1.00  0.00    -0.237 OA
ATOM     77  O   UNL A   1      47.083  24.658  37.515  1.00  0.00    -0.744 OA
ENDBRANCH  73  74
ENDBRANCH  52  66
BRANCH  53  78
ATOM     78  C   UNL A   1      36.696  33.034  30.828  1.00  0.00     0.058 A 
ATOM     79  C   UNL A   1      35.363  32.828  31.209  1.00  0.00     0.135 A 
ATOM     80  C   UNL A   1      36.946  33.926  29.775  1.00  0.00     0.135 A 
ATOM     81  F   UNL A   1      35.073  31.981  32.208  1.00  0.00    -0.206 F 
ATOM     82  C   UNL A   1      34.313  33.477  30.567  1.00  0.00     0.059 A 
ATOM     83  C   UNL A   1      35.916  34.605  29.132  1.00  0.00     0.059 A 
ATOM     84  F   UNL A   1      38.207  34.170  29.384  1.00  0.00    -0.206 F 
ATOM     85  C   UNL A   1      34.601  34.368  29.532  1.00  0.00     0.060 A 
BRANCH  85  86
ATOM     86  S   UNL A   1      33.237  35.258  28.751  1.00  0.00     0.124 S 
ATOM     87  O   UNL A   1      32.485  35.721  29.912  1.00  0.00    -0.237 OA
ATOM     88  O   UNL A   1      33.937  36.288  27.990  1.00  0.00    -0.237 OA
ATOM     89  O   UNL A   1      32.586  34.229  27.945  1.00  0.00    -0.744 OA
ENDBRANCH  85  86
ENDBRANCH  53  78
BRANCH  65  90
ATOM     90  C   UNL A   1      39.877  34.166  36.923  1.00  0.00     0.058 A 
ATOM     91  C   UNL A   1      40.480  35.431  36.848  1.00  0.00     0.135 A 
ATOM     92  C   UNL A   1      39.054  33.895  38.028  1.00  0.00     0.135 A 
ATOM     93  F   UNL A   1      41.280  35.738  35.816  1.00  0.00    -0.206 F 
ATOM     94  C   UNL A   1      40.306  36.379  37.851  1.00  0.00     0.059 A 
ATOM     95  C   UNL A   1      38.844  34.838  39.029  1.00  0.00     0.059 A 
ATOM     96  F   UNL A   1      38.445  32.705  38.142  1.00  0.00    -0.206 F 
ATOM     97  C   UNL A   1      39.489  36.071  38.941  1.00  0.00     0.060 A 
BRANCH  97  98
ATOM     98  S   UNL A   1      39.268  37.308  40.236  1.00  0.00     0.124 S 
ATOM     99  O   UNL A   1      38.579  36.536  41.264  1.00  0.00    -0.237 OA
ATOM    100  O   UNL A   1      40.643  37.689  40.545  1.00  0.00    -0.237 OA
ATOM    101  O   UNL A   1      38.470  38.343  39.585  1.00  0.00    -0.744 OA
ENDBRANCH  97  98
ENDBRANCH  65  90
ENDBRANCH  39  40
ENDBRANCH  31  34
ENDBRANCH  29  30
ENDBRANCH  28  29
ENDBRANCH  27  28
ENDBRANCH   1  27
TORSDOF 21
ENDMDL
MODEL 2
REMARK VINA RESULT:     -11.6      1.988      2.743
REMARK SMILES CC(C)C[C@H](CNC(=O)Nc1ccccc1Br)C(=O)NCCCCCCNC(=O)c1ccc(-c2c3nc(c(-c4c(F)cc(S(=O)(=O)[O-])cc4F)c4ccc([nH]4)c(-c4c(F)cc(S(=O)(=O)[O-])cc4F)c4nc(c(-c5c(F)cc(S(=O)(=O)[O-])cc5F)c5ccc2[nH]5)C=C4)C=C3)cc1
REMARK SMILES IDX 23 1 22 2 21 3 20 4 18 5 19 6 5 8 4 9 2 10 1 11 3 12 6 13
REMARK SMILES IDX 7 14 8 15 9 17 10 18 11 20 12 21 16 22 13 23 15 24 17 25
REMARK SMILES IDX 14 26 24 27 25 28 26 29 27 30 28 31 29 33 30 34 31 35 95 36
REMARK SMILES IDX 32 37 94 38 33 39 34 40 35 41 88 42 36 43 93 44 87 45 89 46
REMARK SMILES IDX 37 47 92 48 86 49 85 50 38 52 72 53 51 54 71 55 52 56 55 57
REMARK SMILES IDX 70 58 90 59 53 60 54 61 69 63 91 64 56 65 39 66 40 67 49 68
REMARK SMILES IDX 41 69 42 70 48 71 50 72 43 73 44 74 45 75 46 76 47 77 73 78
REMARK SMILES IDX 74 79 83 80 75 81 76 82 82 83 84 84 77 85 78 86 79 87 80 88
REMARK SMILES IDX 81 89 57 90 58 91 67 92 59 93 60 94 66 95 68 96 61 97 62 98
REMARK SMILES IDX 63 99 64 100 65 101
REMARK H PARENT 20 7 7 16 10 19 27 32 89 51 55 62
REMARK Flexibility Score: inf
ROOT
ATOM      1  C   UNL A   1      35.800  22.508  24.347  1.00  0.00     0.002 C 
ENDROOT
BRANCH   1   2
ATOM      2  C   UNL A   1      35.286  23.286  23.134  1.00  0.00     0.021 C 
BRANCH   2   3
ATOM      3  C   UNL A   1      34.375  24.451  23.492  1.00  0.00     0.116 C 
BRANCH   3   4
ATOM      4  N   UNL A   1      33.528  24.856  22.394  1.00  0.00    -0.356 N 
ATOM      5  C   UNL A   1      32.251  25.307  22.381  1.00  0.00     0.224 C 
ATOM      6  O   UNL A   1      31.831  25.735  21.299  1.00  0.00    -0.275 OA
ATOM      7  H   UNL A   1      33.951  24.795  21.507  1.00  0.00     0.163 HD
BRANCH   5   8
ATOM      8  C   UNL A   1      31.322  25.284  23.592  1.00  0.00     0.098 C 
BRANCH   8   9
ATOM      9  C   UNL A   1      30.638  23.950  23.985  1.00  0.00     0.018 C 
BRANCH   9  10
ATOM     10  C   UNL A   1      31.107  23.156  25.214  1.00  0.00    -0.017 C 
ATOM     11  C   UNL A   1      32.052  22.016  24.820  1.00  0.00     0.007 C 
ATOM     12  C   UNL A   1      31.873  24.065  26.188  1.00  0.00     0.007 C 
ENDBRANCH   9  10
ENDBRANCH   8   9
BRANCH   8  13
ATOM     13  C   UNL A   1      30.570  26.593  23.901  1.00  0.00     0.131 C 
BRANCH  13  14
ATOM     14  N   UNL A   1      30.380  27.571  22.844  1.00  0.00    -0.337 N 
ATOM     15  C   UNL A   1      30.498  28.914  22.769  1.00  0.00     0.319 C 
ATOM     16  H   UNL A   1      30.104  27.164  21.991  1.00  0.00     0.165 HD
ATOM     17  O   UNL A   1      29.987  29.483  21.802  1.00  0.00    -0.249 OA
ATOM     18  N   UNL A   1      31.020  29.652  23.770  1.00  0.00    -0.307 N 
ATOM     19  H   UNL A   1      30.668  30.570  23.830  1.00  0.00     0.171 HD
BRANCH  18  20
ATOM     20  C   UNL A   1      31.980  29.330  24.739  1.00  0.00     0.057 A 
ATOM     21  C   UNL A   1      31.619  29.597  26.063  1.00  0.00     0.027 A 
ATOM     22  C   UNL A   1      33.229  28.741  24.475  1.00  0.00     0.041 A 
ATOM     23  C   UNL A   1      32.404  29.128  27.116  1.00  0.00     0.002 A 
ATOM     24  C   UNL A   1      34.019  28.283  25.535  1.00  0.00     0.018 A 
ATOM     25  Br  UNL A   1      33.974  28.613  22.730  1.00  0.00    -0.049 Br
ATOM     26  C   UNL A   1      33.590  28.447  26.851  1.00  0.00     0.001 A 
ENDBRANCH  18  20
ENDBRANCH  13  14
ENDBRANCH   8  13
ENDBRANCH   5   8
ENDBRANCH   3   4
ENDBRANCH   2   3
ENDBRANCH   1   2
BRANCH   1  27
ATOM     27  C   UNL A   1      37.297  22.668  24.651  1.00  0.00     0.002 C 
BRANCH  27  28
ATOM     28  C   UNL A   1      37.660  22.945  26.114  1.00  0.00     0.021 C 
BRANCH  28  29
ATOM     29  C   UNL A   1      38.473  24.211  26.358  1.00  0.00     0.116 C 
BRANCH  29  30
ATOM     30  N   UNL A   1      39.889  24.008  26.106  1.00  0.00    -0.352 N 
ATOM     31  C   UNL A   1      40.975  24.706  26.564  1.00  0.00     0.251 C 
ATOM     32  H   UNL A   1      40.101  23.251  25.514  1.00  0.00     0.163 HD
ATOM     33  O   UNL A   1      42.082  24.485  26.080  1.00  0.00    -0.269 OA
BRANCH  31  34
ATOM     34  C   UNL A   1      40.818  25.729  27.618  1.00  0.00     0.039 A 
ATOM     35  C   UNL A   1      39.735  25.618  28.494  1.00  0.00     0.014 A 
ATOM     36  C   UNL A   1      41.700  26.810  27.727  1.00  0.00     0.014 A 
ATOM     37  C   UNL A   1      39.561  26.566  29.503  1.00  0.00     0.010 A 
ATOM     38  C   UNL A   1      41.562  27.718  28.775  1.00  0.00     0.010 A 
ATOM     39  C   UNL A   1      40.487  27.608  29.668  1.00  0.00    -0.014 A 
BRANCH  39  40
ATOM     40  C   UNL A   1      40.338  28.576  30.785  1.00  0.00     0.031 A 
ATOM     41  C   UNL A   1      41.203  28.471  32.009  1.00  0.00     0.074 A 
ATOM     42  C   UNL A   1      39.396  29.535  30.699  1.00  0.00     0.049 A 
ATOM     43  N   UNL A   1      41.236  29.246  33.064  1.00  0.00    -0.248 NA
ATOM     44  C   UNL A   1      42.138  27.337  32.071  1.00  0.00     0.031 C 
ATOM     45  C   UNL A   1      38.459  29.698  29.584  1.00  0.00     0.029 A 
ATOM     46  N   UNL A   1      39.073  30.553  31.558  1.00  0.00    -0.354 N 
ATOM     47  C   UNL A   1      42.183  28.690  33.916  1.00  0.00     0.074 A 
ATOM     48  C   UNL A   1      42.665  27.484  33.277  1.00  0.00     0.031 C 
ATOM     49  C   UNL A   1      37.695  30.778  29.810  1.00  0.00     0.029 A 
ATOM     50  C   UNL A   1      38.065  31.365  31.093  1.00  0.00     0.049 A 
ATOM     51  H   UNL A   1      39.520  30.691  32.424  1.00  0.00     0.167 HD
ATOM     52  C   UNL A   1      42.622  29.153  35.112  1.00  0.00     0.037 A 
ATOM     53  C   UNL A   1      37.510  32.465  31.636  1.00  0.00     0.037 A 
ATOM     54  C   UNL A   1      42.149  30.366  35.729  1.00  0.00     0.049 A 
ATOM     55  C   UNL A   1      38.026  32.969  32.955  1.00  0.00     0.074 A 
ATOM     56  C   UNL A   1      42.584  30.965  36.898  1.00  0.00     0.029 A 
ATOM     57  N   UNL A   1      41.126  31.161  35.232  1.00  0.00    -0.354 N 
ATOM     58  N   UNL A   1      38.981  32.479  33.708  1.00  0.00    -0.248 NA
ATOM     59  C   UNL A   1      37.393  34.180  33.493  1.00  0.00     0.031 C 
ATOM     60  C   UNL A   1      41.794  32.097  37.132  1.00  0.00     0.029 A 
ATOM     61  C   UNL A   1      40.896  32.229  36.084  1.00  0.00     0.049 A 
ATOM     62  H   UNL A   1      40.635  30.991  34.395  1.00  0.00     0.167 HD
ATOM     63  C   UNL A   1      39.076  33.330  34.803  1.00  0.00     0.074 A 
ATOM     64  C   UNL A   1      38.094  34.377  34.601  1.00  0.00     0.031 C 
ATOM     65  C   UNL A   1      39.902  33.253  35.878  1.00  0.00     0.037 A 
BRANCH  52  66
ATOM     66  C   UNL A   1      43.664  28.339  35.830  1.00  0.00     0.058 A 
ATOM     67  C   UNL A   1      45.039  28.559  35.635  1.00  0.00     0.135 A 
ATOM     68  C   UNL A   1      43.286  27.334  36.735  1.00  0.00     0.135 A 
ATOM     69  F   UNL A   1      45.457  29.498  34.771  1.00  0.00    -0.206 F 
ATOM     70  C   UNL A   1      45.998  27.785  36.280  1.00  0.00     0.059 A 
ATOM     71  C   UNL A   1      44.230  26.568  37.413  1.00  0.00     0.059 A 
ATOM     72  F   UNL A   1      41.988  27.083  36.962  1.00  0.00    -0.206 F 
ATOM     73  C   UNL A   1      45.584  26.788  37.165  1.00  0.00     0.060 A 
BRANCH  73  74
ATOM     74  S   UNL A   1      46.840  25.783  37.984  1.00  0.00     0.124 S 
ATOM     75  O   UNL A   1      48.068  26.356  37.443  1.00  0.00    -0.237 OA
ATOM     76  O   UNL A   1      46.584  26.050  39.395  1.00  0.00    -0.237 OA
ATOM     77  O   UNL A   1      46.532  24.427  37.541  1.00  0.00    -0.744 OA
ENDBRANCH  73  74
ENDBRANCH  52  66
BRANCH  53  78
ATOM     78  C   UNL A   1      36.435  33.185  30.905  1.00  0.00     0.058 A 
ATOM     79  C   UNL A   1      35.091  33.036  31.276  1.00  0.00     0.135 A 
ATOM     80  C   UNL A   1      36.730  34.063  29.851  1.00  0.00     0.135 A 
ATOM     81  F   UNL A   1      34.760  32.204  32.275  1.00  0.00    -0.206 F 
ATOM     82  C   UNL A   1      34.074  33.724  30.624  1.00  0.00     0.059 A 
ATOM     83  C   UNL A   1      35.733  34.781  29.198  1.00  0.00     0.059 A 
ATOM     84  F   UNL A   1      38.003  34.254  29.470  1.00  0.00    -0.206 F 
ATOM     85  C   UNL A   1      34.407  34.600  29.588  1.00  0.00     0.060 A 
BRANCH  85  86
ATOM     86  S   UNL A   1      33.086  35.542  28.793  1.00  0.00     0.124 S 
ATOM     87  O   UNL A   1      32.414  36.133  29.945  1.00  0.00    -0.237 OA
ATOM     88  O   UNL A   1      33.835  36.465  27.947  1.00  0.00    -0.237 OA
ATOM     89  O   UNL A   1      32.331  34.519  28.076  1.00  0.00    -0.744 OA
ENDBRANCH  85  86
ENDBRANCH  53  78
BRANCH  65  90
ATOM     90  C   UNL A   1      39.776  34.339  36.910  1.00  0.00     0.058 A 
ATOM     91  C   UNL A   1      40.455  35.560  36.777  1.00  0.00     0.135 A 
ATOM     92  C   UNL A   1      38.958  34.162  38.037  1.00  0.00     0.135 A 
ATOM     93  F   UNL A   1      41.255  35.777  35.722  1.00  0.00    -0.206 F 
ATOM     94  C   UNL A   1      40.357  36.554  37.745  1.00  0.00     0.059 A 
ATOM     95  C   UNL A   1      38.823  35.153  39.004  1.00  0.00     0.059 A 
ATOM     96  F   UNL A   1      38.278  33.017  38.207  1.00  0.00    -0.206 F 
ATOM     97  C   UNL A   1      39.542  36.340  38.858  1.00  0.00     0.060 A 
BRANCH  97  98
ATOM     98  S   UNL A   1      39.420  37.636  40.108  1.00  0.00     0.124 S 
ATOM     99  O   UNL A   1      39.207  36.854  41.321  1.00  0.00    -0.237 OA
ATOM    100  O   UNL A   1      40.717  38.298  40.001  1.00  0.00    -0.237 OA
ATOM    101  O   UNL A   1      38.280  38.431  39.662  1.00  0.00    -0.744 OA
ENDBRANCH  97  98
ENDBRANCH  65  90
ENDBRANCH  39  40
ENDBRANCH  31  34
ENDBRANCH  29  30
ENDBRANCH  28  29
ENDBRANCH  27  28
ENDBRANCH   1  27
TORSDOF 21
ENDMDL
MODEL 3
REMARK VINA RESULT:     -11.5      1.519      2.594
REMARK SMILES CC(C)C[C@H](CNC(=O)Nc1ccccc1Br)C(=O)NCCCCCCNC(=O)c1ccc(-c2c3nc(c(-c4c(F)cc(S(=O)(=O)[O-])cc4F)c4ccc([nH]4)c(-c4c(F)cc(S(=O)(=O)[O-])cc4F)c4nc(c(-c5c(F)cc(S(=O)(=O)[O-])cc5F)c5ccc2[nH]5)C=C4)C=C3)cc1
REMARK SMILES IDX 23 1 22 2 21 3 20 4 18 5 19 6 5 8 4 9 2 10 1 11 3 12 6 13
REMARK SMILES IDX 7 14 8 15 9 17 10 18 11 20 12 21 16 22 13 23 15 24 17 25
REMARK SMILES IDX 14 26 24 27 25 28 26 29 27 30 28 31 29 33 30 34 31 35 95 36
REMARK SMILES IDX 32 37 94 38 33 39 34 40 35 41 88 42 36 43 93 44 87 45 89 46
REMARK SMILES IDX 37 47 92 48 86 49 85 50 38 52 72 53 51 54 71 55 52 56 55 57
REMARK SMILES IDX 70 58 90 59 53 60 54 61 69 63 91 64 56 65 39 66 40 67 49 68
REMARK SMILES IDX 41 69 42 70 48 71 50 72 43 73 44 74 45 75 46 76 47 77 73 78
REMARK SMILES IDX 74 79 83 80 75 81 76 82 82 83 84 84 77 85 78 86 79 87 80 88
REMARK SMILES IDX 81 89 57 90 58 91 67 92 59 93 60 94 66 95 68 96 61 97 62 98
REMARK SMILES IDX 63 99 64 100 65 101
REMARK H PARENT 20 7 7 16 10 19 27 32 89 51 55 62
REMARK Flexibility Score: inf
ROOT
ATOM      1  C   UNL A   1      38.066  23.588  26.111  1.00  0.00     0.002 C 
ENDROOT
BRANCH   1   2
ATOM      2  C   UNL A   1      36.556  23.685  25.882  1.00  0.00     0.021 C 
BRANCH   2   3
ATOM      3  C   UNL A   1      36.142  23.507  24.429  1.00  0.00     0.116 C 
BRANCH   3   4
ATOM      4  N   UNL A   1      35.273  22.370  24.231  1.00  0.00    -0.356 N 
ATOM      5  C   UNL A   1      33.935  22.303  24.034  1.00  0.00     0.224 C 
ATOM      6  O   UNL A   1      33.479  21.193  23.731  1.00  0.00    -0.275 OA
ATOM      7  H   UNL A   1      35.731  21.498  24.241  1.00  0.00     0.163 HD
BRANCH   5   8
ATOM      8  C   UNL A   1      32.985  23.488  24.192  1.00  0.00     0.098 C 
BRANCH   8   9
ATOM      9  C   UNL A   1      32.453  23.835  25.606  1.00  0.00     0.018 C 
BRANCH   9  10
ATOM     10  C   UNL A   1      31.881  22.743  26.523  1.00  0.00    -0.017 C 
ATOM     11  C   UNL A   1      32.739  22.559  27.779  1.00  0.00     0.007 C 
ATOM     12  C   UNL A   1      30.465  23.112  26.990  1.00  0.00     0.007 C 
ENDBRANCH   9  10
ENDBRANCH   8   9
BRANCH   8  13
ATOM     13  C   UNL A   1      32.077  23.801  22.987  1.00  0.00     0.131 C 
BRANCH  13  14
ATOM     14  N   UNL A   1      32.654  24.397  21.796  1.00  0.00    -0.337 N 
ATOM     15  C   UNL A   1      32.756  25.659  21.327  1.00  0.00     0.319 C 
ATOM     16  H   UNL A   1      33.064  23.732  21.196  1.00  0.00     0.165 HD
ATOM     17  O   UNL A   1      33.052  25.807  20.139  1.00  0.00    -0.249 OA
ATOM     18  N   UNL A   1      32.410  26.735  22.062  1.00  0.00    -0.307 N 
ATOM     19  H   UNL A   1      32.092  27.506  21.537  1.00  0.00     0.171 HD
BRANCH  18  20
ATOM     20  C   UNL A   1      32.426  26.939  23.448  1.00  0.00     0.057 A 
ATOM     21  C   UNL A   1      33.692  27.039  24.032  1.00  0.00     0.027 A 
ATOM     22  C   UNL A   1      31.285  27.079  24.258  1.00  0.00     0.041 A 
ATOM     23  C   UNL A   1      33.826  27.447  25.359  1.00  0.00     0.002 A 
ATOM     24  C   UNL A   1      31.425  27.476  25.592  1.00  0.00     0.018 A 
ATOM     25  Br  UNL A   1      29.528  26.658  23.665  1.00  0.00    -0.049 Br
ATOM     26  C   UNL A   1      32.693  27.692  26.130  1.00  0.00     0.001 A 
ENDBRANCH  18  20
ENDBRANCH  13  14
ENDBRANCH   8  13
ENDBRANCH   5   8
ENDBRANCH   3   4
ENDBRANCH   2   3
ENDBRANCH   1   2
BRANCH   1  27
ATOM     27  C   UNL A   1      38.644  22.166  26.130  1.00  0.00     0.002 C 
BRANCH  27  28
ATOM     28  C   UNL A   1      40.056  22.022  26.710  1.00  0.00     0.021 C 
BRANCH  28  29
ATOM     29  C   UNL A   1      40.682  23.309  27.235  1.00  0.00     0.116 C 
BRANCH  29  30
ATOM     30  N   UNL A   1      41.175  24.154  26.162  1.00  0.00    -0.352 N 
ATOM     31  C   UNL A   1      41.319  25.515  26.106  1.00  0.00     0.251 C 
ATOM     32  H   UNL A   1      41.449  23.673  25.348  1.00  0.00     0.163 HD
ATOM     33  O   UNL A   1      41.580  26.051  25.034  1.00  0.00    -0.269 OA
BRANCH  31  34
ATOM     34  C   UNL A   1      41.145  26.337  27.323  1.00  0.00     0.039 A 
ATOM     35  C   UNL A   1      42.074  27.349  27.578  1.00  0.00     0.014 A 
ATOM     36  C   UNL A   1      40.104  26.096  28.226  1.00  0.00     0.014 A 
ATOM     37  C   UNL A   1      41.935  28.145  28.715  1.00  0.00     0.010 A 
ATOM     38  C   UNL A   1      39.929  26.934  29.326  1.00  0.00     0.010 A 
ATOM     39  C   UNL A   1      40.848  27.961  29.584  1.00  0.00    -0.014 A 
BRANCH  39  40
ATOM     40  C   UNL A   1      40.664  28.854  30.756  1.00  0.00     0.031 A 
ATOM     41  C   UNL A   1      41.531  28.708  31.974  1.00  0.00     0.074 A 
ATOM     42  C   UNL A   1      39.688  29.782  30.725  1.00  0.00     0.049 A 
ATOM     43  N   UNL A   1      41.535  29.418  33.074  1.00  0.00    -0.248 NA
ATOM     44  C   UNL A   1      42.506  27.606  31.970  1.00  0.00     0.031 C 
ATOM     45  C   UNL A   1      38.746  29.979  29.620  1.00  0.00     0.029 A 
ATOM     46  N   UNL A   1      39.328  30.735  31.642  1.00  0.00    -0.354 N 
ATOM     47  C   UNL A   1      42.501  28.846  33.894  1.00  0.00     0.074 A 
ATOM     48  C   UNL A   1      43.027  27.700  33.185  1.00  0.00     0.031 C 
ATOM     49  C   UNL A   1      37.943  31.015  29.907  1.00  0.00     0.029 A 
ATOM     50  C   UNL A   1      38.292  31.537  31.225  1.00  0.00     0.049 A 
ATOM     51  H   UNL A   1      39.769  30.837  32.517  1.00  0.00     0.167 HD
ATOM     52  C   UNL A   1      42.922  29.253  35.116  1.00  0.00     0.037 A 
ATOM     53  C   UNL A   1      37.697  32.582  31.831  1.00  0.00     0.037 A 
ATOM     54  C   UNL A   1      42.406  30.409  35.804  1.00  0.00     0.049 A 
ATOM     55  C   UNL A   1      38.194  33.024  33.179  1.00  0.00     0.074 A 
ATOM     56  C   UNL A   1      42.819  30.952  37.008  1.00  0.00     0.029 A 
ATOM     57  N   UNL A   1      41.355  31.195  35.352  1.00  0.00    -0.354 N 
ATOM     58  N   UNL A   1      39.166  32.524  33.905  1.00  0.00    -0.248 NA
ATOM     59  C   UNL A   1      37.517  34.176  33.787  1.00  0.00     0.031 C 
ATOM     60  C   UNL A   1      41.988  32.038  37.306  1.00  0.00     0.029 A 
ATOM     61  C   UNL A   1      41.086  32.200  36.266  1.00  0.00     0.049 A 
ATOM     62  H   UNL A   1      40.871  31.057  34.506  1.00  0.00     0.167 HD
ATOM     63  C   UNL A   1      39.229  33.311  35.048  1.00  0.00     0.074 A 
ATOM     64  C   UNL A   1      38.210  34.332  34.907  1.00  0.00     0.031 C 
ATOM     65  C   UNL A   1      40.056  33.199  36.119  1.00  0.00     0.037 A 
BRANCH  52  66
ATOM     66  C   UNL A   1      43.993  28.435  35.787  1.00  0.00     0.058 A 
ATOM     67  C   UNL A   1      43.681  27.393  36.676  1.00  0.00     0.135 A 
ATOM     68  C   UNL A   1      45.350  28.688  35.529  1.00  0.00     0.135 A 
ATOM     69  F   UNL A   1      42.400  27.115  36.969  1.00  0.00    -0.206 F 
ATOM     70  C   UNL A   1      44.675  26.658  37.315  1.00  0.00     0.059 A 
ATOM     71  C   UNL A   1      46.360  27.946  36.135  1.00  0.00     0.059 A 
ATOM     72  F   UNL A   1      45.707  29.670  34.686  1.00  0.00    -0.206 F 
ATOM     73  C   UNL A   1      46.013  26.945  37.042  1.00  0.00     0.060 A 
BRANCH  73  74
ATOM     74  S   UNL A   1      47.292  25.993  37.888  1.00  0.00     0.124 S 
ATOM     75  O   UNL A   1      46.532  25.395  38.981  1.00  0.00    -0.237 OA
ATOM     76  O   UNL A   1      47.738  25.072  36.849  1.00  0.00    -0.237 OA
ATOM     77  O   UNL A   1      48.265  27.007  38.282  1.00  0.00    -0.744 OA
ENDBRANCH  73  74
ENDBRANCH  52  66
BRANCH  53  78
ATOM     78  C   UNL A   1      36.597  33.306  31.142  1.00  0.00     0.058 A 
ATOM     79  C   UNL A   1      36.860  34.112  30.025  1.00  0.00     0.135 A 
ATOM     80  C   UNL A   1      35.264  33.178  31.558  1.00  0.00     0.135 A 
ATOM     81  F   UNL A   1      38.120  34.269  29.592  1.00  0.00    -0.206 F 
ATOM     82  C   UNL A   1      35.841  34.773  29.348  1.00  0.00     0.059 A 
ATOM     83  C   UNL A   1      34.224  33.810  30.884  1.00  0.00     0.059 A 
ATOM     84  F   UNL A   1      34.959  32.403  32.612  1.00  0.00    -0.206 F 
ATOM     85  C   UNL A   1      34.524  34.611  29.783  1.00  0.00     0.060 A 
BRANCH  85  86
ATOM     86  S   UNL A   1      33.200  35.417  28.855  1.00  0.00     0.124 S 
ATOM     87  O   UNL A   1      33.945  36.395  28.071  1.00  0.00    -0.237 OA
ATOM     88  O   UNL A   1      32.625  34.303  28.110  1.00  0.00    -0.237 OA
ATOM     89  O   UNL A   1      32.345  35.967  29.904  1.00  0.00    -0.744 OA
ENDBRANCH  85  86
ENDBRANCH  53  78
BRANCH  65  90
ATOM     90  C   UNL A   1      39.891  34.216  37.214  1.00  0.00     0.058 A 
ATOM     91  C   UNL A   1      38.964  34.033  38.251  1.00  0.00     0.135 A 
ATOM     92  C   UNL A   1      40.679  35.378  37.234  1.00  0.00     0.135 A 
ATOM     93  F   UNL A   1      38.182  32.943  38.275  1.00  0.00    -0.206 F 
ATOM     94  C   UNL A   1      38.795  34.986  39.251  1.00  0.00     0.059 A 
ATOM     95  C   UNL A   1      40.547  36.331  38.239  1.00  0.00     0.059 A 
ATOM     96  F   UNL A   1      41.589  35.596  36.272  1.00  0.00    -0.206 F 
ATOM     97  C   UNL A   1      39.588  36.135  39.233  1.00  0.00     0.060 A 
BRANCH  97  98
ATOM     98  S   UNL A   1      39.363  37.365  40.535  1.00  0.00     0.124 S 
ATOM     99  O   UNL A   1      40.648  38.057  40.509  1.00  0.00    -0.237 OA
ATOM    100  O   UNL A   1      38.221  38.132  40.048  1.00  0.00    -0.237 OA
ATOM    101  O   UNL A   1      39.107  36.558  41.724  1.00  0.00    -0.744 OA
ENDBRANCH  97  98
ENDBRANCH  65  90
ENDBRANCH  39  40
ENDBRANCH  31  34
ENDBRANCH  29  30
ENDBRANCH  28  29
ENDBRANCH  27  28
ENDBRANCH   1  27
TORSDOF 21
ENDMDL
