MODEL 1
REMARK VINA RESULT:      -9.8      0.000      0.000
REMARK SMILES C[C@@H]1CCC[C@H](C)[N@H+]1Cc1cc2c(cc1Cl)C=C(C(=O)NCCCCCCNC(=O)c1ccc(-c3c4nc(c(-c5c(F)cc(S(=O)(=O)[O-])cc5F)c5ccc([nH]5)c(-c5c(F)cc(S(=O)(=O)[O-])cc5F)c5nc(c(-c6c(F)cc(S(=O)(=O)[O-])cc6F)c6ccc3[nH]6)C=C5)C=C4)cc1)[C@@H](C(F)(F)F)O2
REMARK SMILES IDX 25 1 24 2 23 3 22 4 21 5 19 6 20 7 18 9 10 10 11 11 15 12
REMARK SMILES IDX 12 13 14 14 16 15 13 16 102 17 17 18 97 19 9 20 8 21 7 22
REMARK SMILES IDX 6 23 5 24 4 25 2 26 3 28 1 29 98 30 99 31 100 32 101 33
REMARK SMILES IDX 26 34 27 35 28 36 29 37 30 39 31 40 32 41 96 42 33 43 95 44
REMARK SMILES IDX 34 45 35 46 36 47 89 48 37 49 94 50 88 51 90 52 38 53 93 54
REMARK SMILES IDX 87 55 86 56 39 58 73 59 52 60 72 61 53 62 56 63 71 64 91 65
REMARK SMILES IDX 54 66 55 67 70 69 92 70 57 71 40 72 41 73 50 74 42 75 43 76
REMARK SMILES IDX 49 77 51 78 44 79 45 80 46 81 47 82 48 83 74 84 75 85 84 86
REMARK SMILES IDX 76 87 77 88 83 89 85 90 78 91 79 92 80 93 81 94 82 95 58 96
REMARK SMILES IDX 59 97 68 98 60 99 61 100 67 101 69 102 62 103 63 104 64 105
REMARK SMILES IDX 65 106 66 107
REMARK H PARENT 21 8 8 27 28 38 90 57 56 68
REMARK Flexibility Score: inf
ROOT
ATOM      1  C   UNL A   1      34.021  34.680  29.552  1.00  0.00     0.002 C 
ENDROOT
BRANCH   1   2
ATOM      2  C   UNL A   1      34.841  34.329  30.801  1.00  0.00     0.002 C 
BRANCH   2   3
ATOM      3  C   UNL A   1      34.122  34.544  32.136  1.00  0.00     0.021 C 
BRANCH   3   4
ATOM      4  C   UNL A   1      34.147  33.328  33.057  1.00  0.00     0.116 C 
BRANCH   4   5
ATOM      5  N   UNL A   1      34.733  33.652  34.346  1.00  0.00    -0.352 N 
ATOM      6  C   UNL A   1      35.915  33.449  34.971  1.00  0.00     0.251 C 
ATOM      7  O   UNL A   1      36.021  33.978  36.083  1.00  0.00    -0.270 OA
ATOM      8  H   UNL A   1      34.103  34.149  34.917  1.00  0.00     0.163 HD
BRANCH   6   9
ATOM      9  C   UNL A   1      37.045  32.640  34.433  1.00  0.00     0.067 C 
ATOM     10  C   UNL A   1      40.640  29.122  34.155  1.00  0.00     0.029 A 
ATOM     11  C   UNL A   1      39.685  29.624  33.257  1.00  0.00     0.058 A 
ATOM     12  C   UNL A   1      40.883  29.854  35.331  1.00  0.00     0.050 A 
ATOM     13  C   UNL A   1      38.860  30.681  33.625  1.00  0.00     0.128 A 
ATOM     14  C   UNL A   1      40.026  30.892  35.713  1.00  0.00     0.033 A 
ATOM     15  Cl  UNL A   1      42.200  29.499  36.393  1.00  0.00    -0.084 Cl
ATOM     16  C   UNL A   1      38.969  31.262  34.886  1.00  0.00     0.019 A 
ATOM     17  O   UNL A   1      37.888  31.035  32.736  1.00  0.00    -0.475 OA
ATOM     18  C   UNL A   1      37.908  32.151  35.344  1.00  0.00     0.025 C 
ATOM     19  C   UNL A   1      37.268  32.329  32.979  1.00  0.00     0.314 C 
BRANCH  10  20
ATOM     20  C   UNL A   1      41.251  27.766  33.868  1.00  0.00     0.301 C 
BRANCH  20  21
ATOM     21  N   UNL A   1      42.574  27.498  34.485  1.00  0.00    -0.327 N 
ATOM     22  C   UNL A   1      44.893  28.361  34.341  1.00  0.00     0.075 C 
ATOM     23  C   UNL A   1      43.739  27.667  33.598  1.00  0.00     0.181 C 
ATOM     24  C   UNL A   1      44.244  26.368  32.944  1.00  0.00     0.065 C 
ATOM     25  C   UNL A   1      44.364  25.204  33.918  1.00  0.00     0.012 C 
ATOM     26  C   UNL A   1      42.612  26.344  35.393  1.00  0.00     0.181 C 
ATOM     27  H   UNL A   1      42.696  28.283  35.125  1.00  0.00     0.348 HD
ATOM     28  C   UNL A   1      43.093  25.038  34.739  1.00  0.00     0.065 C 
ATOM     29  C   UNL A   1      43.433  26.655  36.652  1.00  0.00     0.075 C 
ENDBRANCH  20  21
ENDBRANCH  10  20
BRANCH  19  30
ATOM     30  C   UNL A   1      38.067  33.449  32.284  1.00  0.00     0.429 C 
ATOM     31  F   UNL A   1      37.554  34.664  32.586  1.00  0.00    -0.167 F 
ATOM     32  F   UNL A   1      39.364  33.466  32.679  1.00  0.00    -0.167 F 
ATOM     33  F   UNL A   1      38.073  33.328  30.937  1.00  0.00    -0.167 F 
ENDBRANCH  19  30
ENDBRANCH   6   9
ENDBRANCH   4   5
ENDBRANCH   3   4
ENDBRANCH   2   3
ENDBRANCH   1   2
BRANCH   1  34
ATOM     34  C   UNL A   1      34.598  34.184  28.224  1.00  0.00     0.021 C 
BRANCH  34  35
ATOM     35  C   UNL A   1      35.276  32.820  28.290  1.00  0.00     0.116 C 
BRANCH  35  36
ATOM     36  N   UNL A   1      34.334  31.723  28.134  1.00  0.00    -0.352 N 
ATOM     37  C   UNL A   1      34.587  30.378  28.009  1.00  0.00     0.251 C 
ATOM     38  H   UNL A   1      33.383  31.980  28.115  1.00  0.00     0.163 HD
ATOM     39  O   UNL A   1      33.679  29.604  27.722  1.00  0.00    -0.269 OA
BRANCH  37  40
ATOM     40  C   UNL A   1      35.966  29.880  28.195  1.00  0.00     0.039 A 
ATOM     41  C   UNL A   1      36.388  29.416  29.442  1.00  0.00     0.014 A 
ATOM     42  C   UNL A   1      36.856  29.912  27.117  1.00  0.00     0.014 A 
ATOM     43  C   UNL A   1      37.733  29.135  29.652  1.00  0.00     0.010 A 
ATOM     44  C   UNL A   1      38.191  29.548  27.312  1.00  0.00     0.010 A 
ATOM     45  C   UNL A   1      38.652  29.201  28.592  1.00  0.00    -0.014 A 
BRANCH  45  46
ATOM     46  C   UNL A   1      40.088  28.913  28.853  1.00  0.00     0.031 A 
ATOM     47  C   UNL A   1      40.942  29.896  29.611  1.00  0.00     0.074 A 
ATOM     48  C   UNL A   1      40.599  27.727  28.469  1.00  0.00     0.049 A 
ATOM     49  N   UNL A   1      42.204  29.803  29.944  1.00  0.00    -0.248 NA
ATOM     50  C   UNL A   1      40.299  31.143  30.057  1.00  0.00     0.031 C 
ATOM     51  C   UNL A   1      39.860  26.682  27.754  1.00  0.00     0.029 A 
ATOM     52  N   UNL A   1      41.843  27.180  28.657  1.00  0.00    -0.354 N 
ATOM     53  C   UNL A   1      42.506  30.973  30.632  1.00  0.00     0.074 A 
ATOM     54  C   UNL A   1      41.307  31.781  30.638  1.00  0.00     0.031 C 
ATOM     55  C   UNL A   1      40.643  25.599  27.623  1.00  0.00     0.029 A 
ATOM     56  C   UNL A   1      41.958  25.894  28.182  1.00  0.00     0.049 A 
ATOM     57  H   UNL A   1      42.584  27.662  29.090  1.00  0.00     0.167 HD
ATOM     58  C   UNL A   1      43.672  31.331  31.223  1.00  0.00     0.037 A 
ATOM     59  C   UNL A   1      43.006  25.049  28.186  1.00  0.00     0.037 A 
ATOM     60  C   UNL A   1      44.860  30.516  31.229  1.00  0.00     0.049 A 
ATOM     61  C   UNL A   1      44.309  25.506  28.780  1.00  0.00     0.074 A 
ATOM     62  C   UNL A   1      46.097  30.802  31.782  1.00  0.00     0.029 A 
ATOM     63  N   UNL A   1      44.958  29.252  30.666  1.00  0.00    -0.354 N 
ATOM     64  N   UNL A   1      44.583  26.630  29.398  1.00  0.00    -0.248 NA
ATOM     65  C   UNL A   1      45.450  24.588  28.663  1.00  0.00     0.031 C 
ATOM     66  C   UNL A   1      46.950  29.724  31.528  1.00  0.00     0.029 A 
ATOM     67  C   UNL A   1      46.234  28.749  30.853  1.00  0.00     0.049 A 
ATOM     68  H   UNL A   1      44.227  28.781  30.204  1.00  0.00     0.167 HD
ATOM     69  C   UNL A   1      45.921  26.545  29.760  1.00  0.00     0.074 A 
ATOM     70  C   UNL A   1      46.398  25.255  29.307  1.00  0.00     0.031 C 
ATOM     71  C   UNL A   1      46.689  27.457  30.406  1.00  0.00     0.037 A 
BRANCH  58  72
ATOM     72  C   UNL A   1      43.729  32.658  31.929  1.00  0.00     0.058 A 
ATOM     73  C   UNL A   1      43.867  33.858  31.215  1.00  0.00     0.135 A 
ATOM     74  C   UNL A   1      43.560  32.740  33.321  1.00  0.00     0.135 A 
ATOM     75  F   UNL A   1      44.051  33.836  29.885  1.00  0.00    -0.206 F 
ATOM     76  C   UNL A   1      43.842  35.093  31.855  1.00  0.00     0.059 A 
ATOM     77  C   UNL A   1      43.508  33.966  33.980  1.00  0.00     0.059 A 
ATOM     78  F   UNL A   1      43.425  31.622  34.052  1.00  0.00    -0.206 F 
ATOM     79  C   UNL A   1      43.654  35.137  33.238  1.00  0.00     0.060 A 
BRANCH  79  80
ATOM     80  S   UNL A   1      43.590  36.751  34.044  1.00  0.00     0.124 S 
ATOM     81  O   UNL A   1      44.506  36.555  35.163  1.00  0.00    -0.237 OA
ATOM     82  O   UNL A   1      44.060  37.643  32.989  1.00  0.00    -0.237 OA
ATOM     83  O   UNL A   1      42.183  36.896  34.405  1.00  0.00    -0.744 OA
ENDBRANCH  79  80
ENDBRANCH  58  72
BRANCH  59  84
ATOM     84  C   UNL A   1      42.870  23.686  27.609  1.00  0.00     0.058 A 
ATOM     85  C   UNL A   1      43.095  23.459  26.243  1.00  0.00     0.135 A 
ATOM     86  C   UNL A   1      42.511  22.587  28.405  1.00  0.00     0.135 A 
ATOM     87  F   UNL A   1      43.434  24.478  25.441  1.00  0.00    -0.206 F 
ATOM     88  C   UNL A   1      42.952  22.193  25.683  1.00  0.00     0.059 A 
ATOM     89  C   UNL A   1      42.390  21.307  27.873  1.00  0.00     0.059 A 
ATOM     90  F   UNL A   1      42.299  22.749  29.720  1.00  0.00    -0.206 F 
ATOM     91  C   UNL A   1      42.598  21.124  26.506  1.00  0.00     0.060 A 
BRANCH  91  92
ATOM     92  S   UNL A   1      42.444  19.482  25.773  1.00  0.00     0.124 S 
ATOM     93  O   UNL A   1      41.020  19.432  25.465  1.00  0.00    -0.237 OA
ATOM     94  O   UNL A   1      43.343  19.571  24.628  1.00  0.00    -0.237 OA
ATOM     95  O   UNL A   1      42.889  18.593  26.843  1.00  0.00    -0.744 OA
ENDBRANCH  91  92
ENDBRANCH  59  84
BRANCH  71  96
ATOM     96  C   UNL A   1      48.117  27.086  30.688  1.00  0.00     0.058 A 
ATOM     97  C   UNL A   1      49.154  27.452  29.815  1.00  0.00     0.135 A 
ATOM     98  C   UNL A   1      48.458  26.420  31.875  1.00  0.00     0.135 A 
ATOM     99  F   UNL A   1      48.877  28.083  28.663  1.00  0.00    -0.206 F 
ATOM    100  C   UNL A   1      50.481  27.160  30.107  1.00  0.00     0.059 A 
ATOM    101  C   UNL A   1      49.781  26.139  32.198  1.00  0.00     0.059 A 
ATOM    102  F   UNL A   1      47.502  26.055  32.745  1.00  0.00    -0.206 F 
ATOM    103  C   UNL A   1      50.785  26.508  31.304  1.00  0.00     0.060 A 
BRANCH 103 104
ATOM    104  S   UNL A   1      52.518  26.183  31.690  1.00  0.00     0.124 S 
ATOM    105  O   UNL A   1      52.741  27.075  32.823  1.00  0.00    -0.237 OA
ATOM    106  O   UNL A   1      52.505  24.756  32.000  1.00  0.00    -0.237 OA
ATOM    107  O   UNL A   1      53.216  26.544  30.460  1.00  0.00    -0.744 OA
ENDBRANCH 103 104
ENDBRANCH  71  96
ENDBRANCH  45  46
ENDBRANCH  37  40
ENDBRANCH  35  36
ENDBRANCH  34  35
ENDBRANCH   1  34
TORSDOF 19
ENDMDL
MODEL 2
REMARK VINA RESULT:      -9.6      3.289     10.968
REMARK SMILES C[C@@H]1CCC[C@H](C)[N@H+]1Cc1cc2c(cc1Cl)C=C(C(=O)NCCCCCCNC(=O)c1ccc(-c3c4nc(c(-c5c(F)cc(S(=O)(=O)[O-])cc5F)c5ccc([nH]5)c(-c5c(F)cc(S(=O)(=O)[O-])cc5F)c5nc(c(-c6c(F)cc(S(=O)(=O)[O-])cc6F)c6ccc3[nH]6)C=C5)C=C4)cc1)[C@@H](C(F)(F)F)O2
REMARK SMILES IDX 25 1 24 2 23 3 22 4 21 5 19 6 20 7 18 9 10 10 11 11 15 12
REMARK SMILES IDX 12 13 14 14 16 15 13 16 102 17 17 18 97 19 9 20 8 21 7 22
REMARK SMILES IDX 6 23 5 24 4 25 2 26 3 28 1 29 98 30 99 31 100 32 101 33
REMARK SMILES IDX 26 34 27 35 28 36 29 37 30 39 31 40 32 41 96 42 33 43 95 44
REMARK SMILES IDX 34 45 35 46 36 47 89 48 37 49 94 50 88 51 90 52 38 53 93 54
REMARK SMILES IDX 87 55 86 56 39 58 73 59 52 60 72 61 53 62 56 63 71 64 91 65
REMARK SMILES IDX 54 66 55 67 70 69 92 70 57 71 40 72 41 73 50 74 42 75 43 76
REMARK SMILES IDX 49 77 51 78 44 79 45 80 46 81 47 82 48 83 74 84 75 85 84 86
REMARK SMILES IDX 76 87 77 88 83 89 85 90 78 91 79 92 80 93 81 94 82 95 58 96
REMARK SMILES IDX 59 97 68 98 60 99 61 100 67 101 69 102 62 103 63 104 64 105
REMARK SMILES IDX 65 106 66 107
REMARK H PARENT 21 8 8 27 28 38 90 57 56 68
REMARK Flexibility Score: inf
ROOT
ATOM      1  C   UNL A   1      42.620  23.132  28.641  1.00  0.00     0.002 C 
ENDROOT
BRANCH   1   2
ATOM      2  C   UNL A   1      44.145  23.300  28.618  1.00  0.00     0.002 C 
BRANCH   2   3
ATOM      3  C   UNL A   1      44.680  24.269  27.560  1.00  0.00     0.021 C 
BRANCH   3   4
ATOM      4  C   UNL A   1      45.976  23.812  26.897  1.00  0.00     0.116 C 
BRANCH   4   5
ATOM      5  N   UNL A   1      47.137  24.411  27.533  1.00  0.00    -0.352 N 
ATOM      6  C   UNL A   1      47.639  25.657  27.694  1.00  0.00     0.251 C 
ATOM      7  O   UNL A   1      48.655  25.728  28.394  1.00  0.00    -0.270 OA
ATOM      8  H   UNL A   1      47.709  23.732  27.957  1.00  0.00     0.163 HD
BRANCH   6   9
ATOM      9  C   UNL A   1      47.078  26.897  27.086  1.00  0.00     0.067 C 
ATOM     10  C   UNL A   1      44.837  31.392  26.716  1.00  0.00     0.029 A 
ATOM     11  C   UNL A   1      45.967  30.806  26.124  1.00  0.00     0.058 A 
ATOM     12  C   UNL A   1      43.936  30.548  27.389  1.00  0.00     0.050 A 
ATOM     13  C   UNL A   1      46.290  29.480  26.386  1.00  0.00     0.128 A 
ATOM     14  C   UNL A   1      44.284  29.225  27.682  1.00  0.00     0.033 A 
ATOM     15  Cl  UNL A   1      42.388  31.087  27.938  1.00  0.00    -0.084 Cl
ATOM     16  C   UNL A   1      45.498  28.709  27.235  1.00  0.00     0.019 A 
ATOM     17  O   UNL A   1      47.462  29.020  25.859  1.00  0.00    -0.475 OA
ATOM     18  C   UNL A   1      46.020  27.437  27.720  1.00  0.00     0.025 C 
ATOM     19  C   UNL A   1      47.614  27.574  25.856  1.00  0.00     0.314 C 
BRANCH  10  20
ATOM     20  C   UNL A   1      44.725  32.904  26.706  1.00  0.00     0.301 C 
BRANCH  20  21
ATOM     21  N   UNL A   1      44.503  33.554  28.022  1.00  0.00    -0.327 N 
ATOM     22  C   UNL A   1      42.608  34.430  29.357  1.00  0.00     0.075 C 
ATOM     23  C   UNL A   1      43.429  34.561  28.063  1.00  0.00     0.181 C 
ATOM     24  C   UNL A   1      43.901  36.016  27.889  1.00  0.00     0.065 C 
ATOM     25  C   UNL A   1      45.118  36.365  28.737  1.00  0.00     0.012 C 
ATOM     26  C   UNL A   1      45.727  33.881  28.767  1.00  0.00     0.181 C 
ATOM     27  H   UNL A   1      44.098  32.807  28.585  1.00  0.00     0.348 HD
ATOM     28  C   UNL A   1      46.218  35.325  28.577  1.00  0.00     0.065 C 
ATOM     29  C   UNL A   1      45.574  33.549  30.258  1.00  0.00     0.075 C 
ENDBRANCH  20  21
ENDBRANCH  10  20
BRANCH  19  30
ATOM     30  C   UNL A   1      47.004  26.970  24.575  1.00  0.00     0.429 C 
ATOM     31  F   UNL A   1      47.679  25.859  24.199  1.00  0.00    -0.167 F 
ATOM     32  F   UNL A   1      45.714  26.597  24.756  1.00  0.00    -0.167 F 
ATOM     33  F   UNL A   1      47.017  27.832  23.533  1.00  0.00    -0.167 F 
ENDBRANCH  19  30
ENDBRANCH   6   9
ENDBRANCH   4   5
ENDBRANCH   3   4
ENDBRANCH   2   3
ENDBRANCH   1   2
BRANCH   1  34
ATOM     34  C   UNL A   1      42.058  22.077  27.685  1.00  0.00     0.021 C 
BRANCH  34  35
ATOM     35  C   UNL A   1      41.865  22.552  26.249  1.00  0.00     0.116 C 
BRANCH  35  36
ATOM     36  N   UNL A   1      40.490  22.411  25.797  1.00  0.00    -0.352 N 
ATOM     37  C   UNL A   1      39.391  23.169  26.122  1.00  0.00     0.251 C 
ATOM     38  H   UNL A   1      40.324  21.669  25.171  1.00  0.00     0.163 HD
ATOM     39  O   UNL A   1      38.270  22.811  25.775  1.00  0.00    -0.269 OA
BRANCH  37  40
ATOM     40  C   UNL A   1      39.570  24.402  26.918  1.00  0.00     0.039 A 
ATOM     41  C   UNL A   1      40.300  25.475  26.404  1.00  0.00     0.014 A 
ATOM     42  C   UNL A   1      39.033  24.469  28.206  1.00  0.00     0.014 A 
ATOM     43  C   UNL A   1      40.626  26.544  27.230  1.00  0.00     0.010 A 
ATOM     44  C   UNL A   1      39.293  25.584  29.008  1.00  0.00     0.010 A 
ATOM     45  C   UNL A   1      40.130  26.611  28.544  1.00  0.00    -0.014 A 
BRANCH  45  46
ATOM     46  C   UNL A   1      40.512  27.758  29.409  1.00  0.00     0.031 A 
ATOM     47  C   UNL A   1      41.876  27.818  30.047  1.00  0.00     0.074 A 
ATOM     48  C   UNL A   1      39.650  28.784  29.557  1.00  0.00     0.049 A 
ATOM     49  N   UNL A   1      42.385  28.747  30.815  1.00  0.00    -0.248 NA
ATOM     50  C   UNL A   1      42.789  26.693  29.787  1.00  0.00     0.031 C 
ATOM     51  C   UNL A   1      38.311  28.852  28.963  1.00  0.00     0.029 A 
ATOM     52  N   UNL A   1      39.779  29.980  30.216  1.00  0.00    -0.354 N 
ATOM     53  C   UNL A   1      43.670  28.321  31.132  1.00  0.00     0.074 A 
ATOM     54  C   UNL A   1      43.853  27.030  30.506  1.00  0.00     0.031 C 
ATOM     55  C   UNL A   1      37.772  30.052  29.229  1.00  0.00     0.029 A 
ATOM     56  C   UNL A   1      38.694  30.811  30.067  1.00  0.00     0.049 A 
ATOM     57  H   UNL A   1      40.574  30.220  30.746  1.00  0.00     0.167 HD
ATOM     58  C   UNL A   1      44.618  28.958  31.862  1.00  0.00     0.037 A 
ATOM     59  C   UNL A   1      38.460  32.044  30.558  1.00  0.00     0.037 A 
ATOM     60  C   UNL A   1      44.437  30.250  32.470  1.00  0.00     0.049 A 
ATOM     61  C   UNL A   1      39.501  32.691  31.429  1.00  0.00     0.074 A 
ATOM     62  C   UNL A   1      45.330  30.969  33.247  1.00  0.00     0.029 A 
ATOM     63  N   UNL A   1      43.291  31.026  32.362  1.00  0.00    -0.354 N 
ATOM     64  N   UNL A   1      40.697  32.256  31.743  1.00  0.00    -0.248 NA
ATOM     65  C   UNL A   1      39.153  33.987  32.026  1.00  0.00     0.031 C 
ATOM     66  C   UNL A   1      44.714  32.163  33.633  1.00  0.00     0.029 A 
ATOM     67  C   UNL A   1      43.453  32.209  33.063  1.00  0.00     0.049 A 
ATOM     68  H   UNL A   1      42.483  30.772  31.859  1.00  0.00     0.167 HD
ATOM     69  C   UNL A   1      41.252  33.235  32.558  1.00  0.00     0.074 A 
ATOM     70  C   UNL A   1      40.268  34.291  32.676  1.00  0.00     0.031 C 
ATOM     71  C   UNL A   1      42.467  33.255  33.160  1.00  0.00     0.037 A 
BRANCH  58  72
ATOM     72  C   UNL A   1      45.948  28.280  32.039  1.00  0.00     0.058 A 
ATOM     73  C   UNL A   1      46.147  27.316  33.039  1.00  0.00     0.135 A 
ATOM     74  C   UNL A   1      47.008  28.531  31.153  1.00  0.00     0.135 A 
ATOM     75  F   UNL A   1      45.174  27.050  33.926  1.00  0.00    -0.206 F 
ATOM     76  C   UNL A   1      47.351  26.629  33.159  1.00  0.00     0.059 A 
ATOM     77  C   UNL A   1      48.213  27.839  31.238  1.00  0.00     0.059 A 
ATOM     78  F   UNL A   1      46.871  29.445  30.179  1.00  0.00    -0.206 F 
ATOM     79  C   UNL A   1      48.376  26.892  32.249  1.00  0.00     0.060 A 
BRANCH  79  80
ATOM     80  S   UNL A   1      49.918  25.965  32.400  1.00  0.00     0.124 S 
ATOM     81  O   UNL A   1      49.422  24.618  32.667  1.00  0.00    -0.237 OA
ATOM     82  O   UNL A   1      50.531  26.166  31.092  1.00  0.00    -0.237 OA
ATOM     83  O   UNL A   1      50.598  26.614  33.516  1.00  0.00    -0.744 OA
ENDBRANCH  79  80
ENDBRANCH  58  72
BRANCH  59  84
ATOM     84  C   UNL A   1      37.190  32.748  30.240  1.00  0.00     0.058 A 
ATOM     85  C   UNL A   1      37.109  33.622  29.146  1.00  0.00     0.135 A 
ATOM     86  C   UNL A   1      36.038  32.567  31.020  1.00  0.00     0.135 A 
ATOM     87  F   UNL A   1      38.186  33.832  28.374  1.00  0.00    -0.206 F 
ATOM     88  C   UNL A   1      35.935  34.305  28.846  1.00  0.00     0.059 A 
ATOM     89  C   UNL A   1      34.844  33.216  30.723  1.00  0.00     0.059 A 
ATOM     90  F   UNL A   1      36.060  31.731  32.069  1.00  0.00    -0.206 F 
ATOM     91  C   UNL A   1      34.808  34.096  29.641  1.00  0.00     0.060 A 
BRANCH  91  92
ATOM     92  S   UNL A   1      33.282  34.966  29.226  1.00  0.00     0.124 S 
ATOM     93  O   UNL A   1      32.588  34.967  30.507  1.00  0.00    -0.237 OA
ATOM     94  O   UNL A   1      33.782  36.259  28.768  1.00  0.00    -0.237 OA
ATOM     95  O   UNL A   1      32.690  34.127  28.187  1.00  0.00    -0.744 OA
ENDBRANCH  91  92
ENDBRANCH  59  84
BRANCH  71  96
ATOM     96  C   UNL A   1      42.815  34.465  33.978  1.00  0.00     0.058 A 
ATOM     97  C   UNL A   1      42.561  34.514  35.358  1.00  0.00     0.135 A 
ATOM     98  C   UNL A   1      43.472  35.557  33.390  1.00  0.00     0.135 A 
ATOM     99  F   UNL A   1      41.927  33.498  35.965  1.00  0.00    -0.206 F 
ATOM    100  C   UNL A   1      42.938  35.610  36.125  1.00  0.00     0.059 A 
ATOM    101  C   UNL A   1      43.879  36.654  34.142  1.00  0.00     0.059 A 
ATOM    102  F   UNL A   1      43.744  35.555  32.075  1.00  0.00    -0.206 F 
ATOM    103  C   UNL A   1      43.602  36.673  35.509  1.00  0.00     0.060 A 
BRANCH 103 104
ATOM    104  S   UNL A   1      44.129  38.066  36.529  1.00  0.00     0.124 S 
ATOM    105  O   UNL A   1      45.546  37.774  36.718  1.00  0.00    -0.237 OA
ATOM    106  O   UNL A   1      43.827  39.209  35.673  1.00  0.00    -0.237 OA
ATOM    107  O   UNL A   1      43.299  37.948  37.723  1.00  0.00    -0.744 OA
ENDBRANCH 103 104
ENDBRANCH  71  96
ENDBRANCH  45  46
ENDBRANCH  37  40
ENDBRANCH  35  36
ENDBRANCH  34  35
ENDBRANCH   1  34
TORSDOF 19
ENDMDL
MODEL 3
REMARK VINA RESULT:      -9.6      5.131     10.802
REMARK SMILES C[C@@H]1CCC[C@H](C)[N@H+]1Cc1cc2c(cc1Cl)C=C(C(=O)NCCCCCCNC(=O)c1ccc(-c3c4nc(c(-c5c(F)cc(S(=O)(=O)[O-])cc5F)c5ccc([nH]5)c(-c5c(F)cc(S(=O)(=O)[O-])cc5F)c5nc(c(-c6c(F)cc(S(=O)(=O)[O-])cc6F)c6ccc3[nH]6)C=C5)C=C4)cc1)[C@@H](C(F)(F)F)O2
REMARK SMILES IDX 25 1 24 2 23 3 22 4 21 5 19 6 20 7 18 9 10 10 11 11 15 12
REMARK SMILES IDX 12 13 14 14 16 15 13 16 102 17 17 18 97 19 9 20 8 21 7 22
REMARK SMILES IDX 6 23 5 24 4 25 2 26 3 28 1 29 98 30 99 31 100 32 101 33
REMARK SMILES IDX 26 34 27 35 28 36 29 37 30 39 31 40 32 41 96 42 33 43 95 44
REMARK SMILES IDX 34 45 35 46 36 47 89 48 37 49 94 50 88 51 90 52 38 53 93 54
REMARK SMILES IDX 87 55 86 56 39 58 73 59 52 60 72 61 53 62 56 63 71 64 91 65
REMARK SMILES IDX 54 66 55 67 70 69 92 70 57 71 40 72 41 73 50 74 42 75 43 76
REMARK SMILES IDX 49 77 51 78 44 79 45 80 46 81 47 82 48 83 74 84 75 85 84 86
REMARK SMILES IDX 76 87 77 88 83 89 85 90 78 91 79 92 80 93 81 94 82 95 58 96
REMARK SMILES IDX 59 97 68 98 60 99 61 100 67 101 69 102 62 103 63 104 64 105
REMARK SMILES IDX 65 106 66 107
REMARK H PARENT 21 8 8 27 28 38 90 57 56 68
REMARK Flexibility Score: inf
ROOT
ATOM      1  C   UNL A   1      35.282  33.538  28.345  1.00  0.00     0.002 C 
ENDROOT
BRANCH   1   2
ATOM      2  C   UNL A   1      34.293  32.405  28.040  1.00  0.00     0.002 C 
BRANCH   2   3
ATOM      3  C   UNL A   1      34.923  31.023  27.841  1.00  0.00     0.021 C 
BRANCH   3   4
ATOM      4  C   UNL A   1      34.002  30.013  27.164  1.00  0.00     0.116 C 
BRANCH   4   5
ATOM      5  N   UNL A   1      32.815  30.654  26.627  1.00  0.00    -0.352 N 
ATOM      6  C   UNL A   1      31.816  30.326  25.776  1.00  0.00     0.251 C 
ATOM      7  O   UNL A   1      30.931  31.178  25.649  1.00  0.00    -0.270 OA
ATOM      8  H   UNL A   1      32.709  31.570  26.972  1.00  0.00     0.163 HD
BRANCH   6   9
ATOM      9  C   UNL A   1      31.731  29.058  24.997  1.00  0.00     0.067 C 
ATOM     10  C   UNL A   1      32.593  24.299  23.589  1.00  0.00     0.029 A 
ATOM     11  C   UNL A   1      31.444  25.098  23.698  1.00  0.00     0.058 A 
ATOM     12  C   UNL A   1      33.844  24.938  23.632  1.00  0.00     0.050 A 
ATOM     13  C   UNL A   1      31.551  26.438  24.055  1.00  0.00     0.128 A 
ATOM     14  C   UNL A   1      33.947  26.277  24.029  1.00  0.00     0.033 A 
ATOM     15  Cl  UNL A   1      35.321  24.122  23.256  1.00  0.00    -0.084 Cl
ATOM     16  C   UNL A   1      32.796  27.010  24.307  1.00  0.00     0.019 A 
ATOM     17  O   UNL A   1      30.382  27.115  24.245  1.00  0.00    -0.475 OA
ATOM     18  C   UNL A   1      32.851  28.312  24.961  1.00  0.00     0.025 C 
ATOM     19  C   UNL A   1      30.504  28.563  24.283  1.00  0.00     0.314 C 
BRANCH  10  20
ATOM     20  C   UNL A   1      32.419  22.794  23.564  1.00  0.00     0.301 C 
BRANCH  20  21
ATOM     21  N   UNL A   1      32.574  22.093  24.863  1.00  0.00    -0.327 N 
ATOM     22  C   UNL A   1      31.895  22.404  27.226  1.00  0.00     0.075 C 
ATOM     23  C   UNL A   1      32.707  22.962  26.045  1.00  0.00     0.181 C 
ATOM     24  C   UNL A   1      34.157  23.230  26.488  1.00  0.00     0.065 C 
ATOM     25  C   UNL A   1      35.019  21.975  26.534  1.00  0.00     0.012 C 
ATOM     26  C   UNL A   1      33.440  20.907  24.828  1.00  0.00     0.181 C 
ATOM     27  H   UNL A   1      31.652  21.685  25.019  1.00  0.00     0.348 HD
ATOM     28  C   UNL A   1      34.896  21.173  25.246  1.00  0.00     0.065 C 
ATOM     29  C   UNL A   1      32.840  19.757  25.650  1.00  0.00     0.075 C 
ENDBRANCH  20  21
ENDBRANCH  10  20
BRANCH  19  30
ATOM     30  C   UNL A   1      30.410  29.151  22.861  1.00  0.00     0.429 C 
ATOM     31  F   UNL A   1      29.668  28.353  22.059  1.00  0.00    -0.167 F 
ATOM     32  F   UNL A   1      29.814  30.369  22.856  1.00  0.00    -0.167 F 
ATOM     33  F   UNL A   1      31.621  29.308  22.279  1.00  0.00    -0.167 F 
ENDBRANCH  19  30
ENDBRANCH   6   9
ENDBRANCH   4   5
ENDBRANCH   3   4
ENDBRANCH   2   3
ENDBRANCH   1   2
BRANCH   1  34
ATOM     34  C   UNL A   1      36.738  33.107  28.540  1.00  0.00     0.021 C 
BRANCH  34  35
ATOM     35  C   UNL A   1      37.229  33.142  29.983  1.00  0.00     0.116 C 
BRANCH  35  36
ATOM     36  N   UNL A   1      36.520  32.199  30.833  1.00  0.00    -0.352 N 
ATOM     37  C   UNL A   1      36.810  30.881  31.091  1.00  0.00     0.251 C 
ATOM     38  H   UNL A   1      35.722  32.555  31.288  1.00  0.00     0.163 HD
ATOM     39  O   UNL A   1      36.011  30.182  31.709  1.00  0.00    -0.269 OA
BRANCH  37  40
ATOM     40  C   UNL A   1      38.077  30.306  30.591  1.00  0.00     0.039 A 
ATOM     41  C   UNL A   1      39.113  30.006  31.477  1.00  0.00     0.014 A 
ATOM     42  C   UNL A   1      38.241  30.100  29.219  1.00  0.00     0.014 A 
ATOM     43  C   UNL A   1      40.362  29.652  30.978  1.00  0.00     0.010 A 
ATOM     44  C   UNL A   1      39.474  29.663  28.727  1.00  0.00     0.010 A 
ATOM     45  C   UNL A   1      40.559  29.480  29.598  1.00  0.00    -0.014 A 
BRANCH  45  46
ATOM     46  C   UNL A   1      41.912  29.120  29.094  1.00  0.00     0.031 A 
ATOM     47  C   UNL A   1      42.199  27.726  28.600  1.00  0.00     0.074 A 
ATOM     48  C   UNL A   1      42.858  30.075  29.014  1.00  0.00     0.049 A 
ATOM     49  N   UNL A   1      43.312  27.239  28.112  1.00  0.00    -0.248 NA
ATOM     50  C   UNL A   1      41.098  26.751  28.656  1.00  0.00     0.031 C 
ATOM     51  C   UNL A   1      42.687  31.469  29.435  1.00  0.00     0.029 A 
ATOM     52  N   UNL A   1      44.137  30.036  28.519  1.00  0.00    -0.354 N 
ATOM     53  C   UNL A   1      43.048  25.908  27.807  1.00  0.00     0.074 A 
ATOM     54  C   UNL A   1      41.680  25.650  28.199  1.00  0.00     0.031 C 
ATOM     55  C   UNL A   1      43.791  32.163  29.120  1.00  0.00     0.029 A 
ATOM     56  C   UNL A   1      44.774  31.255  28.538  1.00  0.00     0.049 A 
ATOM     57  H   UNL A   1      44.559  29.213  28.182  1.00  0.00     0.167 HD
ATOM     58  C   UNL A   1      43.865  24.993  27.232  1.00  0.00     0.037 A 
ATOM     59  C   UNL A   1      46.013  31.603  28.142  1.00  0.00     0.037 A 
ATOM     60  C   UNL A   1      45.221  25.260  26.828  1.00  0.00     0.049 A 
ATOM     61  C   UNL A   1      46.922  30.546  27.581  1.00  0.00     0.074 A 
ATOM     62  C   UNL A   1      46.136  24.391  26.258  1.00  0.00     0.029 A 
ATOM     63  N   UNL A   1      45.855  26.489  26.939  1.00  0.00    -0.354 N 
ATOM     64  N   UNL A   1      46.663  29.285  27.330  1.00  0.00    -0.248 NA
ATOM     65  C   UNL A   1      48.298  30.954  27.264  1.00  0.00     0.031 C 
ATOM     66  C   UNL A   1      47.331  25.086  26.051  1.00  0.00     0.029 A 
ATOM     67  C   UNL A   1      47.150  26.398  26.455  1.00  0.00     0.049 A 
ATOM     68  H   UNL A   1      45.445  27.305  27.306  1.00  0.00     0.167 HD
ATOM     69  C   UNL A   1      47.837  28.755  26.808  1.00  0.00     0.074 A 
ATOM     70  C   UNL A   1      48.802  29.834  26.764  1.00  0.00     0.031 C 
ATOM     71  C   UNL A   1      48.094  27.486  26.407  1.00  0.00     0.037 A 
BRANCH  58  72
ATOM     72  C   UNL A   1      43.320  23.612  26.989  1.00  0.00     0.058 A 
ATOM     73  C   UNL A   1      43.002  23.172  25.695  1.00  0.00     0.135 A 
ATOM     74  C   UNL A   1      43.192  22.693  28.043  1.00  0.00     0.135 A 
ATOM     75  F   UNL A   1      43.088  24.015  24.653  1.00  0.00    -0.206 F 
ATOM     76  C   UNL A   1      42.572  21.871  25.454  1.00  0.00     0.059 A 
ATOM     77  C   UNL A   1      42.786  21.380  27.823  1.00  0.00     0.059 A 
ATOM     78  F   UNL A   1      43.481  23.064  29.301  1.00  0.00    -0.206 F 
ATOM     79  C   UNL A   1      42.474  20.980  26.524  1.00  0.00     0.060 A 
BRANCH  79  80
ATOM     80  S   UNL A   1      41.947  19.286  26.185  1.00  0.00     0.124 S 
ATOM     81  O   UNL A   1      40.513  19.464  25.976  1.00  0.00    -0.237 OA
ATOM     82  O   UNL A   1      42.724  18.952  24.996  1.00  0.00    -0.237 OA
ATOM     83  O   UNL A   1      42.317  18.564  27.398  1.00  0.00    -0.744 OA
ENDBRANCH  79  80
ENDBRANCH  58  72
BRANCH  59  84
ATOM     84  C   UNL A   1      46.469  33.013  28.261  1.00  0.00     0.058 A 
ATOM     85  C   UNL A   1      46.320  33.908  27.192  1.00  0.00     0.135 A 
ATOM     86  C   UNL A   1      47.063  33.493  29.439  1.00  0.00     0.135 A 
ATOM     87  F   UNL A   1      45.764  33.494  26.043  1.00  0.00    -0.206 F 
ATOM     88  C   UNL A   1      46.760  35.225  27.278  1.00  0.00     0.059 A 
ATOM     89  C   UNL A   1      47.484  34.813  29.560  1.00  0.00     0.059 A 
ATOM     90  F   UNL A   1      47.215  32.680  30.496  1.00  0.00    -0.206 F 
ATOM     91  C   UNL A   1      47.342  35.667  28.467  1.00  0.00     0.060 A 
BRANCH  91  92
ATOM     92  S   UNL A   1      47.883  37.386  28.577  1.00  0.00     0.124 S 
ATOM     93  O   UNL A   1      47.966  37.574  30.021  1.00  0.00    -0.237 OA
ATOM     94  O   UNL A   1      49.155  37.353  27.863  1.00  0.00    -0.237 OA
ATOM     95  O   UNL A   1      46.813  38.118  27.905  1.00  0.00    -0.744 OA
ENDBRANCH  91  92
ENDBRANCH  59  84
BRANCH  71  96
ATOM     96  C   UNL A   1      49.461  27.196  25.858  1.00  0.00     0.058 A 
ATOM     97  C   UNL A   1      50.500  26.739  26.685  1.00  0.00     0.135 A 
ATOM     98  C   UNL A   1      49.715  27.310  24.483  1.00  0.00     0.135 A 
ATOM     99  F   UNL A   1      50.308  26.622  28.008  1.00  0.00    -0.206 F 
ATOM    100  C   UNL A   1      51.748  26.414  26.166  1.00  0.00     0.059 A 
ATOM    101  C   UNL A   1      50.949  26.968  23.938  1.00  0.00     0.059 A 
ATOM    102  F   UNL A   1      48.752  27.736  23.650  1.00  0.00    -0.206 F 
ATOM    103  C   UNL A   1      51.961  26.527  24.791  1.00  0.00     0.060 A 
BRANCH 103 104
ATOM    104  S   UNL A   1      53.572  26.053  24.128  1.00  0.00     0.124 S 
ATOM    105  O   UNL A   1      54.420  27.137  24.608  1.00  0.00    -0.237 OA
ATOM    106  O   UNL A   1      53.793  24.751  24.751  1.00  0.00    -0.237 OA
ATOM    107  O   UNL A   1      53.351  26.021  22.685  1.00  0.00    -0.744 OA
ENDBRANCH 103 104
ENDBRANCH  71  96
ENDBRANCH  45  46
ENDBRANCH  37  40
ENDBRANCH  35  36
ENDBRANCH  34  35
ENDBRANCH   1  34
TORSDOF 19
ENDMDL
