MODEL 1
REMARK VINA RESULT:     -11.4      0.000      0.000
REMARK SMILES CCOc1ccc(-n2ncc(C(=O)NCCCCCCNC(=O)c3ccc(-c4c5nc(c(-c6c(F)cc(S(=O)(=O)[O-])cc6F)c6ccc([nH]6)c(-c6c(F)cc(S(=O)(=O)[O-])cc6F)c6nc(c(-c7c(F)cc(S(=O)(=O)[O-])cc7F)c7ccc4[nH]7)C=C6)C=C5)cc3)c2C)nn1
REMARK SMILES IDX 17 1 16 2 15 3 14 4 12 5 13 6 11 8 8 9 9 10 90 11 10 12
REMARK SMILES IDX 91 13 7 14 4 15 5 16 93 17 6 18 92 19 3 20 2 21 1 22 18 23
REMARK SMILES IDX 19 24 20 25 21 26 22 27 23 29 24 30 25 31 89 32 26 33 88 34
REMARK SMILES IDX 27 35 28 36 29 37 82 38 30 39 87 40 81 41 83 42 31 43 86 44
REMARK SMILES IDX 80 45 79 46 32 48 66 49 45 50 65 51 46 52 49 53 64 54 84 55
REMARK SMILES IDX 47 56 48 57 63 59 85 60 50 61 33 62 34 63 43 64 35 65 36 66
REMARK SMILES IDX 42 67 44 68 37 69 38 70 39 71 40 72 41 73 67 74 68 75 77 76
REMARK SMILES IDX 69 77 70 78 76 79 78 80 71 81 72 82 73 83 74 84 75 85 51 86
REMARK SMILES IDX 52 87 61 88 53 89 54 90 60 91 62 92 55 93 56 94 57 95 58 96
REMARK SMILES IDX 59 97
REMARK H PARENT 14 7 21 28 83 47 49 58
REMARK Flexibility Score: inf
ROOT
ATOM      1  C   UNL A   1      36.419  22.947  25.856  1.00  0.00     0.002 C 
ENDROOT
BRANCH   1   2
ATOM      2  C   UNL A   1      36.009  21.484  26.023  1.00  0.00     0.021 C 
BRANCH   2   3
ATOM      3  C   UNL A   1      35.542  20.811  24.738  1.00  0.00     0.116 C 
BRANCH   3   4
ATOM      4  N   UNL A   1      34.213  20.253  24.872  1.00  0.00    -0.352 N 
ATOM      5  C   UNL A   1      32.959  20.791  24.962  1.00  0.00     0.254 C 
ATOM      6  O   UNL A   1      32.051  19.976  25.148  1.00  0.00    -0.269 OA
ATOM      7  H   UNL A   1      34.213  19.269  24.906  1.00  0.00     0.163 HD
BRANCH   5   8
ATOM      8  C   UNL A   1      32.681  22.216  24.791  1.00  0.00     0.081 A 
ATOM      9  N   UNL A   1      32.306  24.374  25.283  1.00  0.00    -0.217 N 
ATOM     10  N   UNL A   1      31.979  24.233  23.975  1.00  0.00    -0.174 NA
ATOM     11  C   UNL A   1      32.706  23.161  25.828  1.00  0.00     0.056 A 
ATOM     12  C   UNL A   1      32.276  22.976  23.682  1.00  0.00     0.149 A 
ATOM     13  C   UNL A   1      32.997  22.936  27.274  1.00  0.00     0.068 C 
BRANCH   9  14
ATOM     14  C   UNL A   1      32.153  25.660  25.875  1.00  0.00     0.176 A 
ATOM     15  C   UNL A   1      31.946  28.089  27.037  1.00  0.00     0.233 A 
ATOM     16  C   UNL A   1      33.123  27.787  26.390  1.00  0.00     0.074 A 
ATOM     17  N   UNL A   1      30.903  27.235  27.107  1.00  0.00    -0.110 NA
ATOM     18  C   UNL A   1      33.227  26.546  25.790  1.00  0.00     0.057 A 
ATOM     19  N   UNL A   1      31.007  26.006  26.504  1.00  0.00    -0.127 NA
BRANCH  15  20
ATOM     20  O   UNL A   1      31.843  29.291  27.689  1.00  0.00    -0.477 OA
BRANCH  20  21
ATOM     21  C   UNL A   1      32.463  30.326  26.923  1.00  0.00     0.228 C 
ATOM     22  C   UNL A   1      31.423  31.116  26.140  1.00  0.00     0.049 C 
ENDBRANCH  20  21
ENDBRANCH  15  20
ENDBRANCH   9  14
ENDBRANCH   5   8
ENDBRANCH   3   4
ENDBRANCH   2   3
ENDBRANCH   1   2
BRANCH   1  23
ATOM     23  C   UNL A   1      37.907  23.257  26.084  1.00  0.00     0.002 C 
BRANCH  23  24
ATOM     24  C   UNL A   1      38.873  22.063  26.076  1.00  0.00     0.021 C 
BRANCH  24  25
ATOM     25  C   UNL A   1      40.090  22.240  26.969  1.00  0.00     0.116 C 
BRANCH  25  26
ATOM     26  N   UNL A   1      41.342  21.990  26.256  1.00  0.00    -0.352 N 
ATOM     27  C   UNL A   1      42.247  22.913  25.757  1.00  0.00     0.251 C 
ATOM     28  H   UNL A   1      41.572  21.044  26.112  1.00  0.00     0.163 HD
ATOM     29  O   UNL A   1      43.028  22.606  24.874  1.00  0.00    -0.269 OA
BRANCH  27  30
ATOM     30  C   UNL A   1      42.242  24.272  26.326  1.00  0.00     0.039 A 
ATOM     31  C   UNL A   1      41.511  25.312  25.744  1.00  0.00     0.014 A 
ATOM     32  C   UNL A   1      42.970  24.480  27.491  1.00  0.00     0.014 A 
ATOM     33  C   UNL A   1      41.460  26.541  26.398  1.00  0.00     0.010 A 
ATOM     34  C   UNL A   1      42.767  25.617  28.222  1.00  0.00     0.010 A 
ATOM     35  C   UNL A   1      42.080  26.680  27.649  1.00  0.00    -0.014 A 
BRANCH  35  36
ATOM     36  C   UNL A   1      41.956  27.901  28.434  1.00  0.00     0.031 A 
ATOM     37  C   UNL A   1      43.056  28.883  28.229  1.00  0.00     0.074 A 
ATOM     38  C   UNL A   1      40.814  28.225  29.081  1.00  0.00     0.049 A 
ATOM     39  N   UNL A   1      43.967  29.241  29.071  1.00  0.00    -0.248 NA
ATOM     40  C   UNL A   1      43.263  29.419  26.873  1.00  0.00     0.031 C 
ATOM     41  C   UNL A   1      39.532  27.508  29.083  1.00  0.00     0.029 A 
ATOM     42  N   UNL A   1      40.517  29.348  29.786  1.00  0.00    -0.354 N 
ATOM     43  C   UNL A   1      44.706  30.235  28.432  1.00  0.00     0.074 A 
ATOM     44  C   UNL A   1      44.377  30.136  27.036  1.00  0.00     0.031 C 
ATOM     45  C   UNL A   1      38.553  28.323  29.533  1.00  0.00     0.029 A 
ATOM     46  C   UNL A   1      39.160  29.546  30.021  1.00  0.00     0.049 A 
ATOM     47  H   UNL A   1      41.208  29.973  30.105  1.00  0.00     0.167 HD
ATOM     48  C   UNL A   1      45.321  31.225  29.141  1.00  0.00     0.037 A 
ATOM     49  C   UNL A   1      38.579  30.649  30.555  1.00  0.00     0.037 A 
ATOM     50  C   UNL A   1      45.390  30.886  30.543  1.00  0.00     0.049 A 
ATOM     51  C   UNL A   1      39.649  31.388  31.276  1.00  0.00     0.074 A 
ATOM     52  C   UNL A   1      45.932  29.840  31.264  1.00  0.00     0.029 A 
ATOM     53  N   UNL A   1      44.490  31.493  31.389  1.00  0.00    -0.354 N 
ATOM     54  N   UNL A   1      40.262  30.927  32.333  1.00  0.00    -0.248 NA
ATOM     55  C   UNL A   1      40.366  32.420  30.544  1.00  0.00     0.031 C 
ATOM     56  C   UNL A   1      44.983  29.573  32.295  1.00  0.00     0.029 A 
ATOM     57  C   UNL A   1      43.961  30.518  32.195  1.00  0.00     0.049 A 
ATOM     58  H   UNL A   1      44.268  32.451  31.412  1.00  0.00     0.167 HD
ATOM     59  C   UNL A   1      41.592  31.281  32.158  1.00  0.00     0.074 A 
ATOM     60  C   UNL A   1      41.579  32.274  31.085  1.00  0.00     0.031 C 
ATOM     61  C   UNL A   1      42.602  30.531  32.694  1.00  0.00     0.037 A 
BRANCH  48  62
ATOM     62  C   UNL A   1      45.507  32.648  28.656  1.00  0.00     0.058 A 
ATOM     63  C   UNL A   1      46.796  33.225  28.703  1.00  0.00     0.135 A 
ATOM     64  C   UNL A   1      44.449  33.556  28.419  1.00  0.00     0.135 A 
ATOM     65  F   UNL A   1      47.879  32.461  28.916  1.00  0.00    -0.206 F 
ATOM     66  C   UNL A   1      47.005  34.602  28.618  1.00  0.00     0.059 A 
ATOM     67  C   UNL A   1      44.642  34.925  28.276  1.00  0.00     0.059 A 
ATOM     68  F   UNL A   1      43.165  33.182  28.414  1.00  0.00    -0.206 F 
ATOM     69  C   UNL A   1      45.916  35.445  28.423  1.00  0.00     0.060 A 
BRANCH  69  70
ATOM     70  S   UNL A   1      46.164  37.229  28.429  1.00  0.00     0.124 S 
ATOM     71  O   UNL A   1      45.676  37.592  27.105  1.00  0.00    -0.237 OA
ATOM     72  O   UNL A   1      45.335  37.645  29.556  1.00  0.00    -0.237 OA
ATOM     73  O   UNL A   1      47.603  37.365  28.635  1.00  0.00    -0.744 OA
ENDBRANCH  69  70
ENDBRANCH  48  62
BRANCH  49  74
ATOM     74  C   UNL A   1      37.271  31.263  30.201  1.00  0.00     0.058 A 
ATOM     75  C   UNL A   1      36.465  31.872  31.181  1.00  0.00     0.135 A 
ATOM     76  C   UNL A   1      36.917  31.522  28.861  1.00  0.00     0.135 A 
ATOM     77  F   UNL A   1      36.737  31.694  32.482  1.00  0.00    -0.206 F 
ATOM     78  C   UNL A   1      35.410  32.732  30.853  1.00  0.00     0.059 A 
ATOM     79  C   UNL A   1      35.864  32.368  28.509  1.00  0.00     0.059 A 
ATOM     80  F   UNL A   1      37.648  31.036  27.846  1.00  0.00    -0.206 F 
ATOM     81  C   UNL A   1      35.132  32.992  29.511  1.00  0.00     0.060 A 
BRANCH  81  82
ATOM     82  S   UNL A   1      33.898  34.245  29.084  1.00  0.00     0.124 S 
ATOM     83  O   UNL A   1      34.725  35.304  28.519  1.00  0.00    -0.237 OA
ATOM     84  O   UNL A   1      33.045  33.529  28.139  1.00  0.00    -0.237 OA
ATOM     85  O   UNL A   1      33.275  34.555  30.368  1.00  0.00    -0.744 OA
ENDBRANCH  81  82
ENDBRANCH  49  74
BRANCH  61  86
ATOM     86  C   UNL A   1      42.250  29.485  33.724  1.00  0.00     0.058 A 
ATOM     87  C   UNL A   1      41.831  28.175  33.429  1.00  0.00     0.135 A 
ATOM     88  C   UNL A   1      42.503  29.783  35.072  1.00  0.00     0.135 A 
ATOM     89  F   UNL A   1      41.665  27.773  32.162  1.00  0.00    -0.206 F 
ATOM     90  C   UNL A   1      41.632  27.221  34.429  1.00  0.00     0.059 A 
ATOM     91  C   UNL A   1      42.343  28.838  36.082  1.00  0.00     0.059 A 
ATOM     92  F   UNL A   1      42.967  30.996  35.417  1.00  0.00    -0.206 F 
ATOM     93  C   UNL A   1      41.893  27.561  35.756  1.00  0.00     0.060 A 
BRANCH  93  94
ATOM     94  S   UNL A   1      41.704  26.309  37.042  1.00  0.00     0.124 S 
ATOM     95  O   UNL A   1      42.872  26.553  37.882  1.00  0.00    -0.237 OA
ATOM     96  O   UNL A   1      40.414  26.651  37.634  1.00  0.00    -0.237 OA
ATOM     97  O   UNL A   1      41.723  25.051  36.299  1.00  0.00    -0.744 OA
ENDBRANCH  93  94
ENDBRANCH  61  86
ENDBRANCH  35  36
ENDBRANCH  27  30
ENDBRANCH  25  26
ENDBRANCH  24  25
ENDBRANCH  23  24
ENDBRANCH   1  23
TORSDOF 19
ENDMDL
MODEL 2
REMARK VINA RESULT:     -11.1      2.287      2.937
REMARK SMILES CCOc1ccc(-n2ncc(C(=O)NCCCCCCNC(=O)c3ccc(-c4c5nc(c(-c6c(F)cc(S(=O)(=O)[O-])cc6F)c6ccc([nH]6)c(-c6c(F)cc(S(=O)(=O)[O-])cc6F)c6nc(c(-c7c(F)cc(S(=O)(=O)[O-])cc7F)c7ccc4[nH]7)C=C6)C=C5)cc3)c2C)nn1
REMARK SMILES IDX 17 1 16 2 15 3 14 4 12 5 13 6 11 8 8 9 9 10 90 11 10 12
REMARK SMILES IDX 91 13 7 14 4 15 5 16 93 17 6 18 92 19 3 20 2 21 1 22 18 23
REMARK SMILES IDX 19 24 20 25 21 26 22 27 23 29 24 30 25 31 89 32 26 33 88 34
REMARK SMILES IDX 27 35 28 36 29 37 82 38 30 39 87 40 81 41 83 42 31 43 86 44
REMARK SMILES IDX 80 45 79 46 32 48 66 49 45 50 65 51 46 52 49 53 64 54 84 55
REMARK SMILES IDX 47 56 48 57 63 59 85 60 50 61 33 62 34 63 43 64 35 65 36 66
REMARK SMILES IDX 42 67 44 68 37 69 38 70 39 71 40 72 41 73 67 74 68 75 77 76
REMARK SMILES IDX 69 77 70 78 76 79 78 80 71 81 72 82 73 83 74 84 75 85 51 86
REMARK SMILES IDX 52 87 61 88 53 89 54 90 60 91 62 92 55 93 56 94 57 95 58 96
REMARK SMILES IDX 59 97
REMARK H PARENT 14 7 21 28 83 47 49 58
REMARK Flexibility Score: inf
ROOT
ATOM      1  C   UNL A   1      34.069  21.677  26.445  1.00  0.00     0.002 C 
ENDROOT
BRANCH   1   2
ATOM      2  C   UNL A   1      33.269  20.804  25.478  1.00  0.00     0.021 C 
BRANCH   2   3
ATOM      3  C   UNL A   1      32.733  21.544  24.259  1.00  0.00     0.116 C 
BRANCH   3   4
ATOM      4  N   UNL A   1      33.751  22.358  23.629  1.00  0.00    -0.352 N 
ATOM      5  C   UNL A   1      33.832  23.676  23.273  1.00  0.00     0.254 C 
ATOM      6  O   UNL A   1      34.860  23.995  22.671  1.00  0.00    -0.269 OA
ATOM      7  H   UNL A   1      34.564  21.850  23.407  1.00  0.00     0.163 HD
BRANCH   5   8
ATOM      8  C   UNL A   1      32.816  24.667  23.626  1.00  0.00     0.081 A 
ATOM      9  N   UNL A   1      31.349  26.355  23.434  1.00  0.00    -0.217 N 
ATOM     10  N   UNL A   1      31.481  26.133  24.765  1.00  0.00    -0.174 NA
ATOM     11  C   UNL A   1      32.171  25.507  22.705  1.00  0.00     0.056 A 
ATOM     12  C   UNL A   1      32.290  25.087  24.858  1.00  0.00     0.149 A 
ATOM     13  C   UNL A   1      32.373  25.585  21.229  1.00  0.00     0.068 C 
BRANCH   9  14
ATOM     14  C   UNL A   1      30.473  27.397  23.016  1.00  0.00     0.176 A 
ATOM     15  C   UNL A   1      28.746  29.309  22.205  1.00  0.00     0.233 A 
ATOM     16  C   UNL A   1      28.285  28.364  23.094  1.00  0.00     0.074 A 
ATOM     17  N   UNL A   1      30.011  29.322  21.736  1.00  0.00    -0.110 NA
ATOM     18  C   UNL A   1      29.170  27.389  23.514  1.00  0.00     0.057 A 
ATOM     19  N   UNL A   1      30.890  28.357  22.160  1.00  0.00    -0.127 NA
BRANCH  15  20
ATOM     20  O   UNL A   1      27.869  30.250  21.731  1.00  0.00    -0.477 OA
BRANCH  20  21
ATOM     21  C   UNL A   1      28.245  31.552  22.186  1.00  0.00     0.228 C 
ATOM     22  C   UNL A   1      27.885  32.610  21.151  1.00  0.00     0.049 C 
ENDBRANCH  20  21
ENDBRANCH  15  20
ENDBRANCH   9  14
ENDBRANCH   5   8
ENDBRANCH   3   4
ENDBRANCH   2   3
ENDBRANCH   1   2
BRANCH   1  23
ATOM     23  C   UNL A   1      35.583  21.745  26.191  1.00  0.00     0.002 C 
BRANCH  23  24
ATOM     24  C   UNL A   1      36.209  23.144  26.096  1.00  0.00     0.021 C 
BRANCH  24  25
ATOM     25  C   UNL A   1      37.598  23.166  25.480  1.00  0.00     0.116 C 
BRANCH  25  26
ATOM     26  N   UNL A   1      38.503  22.210  26.119  1.00  0.00    -0.352 N 
ATOM     27  C   UNL A   1      39.728  22.453  26.718  1.00  0.00     0.251 C 
ATOM     28  H   UNL A   1      38.202  21.274  26.124  1.00  0.00     0.163 HD
ATOM     29  O   UNL A   1      40.539  21.557  26.865  1.00  0.00    -0.269 OA
BRANCH  27  30
ATOM     30  C   UNL A   1      40.021  23.823  27.176  1.00  0.00     0.039 A 
ATOM     31  C   UNL A   1      39.123  24.875  26.976  1.00  0.00     0.014 A 
ATOM     32  C   UNL A   1      41.218  24.028  27.852  1.00  0.00     0.014 A 
ATOM     33  C   UNL A   1      39.413  26.118  27.535  1.00  0.00     0.010 A 
ATOM     34  C   UNL A   1      41.408  25.186  28.554  1.00  0.00     0.010 A 
ATOM     35  C   UNL A   1      40.553  26.260  28.339  1.00  0.00    -0.014 A 
BRANCH  35  36
ATOM     36  C   UNL A   1      40.841  27.500  29.048  1.00  0.00     0.031 A 
ATOM     37  C   UNL A   1      41.939  28.312  28.456  1.00  0.00     0.074 A 
ATOM     38  C   UNL A   1      40.011  27.994  29.994  1.00  0.00     0.049 A 
ATOM     39  N   UNL A   1      43.106  28.551  28.954  1.00  0.00    -0.248 NA
ATOM     40  C   UNL A   1      41.779  28.790  27.072  1.00  0.00     0.031 C 
ATOM     41  C   UNL A   1      38.712  27.466  30.434  1.00  0.00     0.029 A 
ATOM     42  N   UNL A   1      40.098  29.160  30.686  1.00  0.00    -0.354 N 
ATOM     43  C   UNL A   1      43.731  29.418  28.059  1.00  0.00     0.074 A 
ATOM     44  C   UNL A   1      42.971  29.343  26.841  1.00  0.00     0.031 C 
ATOM     45  C   UNL A   1      38.038  28.420  31.112  1.00  0.00     0.029 A 
ATOM     46  C   UNL A   1      38.920  29.552  31.315  1.00  0.00     0.049 A 
ATOM     47  H   UNL A   1      40.928  29.686  30.739  1.00  0.00     0.167 HD
ATOM     48  C   UNL A   1      44.659  30.324  28.484  1.00  0.00     0.037 A 
ATOM     49  C   UNL A   1      38.683  30.736  31.933  1.00  0.00     0.037 A 
ATOM     50  C   UNL A   1      45.119  30.002  29.814  1.00  0.00     0.049 A 
ATOM     51  C   UNL A   1      40.011  31.328  32.244  1.00  0.00     0.074 A 
ATOM     52  C   UNL A   1      45.719  28.902  30.396  1.00  0.00     0.029 A 
ATOM     53  N   UNL A   1      44.616  30.745  30.857  1.00  0.00    -0.354 N 
ATOM     54  N   UNL A   1      40.859  30.803  33.088  1.00  0.00    -0.248 NA
ATOM     55  C   UNL A   1      40.591  32.234  31.266  1.00  0.00     0.031 C 
ATOM     56  C   UNL A   1      45.114  28.790  31.683  1.00  0.00     0.029 A 
ATOM     57  C   UNL A   1      44.243  29.870  31.845  1.00  0.00     0.049 A 
ATOM     58  H   UNL A   1      44.539  31.725  30.889  1.00  0.00     0.167 HD
ATOM     59  C   UNL A   1      42.102  30.961  32.492  1.00  0.00     0.074 A 
ATOM     60  C   UNL A   1      41.883  31.927  31.416  1.00  0.00     0.031 C 
ATOM     61  C   UNL A   1      43.122  30.085  32.735  1.00  0.00     0.037 A 
BRANCH  48  62
ATOM     62  C   UNL A   1      44.867  31.697  27.879  1.00  0.00     0.058 A 
ATOM     63  C   UNL A   1      46.112  32.002  27.285  1.00  0.00     0.135 A 
ATOM     64  C   UNL A   1      44.019  32.806  28.105  1.00  0.00     0.135 A 
ATOM     65  F   UNL A   1      46.998  31.031  27.017  1.00  0.00    -0.206 F 
ATOM     66  C   UNL A   1      46.518  33.312  27.026  1.00  0.00     0.059 A 
ATOM     67  C   UNL A   1      44.383  34.112  27.803  1.00  0.00     0.059 A 
ATOM     68  F   UNL A   1      42.838  32.696  28.721  1.00  0.00    -0.206 F 
ATOM     69  C   UNL A   1      45.651  34.363  27.308  1.00  0.00     0.060 A 
BRANCH  69  70
ATOM     70  S   UNL A   1      46.212  36.059  27.086  1.00  0.00     0.124 S 
ATOM     71  O   UNL A   1      46.633  36.043  25.691  1.00  0.00    -0.237 OA
ATOM     72  O   UNL A   1      45.001  36.818  27.383  1.00  0.00    -0.237 OA
ATOM     73  O   UNL A   1      47.282  36.189  28.070  1.00  0.00    -0.744 OA
ENDBRANCH  69  70
ENDBRANCH  48  62
BRANCH  49  74
ATOM     74  C   UNL A   1      37.422  31.524  31.962  1.00  0.00     0.058 A 
ATOM     75  C   UNL A   1      36.846  31.930  33.180  1.00  0.00     0.135 A 
ATOM     76  C   UNL A   1      36.911  32.139  30.801  1.00  0.00     0.135 A 
ATOM     77  F   UNL A   1      37.280  31.409  34.338  1.00  0.00    -0.206 F 
ATOM     78  C   UNL A   1      35.866  32.928  33.248  1.00  0.00     0.059 A 
ATOM     79  C   UNL A   1      35.928  33.129  30.842  1.00  0.00     0.059 A 
ATOM     80  F   UNL A   1      37.422  31.866  29.591  1.00  0.00    -0.206 F 
ATOM     81  C   UNL A   1      35.430  33.539  32.072  1.00  0.00     0.060 A 
BRANCH  81  82
ATOM     82  S   UNL A   1      34.307  34.955  32.169  1.00  0.00     0.124 S 
ATOM     83  O   UNL A   1      33.169  34.391  32.882  1.00  0.00    -0.237 OA
ATOM     84  O   UNL A   1      35.104  35.930  32.907  1.00  0.00    -0.237 OA
ATOM     85  O   UNL A   1      34.065  35.288  30.768  1.00  0.00    -0.744 OA
ENDBRANCH  81  82
ENDBRANCH  49  74
BRANCH  61  86
ATOM     86  C   UNL A   1      42.979  29.117  33.885  1.00  0.00     0.058 A 
ATOM     87  C   UNL A   1      43.228  29.430  35.234  1.00  0.00     0.135 A 
ATOM     88  C   UNL A   1      42.411  27.862  33.619  1.00  0.00     0.135 A 
ATOM     89  F   UNL A   1      43.672  30.642  35.591  1.00  0.00    -0.206 F 
ATOM     90  C   UNL A   1      42.965  28.523  36.263  1.00  0.00     0.059 A 
ATOM     91  C   UNL A   1      42.110  26.954  34.631  1.00  0.00     0.059 A 
ATOM     92  F   UNL A   1      42.089  27.524  32.359  1.00  0.00    -0.206 F 
ATOM     93  C   UNL A   1      42.403  27.285  35.952  1.00  0.00     0.060 A 
BRANCH  93  94
ATOM     94  S   UNL A   1      41.997  26.139  37.286  1.00  0.00     0.124 S 
ATOM     95  O   UNL A   1      42.109  24.844  36.624  1.00  0.00    -0.237 OA
ATOM     96  O   UNL A   1      43.024  26.433  38.282  1.00  0.00    -0.237 OA
ATOM     97  O   UNL A   1      40.642  26.528  37.671  1.00  0.00    -0.744 OA
ENDBRANCH  93  94
ENDBRANCH  61  86
ENDBRANCH  35  36
ENDBRANCH  27  30
ENDBRANCH  25  26
ENDBRANCH  24  25
ENDBRANCH  23  24
ENDBRANCH   1  23
TORSDOF 19
ENDMDL
MODEL 3
REMARK VINA RESULT:     -11.0      2.194      2.804
REMARK SMILES CCOc1ccc(-n2ncc(C(=O)NCCCCCCNC(=O)c3ccc(-c4c5nc(c(-c6c(F)cc(S(=O)(=O)[O-])cc6F)c6ccc([nH]6)c(-c6c(F)cc(S(=O)(=O)[O-])cc6F)c6nc(c(-c7c(F)cc(S(=O)(=O)[O-])cc7F)c7ccc4[nH]7)C=C6)C=C5)cc3)c2C)nn1
REMARK SMILES IDX 17 1 16 2 15 3 14 4 12 5 13 6 11 8 8 9 9 10 90 11 10 12
REMARK SMILES IDX 91 13 7 14 4 15 5 16 93 17 6 18 92 19 3 20 2 21 1 22 18 23
REMARK SMILES IDX 19 24 20 25 21 26 22 27 23 29 24 30 25 31 89 32 26 33 88 34
REMARK SMILES IDX 27 35 28 36 29 37 82 38 30 39 87 40 81 41 83 42 31 43 86 44
REMARK SMILES IDX 80 45 79 46 32 48 66 49 45 50 65 51 46 52 49 53 64 54 84 55
REMARK SMILES IDX 47 56 48 57 63 59 85 60 50 61 33 62 34 63 43 64 35 65 36 66
REMARK SMILES IDX 42 67 44 68 37 69 38 70 39 71 40 72 41 73 67 74 68 75 77 76
REMARK SMILES IDX 69 77 70 78 76 79 78 80 71 81 72 82 73 83 74 84 75 85 51 86
REMARK SMILES IDX 52 87 61 88 53 89 54 90 60 91 62 92 55 93 56 94 57 95 58 96
REMARK SMILES IDX 59 97
REMARK H PARENT 14 7 21 28 83 47 49 58
REMARK Flexibility Score: inf
ROOT
ATOM      1  C   UNL A   1      36.959  23.091  24.986  1.00  0.00     0.002 C 
ENDROOT
BRANCH   1   2
ATOM      2  C   UNL A   1      35.930  24.048  25.589  1.00  0.00     0.021 C 
BRANCH   2   3
ATOM      3  C   UNL A   1      34.485  23.588  25.449  1.00  0.00     0.116 C 
BRANCH   3   4
ATOM      4  N   UNL A   1      34.168  23.205  24.090  1.00  0.00    -0.352 N 
ATOM      5  C   UNL A   1      33.124  23.463  23.245  1.00  0.00     0.254 C 
ATOM      6  O   UNL A   1      33.172  22.882  22.158  1.00  0.00    -0.269 OA
ATOM      7  H   UNL A   1      34.857  22.630  23.684  1.00  0.00     0.163 HD
BRANCH   5   8
ATOM      8  C   UNL A   1      32.050  24.404  23.560  1.00  0.00     0.081 A 
ATOM      9  N   UNL A   1      30.672  26.169  23.412  1.00  0.00    -0.217 N 
ATOM     10  N   UNL A   1      30.474  25.652  24.650  1.00  0.00    -0.174 NA
ATOM     11  C   UNL A   1      31.650  25.460  22.728  1.00  0.00     0.056 A 
ATOM     12  C   UNL A   1      31.238  24.569  24.693  1.00  0.00     0.149 A 
ATOM     13  C   UNL A   1      32.207  25.851  21.400  1.00  0.00     0.068 C 
BRANCH   9  14
ATOM     14  C   UNL A   1      29.923  27.323  23.045  1.00  0.00     0.176 A 
ATOM     15  C   UNL A   1      28.433  29.456  22.320  1.00  0.00     0.233 A 
ATOM     16  C   UNL A   1      27.826  28.477  23.073  1.00  0.00     0.074 A 
ATOM     17  N   UNL A   1      29.727  29.397  21.941  1.00  0.00    -0.110 NA
ATOM     18  C   UNL A   1      28.590  27.388  23.449  1.00  0.00     0.057 A 
ATOM     19  N   UNL A   1      30.485  28.318  22.322  1.00  0.00    -0.127 NA
BRANCH  15  20
ATOM     20  O   UNL A   1      27.679  30.516  21.886  1.00  0.00    -0.477 OA
BRANCH  20  21
ATOM     21  C   UNL A   1      28.524  31.567  21.416  1.00  0.00     0.228 C 
ATOM     22  C   UNL A   1      27.931  32.224  20.176  1.00  0.00     0.049 C 
ENDBRANCH  20  21
ENDBRANCH  15  20
ENDBRANCH   9  14
ENDBRANCH   5   8
ENDBRANCH   3   4
ENDBRANCH   2   3
ENDBRANCH   1   2
BRANCH   1  23
ATOM     23  C   UNL A   1      38.160  22.747  25.881  1.00  0.00     0.002 C 
BRANCH  23  24
ATOM     24  C   UNL A   1      38.845  21.395  25.632  1.00  0.00     0.021 C 
BRANCH  24  25
ATOM     25  C   UNL A   1      39.997  21.096  26.577  1.00  0.00     0.116 C 
BRANCH  25  26
ATOM     26  N   UNL A   1      41.293  21.132  25.900  1.00  0.00    -0.352 N 
ATOM     27  C   UNL A   1      42.130  22.217  25.700  1.00  0.00     0.251 C 
ATOM     28  H   UNL A   1      41.612  20.274  25.540  1.00  0.00     0.163 HD
ATOM     29  O   UNL A   1      42.969  22.204  24.817  1.00  0.00    -0.269 OA
BRANCH  27  30
ATOM     30  C   UNL A   1      41.981  23.385  26.587  1.00  0.00     0.039 A 
ATOM     31  C   UNL A   1      42.549  23.418  27.864  1.00  0.00     0.014 A 
ATOM     32  C   UNL A   1      41.278  24.477  26.093  1.00  0.00     0.014 A 
ATOM     33  C   UNL A   1      42.465  24.596  28.603  1.00  0.00     0.010 A 
ATOM     34  C   UNL A   1      41.361  25.682  26.735  1.00  0.00     0.010 A 
ATOM     35  C   UNL A   1      41.882  25.731  28.022  1.00  0.00    -0.014 A 
BRANCH  35  36
ATOM     36  C   UNL A   1      41.877  27.021  28.700  1.00  0.00     0.031 A 
ATOM     37  C   UNL A   1      43.039  27.893  28.380  1.00  0.00     0.074 A 
ATOM     38  C   UNL A   1      40.785  27.487  29.347  1.00  0.00     0.049 A 
ATOM     39  N   UNL A   1      44.003  28.250  29.162  1.00  0.00    -0.248 NA
ATOM     40  C   UNL A   1      43.240  28.294  26.977  1.00  0.00     0.031 C 
ATOM     41  C   UNL A   1      39.453  26.874  29.447  1.00  0.00     0.029 A 
ATOM     42  N   UNL A   1      40.597  28.686  29.958  1.00  0.00    -0.354 N 
ATOM     43  C   UNL A   1      44.793  29.125  28.419  1.00  0.00     0.074 A 
ATOM     44  C   UNL A   1      44.410  28.934  27.046  1.00  0.00     0.031 C 
ATOM     45  C   UNL A   1      38.554  27.798  29.850  1.00  0.00     0.029 A 
ATOM     46  C   UNL A   1      39.267  29.007  30.212  1.00  0.00     0.049 A 
ATOM     47  H   UNL A   1      41.343  29.280  30.202  1.00  0.00     0.167 HD
ATOM     48  C   UNL A   1      45.503  30.122  29.021  1.00  0.00     0.037 A 
ATOM     49  C   UNL A   1      38.789  30.194  30.662  1.00  0.00     0.037 A 
ATOM     50  C   UNL A   1      45.594  29.899  30.445  1.00  0.00     0.049 A 
ATOM     51  C   UNL A   1      39.935  30.906  31.287  1.00  0.00     0.074 A 
ATOM     52  C   UNL A   1      46.081  28.879  31.240  1.00  0.00     0.029 A 
ATOM     53  N   UNL A   1      44.772  30.644  31.259  1.00  0.00    -0.354 N 
ATOM     54  N   UNL A   1      40.547  30.492  32.363  1.00  0.00    -0.248 NA
ATOM     55  C   UNL A   1      40.703  31.813  30.448  1.00  0.00     0.031 C 
ATOM     56  C   UNL A   1      45.149  28.776  32.316  1.00  0.00     0.029 A 
ATOM     57  C   UNL A   1      44.198  29.786  32.161  1.00  0.00     0.049 A 
ATOM     58  H   UNL A   1      44.623  31.615  31.204  1.00  0.00     0.167 HD
ATOM     59  C   UNL A   1      41.893  30.725  32.122  1.00  0.00     0.074 A 
ATOM     60  C   UNL A   1      41.918  31.620  30.967  1.00  0.00     0.031 C 
ATOM     61  C   UNL A   1      42.862  29.947  32.693  1.00  0.00     0.037 A 
BRANCH  48  62
ATOM     62  C   UNL A   1      45.779  31.480  28.408  1.00  0.00     0.058 A 
ATOM     63  C   UNL A   1      44.697  32.240  27.912  1.00  0.00     0.135 A 
ATOM     64  C   UNL A   1      47.062  31.939  28.030  1.00  0.00     0.135 A 
ATOM     65  F   UNL A   1      43.432  31.903  28.207  1.00  0.00    -0.206 F 
ATOM     66  C   UNL A   1      44.872  33.310  27.033  1.00  0.00     0.059 A 
ATOM     67  C   UNL A   1      47.260  33.037  27.202  1.00  0.00     0.059 A 
ATOM     68  F   UNL A   1      48.185  31.293  28.360  1.00  0.00    -0.206 F 
ATOM     69  C   UNL A   1      46.161  33.688  26.669  1.00  0.00     0.060 A 
BRANCH  69  70
ATOM     70  S   UNL A   1      46.391  34.991  25.448  1.00  0.00     0.124 S 
ATOM     71  O   UNL A   1      46.122  36.183  26.244  1.00  0.00    -0.237 OA
ATOM     72  O   UNL A   1      47.779  34.786  25.046  1.00  0.00    -0.237 OA
ATOM     73  O   UNL A   1      45.396  34.672  24.428  1.00  0.00    -0.744 OA
ENDBRANCH  69  70
ENDBRANCH  48  62
BRANCH  49  74
ATOM     74  C   UNL A   1      37.520  30.875  30.292  1.00  0.00     0.058 A 
ATOM     75  C   UNL A   1      36.667  31.410  31.276  1.00  0.00     0.135 A 
ATOM     76  C   UNL A   1      37.257  31.271  28.965  1.00  0.00     0.135 A 
ATOM     77  F   UNL A   1      36.852  31.101  32.568  1.00  0.00    -0.206 F 
ATOM     78  C   UNL A   1      35.654  32.326  30.970  1.00  0.00     0.059 A 
ATOM     79  C   UNL A   1      36.246  32.176  28.633  1.00  0.00     0.059 A 
ATOM     80  F   UNL A   1      38.039  30.864  27.953  1.00  0.00    -0.206 F 
ATOM     81  C   UNL A   1      35.467  32.721  29.645  1.00  0.00     0.060 A 
BRANCH  81  82
ATOM     82  S   UNL A   1      34.290  34.043  29.268  1.00  0.00     0.124 S 
ATOM     83  O   UNL A   1      33.735  34.338  30.584  1.00  0.00    -0.237 OA
ATOM     84  O   UNL A   1      35.154  35.071  28.695  1.00  0.00    -0.237 OA
ATOM     85  O   UNL A   1      33.367  33.414  28.327  1.00  0.00    -0.744 OA
ENDBRANCH  81  82
ENDBRANCH  49  74
BRANCH  61  86
ATOM     86  C   UNL A   1      42.468  29.024  33.821  1.00  0.00     0.058 A 
ATOM     87  C   UNL A   1      41.712  27.846  33.669  1.00  0.00     0.135 A 
ATOM     88  C   UNL A   1      43.017  29.266  35.089  1.00  0.00     0.135 A 
ATOM     89  F   UNL A   1      41.236  27.482  32.471  1.00  0.00    -0.206 F 
ATOM     90  C   UNL A   1      41.480  26.975  34.736  1.00  0.00     0.059 A 
ATOM     91  C   UNL A   1      42.827  28.396  36.159  1.00  0.00     0.059 A 
ATOM     92  F   UNL A   1      43.801  30.339  35.287  1.00  0.00    -0.206 F 
ATOM     93  C   UNL A   1      42.044  27.258  35.979  1.00  0.00     0.060 A 
BRANCH  93  94
ATOM     94  S   UNL A   1      41.803  26.097  37.341  1.00  0.00     0.124 S 
ATOM     95  O   UNL A   1      41.984  24.808  36.682  1.00  0.00    -0.237 OA
ATOM     96  O   UNL A   1      42.855  26.483  38.278  1.00  0.00    -0.237 OA
ATOM     97  O   UNL A   1      40.444  26.380  37.796  1.00  0.00    -0.744 OA
ENDBRANCH  93  94
ENDBRANCH  61  86
ENDBRANCH  35  36
ENDBRANCH  27  30
ENDBRANCH  25  26
ENDBRANCH  24  25
ENDBRANCH  23  24
ENDBRANCH   1  23
TORSDOF 19
ENDMDL
