MODEL 1
REMARK VINA RESULT:     -12.1      0.000      0.000
REMARK SMILES O=C(NCCCCCCNC(=O)c1cncc(Nc2cc(Cl)ccc2Cl)n1)c1ccc(-c2c3nc(c(-c4c(F)cc(S(=O)(=O)[O-])cc4F)c4ccc([nH]4)c(-c4c(F)cc(S(=O)(=O)[O-])cc4F)c4nc(c(-c5c(F)cc(S(=O)(=O)[O-])cc5F)c5ccc2[nH]5)C=C4)C=C3)cc1
REMARK SMILES IDX 6 1 5 2 4 3 3 4 1 5 2 6 28 8 29 9 93 10 30 11 92 12 31 13
REMARK SMILES IDX 32 14 33 15 86 16 34 17 91 18 85 19 87 20 35 21 90 22 84 23
REMARK SMILES IDX 83 24 36 26 70 27 49 28 69 29 50 30 53 31 68 32 88 33 51 34
REMARK SMILES IDX 52 35 67 37 89 38 54 39 37 40 38 41 47 42 39 43 40 44 46 45
REMARK SMILES IDX 48 46 41 47 42 48 43 49 44 50 45 51 71 52 72 53 81 54 73 55
REMARK SMILES IDX 74 56 80 57 82 58 75 59 76 60 77 61 78 62 79 63 55 64 56 65
REMARK SMILES IDX 65 66 57 67 58 68 64 69 66 70 59 71 60 72 61 73 62 74 63 75
REMARK SMILES IDX 7 76 8 77 9 78 10 79 11 80 12 82 13 83 14 84 27 85 15 86
REMARK SMILES IDX 17 87 16 88 18 89 19 91 20 92 25 93 21 94 24 95 26 96 22 97
REMARK SMILES IDX 23 98
REMARK H PARENT 3 7 87 25 53 36 10 81 18 90
REMARK Flexibility Score: inf
ROOT
ATOM      1  C   UNL A   1      38.384  21.683  25.662  1.00  0.00     0.002 C 
ENDROOT
BRANCH   1   2
ATOM      2  C   UNL A   1      38.370  23.098  26.241  1.00  0.00     0.021 C 
BRANCH   2   3
ATOM      3  C   UNL A   1      39.656  23.534  26.935  1.00  0.00     0.116 C 
BRANCH   3   4
ATOM      4  N   UNL A   1      40.639  24.078  26.012  1.00  0.00    -0.352 N 
ATOM      5  O   UNL A   1      42.012  25.628  25.123  1.00  0.00    -0.269 OA
ATOM      6  C   UNL A   1      41.319  25.272  26.072  1.00  0.00     0.251 C 
ATOM      7  H   UNL A   1      40.845  23.512  25.234  1.00  0.00     0.163 HD
BRANCH   6   8
ATOM      8  C   UNL A   1      41.192  26.137  27.266  1.00  0.00     0.039 A 
ATOM      9  C   UNL A   1      40.240  25.866  28.252  1.00  0.00     0.014 A 
ATOM     10  C   UNL A   1      42.044  27.236  27.400  1.00  0.00     0.014 A 
ATOM     11  C   UNL A   1      40.049  26.765  29.297  1.00  0.00     0.010 A 
ATOM     12  C   UNL A   1      41.901  28.099  28.491  1.00  0.00     0.010 A 
ATOM     13  C   UNL A   1      40.880  27.890  29.431  1.00  0.00    -0.014 A 
BRANCH  13  14
ATOM     14  C   UNL A   1      40.690  28.808  30.584  1.00  0.00     0.031 A 
ATOM     15  C   UNL A   1      41.594  28.746  31.785  1.00  0.00     0.074 A 
ATOM     16  C   UNL A   1      39.704  29.724  30.528  1.00  0.00     0.049 A 
ATOM     17  N   UNL A   1      41.586  29.491  32.861  1.00  0.00    -0.248 NA
ATOM     18  C   UNL A   1      42.636  27.708  31.783  1.00  0.00     0.031 C 
ATOM     19  C   UNL A   1      38.757  29.873  29.421  1.00  0.00     0.029 A 
ATOM     20  N   UNL A   1      39.342  30.710  31.409  1.00  0.00    -0.354 N 
ATOM     21  C   UNL A   1      42.601  29.002  33.674  1.00  0.00     0.074 A 
ATOM     22  C   UNL A   1      43.192  27.879  32.975  1.00  0.00     0.031 C 
ATOM     23  C   UNL A   1      37.956  30.920  29.666  1.00  0.00     0.029 A 
ATOM     24  C   UNL A   1      38.295  31.483  30.968  1.00  0.00     0.049 A 
ATOM     25  H   UNL A   1      39.791  30.852  32.274  1.00  0.00     0.167 HD
ATOM     26  C   UNL A   1      43.007  29.451  34.887  1.00  0.00     0.037 A 
ATOM     27  C   UNL A   1      37.670  32.524  31.548  1.00  0.00     0.037 A 
ATOM     28  C   UNL A   1      42.424  30.578  35.571  1.00  0.00     0.049 A 
ATOM     29  C   UNL A   1      38.133  32.998  32.895  1.00  0.00     0.074 A 
ATOM     30  C   UNL A   1      42.790  31.134  36.785  1.00  0.00     0.029 A 
ATOM     31  N   UNL A   1      41.347  31.318  35.104  1.00  0.00    -0.354 N 
ATOM     32  N   UNL A   1      39.116  32.543  33.634  1.00  0.00    -0.248 NA
ATOM     33  C   UNL A   1      37.399  34.124  33.488  1.00  0.00     0.031 C 
ATOM     34  C   UNL A   1      41.911  32.187  37.068  1.00  0.00     0.029 A 
ATOM     35  C   UNL A   1      41.023  32.314  36.012  1.00  0.00     0.049 A 
ATOM     36  H   UNL A   1      40.881  31.160  34.251  1.00  0.00     0.167 HD
ATOM     37  C   UNL A   1      39.133  33.339  34.773  1.00  0.00     0.074 A 
ATOM     38  C   UNL A   1      38.067  34.310  34.619  1.00  0.00     0.031 C 
ATOM     39  C   UNL A   1      39.958  33.272  35.846  1.00  0.00     0.037 A 
BRANCH  26  40
ATOM     40  C   UNL A   1      44.122  28.702  35.565  1.00  0.00     0.058 A 
ATOM     41  C   UNL A   1      43.871  27.647  36.458  1.00  0.00     0.135 A 
ATOM     42  C   UNL A   1      45.463  29.036  35.310  1.00  0.00     0.135 A 
ATOM     43  F   UNL A   1      42.608  27.294  36.748  1.00  0.00    -0.206 F 
ATOM     44  C   UNL A   1      44.905  26.980  37.106  1.00  0.00     0.059 A 
ATOM     45  C   UNL A   1      46.515  28.366  35.929  1.00  0.00     0.059 A 
ATOM     46  F   UNL A   1      45.761  30.032  34.462  1.00  0.00    -0.206 F 
ATOM     47  C   UNL A   1      46.225  27.354  36.843  1.00  0.00     0.060 A 
BRANCH  47  48
ATOM     48  S   UNL A   1      47.557  26.504  37.716  1.00  0.00     0.124 S 
ATOM     49  O   UNL A   1      47.324  25.119  37.320  1.00  0.00    -0.237 OA
ATOM     50  O   UNL A   1      48.751  27.130  37.156  1.00  0.00    -0.237 OA
ATOM     51  O   UNL A   1      47.293  26.810  39.119  1.00  0.00    -0.744 OA
ENDBRANCH  47  48
ENDBRANCH  26  40
BRANCH  27  52
ATOM     52  C   UNL A   1      36.555  33.196  30.832  1.00  0.00     0.058 A 
ATOM     53  C   UNL A   1      35.227  33.009  31.236  1.00  0.00     0.135 A 
ATOM     54  C   UNL A   1      36.802  34.084  29.773  1.00  0.00     0.135 A 
ATOM     55  F   UNL A   1      34.943  32.167  32.241  1.00  0.00    -0.206 F 
ATOM     56  C   UNL A   1      34.177  33.683  30.619  1.00  0.00     0.059 A 
ATOM     57  C   UNL A   1      35.774  34.787  29.156  1.00  0.00     0.059 A 
ATOM     58  F   UNL A   1      38.061  34.308  29.364  1.00  0.00    -0.206 F 
ATOM     59  C   UNL A   1      34.463  34.576  29.584  1.00  0.00     0.060 A 
BRANCH  59  60
ATOM     60  S   UNL A   1      33.105  35.511  28.848  1.00  0.00     0.124 S 
ATOM     61  O   UNL A   1      33.826  36.529  28.092  1.00  0.00    -0.237 OA
ATOM     62  O   UNL A   1      32.422  34.492  28.056  1.00  0.00    -0.237 OA
ATOM     63  O   UNL A   1      32.363  35.993  30.009  1.00  0.00    -0.744 OA
ENDBRANCH  59  60
ENDBRANCH  27  52
BRANCH  39  64
ATOM     64  C   UNL A   1      39.758  34.296  36.928  1.00  0.00     0.058 A 
ATOM     65  C   UNL A   1      38.938  34.045  38.038  1.00  0.00     0.135 A 
ATOM     66  C   UNL A   1      40.421  35.532  36.866  1.00  0.00     0.135 A 
ATOM     67  F   UNL A   1      38.275  32.881  38.139  1.00  0.00    -0.206 F 
ATOM     68  C   UNL A   1      38.762  34.993  39.040  1.00  0.00     0.059 A 
ATOM     69  C   UNL A   1      40.278  36.486  37.868  1.00  0.00     0.059 A 
ATOM     70  F   UNL A   1      41.222  35.818  35.829  1.00  0.00    -0.206 F 
ATOM     71  C   UNL A   1      39.435  36.213  38.945  1.00  0.00     0.060 A 
BRANCH  71  72
ATOM     72  S   UNL A   1      39.221  37.430  40.262  1.00  0.00     0.124 S 
ATOM     73  O   UNL A   1      40.581  37.935  40.419  1.00  0.00    -0.237 OA
ATOM     74  O   UNL A   1      38.262  38.361  39.677  1.00  0.00    -0.237 OA
ATOM     75  O   UNL A   1      38.713  36.636  41.376  1.00  0.00    -0.744 OA
ENDBRANCH  71  72
ENDBRANCH  39  64
ENDBRANCH  13  14
ENDBRANCH   6   8
ENDBRANCH   3   4
ENDBRANCH   2   3
ENDBRANCH   1   2
BRANCH   1  76
ATOM     76  C   UNL A   1      37.258  21.357  24.676  1.00  0.00     0.002 C 
BRANCH  76  77
ATOM     77  C   UNL A   1      36.105  22.366  24.620  1.00  0.00     0.021 C 
BRANCH  77  78
ATOM     78  C   UNL A   1      35.022  22.180  25.680  1.00  0.00     0.116 C 
BRANCH  78  79
ATOM     79  N   UNL A   1      34.122  21.086  25.358  1.00  0.00    -0.351 N 
ATOM     80  C   UNL A   1      32.746  21.063  25.408  1.00  0.00     0.271 C 
ATOM     81  H   UNL A   1      34.552  20.250  25.066  1.00  0.00     0.163 HD
ATOM     82  O   UNL A   1      32.138  20.019  25.192  1.00  0.00    -0.267 OA
BRANCH  80  83
ATOM     83  C   UNL A   1      32.009  22.315  25.684  1.00  0.00     0.148 A 
ATOM     84  C   UNL A   1      31.944  22.787  26.985  1.00  0.00     0.145 A 
ATOM     85  N   UNL A   1      31.417  22.945  24.633  1.00  0.00    -0.222 NA
ATOM     86  N   UNL A   1      31.249  23.898  27.305  1.00  0.00    -0.258 NA
ATOM     87  C   UNL A   1      30.738  24.074  24.926  1.00  0.00     0.149 A 
ATOM     88  C   UNL A   1      30.648  24.513  26.254  1.00  0.00     0.158 A 
BRANCH  87  89
ATOM     89  N   UNL A   1      30.113  24.717  23.858  1.00  0.00    -0.338 N 
ATOM     90  H   UNL A   1      29.705  24.103  23.205  1.00  0.00     0.168 HD
BRANCH  89  91
ATOM     91  C   UNL A   1      29.957  26.076  23.539  1.00  0.00     0.060 A 
ATOM     92  C   UNL A   1      28.707  26.708  23.631  1.00  0.00     0.048 A 
ATOM     93  C   UNL A   1      31.036  26.823  23.027  1.00  0.00     0.064 A 
ATOM     94  C   UNL A   1      28.533  28.021  23.191  1.00  0.00     0.043 A 
ATOM     95  C   UNL A   1      30.859  28.136  22.577  1.00  0.00     0.024 A 
ATOM     96  Cl  UNL A   1      32.615  26.127  22.903  1.00  0.00    -0.082 Cl
ATOM     97  Cl  UNL A   1      26.984  28.760  23.306  1.00  0.00    -0.084 Cl
ATOM     98  C   UNL A   1      29.600  28.733  22.650  1.00  0.00     0.022 A 
ENDBRANCH  89  91
ENDBRANCH  87  89
ENDBRANCH  80  83
ENDBRANCH  78  79
ENDBRANCH  77  78
ENDBRANCH  76  77
ENDBRANCH   1  76
TORSDOF 18
ENDMDL
MODEL 2
REMARK VINA RESULT:     -12.0      1.630      2.570
REMARK SMILES O=C(NCCCCCCNC(=O)c1cncc(Nc2cc(Cl)ccc2Cl)n1)c1ccc(-c2c3nc(c(-c4c(F)cc(S(=O)(=O)[O-])cc4F)c4ccc([nH]4)c(-c4c(F)cc(S(=O)(=O)[O-])cc4F)c4nc(c(-c5c(F)cc(S(=O)(=O)[O-])cc5F)c5ccc2[nH]5)C=C4)C=C3)cc1
REMARK SMILES IDX 6 1 5 2 4 3 3 4 1 5 2 6 28 8 29 9 93 10 30 11 92 12 31 13
REMARK SMILES IDX 32 14 33 15 86 16 34 17 91 18 85 19 87 20 35 21 90 22 84 23
REMARK SMILES IDX 83 24 36 26 70 27 49 28 69 29 50 30 53 31 68 32 88 33 51 34
REMARK SMILES IDX 52 35 67 37 89 38 54 39 37 40 38 41 47 42 39 43 40 44 46 45
REMARK SMILES IDX 48 46 41 47 42 48 43 49 44 50 45 51 71 52 72 53 81 54 73 55
REMARK SMILES IDX 74 56 80 57 82 58 75 59 76 60 77 61 78 62 79 63 55 64 56 65
REMARK SMILES IDX 65 66 57 67 58 68 64 69 66 70 59 71 60 72 61 73 62 74 63 75
REMARK SMILES IDX 7 76 8 77 9 78 10 79 11 80 12 82 13 83 14 84 27 85 15 86
REMARK SMILES IDX 17 87 16 88 18 89 19 91 20 92 25 93 21 94 24 95 26 96 22 97
REMARK SMILES IDX 23 98
REMARK H PARENT 3 7 87 25 53 36 10 81 18 90
REMARK Flexibility Score: inf
ROOT
ATOM      1  C   UNL A   1      39.133  21.951  26.127  1.00  0.00     0.002 C 
ENDROOT
BRANCH   1   2
ATOM      2  C   UNL A   1      40.405  21.688  26.934  1.00  0.00     0.021 C 
BRANCH   2   3
ATOM      3  C   UNL A   1      41.198  22.930  27.328  1.00  0.00     0.116 C 
BRANCH   3   4
ATOM      4  N   UNL A   1      41.565  23.751  26.186  1.00  0.00    -0.352 N 
ATOM      5  O   UNL A   1      41.840  25.648  25.000  1.00  0.00    -0.269 OA
ATOM      6  C   UNL A   1      41.647  25.120  26.093  1.00  0.00     0.251 C 
ATOM      7  H   UNL A   1      41.785  23.257  25.364  1.00  0.00     0.163 HD
BRANCH   6   8
ATOM      8  C   UNL A   1      41.474  25.957  27.302  1.00  0.00     0.039 A 
ATOM      9  C   UNL A   1      40.318  25.865  28.080  1.00  0.00     0.014 A 
ATOM     10  C   UNL A   1      42.491  26.846  27.661  1.00  0.00     0.014 A 
ATOM     11  C   UNL A   1      40.119  26.753  29.133  1.00  0.00     0.010 A 
ATOM     12  C   UNL A   1      42.322  27.687  28.765  1.00  0.00     0.010 A 
ATOM     13  C   UNL A   1      41.120  27.671  29.491  1.00  0.00    -0.014 A 
BRANCH  13  14
ATOM     14  C   UNL A   1      40.906  28.574  30.651  1.00  0.00     0.031 A 
ATOM     15  C   UNL A   1      41.789  28.502  31.866  1.00  0.00     0.074 A 
ATOM     16  C   UNL A   1      39.915  29.485  30.590  1.00  0.00     0.049 A 
ATOM     17  N   UNL A   1      41.759  29.235  32.951  1.00  0.00    -0.248 NA
ATOM     18  C   UNL A   1      42.838  27.471  31.870  1.00  0.00     0.031 C 
ATOM     19  C   UNL A   1      38.986  29.642  29.469  1.00  0.00     0.029 A 
ATOM     20  N   UNL A   1      39.533  30.459  31.476  1.00  0.00    -0.354 N 
ATOM     21  C   UNL A   1      42.763  28.741  33.775  1.00  0.00     0.074 A 
ATOM     22  C   UNL A   1      43.372  27.631  33.073  1.00  0.00     0.031 C 
ATOM     23  C   UNL A   1      38.175  30.682  29.712  1.00  0.00     0.029 A 
ATOM     24  C   UNL A   1      38.489  31.231  31.027  1.00  0.00     0.049 A 
ATOM     25  H   UNL A   1      39.966  30.592  32.350  1.00  0.00     0.167 HD
ATOM     26  C   UNL A   1      43.146  29.178  35.000  1.00  0.00     0.037 A 
ATOM     27  C   UNL A   1      37.848  32.261  31.609  1.00  0.00     0.037 A 
ATOM     28  C   UNL A   1      42.544  30.293  35.688  1.00  0.00     0.049 A 
ATOM     29  C   UNL A   1      38.285  32.722  32.968  1.00  0.00     0.074 A 
ATOM     30  C   UNL A   1      42.887  30.837  36.915  1.00  0.00     0.029 A 
ATOM     31  N   UNL A   1      41.471  31.033  35.211  1.00  0.00    -0.354 N 
ATOM     32  N   UNL A   1      39.258  32.264  33.719  1.00  0.00    -0.248 NA
ATOM     33  C   UNL A   1      37.535  33.836  33.563  1.00  0.00     0.031 C 
ATOM     34  C   UNL A   1      41.997  31.881  37.195  1.00  0.00     0.029 A 
ATOM     35  C   UNL A   1      41.126  32.016  36.126  1.00  0.00     0.049 A 
ATOM     36  H   UNL A   1      41.021  30.883  34.349  1.00  0.00     0.167 HD
ATOM     37  C   UNL A   1      39.251  33.046  34.867  1.00  0.00     0.074 A 
ATOM     38  C   UNL A   1      38.182  34.012  34.707  1.00  0.00     0.031 C 
ATOM     39  C   UNL A   1      40.058  32.970  35.954  1.00  0.00     0.037 A 
BRANCH  26  40
ATOM     40  C   UNL A   1      44.254  28.427  35.688  1.00  0.00     0.058 A 
ATOM     41  C   UNL A   1      45.602  28.791  35.536  1.00  0.00     0.135 A 
ATOM     42  C   UNL A   1      43.962  27.332  36.518  1.00  0.00     0.135 A 
ATOM     43  F   UNL A   1      45.939  29.822  34.744  1.00  0.00    -0.206 F 
ATOM     44  C   UNL A   1      46.623  28.072  36.149  1.00  0.00     0.059 A 
ATOM     45  C   UNL A   1      44.967  26.613  37.161  1.00  0.00     0.059 A 
ATOM     46  F   UNL A   1      42.692  26.944  36.703  1.00  0.00    -0.206 F 
ATOM     47  C   UNL A   1      46.296  26.977  36.951  1.00  0.00     0.060 A 
BRANCH  47  48
ATOM     48  S   UNL A   1      47.632  26.031  37.712  1.00  0.00     0.124 S 
ATOM     49  O   UNL A   1      48.157  26.995  38.674  1.00  0.00    -0.237 OA
ATOM     50  O   UNL A   1      46.924  24.889  38.285  1.00  0.00    -0.237 OA
ATOM     51  O   UNL A   1      48.511  25.720  36.589  1.00  0.00    -0.744 OA
ENDBRANCH  47  48
ENDBRANCH  26  40
BRANCH  27  52
ATOM     52  C   UNL A   1      36.741  32.935  30.882  1.00  0.00     0.058 A 
ATOM     53  C   UNL A   1      35.408  32.747  31.270  1.00  0.00     0.135 A 
ATOM     54  C   UNL A   1      37.001  33.828  29.830  1.00  0.00     0.135 A 
ATOM     55  F   UNL A   1      35.113  31.900  32.267  1.00  0.00    -0.206 F 
ATOM     56  C   UNL A   1      34.366  33.422  30.643  1.00  0.00     0.059 A 
ATOM     57  C   UNL A   1      35.979  34.533  29.203  1.00  0.00     0.059 A 
ATOM     58  F   UNL A   1      38.264  34.054  29.436  1.00  0.00    -0.206 F 
ATOM     59  C   UNL A   1      34.664  34.320  29.615  1.00  0.00     0.060 A 
BRANCH  59  60
ATOM     60  S   UNL A   1      33.315  35.257  28.866  1.00  0.00     0.124 S 
ATOM     61  O   UNL A   1      32.528  35.625  30.038  1.00  0.00    -0.237 OA
ATOM     62  O   UNL A   1      34.026  36.349  28.206  1.00  0.00    -0.237 OA
ATOM     63  O   UNL A   1      32.694  34.290  27.966  1.00  0.00    -0.744 OA
ENDBRANCH  59  60
ENDBRANCH  27  52
BRANCH  39  64
ATOM     64  C   UNL A   1      39.834  33.980  37.044  1.00  0.00     0.058 A 
ATOM     65  C   UNL A   1      40.446  35.242  37.016  1.00  0.00     0.135 A 
ATOM     66  C   UNL A   1      38.971  33.690  38.112  1.00  0.00     0.135 A 
ATOM     67  F   UNL A   1      41.287  35.564  36.019  1.00  0.00    -0.206 F 
ATOM     68  C   UNL A   1      40.229  36.175  38.024  1.00  0.00     0.059 A 
ATOM     69  C   UNL A   1      38.722  34.617  39.119  1.00  0.00     0.059 A 
ATOM     70  F   UNL A   1      38.356  32.500  38.181  1.00  0.00    -0.206 F 
ATOM     71  C   UNL A   1      39.366  35.853  39.074  1.00  0.00     0.060 A 
BRANCH  71  72
ATOM     72  S   UNL A   1      39.072  37.079  40.366  1.00  0.00     0.124 S 
ATOM     73  O   UNL A   1      38.250  38.057  39.659  1.00  0.00    -0.237 OA
ATOM     74  O   UNL A   1      38.388  36.299  41.391  1.00  0.00    -0.237 OA
ATOM     75  O   UNL A   1      40.415  37.526  40.720  1.00  0.00    -0.744 OA
ENDBRANCH  71  72
ENDBRANCH  39  64
ENDBRANCH  13  14
ENDBRANCH   6   8
ENDBRANCH   3   4
ENDBRANCH   2   3
ENDBRANCH   1   2
BRANCH   1  76
ATOM     76  C   UNL A   1      38.373  23.233  26.483  1.00  0.00     0.002 C 
BRANCH  76  77
ATOM     77  C   UNL A   1      37.366  23.725  25.437  1.00  0.00     0.021 C 
BRANCH  77  78
ATOM     78  C   UNL A   1      36.715  22.632  24.592  1.00  0.00     0.116 C 
BRANCH  78  79
ATOM     79  N   UNL A   1      35.546  22.061  25.239  1.00  0.00    -0.351 N 
ATOM     80  C   UNL A   1      34.223  22.410  25.086  1.00  0.00     0.271 C 
ATOM     81  H   UNL A   1      35.723  21.327  25.872  1.00  0.00     0.163 HD
ATOM     82  O   UNL A   1      33.362  21.885  25.784  1.00  0.00    -0.267 OA
BRANCH  80  83
ATOM     83  C   UNL A   1      33.848  23.392  24.044  1.00  0.00     0.148 A 
ATOM     84  C   UNL A   1      33.639  22.953  22.747  1.00  0.00     0.145 A 
ATOM     85  N   UNL A   1      33.734  24.696  24.418  1.00  0.00    -0.222 NA
ATOM     86  N   UNL A   1      33.341  23.807  21.747  1.00  0.00    -0.258 NA
ATOM     87  C   UNL A   1      33.409  25.565  23.437  1.00  0.00     0.149 A 
ATOM     88  C   UNL A   1      33.243  25.108  22.123  1.00  0.00     0.158 A 
BRANCH  87  89
ATOM     89  N   UNL A   1      33.307  26.906  23.807  1.00  0.00    -0.338 N 
ATOM     90  H   UNL A   1      33.468  27.537  23.069  1.00  0.00     0.168 HD
BRANCH  89  91
ATOM     91  C   UNL A   1      33.015  27.525  25.034  1.00  0.00     0.060 A 
ATOM     92  C   UNL A   1      34.023  28.125  25.805  1.00  0.00     0.048 A 
ATOM     93  C   UNL A   1      31.714  27.478  25.571  1.00  0.00     0.064 A 
ATOM     94  C   UNL A   1      33.748  28.624  27.080  1.00  0.00     0.043 A 
ATOM     95  C   UNL A   1      31.442  27.969  26.853  1.00  0.00     0.024 A 
ATOM     96  Cl  UNL A   1      30.410  26.777  24.675  1.00  0.00    -0.082 Cl
ATOM     97  Cl  UNL A   1      35.009  29.342  28.003  1.00  0.00    -0.084 Cl
ATOM     98  C   UNL A   1      32.466  28.534  27.613  1.00  0.00     0.022 A 
ENDBRANCH  89  91
ENDBRANCH  87  89
ENDBRANCH  80  83
ENDBRANCH  78  79
ENDBRANCH  77  78
ENDBRANCH  76  77
ENDBRANCH   1  76
TORSDOF 18
ENDMDL
MODEL 3
REMARK VINA RESULT:     -11.9      4.999      7.823
REMARK SMILES O=C(NCCCCCCNC(=O)c1cncc(Nc2cc(Cl)ccc2Cl)n1)c1ccc(-c2c3nc(c(-c4c(F)cc(S(=O)(=O)[O-])cc4F)c4ccc([nH]4)c(-c4c(F)cc(S(=O)(=O)[O-])cc4F)c4nc(c(-c5c(F)cc(S(=O)(=O)[O-])cc5F)c5ccc2[nH]5)C=C4)C=C3)cc1
REMARK SMILES IDX 6 1 5 2 4 3 3 4 1 5 2 6 28 8 29 9 93 10 30 11 92 12 31 13
REMARK SMILES IDX 32 14 33 15 86 16 34 17 91 18 85 19 87 20 35 21 90 22 84 23
REMARK SMILES IDX 83 24 36 26 70 27 49 28 69 29 50 30 53 31 68 32 88 33 51 34
REMARK SMILES IDX 52 35 67 37 89 38 54 39 37 40 38 41 47 42 39 43 40 44 46 45
REMARK SMILES IDX 48 46 41 47 42 48 43 49 44 50 45 51 71 52 72 53 81 54 73 55
REMARK SMILES IDX 74 56 80 57 82 58 75 59 76 60 77 61 78 62 79 63 55 64 56 65
REMARK SMILES IDX 65 66 57 67 58 68 64 69 66 70 59 71 60 72 61 73 62 74 63 75
REMARK SMILES IDX 7 76 8 77 9 78 10 79 11 80 12 82 13 83 14 84 27 85 15 86
REMARK SMILES IDX 17 87 16 88 18 89 19 91 20 92 25 93 21 94 24 95 26 96 22 97
REMARK SMILES IDX 23 98
REMARK H PARENT 3 7 87 25 53 36 10 81 18 90
REMARK Flexibility Score: inf
ROOT
ATOM      1  C   UNL A   1      42.457  20.759  26.938  1.00  0.00     0.002 C 
ENDROOT
BRANCH   1   2
ATOM      2  C   UNL A   1      41.358  21.370  26.068  1.00  0.00     0.021 C 
BRANCH   2   3
ATOM      3  C   UNL A   1      40.075  21.746  26.803  1.00  0.00     0.116 C 
BRANCH   3   4
ATOM      4  N   UNL A   1      39.055  22.285  25.919  1.00  0.00    -0.352 N 
ATOM      5  O   UNL A   1      37.554  23.783  25.156  1.00  0.00    -0.269 OA
ATOM      6  C   UNL A   1      38.512  23.547  25.887  1.00  0.00     0.251 C 
ATOM      7  H   UNL A   1      38.702  21.656  25.249  1.00  0.00     0.163 HD
BRANCH   6   8
ATOM      8  C   UNL A   1      39.065  24.613  26.754  1.00  0.00     0.039 A 
ATOM      9  C   UNL A   1      38.694  24.710  28.098  1.00  0.00     0.014 A 
ATOM     10  C   UNL A   1      39.971  25.527  26.210  1.00  0.00     0.014 A 
ATOM     11  C   UNL A   1      39.120  25.795  28.858  1.00  0.00     0.010 A 
ATOM     12  C   UNL A   1      40.458  26.576  26.997  1.00  0.00     0.010 A 
ATOM     13  C   UNL A   1      40.011  26.738  28.318  1.00  0.00    -0.014 A 
BRANCH  13  14
ATOM     14  C   UNL A   1      40.493  27.859  29.165  1.00  0.00     0.031 A 
ATOM     15  C   UNL A   1      41.870  27.841  29.770  1.00  0.00     0.074 A 
ATOM     16  C   UNL A   1      39.681  28.916  29.366  1.00  0.00     0.049 A 
ATOM     17  N   UNL A   1      42.457  28.750  30.507  1.00  0.00    -0.248 NA
ATOM     18  C   UNL A   1      42.692  26.647  29.523  1.00  0.00     0.031 C 
ATOM     19  C   UNL A   1      38.320  29.042  28.840  1.00  0.00     0.029 A 
ATOM     20  N   UNL A   1      39.884  30.088  30.047  1.00  0.00    -0.354 N 
ATOM     21  C   UNL A   1      43.705  28.231  30.832  1.00  0.00     0.074 A 
ATOM     22  C   UNL A   1      43.782  26.917  30.228  1.00  0.00     0.031 C 
ATOM     23  C   UNL A   1      37.829  30.243  29.176  1.00  0.00     0.029 A 
ATOM     24  C   UNL A   1      38.816  30.950  29.985  1.00  0.00     0.049 A 
ATOM     25  H   UNL A   1      40.715  30.292  30.534  1.00  0.00     0.167 HD
ATOM     26  C   UNL A   1      44.697  28.801  31.560  1.00  0.00     0.037 A 
ATOM     27  C   UNL A   1      38.644  32.172  30.524  1.00  0.00     0.037 A 
ATOM     28  C   UNL A   1      44.619  30.116  32.147  1.00  0.00     0.049 A 
ATOM     29  C   UNL A   1      39.753  32.779  31.332  1.00  0.00     0.074 A 
ATOM     30  C   UNL A   1      45.585  30.796  32.869  1.00  0.00     0.029 A 
ATOM     31  N   UNL A   1      43.510  30.948  32.083  1.00  0.00    -0.354 N 
ATOM     32  N   UNL A   1      40.938  32.287  31.601  1.00  0.00    -0.248 NA
ATOM     33  C   UNL A   1      39.501  34.104  31.913  1.00  0.00     0.031 C 
ATOM     34  C   UNL A   1      45.046  32.024  33.273  1.00  0.00     0.029 A 
ATOM     35  C   UNL A   1      43.760  32.127  32.768  1.00  0.00     0.049 A 
ATOM     36  H   UNL A   1      42.669  30.732  31.619  1.00  0.00     0.167 HD
ATOM     37  C   UNL A   1      41.583  33.250  32.368  1.00  0.00     0.074 A 
ATOM     38  C   UNL A   1      40.657  34.357  32.510  1.00  0.00     0.031 C 
ATOM     39  C   UNL A   1      42.828  33.220  32.903  1.00  0.00     0.037 A 
BRANCH  26  40
ATOM     40  C   UNL A   1      45.944  27.989  31.786  1.00  0.00     0.058 A 
ATOM     41  C   UNL A   1      46.115  27.197  32.933  1.00  0.00     0.135 A 
ATOM     42  C   UNL A   1      46.979  27.996  30.836  1.00  0.00     0.135 A 
ATOM     43  F   UNL A   1      45.162  27.163  33.879  1.00  0.00    -0.206 F 
ATOM     44  C   UNL A   1      47.284  26.475  33.151  1.00  0.00     0.059 A 
ATOM     45  C   UNL A   1      48.148  27.262  31.022  1.00  0.00     0.059 A 
ATOM     46  F   UNL A   1      46.867  28.731  29.719  1.00  0.00    -0.206 F 
ATOM     47  C   UNL A   1      48.300  26.522  32.194  1.00  0.00     0.060 A 
BRANCH  47  48
ATOM     48  S   UNL A   1      49.826  25.608  32.504  1.00  0.00     0.124 S 
ATOM     49  O   UNL A   1      50.696  26.664  33.011  1.00  0.00    -0.237 OA
ATOM     50  O   UNL A   1      49.404  24.612  33.484  1.00  0.00    -0.237 OA
ATOM     51  O   UNL A   1      50.178  25.080  31.190  1.00  0.00    -0.744 OA
ENDBRANCH  47  48
ENDBRANCH  26  40
BRANCH  27  52
ATOM     52  C   UNL A   1      37.372  32.902  30.284  1.00  0.00     0.058 A 
ATOM     53  C   UNL A   1      37.230  33.753  29.181  1.00  0.00     0.135 A 
ATOM     54  C   UNL A   1      36.257  32.712  31.116  1.00  0.00     0.135 A 
ATOM     55  F   UNL A   1      38.270  33.968  28.361  1.00  0.00    -0.206 F 
ATOM     56  C   UNL A   1      36.025  34.392  28.906  1.00  0.00     0.059 A 
ATOM     57  C   UNL A   1      35.036  33.319  30.849  1.00  0.00     0.059 A 
ATOM     58  F   UNL A   1      36.342  31.890  32.175  1.00  0.00    -0.206 F 
ATOM     59  C   UNL A   1      34.931  34.161  29.743  1.00  0.00     0.060 A 
BRANCH  59  60
ATOM     60  S   UNL A   1      33.348  34.924  29.328  1.00  0.00     0.124 S 
ATOM     61  O   UNL A   1      32.695  34.970  30.631  1.00  0.00    -0.237 OA
ATOM     62  O   UNL A   1      33.761  36.211  28.775  1.00  0.00    -0.237 OA
ATOM     63  O   UNL A   1      32.770  33.993  28.364  1.00  0.00    -0.744 OA
ENDBRANCH  59  60
ENDBRANCH  27  52
BRANCH  39  64
ATOM     64  C   UNL A   1      43.273  34.433  33.669  1.00  0.00     0.058 A 
ATOM     65  C   UNL A   1      43.792  35.564  33.021  1.00  0.00     0.135 A 
ATOM     66  C   UNL A   1      43.148  34.475  35.067  1.00  0.00     0.135 A 
ATOM     67  F   UNL A   1      43.939  35.570  31.686  1.00  0.00    -0.206 F 
ATOM     68  C   UNL A   1      44.195  36.688  33.735  1.00  0.00     0.059 A 
ATOM     69  C   UNL A   1      43.524  35.597  35.799  1.00  0.00     0.059 A 
ATOM     70  F   UNL A   1      42.651  33.422  35.733  1.00  0.00    -0.206 F 
ATOM     71  C   UNL A   1      44.059  36.694  35.125  1.00  0.00     0.060 A 
BRANCH  71  72
ATOM     72  S   UNL A   1      44.563  38.166  36.041  1.00  0.00     0.124 S 
ATOM     73  O   UNL A   1      44.149  39.232  35.134  1.00  0.00    -0.237 OA
ATOM     74  O   UNL A   1      43.793  38.048  37.275  1.00  0.00    -0.237 OA
ATOM     75  O   UNL A   1      46.005  37.993  36.192  1.00  0.00    -0.744 OA
ENDBRANCH  71  72
ENDBRANCH  39  64
ENDBRANCH  13  14
ENDBRANCH   6   8
ENDBRANCH   3   4
ENDBRANCH   2   3
ENDBRANCH   1   2
BRANCH   1  76
ATOM     76  C   UNL A   1      42.235  19.304  27.365  1.00  0.00     0.002 C 
BRANCH  76  77
ATOM     77  C   UNL A   1      42.932  18.242  26.508  1.00  0.00     0.021 C 
BRANCH  77  78
ATOM     78  C   UNL A   1      43.600  18.763  25.237  1.00  0.00     0.116 C 
BRANCH  78  79
ATOM     79  N   UNL A   1      45.045  18.619  25.279  1.00  0.00    -0.351 N 
ATOM     80  C   UNL A   1      46.010  19.584  25.092  1.00  0.00     0.271 C 
ATOM     81  H   UNL A   1      45.379  17.712  25.465  1.00  0.00     0.163 HD
ATOM     82  O   UNL A   1      47.196  19.274  25.067  1.00  0.00    -0.267 OA
BRANCH  80  83
ATOM     83  C   UNL A   1      45.603  21.001  24.963  1.00  0.00     0.148 A 
ATOM     84  C   UNL A   1      44.805  21.379  23.895  1.00  0.00     0.145 A 
ATOM     85  N   UNL A   1      46.046  21.875  25.908  1.00  0.00    -0.222 NA
ATOM     86  N   UNL A   1      44.441  22.663  23.699  1.00  0.00    -0.258 NA
ATOM     87  C   UNL A   1      45.671  23.161  25.746  1.00  0.00     0.149 A 
ATOM     88  C   UNL A   1      44.899  23.531  24.637  1.00  0.00     0.158 A 
BRANCH  87  89
ATOM     89  N   UNL A   1      46.135  24.066  26.700  1.00  0.00    -0.338 N 
ATOM     90  H   UNL A   1      46.526  23.641  27.497  1.00  0.00     0.168 HD
BRANCH  89  91
ATOM     91  C   UNL A   1      46.149  25.471  26.736  1.00  0.00     0.060 A 
ATOM     92  C   UNL A   1      44.958  26.213  26.694  1.00  0.00     0.048 A 
ATOM     93  C   UNL A   1      47.367  26.178  26.723  1.00  0.00     0.064 A 
ATOM     94  C   UNL A   1      44.985  27.606  26.601  1.00  0.00     0.043 A 
ATOM     95  C   UNL A   1      47.393  27.573  26.619  1.00  0.00     0.024 A 
ATOM     96  Cl  UNL A   1      48.879  25.339  26.797  1.00  0.00    -0.082 Cl
ATOM     97  Cl  UNL A   1      43.507  28.483  26.538  1.00  0.00    -0.084 Cl
ATOM     98  C   UNL A   1      46.197  28.288  26.548  1.00  0.00     0.022 A 
ENDBRANCH  89  91
ENDBRANCH  87  89
ENDBRANCH  80  83
ENDBRANCH  78  79
ENDBRANCH  77  78
ENDBRANCH  76  77
ENDBRANCH   1  76
TORSDOF 18
ENDMDL
