MODEL 1
REMARK VINA RESULT:     -11.9      0.000      0.000
REMARK SMILES O=C(NCCCCCCNC(=O)c1cc(Cl)ncc1-c1cccc(C(F)(F)F)c1)c1ccc(-c2c3nc(c(-c4c(F)cc(S(=O)(=O)[O-])cc4F)c4ccc([nH]4)c(-c4c(F)cc(S(=O)(=O)[O-])cc4F)c4nc(c(-c5c(F)cc(S(=O)(=O)[O-])cc5F)c5ccc2[nH]5)C=C4)C=C3)cc1
REMARK SMILES IDX 6 1 5 2 4 3 3 4 1 5 2 6 30 8 31 9 95 10 32 11 94 12 33 13
REMARK SMILES IDX 34 14 35 15 88 16 36 17 93 18 87 19 89 20 37 21 92 22 86 23
REMARK SMILES IDX 85 24 38 26 72 27 51 28 71 29 52 30 55 31 70 32 90 33 53 34
REMARK SMILES IDX 54 35 69 37 91 38 56 39 39 40 40 41 49 42 41 43 42 44 48 45
REMARK SMILES IDX 50 46 43 47 44 48 45 49 46 50 47 51 73 52 74 53 83 54 75 55
REMARK SMILES IDX 76 56 82 57 84 58 77 59 78 60 79 61 80 62 81 63 57 64 58 65
REMARK SMILES IDX 67 66 59 67 60 68 66 69 68 70 61 71 62 72 63 73 64 74 65 75
REMARK SMILES IDX 7 76 8 77 9 78 10 79 11 80 12 82 13 83 14 84 19 85 15 86
REMARK SMILES IDX 18 87 16 88 17 89 20 90 21 91 29 92 22 93 24 94 23 95 25 96
REMARK SMILES IDX 26 97 27 98 28 99
REMARK H PARENT 3 7 89 25 55 36 10 81
REMARK Flexibility Score: inf
ROOT
ATOM      1  C   UNL A   1      36.974  19.836  24.976  1.00  0.00     0.002 C 
ENDROOT
BRANCH   1   2
ATOM      2  C   UNL A   1      38.463  20.096  24.748  1.00  0.00     0.021 C 
BRANCH   2   3
ATOM      3  C   UNL A   1      39.300  20.189  26.016  1.00  0.00     0.116 C 
BRANCH   3   4
ATOM      4  N   UNL A   1      40.400  19.239  26.030  1.00  0.00    -0.352 N 
ATOM      5  O   UNL A   1      42.552  18.567  25.928  1.00  0.00    -0.269 OA
ATOM      6  C   UNL A   1      41.752  19.482  26.097  1.00  0.00     0.251 C 
ATOM      7  H   UNL A   1      40.142  18.290  25.984  1.00  0.00     0.163 HD
BRANCH   6   8
ATOM      8  C   UNL A   1      42.234  20.858  26.352  1.00  0.00     0.039 A 
ATOM      9  C   UNL A   1      42.476  21.731  25.289  1.00  0.00     0.014 A 
ATOM     10  C   UNL A   1      42.450  21.276  27.668  1.00  0.00     0.014 A 
ATOM     11  C   UNL A   1      43.068  22.965  25.530  1.00  0.00     0.010 A 
ATOM     12  C   UNL A   1      42.957  22.556  27.913  1.00  0.00     0.010 A 
ATOM     13  C   UNL A   1      43.295  23.402  26.846  1.00  0.00    -0.014 A 
BRANCH  13  14
ATOM     14  C   UNL A   1      43.810  24.777  27.075  1.00  0.00     0.031 A 
ATOM     15  C   UNL A   1      42.899  25.893  27.508  1.00  0.00     0.074 A 
ATOM     16  C   UNL A   1      45.128  25.002  26.908  1.00  0.00     0.049 A 
ATOM     17  N   UNL A   1      43.193  27.144  27.754  1.00  0.00    -0.248 NA
ATOM     18  C   UNL A   1      41.475  25.568  27.681  1.00  0.00     0.031 C 
ATOM     19  C   UNL A   1      46.105  23.996  26.479  1.00  0.00     0.029 A 
ATOM     20  N   UNL A   1      45.880  26.134  27.087  1.00  0.00    -0.354 N 
ATOM     21  C   UNL A   1      41.996  27.761  28.098  1.00  0.00     0.074 A 
ATOM     22  C   UNL A   1      40.963  26.750  27.998  1.00  0.00     0.031 C 
ATOM     23  C   UNL A   1      47.328  24.544  26.471  1.00  0.00     0.029 A 
ATOM     24  C   UNL A   1      47.217  25.954  26.823  1.00  0.00     0.049 A 
ATOM     25  H   UNL A   1      45.499  26.994  27.379  1.00  0.00     0.167 HD
ATOM     26  C   UNL A   1      41.782  29.047  28.469  1.00  0.00     0.037 A 
ATOM     27  C   UNL A   1      48.240  26.829  26.834  1.00  0.00     0.037 A 
ATOM     28  C   UNL A   1      42.822  30.042  28.564  1.00  0.00     0.049 A 
ATOM     29  C   UNL A   1      47.968  28.257  27.210  1.00  0.00     0.074 A 
ATOM     30  C   UNL A   1      42.713  31.366  28.956  1.00  0.00     0.029 A 
ATOM     31  N   UNL A   1      44.161  29.828  28.260  1.00  0.00    -0.354 N 
ATOM     32  N   UNL A   1      46.833  28.812  27.564  1.00  0.00    -0.248 NA
ATOM     33  C   UNL A   1      49.111  29.176  27.187  1.00  0.00     0.031 C 
ATOM     34  C   UNL A   1      43.972  31.964  28.838  1.00  0.00     0.029 A 
ATOM     35  C   UNL A   1      44.880  31.000  28.430  1.00  0.00     0.049 A 
ATOM     36  H   UNL A   1      44.541  28.970  27.965  1.00  0.00     0.167 HD
ATOM     37  C   UNL A   1      47.131  30.144  27.827  1.00  0.00     0.074 A 
ATOM     38  C   UNL A   1      48.555  30.304  27.609  1.00  0.00     0.031 C 
ATOM     39  C   UNL A   1      46.299  31.143  28.212  1.00  0.00     0.037 A 
BRANCH  26  40
ATOM     40  C   UNL A   1      40.370  29.464  28.785  1.00  0.00     0.058 A 
ATOM     41  C   UNL A   1      39.411  29.654  27.777  1.00  0.00     0.135 A 
ATOM     42  C   UNL A   1      39.955  29.628  30.117  1.00  0.00     0.135 A 
ATOM     43  F   UNL A   1      39.753  29.523  26.486  1.00  0.00    -0.206 F 
ATOM     44  C   UNL A   1      38.101  30.015  28.075  1.00  0.00     0.059 A 
ATOM     45  C   UNL A   1      38.642  29.963  30.441  1.00  0.00     0.059 A 
ATOM     46  F   UNL A   1      40.826  29.458  31.123  1.00  0.00    -0.206 F 
ATOM     47  C   UNL A   1      37.726  30.168  29.411  1.00  0.00     0.060 A 
BRANCH  47  48
ATOM     48  S   UNL A   1      36.021  30.637  29.779  1.00  0.00     0.124 S 
ATOM     49  O   UNL A   1      36.092  32.092  29.678  1.00  0.00    -0.237 OA
ATOM     50  O   UNL A   1      35.276  29.965  28.719  1.00  0.00    -0.237 OA
ATOM     51  O   UNL A   1      35.804  30.112  31.123  1.00  0.00    -0.744 OA
ENDBRANCH  47  48
ENDBRANCH  26  40
BRANCH  27  52
ATOM     52  C   UNL A   1      49.606  26.373  26.465  1.00  0.00     0.058 A 
ATOM     53  C   UNL A   1      50.462  25.805  27.418  1.00  0.00     0.135 A 
ATOM     54  C   UNL A   1      50.072  26.478  25.144  1.00  0.00     0.135 A 
ATOM     55  F   UNL A   1      50.063  25.685  28.693  1.00  0.00    -0.206 F 
ATOM     56  C   UNL A   1      51.741  25.373  27.080  1.00  0.00     0.059 A 
ATOM     57  C   UNL A   1      51.334  26.023  24.776  1.00  0.00     0.059 A 
ATOM     58  F   UNL A   1      49.283  26.996  24.190  1.00  0.00    -0.206 F 
ATOM     59  C   UNL A   1      52.166  25.484  25.754  1.00  0.00     0.060 A 
BRANCH  59  60
ATOM     60  S   UNL A   1      53.811  24.883  25.319  1.00  0.00     0.124 S 
ATOM     61  O   UNL A   1      54.567  25.197  26.525  1.00  0.00    -0.237 OA
ATOM     62  O   UNL A   1      53.563  23.465  25.071  1.00  0.00    -0.237 OA
ATOM     63  O   UNL A   1      54.153  25.667  24.136  1.00  0.00    -0.744 OA
ENDBRANCH  59  60
ENDBRANCH  27  52
BRANCH  39  64
ATOM     64  C   UNL A   1      46.917  32.493  28.459  1.00  0.00     0.058 A 
ATOM     65  C   UNL A   1      47.011  33.460  27.447  1.00  0.00     0.135 A 
ATOM     66  C   UNL A   1      47.388  32.834  29.737  1.00  0.00     0.135 A 
ATOM     67  F   UNL A   1      46.584  33.183  26.203  1.00  0.00    -0.206 F 
ATOM     68  C   UNL A   1      47.574  34.709  27.685  1.00  0.00     0.059 A 
ATOM     69  C   UNL A   1      47.927  34.088  30.006  1.00  0.00     0.059 A 
ATOM     70  F   UNL A   1      47.315  31.949  30.743  1.00  0.00    -0.206 F 
ATOM     71  C   UNL A   1      48.028  35.015  28.970  1.00  0.00     0.060 A 
BRANCH  71  72
ATOM     72  S   UNL A   1      48.729  36.650  29.274  1.00  0.00     0.124 S 
ATOM     73  O   UNL A   1      48.464  37.324  28.008  1.00  0.00    -0.237 OA
ATOM     74  O   UNL A   1      47.949  37.116  30.416  1.00  0.00    -0.237 OA
ATOM     75  O   UNL A   1      50.134  36.371  29.555  1.00  0.00    -0.744 OA
ENDBRANCH  71  72
ENDBRANCH  39  64
ENDBRANCH  13  14
ENDBRANCH   6   8
ENDBRANCH   3   4
ENDBRANCH   2   3
ENDBRANCH   1   2
BRANCH   1  76
ATOM     76  C   UNL A   1      36.065  21.063  24.854  1.00  0.00     0.002 C 
BRANCH  76  77
ATOM     77  C   UNL A   1      35.761  21.799  26.163  1.00  0.00     0.021 C 
BRANCH  77  78
ATOM     78  C   UNL A   1      35.704  23.320  26.057  1.00  0.00     0.116 C 
BRANCH  78  79
ATOM     79  N   UNL A   1      35.469  23.773  24.695  1.00  0.00    -0.352 N 
ATOM     80  C   UNL A   1      34.325  24.266  24.123  1.00  0.00     0.252 C 
ATOM     81  H   UNL A   1      36.248  23.719  24.095  1.00  0.00     0.163 HD
ATOM     82  O   UNL A   1      34.304  24.573  22.932  1.00  0.00    -0.269 OA
BRANCH  80  83
ATOM     83  C   UNL A   1      33.118  24.446  24.954  1.00  0.00     0.052 A 
ATOM     84  C   UNL A   1      32.943  25.682  25.583  1.00  0.00     0.055 A 
ATOM     85  C   UNL A   1      32.152  23.432  25.069  1.00  0.00     0.013 A 
ATOM     86  C   UNL A   1      31.832  25.841  26.378  1.00  0.00     0.129 A 
ATOM     87  C   UNL A   1      31.074  23.726  25.905  1.00  0.00     0.122 A 
ATOM     88  Cl  UNL A   1      31.557  27.302  27.226  1.00  0.00    -0.062 Cl
ATOM     89  N   UNL A   1      30.896  24.893  26.568  1.00  0.00    -0.244 NA
BRANCH  85  90
ATOM     90  C   UNL A   1      32.198  22.147  24.356  1.00  0.00    -0.015 A 
ATOM     91  C   UNL A   1      31.901  22.100  22.983  1.00  0.00     0.009 A 
ATOM     92  C   UNL A   1      32.528  20.947  25.006  1.00  0.00     0.021 A 
ATOM     93  C   UNL A   1      31.932  20.897  22.277  1.00  0.00     0.001 A 
ATOM     94  C   UNL A   1      32.567  19.727  24.305  1.00  0.00     0.056 A 
ATOM     95  C   UNL A   1      32.263  19.716  22.935  1.00  0.00     0.013 A 
BRANCH  94  96
ATOM     96  C   UNL A   1      32.934  18.436  24.996  1.00  0.00     0.416 C 
ATOM     97  F   UNL A   1      34.171  17.991  24.634  1.00  0.00    -0.166 F 
ATOM     98  F   UNL A   1      32.970  18.561  26.352  1.00  0.00    -0.166 F 
ATOM     99  F   UNL A   1      32.079  17.410  24.735  1.00  0.00    -0.166 F 
ENDBRANCH  94  96
ENDBRANCH  85  90
ENDBRANCH  80  83
ENDBRANCH  78  79
ENDBRANCH  77  78
ENDBRANCH  76  77
ENDBRANCH   1  76
TORSDOF 18
ENDMDL
MODEL 2
REMARK VINA RESULT:     -11.9      6.899     10.865
REMARK SMILES O=C(NCCCCCCNC(=O)c1cc(Cl)ncc1-c1cccc(C(F)(F)F)c1)c1ccc(-c2c3nc(c(-c4c(F)cc(S(=O)(=O)[O-])cc4F)c4ccc([nH]4)c(-c4c(F)cc(S(=O)(=O)[O-])cc4F)c4nc(c(-c5c(F)cc(S(=O)(=O)[O-])cc5F)c5ccc2[nH]5)C=C4)C=C3)cc1
REMARK SMILES IDX 6 1 5 2 4 3 3 4 1 5 2 6 30 8 31 9 95 10 32 11 94 12 33 13
REMARK SMILES IDX 34 14 35 15 88 16 36 17 93 18 87 19 89 20 37 21 92 22 86 23
REMARK SMILES IDX 85 24 38 26 72 27 51 28 71 29 52 30 55 31 70 32 90 33 53 34
REMARK SMILES IDX 54 35 69 37 91 38 56 39 39 40 40 41 49 42 41 43 42 44 48 45
REMARK SMILES IDX 50 46 43 47 44 48 45 49 46 50 47 51 73 52 74 53 83 54 75 55
REMARK SMILES IDX 76 56 82 57 84 58 77 59 78 60 79 61 80 62 81 63 57 64 58 65
REMARK SMILES IDX 67 66 59 67 60 68 66 69 68 70 61 71 62 72 63 73 64 74 65 75
REMARK SMILES IDX 7 76 8 77 9 78 10 79 11 80 12 82 13 83 14 84 19 85 15 86
REMARK SMILES IDX 18 87 16 88 17 89 20 90 21 91 29 92 22 93 24 94 23 95 25 96
REMARK SMILES IDX 26 97 27 98 28 99
REMARK H PARENT 3 7 89 25 55 36 10 81
REMARK Flexibility Score: inf
ROOT
ATOM      1  C   UNL A   1      31.196  31.510  26.486  1.00  0.00     0.002 C 
ENDROOT
BRANCH   1   2
ATOM      2  C   UNL A   1      31.708  32.950  26.489  1.00  0.00     0.021 C 
BRANCH   2   3
ATOM      3  C   UNL A   1      32.696  33.280  27.600  1.00  0.00     0.116 C 
BRANCH   3   4
ATOM      4  N   UNL A   1      32.599  34.661  28.041  1.00  0.00    -0.352 N 
ATOM      5  O   UNL A   1      32.953  36.424  29.403  1.00  0.00    -0.269 OA
ATOM      6  C   UNL A   1      33.280  35.295  29.054  1.00  0.00     0.251 C 
ATOM      7  H   UNL A   1      31.958  35.220  27.547  1.00  0.00     0.163 HD
BRANCH   6   8
ATOM      8  C   UNL A   1      34.392  34.595  29.735  1.00  0.00     0.039 A 
ATOM      9  C   UNL A   1      34.185  33.965  30.964  1.00  0.00     0.014 A 
ATOM     10  C   UNL A   1      35.656  34.574  29.139  1.00  0.00     0.014 A 
ATOM     11  C   UNL A   1      35.266  33.443  31.663  1.00  0.00     0.010 A 
ATOM     12  C   UNL A   1      36.724  33.962  29.802  1.00  0.00     0.010 A 
ATOM     13  C   UNL A   1      36.544  33.414  31.081  1.00  0.00    -0.014 A 
BRANCH  13  14
ATOM     14  C   UNL A   1      37.653  32.733  31.798  1.00  0.00     0.031 A 
ATOM     15  C   UNL A   1      38.138  33.219  33.136  1.00  0.00     0.074 A 
ATOM     16  C   UNL A   1      38.209  31.643  31.230  1.00  0.00     0.049 A 
ATOM     17  N   UNL A   1      39.090  32.734  33.892  1.00  0.00    -0.248 NA
ATOM     18  C   UNL A   1      37.476  34.407  33.698  1.00  0.00     0.031 C 
ATOM     19  C   UNL A   1      37.826  31.087  29.929  1.00  0.00     0.029 A 
ATOM     20  N   UNL A   1      39.197  30.801  31.670  1.00  0.00    -0.354 N 
ATOM     21  C   UNL A   1      39.153  33.558  35.009  1.00  0.00     0.074 A 
ATOM     22  C   UNL A   1      38.161  34.596  34.818  1.00  0.00     0.031 C 
ATOM     23  C   UNL A   1      38.539  29.976  29.697  1.00  0.00     0.029 A 
ATOM     24  C   UNL A   1      39.477  29.779  30.795  1.00  0.00     0.049 A 
ATOM     25  H   UNL A   1      39.661  30.917  32.531  1.00  0.00     0.167 HD
ATOM     26  C   UNL A   1      39.957  33.452  36.095  1.00  0.00     0.037 A 
ATOM     27  C   UNL A   1      40.403  28.804  30.851  1.00  0.00     0.037 A 
ATOM     28  C   UNL A   1      40.941  32.411  36.271  1.00  0.00     0.049 A 
ATOM     29  C   UNL A   1      41.309  28.734  32.047  1.00  0.00     0.074 A 
ATOM     30  C   UNL A   1      41.788  32.200  37.346  1.00  0.00     0.029 A 
ATOM     31  N   UNL A   1      41.216  31.409  35.348  1.00  0.00    -0.354 N 
ATOM     32  N   UNL A   1      41.330  29.504  33.110  1.00  0.00    -0.248 NA
ATOM     33  C   UNL A   1      42.316  27.667  32.053  1.00  0.00     0.031 C 
ATOM     34  C   UNL A   1      42.609  31.106  37.051  1.00  0.00     0.029 A 
ATOM     35  C   UNL A   1      42.234  30.596  35.818  1.00  0.00     0.049 A 
ATOM     36  H   UNL A   1      40.754  31.296  34.486  1.00  0.00     0.167 HD
ATOM     37  C   UNL A   1      42.340  29.000  33.921  1.00  0.00     0.074 A 
ATOM     38  C   UNL A   1      42.891  27.849  33.233  1.00  0.00     0.031 C 
ATOM     39  C   UNL A   1      42.771  29.451  35.125  1.00  0.00     0.037 A 
BRANCH  26  40
ATOM     40  C   UNL A   1      39.827  34.495  37.173  1.00  0.00     0.058 A 
ATOM     41  C   UNL A   1      40.455  35.747  37.073  1.00  0.00     0.135 A 
ATOM     42  C   UNL A   1      39.022  34.259  38.301  1.00  0.00     0.135 A 
ATOM     43  F   UNL A   1      41.246  36.024  36.025  1.00  0.00    -0.206 F 
ATOM     44  C   UNL A   1      40.311  36.716  38.061  1.00  0.00     0.059 A 
ATOM     45  C   UNL A   1      38.842  35.224  39.289  1.00  0.00     0.059 A 
ATOM     46  F   UNL A   1      38.395  33.082  38.450  1.00  0.00    -0.206 F 
ATOM     47  C   UNL A   1      39.503  36.445  39.166  1.00  0.00     0.060 A 
BRANCH  47  48
ATOM     48  S   UNL A   1      39.328  37.715  40.438  1.00  0.00     0.124 S 
ATOM     49  O   UNL A   1      38.338  38.601  39.830  1.00  0.00    -0.237 OA
ATOM     50  O   UNL A   1      38.864  36.944  41.587  1.00  0.00    -0.237 OA
ATOM     51  O   UNL A   1      40.673  38.267  40.558  1.00  0.00    -0.744 OA
ENDBRANCH  47  48
ENDBRANCH  26  40
BRANCH  27  52
ATOM     52  C   UNL A   1      40.522  27.830  29.734  1.00  0.00     0.058 A 
ATOM     53  C   UNL A   1      39.622  26.763  29.605  1.00  0.00     0.135 A 
ATOM     54  C   UNL A   1      41.525  27.964  28.760  1.00  0.00     0.135 A 
ATOM     55  F   UNL A   1      38.648  26.593  30.511  1.00  0.00    -0.206 F 
ATOM     56  C   UNL A   1      39.724  25.850  28.560  1.00  0.00     0.059 A 
ATOM     57  C   UNL A   1      41.626  27.083  27.689  1.00  0.00     0.059 A 
ATOM     58  F   UNL A   1      42.399  28.981  28.828  1.00  0.00    -0.206 F 
ATOM     59  C   UNL A   1      40.728  26.021  27.606  1.00  0.00     0.060 A 
BRANCH  59  60
ATOM     60  S   UNL A   1      40.825  24.854  26.232  1.00  0.00     0.124 S 
ATOM     61  O   UNL A   1      39.464  24.334  26.192  1.00  0.00    -0.237 OA
ATOM     62  O   UNL A   1      41.211  25.720  25.121  1.00  0.00    -0.237 OA
ATOM     63  O   UNL A   1      41.852  23.910  26.665  1.00  0.00    -0.744 OA
ENDBRANCH  59  60
ENDBRANCH  27  52
BRANCH  39  64
ATOM     64  C   UNL A   1      43.872  28.674  35.794  1.00  0.00     0.058 A 
ATOM     65  C   UNL A   1      45.226  28.983  35.590  1.00  0.00     0.135 A 
ATOM     66  C   UNL A   1      43.565  27.629  36.680  1.00  0.00     0.135 A 
ATOM     67  F   UNL A   1      45.576  29.967  34.745  1.00  0.00    -0.206 F 
ATOM     68  C   UNL A   1      46.238  28.267  36.220  1.00  0.00     0.059 A 
ATOM     69  C   UNL A   1      44.559  26.919  37.345  1.00  0.00     0.059 A 
ATOM     70  F   UNL A   1      42.286  27.297  36.916  1.00  0.00    -0.206 F 
ATOM     71  C   UNL A   1      45.894  27.237  37.098  1.00  0.00     0.060 A 
BRANCH  71  72
ATOM     72  S   UNL A   1      47.215  26.335  37.934  1.00  0.00     0.124 S 
ATOM     73  O   UNL A   1      48.385  27.133  37.581  1.00  0.00    -0.237 OA
ATOM     74  O   UNL A   1      46.801  26.400  39.332  1.00  0.00    -0.237 OA
ATOM     75  O   UNL A   1      47.156  25.007  37.330  1.00  0.00    -0.744 OA
ENDBRANCH  71  72
ENDBRANCH  39  64
ENDBRANCH  13  14
ENDBRANCH   6   8
ENDBRANCH   3   4
ENDBRANCH   2   3
ENDBRANCH   1   2
BRANCH   1  76
ATOM     76  C   UNL A   1      32.262  30.432  26.696  1.00  0.00     0.002 C 
BRANCH  76  77
ATOM     77  C   UNL A   1      32.630  29.610  25.456  1.00  0.00     0.021 C 
BRANCH  77  78
ATOM     78  C   UNL A   1      33.446  28.350  25.729  1.00  0.00     0.116 C 
BRANCH  78  79
ATOM     79  N   UNL A   1      32.693  27.348  26.465  1.00  0.00    -0.352 N 
ATOM     80  C   UNL A   1      32.361  26.067  26.109  1.00  0.00     0.252 C 
ATOM     81  H   UNL A   1      32.374  27.631  27.353  1.00  0.00     0.163 HD
ATOM     82  O   UNL A   1      31.681  25.366  26.857  1.00  0.00    -0.269 OA
BRANCH  80  83
ATOM     83  C   UNL A   1      32.844  25.523  24.824  1.00  0.00     0.052 A 
ATOM     84  C   UNL A   1      34.010  24.750  24.844  1.00  0.00     0.055 A 
ATOM     85  C   UNL A   1      32.134  25.729  23.630  1.00  0.00     0.013 A 
ATOM     86  C   UNL A   1      34.475  24.266  23.644  1.00  0.00     0.129 A 
ATOM     87  C   UNL A   1      32.716  25.181  22.485  1.00  0.00     0.122 A 
ATOM     88  Cl  UNL A   1      35.919  23.351  23.563  1.00  0.00    -0.062 Cl
ATOM     89  N   UNL A   1      33.867  24.470  22.461  1.00  0.00    -0.244 NA
BRANCH  85  90
ATOM     90  C   UNL A   1      30.846  26.431  23.532  1.00  0.00    -0.015 A 
ATOM     91  C   UNL A   1      29.674  25.806  23.993  1.00  0.00     0.009 A 
ATOM     92  C   UNL A   1      30.739  27.719  22.984  1.00  0.00     0.021 A 
ATOM     93  C   UNL A   1      28.435  26.442  23.913  1.00  0.00     0.001 A 
ATOM     94  C   UNL A   1      29.496  28.374  22.900  1.00  0.00     0.056 A 
ATOM     95  C   UNL A   1      28.346  27.719  23.368  1.00  0.00     0.013 A 
BRANCH  94  96
ATOM     96  C   UNL A   1      29.378  29.764  22.325  1.00  0.00     0.416 C 
ATOM     97  F   UNL A   1      28.262  29.912  21.557  1.00  0.00    -0.166 F 
ATOM     98  F   UNL A   1      29.293  30.723  23.288  1.00  0.00    -0.166 F 
ATOM     99  F   UNL A   1      30.425  30.121  21.531  1.00  0.00    -0.166 F 
ENDBRANCH  94  96
ENDBRANCH  85  90
ENDBRANCH  80  83
ENDBRANCH  78  79
ENDBRANCH  77  78
ENDBRANCH  76  77
ENDBRANCH   1  76
TORSDOF 18
ENDMDL
MODEL 3
REMARK VINA RESULT:     -11.9      6.950     11.435
REMARK SMILES O=C(NCCCCCCNC(=O)c1cc(Cl)ncc1-c1cccc(C(F)(F)F)c1)c1ccc(-c2c3nc(c(-c4c(F)cc(S(=O)(=O)[O-])cc4F)c4ccc([nH]4)c(-c4c(F)cc(S(=O)(=O)[O-])cc4F)c4nc(c(-c5c(F)cc(S(=O)(=O)[O-])cc5F)c5ccc2[nH]5)C=C4)C=C3)cc1
REMARK SMILES IDX 6 1 5 2 4 3 3 4 1 5 2 6 30 8 31 9 95 10 32 11 94 12 33 13
REMARK SMILES IDX 34 14 35 15 88 16 36 17 93 18 87 19 89 20 37 21 92 22 86 23
REMARK SMILES IDX 85 24 38 26 72 27 51 28 71 29 52 30 55 31 70 32 90 33 53 34
REMARK SMILES IDX 54 35 69 37 91 38 56 39 39 40 40 41 49 42 41 43 42 44 48 45
REMARK SMILES IDX 50 46 43 47 44 48 45 49 46 50 47 51 73 52 74 53 83 54 75 55
REMARK SMILES IDX 76 56 82 57 84 58 77 59 78 60 79 61 80 62 81 63 57 64 58 65
REMARK SMILES IDX 67 66 59 67 60 68 66 69 68 70 61 71 62 72 63 73 64 74 65 75
REMARK SMILES IDX 7 76 8 77 9 78 10 79 11 80 12 82 13 83 14 84 19 85 15 86
REMARK SMILES IDX 18 87 16 88 17 89 20 90 21 91 29 92 22 93 24 94 23 95 25 96
REMARK SMILES IDX 26 97 27 98 28 99
REMARK H PARENT 3 7 89 25 55 36 10 81
REMARK Flexibility Score: inf
ROOT
ATOM      1  C   UNL A   1      35.890  23.663  25.985  1.00  0.00     0.002 C 
ENDROOT
BRANCH   1   2
ATOM      2  C   UNL A   1      37.324  23.788  25.469  1.00  0.00     0.021 C 
BRANCH   2   3
ATOM      3  C   UNL A   1      38.330  24.311  26.486  1.00  0.00     0.116 C 
BRANCH   3   4
ATOM      4  N   UNL A   1      39.705  24.069  26.086  1.00  0.00    -0.352 N 
ATOM      5  O   UNL A   1      41.919  24.480  25.942  1.00  0.00    -0.269 OA
ATOM      6  C   UNL A   1      40.853  24.696  26.510  1.00  0.00     0.251 C 
ATOM      7  H   UNL A   1      39.833  23.357  25.418  1.00  0.00     0.163 HD
BRANCH   6   8
ATOM      8  C   UNL A   1      40.788  25.649  27.640  1.00  0.00     0.039 A 
ATOM      9  C   UNL A   1      39.716  25.615  28.534  1.00  0.00     0.014 A 
ATOM     10  C   UNL A   1      41.809  26.590  27.803  1.00  0.00     0.014 A 
ATOM     11  C   UNL A   1      39.589  26.606  29.499  1.00  0.00     0.010 A 
ATOM     12  C   UNL A   1      41.726  27.529  28.836  1.00  0.00     0.010 A 
ATOM     13  C   UNL A   1      40.603  27.562  29.677  1.00  0.00    -0.014 A 
BRANCH  13  14
ATOM     14  C   UNL A   1      40.500  28.529  30.800  1.00  0.00     0.031 A 
ATOM     15  C   UNL A   1      41.389  28.427  32.008  1.00  0.00     0.074 A 
ATOM     16  C   UNL A   1      39.597  29.526  30.704  1.00  0.00     0.049 A 
ATOM     17  N   UNL A   1      41.428  29.194  33.068  1.00  0.00    -0.248 NA
ATOM     18  C   UNL A   1      42.357  27.319  32.036  1.00  0.00     0.031 C 
ATOM     19  C   UNL A   1      38.673  29.718  29.581  1.00  0.00     0.029 A 
ATOM     20  N   UNL A   1      39.314  30.570  31.545  1.00  0.00    -0.354 N 
ATOM     21  C   UNL A   1      42.409  28.659  33.895  1.00  0.00     0.074 A 
ATOM     22  C   UNL A   1      42.922  27.482  33.226  1.00  0.00     0.031 C 
ATOM     23  C   UNL A   1      37.958  30.833  29.784  1.00  0.00     0.029 A 
ATOM     24  C   UNL A   1      38.319  31.397  31.079  1.00  0.00     0.049 A 
ATOM     25  H   UNL A   1      39.779  30.715  32.401  1.00  0.00     0.167 HD
ATOM     26  C   UNL A   1      42.844  29.115  35.094  1.00  0.00     0.037 A 
ATOM     27  C   UNL A   1      37.738  32.475  31.639  1.00  0.00     0.037 A 
ATOM     28  C   UNL A   1      42.323  30.291  35.748  1.00  0.00     0.049 A 
ATOM     29  C   UNL A   1      38.212  32.934  32.988  1.00  0.00     0.074 A 
ATOM     30  C   UNL A   1      42.715  30.851  36.953  1.00  0.00     0.029 A 
ATOM     31  N   UNL A   1      41.295  31.086  35.258  1.00  0.00    -0.354 N 
ATOM     32  N   UNL A   1      39.166  32.434  33.739  1.00  0.00    -0.248 NA
ATOM     33  C   UNL A   1      37.535  34.100  33.566  1.00  0.00     0.031 C 
ATOM     34  C   UNL A   1      41.889  31.950  37.215  1.00  0.00     0.029 A 
ATOM     35  C   UNL A   1      41.022  32.113  36.147  1.00  0.00     0.049 A 
ATOM     36  H   UNL A   1      40.827  30.939  34.404  1.00  0.00     0.167 HD
ATOM     37  C   UNL A   1      39.215  33.239  34.871  1.00  0.00     0.074 A 
ATOM     38  C   UNL A   1      38.210  34.268  34.695  1.00  0.00     0.031 C 
ATOM     39  C   UNL A   1      40.020  33.133  35.957  1.00  0.00     0.037 A 
BRANCH  26  40
ATOM     40  C   UNL A   1      43.926  28.336  35.794  1.00  0.00     0.058 A 
ATOM     41  C   UNL A   1      45.288  28.608  35.587  1.00  0.00     0.135 A 
ATOM     42  C   UNL A   1      43.597  27.335  36.725  1.00  0.00     0.135 A 
ATOM     43  F   UNL A   1      45.662  29.545  34.702  1.00  0.00    -0.206 F 
ATOM     44  C   UNL A   1      46.283  27.902  36.256  1.00  0.00     0.059 A 
ATOM     45  C   UNL A   1      44.575  26.633  37.425  1.00  0.00     0.059 A 
ATOM     46  F   UNL A   1      42.312  27.032  36.966  1.00  0.00    -0.206 F 
ATOM     47  C   UNL A   1      45.917  26.915  37.173  1.00  0.00     0.060 A 
BRANCH  47  48
ATOM     48  S   UNL A   1      47.222  26.008  38.031  1.00  0.00     0.124 S 
ATOM     49  O   UNL A   1      46.523  25.561  39.232  1.00  0.00    -0.237 OA
ATOM     50  O   UNL A   1      47.560  24.964  37.069  1.00  0.00    -0.237 OA
ATOM     51  O   UNL A   1      48.255  27.017  38.245  1.00  0.00    -0.744 OA
ENDBRANCH  47  48
ENDBRANCH  26  40
BRANCH  27  52
ATOM     52  C   UNL A   1      36.640  33.177  30.926  1.00  0.00     0.058 A 
ATOM     53  C   UNL A   1      36.901  33.993  29.817  1.00  0.00     0.135 A 
ATOM     54  C   UNL A   1      35.302  33.026  31.327  1.00  0.00     0.135 A 
ATOM     55  F   UNL A   1      38.163  34.171  29.397  1.00  0.00    -0.206 F 
ATOM     56  C   UNL A   1      35.878  34.652  29.141  1.00  0.00     0.059 A 
ATOM     57  C   UNL A   1      34.260  33.647  30.648  1.00  0.00     0.059 A 
ATOM     58  F   UNL A   1      34.997  32.238  32.371  1.00  0.00    -0.206 F 
ATOM     59  C   UNL A   1      34.560  34.469  29.564  1.00  0.00     0.060 A 
BRANCH  59  60
ATOM     60  S   UNL A   1      33.237  35.295  28.656  1.00  0.00     0.124 S 
ATOM     61  O   UNL A   1      32.568  34.166  28.020  1.00  0.00    -0.237 OA
ATOM     62  O   UNL A   1      32.496  35.956  29.727  1.00  0.00    -0.237 OA
ATOM     63  O   UNL A   1      33.956  36.193  27.757  1.00  0.00    -0.744 OA
ENDBRANCH  59  60
ENDBRANCH  27  52
BRANCH  39  64
ATOM     64  C   UNL A   1      39.870  34.181  37.025  1.00  0.00     0.058 A 
ATOM     65  C   UNL A   1      40.450  35.453  36.901  1.00  0.00     0.135 A 
ATOM     66  C   UNL A   1      39.105  33.920  38.174  1.00  0.00     0.135 A 
ATOM     67  F   UNL A   1      41.201  35.753  35.828  1.00  0.00    -0.206 F 
ATOM     68  C   UNL A   1      40.299  36.421  37.889  1.00  0.00     0.059 A 
ATOM     69  C   UNL A   1      38.913  34.883  39.159  1.00  0.00     0.059 A 
ATOM     70  F   UNL A   1      38.522  32.722  38.339  1.00  0.00    -0.206 F 
ATOM     71  C   UNL A   1      39.526  36.127  39.014  1.00  0.00     0.060 A 
BRANCH  71  72
ATOM     72  S   UNL A   1      39.312  37.401  40.274  1.00  0.00     0.124 S 
ATOM     73  O   UNL A   1      38.603  36.667  41.317  1.00  0.00    -0.237 OA
ATOM     74  O   UNL A   1      40.690  37.769  40.583  1.00  0.00    -0.237 OA
ATOM     75  O   UNL A   1      38.533  38.429  39.590  1.00  0.00    -0.744 OA
ENDBRANCH  71  72
ENDBRANCH  39  64
ENDBRANCH  13  14
ENDBRANCH   6   8
ENDBRANCH   3   4
ENDBRANCH   2   3
ENDBRANCH   1   2
BRANCH   1  76
ATOM     76  C   UNL A   1      34.877  24.622  25.354  1.00  0.00     0.002 C 
BRANCH  76  77
ATOM     77  C   UNL A   1      33.566  24.807  26.125  1.00  0.00     0.021 C 
BRANCH  77  78
ATOM     78  C   UNL A   1      32.427  25.438  25.330  1.00  0.00     0.116 C 
BRANCH  78  79
ATOM     79  N   UNL A   1      32.893  26.108  24.126  1.00  0.00    -0.352 N 
ATOM     80  C   UNL A   1      33.162  27.434  23.912  1.00  0.00     0.252 C 
ATOM     81  H   UNL A   1      33.038  25.520  23.349  1.00  0.00     0.163 HD
ATOM     82  O   UNL A   1      33.521  27.828  22.804  1.00  0.00    -0.269 OA
BRANCH  80  83
ATOM     83  C   UNL A   1      33.036  28.390  25.031  1.00  0.00     0.052 A 
ATOM     84  C   UNL A   1      34.150  28.571  25.856  1.00  0.00     0.055 A 
ATOM     85  C   UNL A   1      31.860  29.130  25.231  1.00  0.00     0.013 A 
ATOM     86  C   UNL A   1      34.025  29.440  26.915  1.00  0.00     0.129 A 
ATOM     87  C   UNL A   1      31.868  29.978  26.340  1.00  0.00     0.122 A 
ATOM     88  Cl  UNL A   1      35.318  29.691  28.007  1.00  0.00    -0.062 Cl
ATOM     89  N   UNL A   1      32.910  30.142  27.188  1.00  0.00    -0.244 NA
BRANCH  85  90
ATOM     90  C   UNL A   1      30.683  29.088  24.350  1.00  0.00    -0.015 A 
ATOM     91  C   UNL A   1      30.128  27.848  23.988  1.00  0.00     0.009 A 
ATOM     92  C   UNL A   1      30.087  30.255  23.846  1.00  0.00     0.021 A 
ATOM     93  C   UNL A   1      29.014  27.771  23.152  1.00  0.00     0.001 A 
ATOM     94  C   UNL A   1      28.960  30.192  23.006  1.00  0.00     0.056 A 
ATOM     95  C   UNL A   1      28.433  28.937  22.663  1.00  0.00     0.013 A 
BRANCH  94  96
ATOM     96  C   UNL A   1      28.307  31.444  22.473  1.00  0.00     0.416 C 
ATOM     97  F   UNL A   1      27.295  31.879  23.275  1.00  0.00    -0.166 F 
ATOM     98  F   UNL A   1      29.178  32.488  22.379  1.00  0.00    -0.166 F 
ATOM     99  F   UNL A   1      27.763  31.296  21.234  1.00  0.00    -0.166 F 
ENDBRANCH  94  96
ENDBRANCH  85  90
ENDBRANCH  80  83
ENDBRANCH  78  79
ENDBRANCH  77  78
ENDBRANCH  76  77
ENDBRANCH   1  76
TORSDOF 18
ENDMDL
