MODEL 1
REMARK VINA RESULT:     -11.2      0.000      0.000
REMARK SMILES O=C(NCCCCCCNC(=O)[C@H](CO)NC(=O)[C@H](CS)NC(=O)c1ccc(F)cc1)c1ccc(-c2c3nc(c(-c4c(F)cc(S(=O)(=O)[O-])cc4F)c4ccc([nH]4)c(-c4c(F)cc(S(=O)(=O)[O-])cc4F)c4nc(c(-c5c(F)cc(S(=O)(=O)[O-])cc5F)c5ccc2[nH]5)C=C4)C=C3)cc1
REMARK SMILES IDX 7 1 6 2 5 3 4 4 3 5 1 6 2 7 32 9 33 10 97 11 34 12 96 13
REMARK SMILES IDX 35 14 36 15 37 16 90 17 38 18 95 19 89 20 91 21 39 22 94 23
REMARK SMILES IDX 88 24 87 25 40 27 74 28 53 29 73 30 54 31 57 32 72 33 92 34
REMARK SMILES IDX 55 35 56 36 71 38 93 39 58 40 41 41 42 42 51 43 43 44 44 45
REMARK SMILES IDX 50 46 52 47 45 48 46 49 47 50 48 51 49 52 75 53 76 54 85 55
REMARK SMILES IDX 77 56 78 57 84 58 86 59 79 60 80 61 81 62 82 63 83 64 59 65
REMARK SMILES IDX 60 66 69 67 61 68 62 69 68 70 70 71 63 72 64 73 65 74 66 75
REMARK SMILES IDX 67 76 8 77 9 78 10 79 11 80 12 82 13 83 16 84 17 85 18 87
REMARK SMILES IDX 19 88 22 89 23 90 24 92 25 93 26 94 31 95 27 96 30 97 28 98
REMARK SMILES IDX 29 99 20 100 21 101 14 103 15 104
REMARK H PARENT 3 8 91 26 57 37 10 81 16 86 22 91 21 102 15 105
REMARK Flexibility Score: inf
ROOT
ATOM      1  C   UNL A   1      38.001  23.197  25.785  1.00  0.00     0.002 C 
ENDROOT
BRANCH   1   2
ATOM      2  C   UNL A   1      38.818  21.900  25.806  1.00  0.00     0.002 C 
BRANCH   2   3
ATOM      3  C   UNL A   1      40.029  21.904  26.739  1.00  0.00     0.021 C 
BRANCH   3   4
ATOM      4  C   UNL A   1      40.496  23.287  27.164  1.00  0.00     0.116 C 
BRANCH   4   5
ATOM      5  N   UNL A   1      41.253  23.955  26.120  1.00  0.00    -0.352 N 
ATOM      6  O   UNL A   1      42.049  25.720  24.964  1.00  0.00    -0.269 OA
ATOM      7  C   UNL A   1      41.564  25.291  26.000  1.00  0.00     0.251 C 
ATOM      8  H   UNL A   1      41.590  23.373  25.401  1.00  0.00     0.163 HD
BRANCH   7   9
ATOM      9  C   UNL A   1      41.275  26.203  27.130  1.00  0.00     0.039 A 
ATOM     10  C   UNL A   1      42.004  27.384  27.291  1.00  0.00     0.014 A 
ATOM     11  C   UNL A   1      40.276  25.863  28.045  1.00  0.00     0.014 A 
ATOM     12  C   UNL A   1      41.837  28.145  28.440  1.00  0.00     0.010 A 
ATOM     13  C   UNL A   1      40.045  26.681  29.156  1.00  0.00     0.010 A 
ATOM     14  C   UNL A   1      40.846  27.811  29.380  1.00  0.00    -0.014 A 
BRANCH  14  15
ATOM     15  C   UNL A   1      40.641  28.696  30.556  1.00  0.00     0.031 A 
ATOM     16  C   UNL A   1      41.556  28.638  31.745  1.00  0.00     0.074 A 
ATOM     17  C   UNL A   1      39.639  29.597  30.513  1.00  0.00     0.049 A 
ATOM     18  N   UNL A   1      41.539  29.371  32.831  1.00  0.00    -0.248 NA
ATOM     19  C   UNL A   1      42.626  27.629  31.724  1.00  0.00     0.031 C 
ATOM     20  C   UNL A   1      38.684  29.736  29.410  1.00  0.00     0.029 A 
ATOM     21  N   UNL A   1      39.275  30.582  31.393  1.00  0.00    -0.354 N 
ATOM     22  C   UNL A   1      42.581  28.906  33.625  1.00  0.00     0.074 A 
ATOM     23  C   UNL A   1      43.193  27.806  32.910  1.00  0.00     0.031 C 
ATOM     24  C   UNL A   1      37.889  30.789  29.648  1.00  0.00     0.029 A 
ATOM     25  C   UNL A   1      38.232  31.359  30.946  1.00  0.00     0.049 A 
ATOM     26  H   UNL A   1      39.717  30.720  32.262  1.00  0.00     0.167 HD
ATOM     27  C   UNL A   1      42.991  29.361  34.833  1.00  0.00     0.037 A 
ATOM     28  C   UNL A   1      37.615  32.410  31.515  1.00  0.00     0.037 A 
ATOM     29  C   UNL A   1      42.381  30.465  35.531  1.00  0.00     0.049 A 
ATOM     30  C   UNL A   1      38.082  32.890  32.857  1.00  0.00     0.074 A 
ATOM     31  C   UNL A   1      42.726  31.004  36.759  1.00  0.00     0.029 A 
ATOM     32  N   UNL A   1      41.301  31.200  35.063  1.00  0.00    -0.354 N 
ATOM     33  N   UNL A   1      39.065  32.432  33.595  1.00  0.00    -0.248 NA
ATOM     34  C   UNL A   1      37.355  34.020  33.448  1.00  0.00     0.031 C 
ATOM     35  C   UNL A   1      41.835  32.044  37.047  1.00  0.00     0.029 A 
ATOM     36  C   UNL A   1      40.961  32.181  35.981  1.00  0.00     0.049 A 
ATOM     37  H   UNL A   1      40.844  31.049  34.205  1.00  0.00     0.167 HD
ATOM     38  C   UNL A   1      39.080  33.223  34.737  1.00  0.00     0.074 A 
ATOM     39  C   UNL A   1      38.021  34.200  34.582  1.00  0.00     0.031 C 
ATOM     40  C   UNL A   1      39.898  33.142  35.816  1.00  0.00     0.037 A 
BRANCH  27  41
ATOM     41  C   UNL A   1      44.154  28.663  35.486  1.00  0.00     0.058 A 
ATOM     42  C   UNL A   1      45.473  29.058  35.210  1.00  0.00     0.135 A 
ATOM     43  C   UNL A   1      43.967  27.575  36.354  1.00  0.00     0.135 A 
ATOM     44  F   UNL A   1      45.711  30.095  34.390  1.00  0.00    -0.206 F 
ATOM     45  C   UNL A   1      46.564  28.399  35.767  1.00  0.00     0.059 A 
ATOM     46  C   UNL A   1      45.043  26.915  36.941  1.00  0.00     0.059 A 
ATOM     47  F   UNL A   1      42.727  27.168  36.669  1.00  0.00    -0.206 F 
ATOM     48  C   UNL A   1      46.339  27.328  36.633  1.00  0.00     0.060 A 
BRANCH  48  49
ATOM     49  S   UNL A   1      47.762  26.518  37.396  1.00  0.00     0.124 S 
ATOM     50  O   UNL A   1      48.505  27.654  37.929  1.00  0.00    -0.237 OA
ATOM     51  O   UNL A   1      47.129  25.649  38.384  1.00  0.00    -0.237 OA
ATOM     52  O   UNL A   1      48.391  25.821  36.276  1.00  0.00    -0.744 OA
ENDBRANCH  48  49
ENDBRANCH  27  41
BRANCH  28  53
ATOM     53  C   UNL A   1      36.505  33.078  30.789  1.00  0.00     0.058 A 
ATOM     54  C   UNL A   1      36.761  33.950  29.719  1.00  0.00     0.135 A 
ATOM     55  C   UNL A   1      35.176  32.926  31.208  1.00  0.00     0.135 A 
ATOM     56  F   UNL A   1      38.018  34.139  29.289  1.00  0.00    -0.206 F 
ATOM     57  C   UNL A   1      35.743  34.681  29.117  1.00  0.00     0.059 A 
ATOM     58  C   UNL A   1      34.136  33.628  30.605  1.00  0.00     0.059 A 
ATOM     59  F   UNL A   1      34.883  32.096  32.221  1.00  0.00    -0.206 F 
ATOM     60  C   UNL A   1      34.434  34.521  29.576  1.00  0.00     0.060 A 
BRANCH  60  61
ATOM     61  S   UNL A   1      33.133  35.512  28.813  1.00  0.00     0.124 S 
ATOM     62  O   UNL A   1      32.423  36.011  29.985  1.00  0.00    -0.237 OA
ATOM     63  O   UNL A   1      33.900  36.502  28.064  1.00  0.00    -0.237 OA
ATOM     64  O   UNL A   1      32.403  34.543  28.002  1.00  0.00    -0.744 OA
ENDBRANCH  60  61
ENDBRANCH  28  53
BRANCH  40  65
ATOM     65  C   UNL A   1      39.685  34.144  36.914  1.00  0.00     0.058 A 
ATOM     66  C   UNL A   1      40.250  35.426  36.829  1.00  0.00     0.135 A 
ATOM     67  C   UNL A   1      38.966  33.818  38.076  1.00  0.00     0.135 A 
ATOM     68  F   UNL A   1      40.949  35.786  35.740  1.00  0.00    -0.206 F 
ATOM     69  C   UNL A   1      40.121  36.346  37.861  1.00  0.00     0.059 A 
ATOM     70  C   UNL A   1      38.804  34.732  39.112  1.00  0.00     0.059 A 
ATOM     71  F   UNL A   1      38.395  32.609  38.199  1.00  0.00    -0.206 F 
ATOM     72  C   UNL A   1      39.398  35.990  39.001  1.00  0.00     0.060 A 
BRANCH  72  73
ATOM     73  S   UNL A   1      39.219  37.205  40.323  1.00  0.00     0.124 S 
ATOM     74  O   UNL A   1      38.605  38.325  39.618  1.00  0.00    -0.237 OA
ATOM     75  O   UNL A   1      38.359  36.505  41.274  1.00  0.00    -0.237 OA
ATOM     76  O   UNL A   1      40.590  37.422  40.773  1.00  0.00    -0.744 OA
ENDBRANCH  72  73
ENDBRANCH  40  65
ENDBRANCH  14  15
ENDBRANCH   7   9
ENDBRANCH   4   5
ENDBRANCH   3   4
ENDBRANCH   2   3
ENDBRANCH   1   2
BRANCH   1  77
ATOM     77  C   UNL A   1      36.504  23.032  25.484  1.00  0.00     0.021 C 
BRANCH  77  78
ATOM     78  C   UNL A   1      35.895  21.752  26.050  1.00  0.00     0.116 C 
BRANCH  78  79
ATOM     79  N   UNL A   1      34.738  22.051  26.866  1.00  0.00    -0.354 N 
ATOM     80  C   UNL A   1      33.421  22.172  26.585  1.00  0.00     0.244 C 
ATOM     81  H   UNL A   1      34.954  22.194  27.815  1.00  0.00     0.163 HD
ATOM     82  O   UNL A   1      32.697  22.557  27.513  1.00  0.00    -0.273 OA
BRANCH  80  83
ATOM     83  C   UNL A   1      32.766  21.712  25.268  1.00  0.00     0.197 C 
BRANCH  83  84
ATOM     84  N   UNL A   1      33.348  22.066  23.969  1.00  0.00    -0.340 N 
ATOM     85  C   UNL A   1      33.474  23.233  23.278  1.00  0.00     0.244 C 
ATOM     86  H   UNL A   1      33.729  21.293  23.494  1.00  0.00     0.164 HD
ATOM     87  O   UNL A   1      34.036  23.124  22.183  1.00  0.00    -0.273 OA
BRANCH  85  88
ATOM     88  C   UNL A   1      32.736  24.539  23.667  1.00  0.00     0.181 C 
BRANCH  88  89
ATOM     89  N   UNL A   1      31.878  24.440  24.849  1.00  0.00    -0.339 N 
ATOM     90  C   UNL A   1      31.160  25.372  25.548  1.00  0.00     0.251 C 
ATOM     91  H   UNL A   1      31.804  23.527  25.211  1.00  0.00     0.164 HD
ATOM     92  O   UNL A   1      30.835  25.079  26.699  1.00  0.00    -0.269 OA
BRANCH  90  93
ATOM     93  C   UNL A   1      30.713  26.682  24.986  1.00  0.00     0.040 A 
ATOM     94  C   UNL A   1      31.330  27.913  25.250  1.00  0.00     0.017 A 
ATOM     95  C   UNL A   1      29.703  26.641  24.008  1.00  0.00     0.017 A 
ATOM     96  C   UNL A   1      30.953  29.069  24.559  1.00  0.00     0.040 A 
ATOM     97  C   UNL A   1      29.324  27.797  23.318  1.00  0.00     0.040 A 
ATOM     98  C   UNL A   1      29.956  29.000  23.597  1.00  0.00     0.123 A 
ATOM     99  F   UNL A   1      29.618  30.102  22.917  1.00  0.00    -0.207 F 
ENDBRANCH  90  93
ENDBRANCH  88  89
BRANCH  88 100
ATOM    100  C   UNL A   1      33.730  25.716  23.810  1.00  0.00     0.101 C 
BRANCH 100 101
ATOM    101  S   UNL A   1      33.607  26.952  22.469  1.00  0.00    -0.177 SA
ATOM    102  H   UNL A   1      34.267  26.497  21.371  1.00  0.00     0.102 HD
ENDBRANCH 100 101
ENDBRANCH  88 100
ENDBRANCH  85  88
ENDBRANCH  83  84
BRANCH  83 103
ATOM    103  C   UNL A   1      32.592  20.178  25.373  1.00  0.00     0.191 C 
BRANCH 103 104
ATOM    104  O   UNL A   1      33.011  19.650  26.634  1.00  0.00    -0.394 OA
ATOM    105  H   UNL A   1      33.687  18.969  26.491  1.00  0.00     0.210 HD
ENDBRANCH 103 104
ENDBRANCH  83 103
ENDBRANCH  80  83
ENDBRANCH  78  79
ENDBRANCH  77  78
ENDBRANCH   1  77
TORSDOF 24
ENDMDL
MODEL 2
REMARK VINA RESULT:     -10.9      1.227      2.065
REMARK SMILES O=C(NCCCCCCNC(=O)[C@H](CO)NC(=O)[C@H](CS)NC(=O)c1ccc(F)cc1)c1ccc(-c2c3nc(c(-c4c(F)cc(S(=O)(=O)[O-])cc4F)c4ccc([nH]4)c(-c4c(F)cc(S(=O)(=O)[O-])cc4F)c4nc(c(-c5c(F)cc(S(=O)(=O)[O-])cc5F)c5ccc2[nH]5)C=C4)C=C3)cc1
REMARK SMILES IDX 7 1 6 2 5 3 4 4 3 5 1 6 2 7 32 9 33 10 97 11 34 12 96 13
REMARK SMILES IDX 35 14 36 15 37 16 90 17 38 18 95 19 89 20 91 21 39 22 94 23
REMARK SMILES IDX 88 24 87 25 40 27 74 28 53 29 73 30 54 31 57 32 72 33 92 34
REMARK SMILES IDX 55 35 56 36 71 38 93 39 58 40 41 41 42 42 51 43 43 44 44 45
REMARK SMILES IDX 50 46 52 47 45 48 46 49 47 50 48 51 49 52 75 53 76 54 85 55
REMARK SMILES IDX 77 56 78 57 84 58 86 59 79 60 80 61 81 62 82 63 83 64 59 65
REMARK SMILES IDX 60 66 69 67 61 68 62 69 68 70 70 71 63 72 64 73 65 74 66 75
REMARK SMILES IDX 67 76 8 77 9 78 10 79 11 80 12 82 13 83 16 84 17 85 18 87
REMARK SMILES IDX 19 88 22 89 23 90 24 92 25 93 26 94 31 95 27 96 30 97 28 98
REMARK SMILES IDX 29 99 20 100 21 101 14 103 15 104
REMARK H PARENT 3 8 91 26 57 37 10 81 16 86 22 91 21 102 15 105
REMARK Flexibility Score: inf
ROOT
ATOM      1  C   UNL A   1      38.347  21.207  25.364  1.00  0.00     0.002 C 
ENDROOT
BRANCH   1   2
ATOM      2  C   UNL A   1      39.011  22.274  26.243  1.00  0.00     0.002 C 
BRANCH   2   3
ATOM      3  C   UNL A   1      40.379  21.895  26.811  1.00  0.00     0.021 C 
BRANCH   3   4
ATOM      4  C   UNL A   1      41.249  23.079  27.207  1.00  0.00     0.116 C 
BRANCH   4   5
ATOM      5  N   UNL A   1      41.649  23.874  26.060  1.00  0.00    -0.352 N 
ATOM      6  O   UNL A   1      41.915  25.763  24.858  1.00  0.00    -0.269 OA
ATOM      7  C   UNL A   1      41.744  25.243  25.950  1.00  0.00     0.251 C 
ATOM      8  H   UNL A   1      41.884  23.364  25.251  1.00  0.00     0.163 HD
BRANCH   7   9
ATOM      9  C   UNL A   1      41.607  26.075  27.167  1.00  0.00     0.039 A 
ATOM     10  C   UNL A   1      40.602  25.806  28.100  1.00  0.00     0.014 A 
ATOM     11  C   UNL A   1      42.483  27.145  27.366  1.00  0.00     0.014 A 
ATOM     12  C   UNL A   1      40.381  26.690  29.148  1.00  0.00     0.010 A 
ATOM     13  C   UNL A   1      42.316  27.981  28.474  1.00  0.00     0.010 A 
ATOM     14  C   UNL A   1      41.244  27.779  29.357  1.00  0.00    -0.014 A 
BRANCH  14  15
ATOM     15  C   UNL A   1      41.026  28.656  30.537  1.00  0.00     0.031 A 
ATOM     16  C   UNL A   1      41.954  28.620  31.718  1.00  0.00     0.074 A 
ATOM     17  C   UNL A   1      40.001  29.530  30.505  1.00  0.00     0.049 A 
ATOM     18  N   UNL A   1      41.927  29.350  32.806  1.00  0.00    -0.248 NA
ATOM     19  C   UNL A   1      43.049  27.639  31.685  1.00  0.00     0.031 C 
ATOM     20  C   UNL A   1      39.032  29.647  29.411  1.00  0.00     0.029 A 
ATOM     21  N   UNL A   1      39.619  30.504  31.390  1.00  0.00    -0.354 N 
ATOM     22  C   UNL A   1      42.987  28.911  33.589  1.00  0.00     0.074 A 
ATOM     23  C   UNL A   1      43.622  27.829  32.866  1.00  0.00     0.031 C 
ATOM     24  C   UNL A   1      38.213  30.677  29.658  1.00  0.00     0.029 A 
ATOM     25  C   UNL A   1      38.552  31.254  30.954  1.00  0.00     0.049 A 
ATOM     26  H   UNL A   1      40.065  30.651  32.256  1.00  0.00     0.167 HD
ATOM     27  C   UNL A   1      43.397  29.374  34.794  1.00  0.00     0.037 A 
ATOM     28  C   UNL A   1      37.913  32.288  31.530  1.00  0.00     0.037 A 
ATOM     29  C   UNL A   1      42.764  30.460  35.500  1.00  0.00     0.049 A 
ATOM     30  C   UNL A   1      38.379  32.777  32.869  1.00  0.00     0.074 A 
ATOM     31  C   UNL A   1      43.105  31.006  36.726  1.00  0.00     0.029 A 
ATOM     32  N   UNL A   1      41.661  31.168  35.044  1.00  0.00    -0.354 N 
ATOM     33  N   UNL A   1      39.380  32.344  33.598  1.00  0.00    -0.248 NA
ATOM     34  C   UNL A   1      37.628  33.886  33.469  1.00  0.00     0.031 C 
ATOM     35  C   UNL A   1      42.190  32.022  37.025  1.00  0.00     0.029 A 
ATOM     36  C   UNL A   1      41.303  32.138  35.967  1.00  0.00     0.049 A 
ATOM     37  H   UNL A   1      41.200  31.006  34.189  1.00  0.00     0.167 HD
ATOM     38  C   UNL A   1      39.385  33.132  34.741  1.00  0.00     0.074 A 
ATOM     39  C   UNL A   1      38.298  34.082  34.598  1.00  0.00     0.031 C 
ATOM     40  C   UNL A   1      40.214  33.071  35.813  1.00  0.00     0.037 A 
BRANCH  27  41
ATOM     41  C   UNL A   1      44.583  28.706  35.435  1.00  0.00     0.058 A 
ATOM     42  C   UNL A   1      44.405  27.651  36.344  1.00  0.00     0.135 A 
ATOM     43  C   UNL A   1      45.896  29.136  35.182  1.00  0.00     0.135 A 
ATOM     44  F   UNL A   1      43.172  27.196  36.620  1.00  0.00    -0.206 F 
ATOM     45  C   UNL A   1      45.485  27.048  36.983  1.00  0.00     0.059 A 
ATOM     46  C   UNL A   1      46.993  28.532  35.792  1.00  0.00     0.059 A 
ATOM     47  F   UNL A   1      46.126  30.127  34.306  1.00  0.00    -0.206 F 
ATOM     48  C   UNL A   1      46.776  27.495  36.699  1.00  0.00     0.060 A 
BRANCH  48  49
ATOM     49  S   UNL A   1      48.172  26.665  37.490  1.00  0.00     0.124 S 
ATOM     50  O   UNL A   1      48.509  25.641  36.508  1.00  0.00    -0.237 OA
ATOM     51  O   UNL A   1      49.136  27.752  37.633  1.00  0.00    -0.237 OA
ATOM     52  O   UNL A   1      47.605  26.175  38.744  1.00  0.00    -0.744 OA
ENDBRANCH  48  49
ENDBRANCH  27  41
BRANCH  28  53
ATOM     53  C   UNL A   1      36.779  32.927  30.816  1.00  0.00     0.058 A 
ATOM     54  C   UNL A   1      37.001  33.915  29.843  1.00  0.00     0.135 A 
ATOM     55  C   UNL A   1      35.452  32.627  31.155  1.00  0.00     0.135 A 
ATOM     56  F   UNL A   1      38.254  34.247  29.494  1.00  0.00    -0.206 F 
ATOM     57  C   UNL A   1      35.949  34.614  29.263  1.00  0.00     0.059 A 
ATOM     58  C   UNL A   1      34.381  33.294  30.569  1.00  0.00     0.059 A 
ATOM     59  F   UNL A   1      35.192  31.683  32.072  1.00  0.00    -0.206 F 
ATOM     60  C   UNL A   1      34.642  34.303  29.641  1.00  0.00     0.060 A 
BRANCH  60  61
ATOM     61  S   UNL A   1      33.291  35.251  28.910  1.00  0.00     0.124 S 
ATOM     62  O   UNL A   1      32.672  34.253  28.044  1.00  0.00    -0.237 OA
ATOM     63  O   UNL A   1      32.518  35.641  30.085  1.00  0.00    -0.237 OA
ATOM     64  O   UNL A   1      33.976  36.341  28.223  1.00  0.00    -0.744 OA
ENDBRANCH  60  61
ENDBRANCH  28  53
BRANCH  40  65
ATOM     65  C   UNL A   1      39.984  34.065  36.915  1.00  0.00     0.058 A 
ATOM     66  C   UNL A   1      39.178  33.734  38.015  1.00  0.00     0.135 A 
ATOM     67  C   UNL A   1      40.518  35.362  36.857  1.00  0.00     0.135 A 
ATOM     68  F   UNL A   1      38.642  32.507  38.116  1.00  0.00    -0.206 F 
ATOM     69  C   UNL A   1      38.899  34.658  39.015  1.00  0.00     0.059 A 
ATOM     70  C   UNL A   1      40.271  36.296  37.858  1.00  0.00     0.059 A 
ATOM     71  F   UNL A   1      41.306  35.722  35.832  1.00  0.00    -0.206 F 
ATOM     72  C   UNL A   1      39.447  35.939  38.926  1.00  0.00     0.060 A 
BRANCH  72  73
ATOM     73  S   UNL A   1      39.096  37.120  40.245  1.00  0.00     0.124 S 
ATOM     74  O   UNL A   1      38.259  36.328  41.140  1.00  0.00    -0.237 OA
ATOM     75  O   UNL A   1      40.432  37.439  40.740  1.00  0.00    -0.237 OA
ATOM     76  O   UNL A   1      38.417  38.210  39.551  1.00  0.00    -0.744 OA
ENDBRANCH  72  73
ENDBRANCH  40  65
ENDBRANCH  14  15
ENDBRANCH   7   9
ENDBRANCH   4   5
ENDBRANCH   3   4
ENDBRANCH   2   3
ENDBRANCH   1   2
BRANCH   1  77
ATOM     77  C   UNL A   1      37.100  21.667  24.595  1.00  0.00     0.021 C 
BRANCH  77  78
ATOM     78  C   UNL A   1      35.874  20.786  24.817  1.00  0.00     0.116 C 
BRANCH  78  79
ATOM     79  N   UNL A   1      35.316  21.002  26.134  1.00  0.00    -0.354 N 
ATOM     80  C   UNL A   1      34.061  21.248  26.573  1.00  0.00     0.244 C 
ATOM     81  H   UNL A   1      35.985  20.962  26.855  1.00  0.00     0.163 HD
ATOM     82  O   UNL A   1      33.943  21.504  27.778  1.00  0.00    -0.273 OA
BRANCH  80  83
ATOM     83  C   UNL A   1      32.790  21.069  25.719  1.00  0.00     0.197 C 
BRANCH  83  84
ATOM     84  N   UNL A   1      32.612  21.805  24.463  1.00  0.00    -0.340 N 
ATOM     85  C   UNL A   1      32.224  23.075  24.161  1.00  0.00     0.244 C 
ATOM     86  H   UNL A   1      32.815  21.263  23.667  1.00  0.00     0.164 HD
ATOM     87  O   UNL A   1      32.191  23.329  22.952  1.00  0.00    -0.273 OA
BRANCH  85  88
ATOM     88  C   UNL A   1      31.599  24.045  25.195  1.00  0.00     0.181 C 
BRANCH  88  89
ATOM     89  N   UNL A   1      30.398  24.747  24.743  1.00  0.00    -0.339 N 
ATOM     90  C   UNL A   1      29.947  26.025  24.937  1.00  0.00     0.251 C 
ATOM     91  H   UNL A   1      29.797  24.193  24.193  1.00  0.00     0.164 HD
ATOM     92  O   UNL A   1      28.746  26.228  24.756  1.00  0.00    -0.269 OA
BRANCH  90  93
ATOM     93  C   UNL A   1      30.824  27.178  25.302  1.00  0.00     0.040 A 
ATOM     94  C   UNL A   1      31.093  28.270  24.464  1.00  0.00     0.017 A 
ATOM     95  C   UNL A   1      31.278  27.234  26.632  1.00  0.00     0.017 A 
ATOM     96  C   UNL A   1      31.791  29.385  24.938  1.00  0.00     0.040 A 
ATOM     97  C   UNL A   1      31.978  28.347  27.107  1.00  0.00     0.040 A 
ATOM     98  C   UNL A   1      32.224  29.415  26.255  1.00  0.00     0.123 A 
ATOM     99  F   UNL A   1      32.867  30.495  26.714  1.00  0.00    -0.207 F 
ENDBRANCH  90  93
ENDBRANCH  88  89
BRANCH  88 100
ATOM    100  C   UNL A   1      31.339  23.327  26.541  1.00  0.00     0.101 C 
BRANCH 100 101
ATOM    101  S   UNL A   1      29.572  22.981  26.862  1.00  0.00    -0.177 SA
ATOM    102  H   UNL A   1      29.462  21.869  27.637  1.00  0.00     0.102 HD
ENDBRANCH 100 101
ENDBRANCH  88 100
ENDBRANCH  85  88
ENDBRANCH  83  84
BRANCH  83 103
ATOM    103  C   UNL A   1      32.634  19.549  25.472  1.00  0.00     0.191 C 
BRANCH 103 104
ATOM    104  O   UNL A   1      32.990  18.756  26.608  1.00  0.00    -0.394 OA
ATOM    105  H   UNL A   1      33.852  19.046  26.947  1.00  0.00     0.210 HD
ENDBRANCH 103 104
ENDBRANCH  83 103
ENDBRANCH  80  83
ENDBRANCH  78  79
ENDBRANCH  77  78
ENDBRANCH   1  77
TORSDOF 24
ENDMDL
MODEL 3
REMARK VINA RESULT:     -10.9      1.131      2.006
REMARK SMILES O=C(NCCCCCCNC(=O)[C@H](CO)NC(=O)[C@H](CS)NC(=O)c1ccc(F)cc1)c1ccc(-c2c3nc(c(-c4c(F)cc(S(=O)(=O)[O-])cc4F)c4ccc([nH]4)c(-c4c(F)cc(S(=O)(=O)[O-])cc4F)c4nc(c(-c5c(F)cc(S(=O)(=O)[O-])cc5F)c5ccc2[nH]5)C=C4)C=C3)cc1
REMARK SMILES IDX 7 1 6 2 5 3 4 4 3 5 1 6 2 7 32 9 33 10 97 11 34 12 96 13
REMARK SMILES IDX 35 14 36 15 37 16 90 17 38 18 95 19 89 20 91 21 39 22 94 23
REMARK SMILES IDX 88 24 87 25 40 27 74 28 53 29 73 30 54 31 57 32 72 33 92 34
REMARK SMILES IDX 55 35 56 36 71 38 93 39 58 40 41 41 42 42 51 43 43 44 44 45
REMARK SMILES IDX 50 46 52 47 45 48 46 49 47 50 48 51 49 52 75 53 76 54 85 55
REMARK SMILES IDX 77 56 78 57 84 58 86 59 79 60 80 61 81 62 82 63 83 64 59 65
REMARK SMILES IDX 60 66 69 67 61 68 62 69 68 70 70 71 63 72 64 73 65 74 66 75
REMARK SMILES IDX 67 76 8 77 9 78 10 79 11 80 12 82 13 83 16 84 17 85 18 87
REMARK SMILES IDX 19 88 22 89 23 90 24 92 25 93 26 94 31 95 27 96 30 97 28 98
REMARK SMILES IDX 29 99 20 100 21 101 14 103 15 104
REMARK H PARENT 3 8 91 26 57 37 10 81 16 86 22 91 21 102 15 105
REMARK Flexibility Score: inf
ROOT
ATOM      1  C   UNL A   1      36.895  22.398  25.373  1.00  0.00     0.002 C 
ENDROOT
BRANCH   1   2
ATOM      2  C   UNL A   1      38.008  23.321  25.882  1.00  0.00     0.002 C 
BRANCH   2   3
ATOM      3  C   UNL A   1      39.210  22.614  26.509  1.00  0.00     0.021 C 
BRANCH   3   4
ATOM      4  C   UNL A   1      40.270  23.547  27.074  1.00  0.00     0.116 C 
BRANCH   4   5
ATOM      5  N   UNL A   1      40.993  24.252  26.030  1.00  0.00    -0.352 N 
ATOM      6  O   UNL A   1      41.763  26.057  24.919  1.00  0.00    -0.269 OA
ATOM      7  C   UNL A   1      41.314  25.588  25.954  1.00  0.00     0.251 C 
ATOM      8  H   UNL A   1      41.294  23.698  25.274  1.00  0.00     0.163 HD
BRANCH   7   9
ATOM      9  C   UNL A   1      41.081  26.454  27.133  1.00  0.00     0.039 A 
ATOM     10  C   UNL A   1      41.877  27.581  27.352  1.00  0.00     0.014 A 
ATOM     11  C   UNL A   1      40.067  26.123  28.035  1.00  0.00     0.014 A 
ATOM     12  C   UNL A   1      41.757  28.288  28.541  1.00  0.00     0.010 A 
ATOM     13  C   UNL A   1      39.887  26.892  29.189  1.00  0.00     0.010 A 
ATOM     14  C   UNL A   1      40.752  27.962  29.467  1.00  0.00    -0.014 A 
BRANCH  14  15
ATOM     15  C   UNL A   1      40.601  28.792  30.690  1.00  0.00     0.031 A 
ATOM     16  C   UNL A   1      41.534  28.640  31.858  1.00  0.00     0.074 A 
ATOM     17  C   UNL A   1      39.634  29.731  30.712  1.00  0.00     0.049 A 
ATOM     18  N   UNL A   1      41.563  29.317  32.979  1.00  0.00    -0.248 NA
ATOM     19  C   UNL A   1      42.563  27.594  31.765  1.00  0.00     0.031 C 
ATOM     20  C   UNL A   1      38.666  29.963  29.635  1.00  0.00     0.029 A 
ATOM     21  N   UNL A   1      39.323  30.684  31.646  1.00  0.00    -0.354 N 
ATOM     22  C   UNL A   1      42.600  28.773  33.729  1.00  0.00     0.074 A 
ATOM     23  C   UNL A   1      43.157  27.689  32.948  1.00  0.00     0.031 C 
ATOM     24  C   UNL A   1      37.917  31.031  29.941  1.00  0.00     0.029 A 
ATOM     25  C   UNL A   1      38.304  31.521  31.259  1.00  0.00     0.049 A 
ATOM     26  H   UNL A   1      39.786  30.760  32.513  1.00  0.00     0.167 HD
ATOM     27  C   UNL A   1      43.048  29.151  34.949  1.00  0.00     0.037 A 
ATOM     28  C   UNL A   1      37.738  32.565  31.891  1.00  0.00     0.037 A 
ATOM     29  C   UNL A   1      42.493  30.240  35.713  1.00  0.00     0.049 A 
ATOM     30  C   UNL A   1      38.246  32.957  33.246  1.00  0.00     0.074 A 
ATOM     31  C   UNL A   1      42.880  30.703  36.960  1.00  0.00     0.029 A 
ATOM     32  N   UNL A   1      41.434  31.038  35.304  1.00  0.00    -0.354 N 
ATOM     33  N   UNL A   1      39.223  32.426  33.942  1.00  0.00    -0.248 NA
ATOM     34  C   UNL A   1      37.573  34.083  33.907  1.00  0.00     0.031 C 
ATOM     35  C   UNL A   1      42.034  31.759  37.317  1.00  0.00     0.029 A 
ATOM     36  C   UNL A   1      41.148  31.983  36.276  1.00  0.00     0.049 A 
ATOM     37  H   UNL A   1      40.957  30.948  34.448  1.00  0.00     0.167 HD
ATOM     38  C   UNL A   1      39.288  33.157  35.121  1.00  0.00     0.074 A 
ATOM     39  C   UNL A   1      38.265  34.180  35.036  1.00  0.00     0.031 C 
ATOM     40  C   UNL A   1      40.120  32.991  36.179  1.00  0.00     0.037 A 
BRANCH  27  41
ATOM     41  C   UNL A   1      44.194  28.377  35.544  1.00  0.00     0.058 A 
ATOM     42  C   UNL A   1      45.522  28.735  35.262  1.00  0.00     0.135 A 
ATOM     43  C   UNL A   1      43.980  27.255  36.362  1.00  0.00     0.135 A 
ATOM     44  F   UNL A   1      45.786  29.801  34.490  1.00  0.00    -0.206 F 
ATOM     45  C   UNL A   1      46.597  28.007  35.765  1.00  0.00     0.059 A 
ATOM     46  C   UNL A   1      45.040  26.526  36.894  1.00  0.00     0.059 A 
ATOM     47  F   UNL A   1      42.731  26.880  36.681  1.00  0.00    -0.206 F 
ATOM     48  C   UNL A   1      46.346  26.904  36.582  1.00  0.00     0.060 A 
BRANCH  48  49
ATOM     49  S   UNL A   1      47.749  26.003  37.275  1.00  0.00     0.124 S 
ATOM     50  O   UNL A   1      48.661  25.946  36.139  1.00  0.00    -0.237 OA
ATOM     51  O   UNL A   1      48.157  26.870  38.378  1.00  0.00    -0.237 OA
ATOM     52  O   UNL A   1      47.162  24.728  37.680  1.00  0.00    -0.744 OA
ENDBRANCH  48  49
ENDBRANCH  27  41
BRANCH  28  53
ATOM     53  C   UNL A   1      36.642  33.310  31.221  1.00  0.00     0.058 A 
ATOM     54  C   UNL A   1      35.305  33.139  31.612  1.00  0.00     0.135 A 
ATOM     55  C   UNL A   1      36.903  34.138  30.120  1.00  0.00     0.135 A 
ATOM     56  F   UNL A   1      35.003  32.345  32.652  1.00  0.00    -0.206 F 
ATOM     57  C   UNL A   1      34.260  33.728  30.909  1.00  0.00     0.059 A 
ATOM     58  C   UNL A   1      35.876  34.760  29.415  1.00  0.00     0.059 A 
ATOM     59  F   UNL A   1      38.167  34.339  29.716  1.00  0.00    -0.206 F 
ATOM     60  C   UNL A   1      34.556  34.528  29.804  1.00  0.00     0.060 A 
BRANCH  60  61
ATOM     61  S   UNL A   1      33.186  35.248  28.877  1.00  0.00     0.124 S 
ATOM     62  O   UNL A   1      32.737  34.106  28.088  1.00  0.00    -0.237 OA
ATOM     63  O   UNL A   1      32.286  35.677  29.943  1.00  0.00    -0.237 OA
ATOM     64  O   UNL A   1      33.818  36.325  28.122  1.00  0.00    -0.744 OA
ENDBRANCH  60  61
ENDBRANCH  28  53
BRANCH  40  65
ATOM     65  C   UNL A   1      39.965  33.943  37.330  1.00  0.00     0.058 A 
ATOM     66  C   UNL A   1      39.042  33.678  38.354  1.00  0.00     0.135 A 
ATOM     67  C   UNL A   1      40.690  35.144  37.394  1.00  0.00     0.135 A 
ATOM     68  F   UNL A   1      38.322  32.544  38.338  1.00  0.00    -0.206 F 
ATOM     69  C   UNL A   1      38.835  34.575  39.395  1.00  0.00     0.059 A 
ATOM     70  C   UNL A   1      40.516  36.045  38.439  1.00  0.00     0.059 A 
ATOM     71  F   UNL A   1      41.594  35.436  36.445  1.00  0.00    -0.206 F 
ATOM     72  C   UNL A   1      39.574  35.758  39.427  1.00  0.00     0.060 A 
BRANCH  72  73
ATOM     73  S   UNL A   1      39.312  36.902  40.799  1.00  0.00     0.124 S 
ATOM     74  O   UNL A   1      38.611  36.058  41.761  1.00  0.00    -0.237 OA
ATOM     75  O   UNL A   1      40.677  37.276  41.157  1.00  0.00    -0.237 OA
ATOM     76  O   UNL A   1      38.515  37.969  40.202  1.00  0.00    -0.744 OA
ENDBRANCH  72  73
ENDBRANCH  40  65
ENDBRANCH  14  15
ENDBRANCH   7   9
ENDBRANCH   4   5
ENDBRANCH   3   4
ENDBRANCH   2   3
ENDBRANCH   1   2
BRANCH   1  77
ATOM     77  C   UNL A   1      36.634  22.449  23.861  1.00  0.00     0.021 C 
BRANCH  77  78
ATOM     78  C   UNL A   1      35.656  23.541  23.436  1.00  0.00     0.116 C 
BRANCH  78  79
ATOM     79  N   UNL A   1      34.615  23.712  24.425  1.00  0.00    -0.354 N 
ATOM     80  C   UNL A   1      33.270  23.826  24.335  1.00  0.00     0.244 C 
ATOM     81  H   UNL A   1      34.953  23.755  25.348  1.00  0.00     0.163 HD
ATOM     82  O   UNL A   1      32.672  24.084  25.387  1.00  0.00    -0.273 OA
BRANCH  80  83
ATOM     83  C   UNL A   1      32.452  23.497  23.071  1.00  0.00     0.197 C 
BRANCH  83  84
ATOM     84  N   UNL A   1      32.753  24.137  21.786  1.00  0.00    -0.340 N 
ATOM     85  C   UNL A   1      32.703  25.422  21.337  1.00  0.00     0.244 C 
ATOM     86  H   UNL A   1      33.057  23.500  21.100  1.00  0.00     0.164 HD
ATOM     87  O   UNL A   1      33.040  25.568  20.157  1.00  0.00    -0.273 OA
BRANCH  85  88
ATOM     88  C   UNL A   1      32.016  26.572  22.117  1.00  0.00     0.181 C 
BRANCH  88  89
ATOM     89  N   UNL A   1      31.239  26.155  23.284  1.00  0.00    -0.339 N 
ATOM     90  C   UNL A   1      30.311  26.801  24.054  1.00  0.00     0.251 C 
ATOM     91  H   UNL A   1      31.420  25.230  23.571  1.00  0.00     0.164 HD
ATOM     92  O   UNL A   1      30.099  26.343  25.177  1.00  0.00    -0.269 OA
BRANCH  90  93
ATOM     93  C   UNL A   1      29.519  27.983  23.599  1.00  0.00     0.040 A 
ATOM     94  C   UNL A   1      28.178  27.933  23.190  1.00  0.00     0.017 A 
ATOM     95  C   UNL A   1      30.123  29.245  23.742  1.00  0.00     0.017 A 
ATOM     96  C   UNL A   1      27.461  29.105  22.933  1.00  0.00     0.040 A 
ATOM     97  C   UNL A   1      29.407  30.418  23.484  1.00  0.00     0.040 A 
ATOM     98  C   UNL A   1      28.080  30.337  23.086  1.00  0.00     0.123 A 
ATOM     99  F   UNL A   1      27.382  31.458  22.868  1.00  0.00    -0.207 F 
ENDBRANCH  90  93
ENDBRANCH  88  89
BRANCH  88 100
ATOM    100  C   UNL A   1      33.039  27.667  22.503  1.00  0.00     0.101 C 
BRANCH 100 101
ATOM    101  S   UNL A   1      33.732  27.467  24.184  1.00  0.00    -0.177 SA
ATOM    102  H   UNL A   1      34.384  28.606  24.543  1.00  0.00     0.102 HD
ENDBRANCH 100 101
ENDBRANCH  88 100
ENDBRANCH  85  88
ENDBRANCH  83  84
BRANCH  83 103
ATOM    103  C   UNL A   1      32.476  21.957  22.917  1.00  0.00     0.191 C 
BRANCH 103 104
ATOM    104  O   UNL A   1      32.091  21.268  24.109  1.00  0.00    -0.394 OA
ATOM    105  H   UNL A   1      31.940  21.911  24.820  1.00  0.00     0.210 HD
ENDBRANCH 103 104
ENDBRANCH  83 103
ENDBRANCH  80  83
ENDBRANCH  78  79
ENDBRANCH  77  78
ENDBRANCH   1  77
TORSDOF 24
ENDMDL
