MODEL 1
REMARK VINA RESULT:     -10.3      0.000      0.000
REMARK SMILES O=C(/C=C/c1ccc(O)c(O)c1)NCCCCCCNC(=O)c1ccc(-c2c3nc(c(-c4c(F)cc(S(=O)(=O)[O-])cc4F)c4ccc([nH]4)c(-c4c(F)cc(S(=O)(=O)[O-])cc4F)c4nc(c(-c5c(F)cc(S(=O)(=O)[O-])cc5F)c5ccc2[nH]5)C=C4)C=C3)cc1
REMARK SMILES IDX 17 1 16 2 15 3 14 4 13 5 1 6 2 7 3 9 4 10 5 11 6 12 12 13
REMARK SMILES IDX 7 14 10 15 8 16 11 17 9 19 18 21 19 22 20 23 21 24 22 26
REMARK SMILES IDX 23 27 24 28 88 29 25 30 87 31 26 32 27 33 28 34 81 35 29 36
REMARK SMILES IDX 86 37 80 38 82 39 30 40 85 41 79 42 78 43 31 45 65 46 44 47
REMARK SMILES IDX 64 48 45 49 48 50 63 51 83 52 46 53 47 54 62 56 84 57 49 58
REMARK SMILES IDX 32 59 33 60 42 61 34 62 35 63 41 64 43 65 36 66 37 67 38 68
REMARK SMILES IDX 39 69 40 70 66 71 67 72 76 73 68 74 69 75 75 76 77 77 70 78
REMARK SMILES IDX 71 79 72 80 73 81 74 82 50 83 51 84 60 85 52 86 53 87 59 88
REMARK SMILES IDX 61 89 54 90 55 91 56 92 57 93 58 94
REMARK H PARENT 13 8 11 18 9 20 20 25 82 44 48 55
REMARK Flexibility Score: inf
ROOT
ATOM      1  C   UNL A   1      31.818  26.424  26.460  1.00  0.00     0.002 C 
ENDROOT
BRANCH   1   2
ATOM      2  C   UNL A   1      30.851  26.470  25.271  1.00  0.00     0.002 C 
BRANCH   2   3
ATOM      3  C   UNL A   1      30.970  27.709  24.374  1.00  0.00     0.021 C 
BRANCH   3   4
ATOM      4  C   UNL A   1      32.186  27.710  23.445  1.00  0.00     0.116 C 
BRANCH   4   5
ATOM      5  N   UNL A   1      33.015  26.539  23.653  1.00  0.00    -0.353 N 
ATOM      6  O   UNL A   1      33.394  26.093  21.432  1.00  0.00    -0.270 OA
ATOM      7  C   UNL A   1      33.510  25.796  22.616  1.00  0.00     0.243 C 
ATOM      8  H   UNL A   1      33.230  26.268  24.574  1.00  0.00     0.163 HD
BRANCH   7   9
ATOM      9  C   UNL A   1      34.257  24.566  22.980  1.00  0.00     0.072 C 
ATOM     10  C   UNL A   1      34.857  24.316  24.156  1.00  0.00     0.014 C 
BRANCH  10  11
ATOM     11  C   UNL A   1      35.496  23.028  24.465  1.00  0.00    -0.022 A 
ATOM     12  C   UNL A   1      34.788  21.814  24.439  1.00  0.00     0.012 A 
ATOM     13  C   UNL A   1      36.865  23.011  24.766  1.00  0.00     0.058 A 
ATOM     14  C   UNL A   1      35.424  20.604  24.743  1.00  0.00     0.051 A 
ATOM     15  C   UNL A   1      37.487  21.807  25.067  1.00  0.00     0.157 A 
ATOM     16  C   UNL A   1      36.775  20.612  25.062  1.00  0.00     0.157 A 
BRANCH  15  17
ATOM     17  O   UNL A   1      38.818  21.805  25.375  1.00  0.00    -0.504 OA
ATOM     18  H   UNL A   1      39.200  22.542  25.808  1.00  0.00     0.293 HD
ENDBRANCH  15  17
BRANCH  16  19
ATOM     19  O   UNL A   1      37.450  19.465  25.375  1.00  0.00    -0.504 OA
ATOM     20  H   UNL A   1      37.838  19.366  26.222  1.00  0.00     0.293 HD
ENDBRANCH  16  19
ENDBRANCH  10  11
ENDBRANCH   7   9
ENDBRANCH   4   5
ENDBRANCH   3   4
ENDBRANCH   2   3
ENDBRANCH   1   2
BRANCH   1  21
ATOM     21  C   UNL A   1      31.920  27.720  27.268  1.00  0.00     0.021 C 
BRANCH  21  22
ATOM     22  C   UNL A   1      33.295  28.381  27.253  1.00  0.00     0.116 C 
BRANCH  22  23
ATOM     23  N   UNL A   1      33.222  29.817  27.478  1.00  0.00    -0.352 N 
ATOM     24  C   UNL A   1      34.164  30.667  28.006  1.00  0.00     0.251 C 
ATOM     25  H   UNL A   1      32.375  30.243  27.214  1.00  0.00     0.163 HD
ATOM     26  O   UNL A   1      33.856  31.824  28.284  1.00  0.00    -0.269 OA
BRANCH  24  27
ATOM     27  C   UNL A   1      35.539  30.183  28.264  1.00  0.00     0.039 A 
ATOM     28  C   UNL A   1      36.455  30.152  27.210  1.00  0.00     0.014 A 
ATOM     29  C   UNL A   1      35.926  29.760  29.539  1.00  0.00     0.014 A 
ATOM     30  C   UNL A   1      37.775  29.760  27.449  1.00  0.00     0.010 A 
ATOM     31  C   UNL A   1      37.259  29.444  29.791  1.00  0.00     0.010 A 
ATOM     32  C   UNL A   1      38.198  29.439  28.750  1.00  0.00    -0.014 A 
BRANCH  32  33
ATOM     33  C   UNL A   1      39.619  29.108  29.038  1.00  0.00     0.031 A 
ATOM     34  C   UNL A   1      40.547  30.156  29.595  1.00  0.00     0.074 A 
ATOM     35  C   UNL A   1      40.091  27.880  28.740  1.00  0.00     0.049 A 
ATOM     36  N   UNL A   1      41.828  30.074  29.850  1.00  0.00    -0.248 NA
ATOM     37  C   UNL A   1      39.964  31.478  29.878  1.00  0.00     0.031 C 
ATOM     38  C   UNL A   1      39.307  26.794  28.150  1.00  0.00     0.029 A 
ATOM     39  N   UNL A   1      41.347  27.341  28.879  1.00  0.00    -0.354 N 
ATOM     40  C   UNL A   1      42.205  31.329  30.311  1.00  0.00     0.074 A 
ATOM     41  C   UNL A   1      41.030  32.172  30.249  1.00  0.00     0.031 C 
ATOM     42  C   UNL A   1      40.091  25.715  27.999  1.00  0.00     0.029 A 
ATOM     43  C   UNL A   1      41.444  26.043  28.437  1.00  0.00     0.049 A 
ATOM     44  H   UNL A   1      42.106  27.839  29.260  1.00  0.00     0.167 HD
ATOM     45  C   UNL A   1      43.415  31.738  30.764  1.00  0.00     0.037 A 
ATOM     46  C   UNL A   1      42.503  25.212  28.378  1.00  0.00     0.037 A 
ATOM     47  C   UNL A   1      44.576  30.887  30.840  1.00  0.00     0.049 A 
ATOM     48  C   UNL A   1      43.838  25.691  28.881  1.00  0.00     0.074 A 
ATOM     49  C   UNL A   1      45.831  31.191  31.339  1.00  0.00     0.029 A 
ATOM     50  N   UNL A   1      44.629  29.572  30.400  1.00  0.00    -0.354 N 
ATOM     51  N   UNL A   1      44.161  26.861  29.378  1.00  0.00    -0.248 NA
ATOM     52  C   UNL A   1      44.953  24.734  28.825  1.00  0.00     0.031 C 
ATOM     53  C   UNL A   1      46.657  30.078  31.151  1.00  0.00     0.029 A 
ATOM     54  C   UNL A   1      45.902  29.059  30.593  1.00  0.00     0.049 A 
ATOM     55  H   UNL A   1      43.874  29.077  30.009  1.00  0.00     0.167 HD
ATOM     56  C   UNL A   1      45.507  26.772  29.718  1.00  0.00     0.074 A 
ATOM     57  C   UNL A   1      45.933  25.430  29.385  1.00  0.00     0.031 C 
ATOM     58  C   UNL A   1      46.315  27.717  30.260  1.00  0.00     0.037 A 
BRANCH  45  59
ATOM     59  C   UNL A   1      43.549  33.167  31.218  1.00  0.00     0.058 A 
ATOM     60  C   UNL A   1      43.310  33.546  32.549  1.00  0.00     0.135 A 
ATOM     61  C   UNL A   1      43.971  34.163  30.322  1.00  0.00     0.135 A 
ATOM     62  F   UNL A   1      42.891  32.640  33.446  1.00  0.00    -0.206 F 
ATOM     63  C   UNL A   1      43.457  34.864  32.969  1.00  0.00     0.059 A 
ATOM     64  C   UNL A   1      44.156  35.482  30.728  1.00  0.00     0.059 A 
ATOM     65  F   UNL A   1      44.215  33.859  29.038  1.00  0.00    -0.206 F 
ATOM     66  C   UNL A   1      43.884  35.825  32.050  1.00  0.00     0.060 A 
BRANCH  66  67
ATOM     67  S   UNL A   1      44.086  37.527  32.617  1.00  0.00     0.124 S 
ATOM     68  O   UNL A   1      43.033  37.626  33.624  1.00  0.00    -0.237 OA
ATOM     69  O   UNL A   1      45.452  37.525  33.129  1.00  0.00    -0.237 OA
ATOM     70  O   UNL A   1      43.872  38.317  31.409  1.00  0.00    -0.744 OA
ENDBRANCH  66  67
ENDBRANCH  45  59
BRANCH  46  71
ATOM     71  C   UNL A   1      42.339  23.837  27.831  1.00  0.00     0.058 A 
ATOM     72  C   UNL A   1      42.318  23.606  26.447  1.00  0.00     0.135 A 
ATOM     73  C   UNL A   1      42.218  22.726  28.679  1.00  0.00     0.135 A 
ATOM     74  F   UNL A   1      42.422  24.635  25.592  1.00  0.00    -0.206 F 
ATOM     75  C   UNL A   1      42.164  22.325  25.924  1.00  0.00     0.059 A 
ATOM     76  C   UNL A   1      42.094  21.433  28.182  1.00  0.00     0.059 A 
ATOM     77  F   UNL A   1      42.249  22.891  30.012  1.00  0.00    -0.206 F 
ATOM     78  C   UNL A   1      42.059  21.244  26.800  1.00  0.00     0.060 A 
BRANCH  78  79
ATOM     79  S   UNL A   1      41.913  19.581  26.111  1.00  0.00     0.124 S 
ATOM     80  O   UNL A   1      42.850  19.643  24.994  1.00  0.00    -0.237 OA
ATOM     81  O   UNL A   1      42.318  18.747  27.238  1.00  0.00    -0.237 OA
ATOM     82  O   UNL A   1      40.502  19.491  25.748  1.00  0.00    -0.744 OA
ENDBRANCH  78  79
ENDBRANCH  46  71
BRANCH  58  83
ATOM     83  C   UNL A   1      47.736  27.328  30.565  1.00  0.00     0.058 A 
ATOM     84  C   UNL A   1      48.089  26.687  31.762  1.00  0.00     0.135 A 
ATOM     85  C   UNL A   1      48.750  27.550  29.618  1.00  0.00     0.135 A 
ATOM     86  F   UNL A   1      47.161  26.454  32.704  1.00  0.00    -0.206 F 
ATOM     87  C   UNL A   1      49.402  26.304  32.022  1.00  0.00     0.059 A 
ATOM     88  C   UNL A   1      50.062  27.148  29.843  1.00  0.00     0.059 A 
ATOM     89  F   UNL A   1      48.465  28.149  28.451  1.00  0.00    -0.206 F 
ATOM     90  C   UNL A   1      50.381  26.536  31.054  1.00  0.00     0.060 A 
BRANCH  90  91
ATOM     91  S   UNL A   1      52.073  26.004  31.391  1.00  0.00     0.124 S 
ATOM     92  O   UNL A   1      51.853  24.712  32.033  1.00  0.00    -0.237 OA
ATOM     93  O   UNL A   1      52.657  25.957  30.054  1.00  0.00    -0.237 OA
ATOM     94  O   UNL A   1      52.594  27.056  32.259  1.00  0.00    -0.744 OA
ENDBRANCH  90  91
ENDBRANCH  58  83
ENDBRANCH  32  33
ENDBRANCH  24  27
ENDBRANCH  22  23
ENDBRANCH  21  22
ENDBRANCH   1  21
TORSDOF 19
ENDMDL
MODEL 2
REMARK VINA RESULT:     -10.2      4.797     10.646
REMARK SMILES O=C(/C=C/c1ccc(O)c(O)c1)NCCCCCCNC(=O)c1ccc(-c2c3nc(c(-c4c(F)cc(S(=O)(=O)[O-])cc4F)c4ccc([nH]4)c(-c4c(F)cc(S(=O)(=O)[O-])cc4F)c4nc(c(-c5c(F)cc(S(=O)(=O)[O-])cc5F)c5ccc2[nH]5)C=C4)C=C3)cc1
REMARK SMILES IDX 17 1 16 2 15 3 14 4 13 5 1 6 2 7 3 9 4 10 5 11 6 12 12 13
REMARK SMILES IDX 7 14 10 15 8 16 11 17 9 19 18 21 19 22 20 23 21 24 22 26
REMARK SMILES IDX 23 27 24 28 88 29 25 30 87 31 26 32 27 33 28 34 81 35 29 36
REMARK SMILES IDX 86 37 80 38 82 39 30 40 85 41 79 42 78 43 31 45 65 46 44 47
REMARK SMILES IDX 64 48 45 49 48 50 63 51 83 52 46 53 47 54 62 56 84 57 49 58
REMARK SMILES IDX 32 59 33 60 42 61 34 62 35 63 41 64 43 65 36 66 37 67 38 68
REMARK SMILES IDX 39 69 40 70 66 71 67 72 76 73 68 74 69 75 75 76 77 77 70 78
REMARK SMILES IDX 71 79 72 80 73 81 74 82 50 83 51 84 60 85 52 86 53 87 59 88
REMARK SMILES IDX 61 89 54 90 55 91 56 92 57 93 58 94
REMARK H PARENT 13 8 11 18 9 20 20 25 82 44 48 55
REMARK Flexibility Score: inf
ROOT
ATOM      1  C   UNL A   1      38.424  23.695  26.320  1.00  0.00     0.002 C 
ENDROOT
BRANCH   1   2
ATOM      2  C   UNL A   1      37.078  23.172  25.807  1.00  0.00     0.002 C 
BRANCH   2   3
ATOM      3  C   UNL A   1      37.012  22.894  24.300  1.00  0.00     0.021 C 
BRANCH   3   4
ATOM      4  C   UNL A   1      35.621  23.052  23.682  1.00  0.00     0.116 C 
BRANCH   4   5
ATOM      5  N   UNL A   1      34.992  24.290  24.100  1.00  0.00    -0.353 N 
ATOM      6  O   UNL A   1      33.117  23.330  25.016  1.00  0.00    -0.270 OA
ATOM      7  C   UNL A   1      33.758  24.323  24.692  1.00  0.00     0.243 C 
ATOM      8  H   UNL A   1      35.469  25.138  23.954  1.00  0.00     0.163 HD
BRANCH   7   9
ATOM      9  C   UNL A   1      33.195  25.668  24.973  1.00  0.00     0.072 C 
ATOM     10  C   UNL A   1      33.620  26.530  25.912  1.00  0.00     0.014 C 
BRANCH  10  11
ATOM     11  C   UNL A   1      33.064  27.884  26.060  1.00  0.00    -0.022 A 
ATOM     12  C   UNL A   1      31.967  28.330  25.303  1.00  0.00     0.012 A 
ATOM     13  C   UNL A   1      33.630  28.743  27.011  1.00  0.00     0.058 A 
ATOM     14  C   UNL A   1      31.463  29.627  25.463  1.00  0.00     0.051 A 
ATOM     15  C   UNL A   1      33.124  30.027  27.163  1.00  0.00     0.157 A 
ATOM     16  C   UNL A   1      32.053  30.471  26.394  1.00  0.00     0.157 A 
BRANCH  15  17
ATOM     17  O   UNL A   1      33.695  30.863  28.081  1.00  0.00    -0.504 OA
ATOM     18  H   UNL A   1      34.111  31.653  27.800  1.00  0.00     0.293 HD
ENDBRANCH  15  17
BRANCH  16  19
ATOM     19  O   UNL A   1      31.612  31.749  26.592  1.00  0.00    -0.504 OA
ATOM     20  H   UNL A   1      31.545  32.340  25.868  1.00  0.00     0.293 HD
ENDBRANCH  16  19
ENDBRANCH  10  11
ENDBRANCH   7   9
ENDBRANCH   4   5
ENDBRANCH   3   4
ENDBRANCH   2   3
ENDBRANCH   1   2
BRANCH   1  21
ATOM     21  C   UNL A   1      39.475  22.621  26.610  1.00  0.00     0.021 C 
BRANCH  21  22
ATOM     22  C   UNL A   1      40.826  23.151  27.079  1.00  0.00     0.116 C 
BRANCH  22  23
ATOM     23  N   UNL A   1      41.520  23.899  26.041  1.00  0.00    -0.352 N 
ATOM     24  C   UNL A   1      41.898  25.219  26.022  1.00  0.00     0.251 C 
ATOM     25  H   UNL A   1      41.753  23.384  25.235  1.00  0.00     0.163 HD
ATOM     26  O   UNL A   1      42.318  25.720  24.980  1.00  0.00    -0.269 OA
BRANCH  24  27
ATOM     27  C   UNL A   1      41.774  26.046  27.243  1.00  0.00     0.039 A 
ATOM     28  C   UNL A   1      42.727  27.037  27.490  1.00  0.00     0.014 A 
ATOM     29  C   UNL A   1      40.724  25.845  28.145  1.00  0.00     0.014 A 
ATOM     30  C   UNL A   1      42.590  27.869  28.604  1.00  0.00     0.010 A 
ATOM     31  C   UNL A   1      40.547  26.724  29.211  1.00  0.00     0.010 A 
ATOM     32  C   UNL A   1      41.477  27.745  29.454  1.00  0.00    -0.014 A 
BRANCH  32  33
ATOM     33  C   UNL A   1      41.268  28.680  30.591  1.00  0.00     0.031 A 
ATOM     34  C   UNL A   1      42.110  28.566  31.835  1.00  0.00     0.074 A 
ATOM     35  C   UNL A   1      40.278  29.593  30.530  1.00  0.00     0.049 A 
ATOM     36  N   UNL A   1      42.033  29.247  32.949  1.00  0.00    -0.248 NA
ATOM     37  C   UNL A   1      43.160  27.534  31.836  1.00  0.00     0.031 C 
ATOM     38  C   UNL A   1      39.361  29.770  29.402  1.00  0.00     0.029 A 
ATOM     39  N   UNL A   1      39.866  30.537  31.439  1.00  0.00    -0.354 N 
ATOM     40  C   UNL A   1      43.012  28.721  33.785  1.00  0.00     0.074 A 
ATOM     41  C   UNL A   1      43.633  27.628  33.070  1.00  0.00     0.031 C 
ATOM     42  C   UNL A   1      38.512  30.773  29.677  1.00  0.00     0.029 A 
ATOM     43  C   UNL A   1      38.791  31.281  31.016  1.00  0.00     0.049 A 
ATOM     44  H   UNL A   1      40.302  30.667  32.312  1.00  0.00     0.167 HD
ATOM     45  C   UNL A   1      43.373  29.126  35.026  1.00  0.00     0.037 A 
ATOM     46  C   UNL A   1      38.098  32.255  31.637  1.00  0.00     0.037 A 
ATOM     47  C   UNL A   1      42.761  30.228  35.725  1.00  0.00     0.049 A 
ATOM     48  C   UNL A   1      38.514  32.683  33.019  1.00  0.00     0.074 A 
ATOM     49  C   UNL A   1      43.097  30.753  36.961  1.00  0.00     0.029 A 
ATOM     50  N   UNL A   1      41.687  30.970  35.255  1.00  0.00    -0.354 N 
ATOM     51  N   UNL A   1      39.487  32.220  33.767  1.00  0.00    -0.248 NA
ATOM     52  C   UNL A   1      37.746  33.772  33.640  1.00  0.00     0.031 C 
ATOM     53  C   UNL A   1      42.191  31.775  37.263  1.00  0.00     0.029 A 
ATOM     54  C   UNL A   1      41.331  31.931  36.187  1.00  0.00     0.049 A 
ATOM     55  H   UNL A   1      41.244  30.834  34.387  1.00  0.00     0.167 HD
ATOM     56  C   UNL A   1      39.464  32.978  34.934  1.00  0.00     0.074 A 
ATOM     57  C   UNL A   1      38.392  33.939  34.785  1.00  0.00     0.031 C 
ATOM     58  C   UNL A   1      40.262  32.887  36.027  1.00  0.00     0.037 A 
BRANCH  45  59
ATOM     59  C   UNL A   1      44.485  28.378  35.713  1.00  0.00     0.058 A 
ATOM     60  C   UNL A   1      45.831  28.740  35.551  1.00  0.00     0.135 A 
ATOM     61  C   UNL A   1      44.196  27.315  36.585  1.00  0.00     0.135 A 
ATOM     62  F   UNL A   1      46.168  29.739  34.719  1.00  0.00    -0.206 F 
ATOM     63  C   UNL A   1      46.854  28.060  36.205  1.00  0.00     0.059 A 
ATOM     64  C   UNL A   1      45.200  26.641  37.275  1.00  0.00     0.059 A 
ATOM     65  F   UNL A   1      42.927  26.924  36.780  1.00  0.00    -0.206 F 
ATOM     66  C   UNL A   1      46.527  27.013  37.068  1.00  0.00     0.060 A 
BRANCH  66  67
ATOM     67  S   UNL A   1      47.865  26.152  37.922  1.00  0.00     0.124 S 
ATOM     68  O   UNL A   1      48.915  26.168  36.908  1.00  0.00    -0.237 OA
ATOM     69  O   UNL A   1      48.093  27.006  39.083  1.00  0.00    -0.237 OA
ATOM     70  O   UNL A   1      47.296  24.840  38.213  1.00  0.00    -0.744 OA
ENDBRANCH  66  67
ENDBRANCH  45  59
BRANCH  46  71
ATOM     71  C   UNL A   1      36.944  32.900  30.952  1.00  0.00     0.058 A 
ATOM     72  C   UNL A   1      37.141  33.890  29.979  1.00  0.00     0.135 A 
ATOM     73  C   UNL A   1      35.623  32.528  31.246  1.00  0.00     0.135 A 
ATOM     74  F   UNL A   1      38.384  34.288  29.667  1.00  0.00    -0.206 F 
ATOM     75  C   UNL A   1      36.070  34.501  29.332  1.00  0.00     0.059 A 
ATOM     76  C   UNL A   1      34.537  33.101  30.592  1.00  0.00     0.059 A 
ATOM     77  F   UNL A   1      35.380  31.573  32.158  1.00  0.00    -0.206 F 
ATOM     78  C   UNL A   1      34.771  34.096  29.643  1.00  0.00     0.060 A 
BRANCH  78  79
ATOM     79  S   UNL A   1      33.392  34.857  28.760  1.00  0.00     0.124 S 
ATOM     80  O   UNL A   1      33.039  33.811  27.807  1.00  0.00    -0.237 OA
ATOM     81  O   UNL A   1      32.434  35.091  29.836  1.00  0.00    -0.237 OA
ATOM     82  O   UNL A   1      33.985  36.061  28.186  1.00  0.00    -0.744 OA
ENDBRANCH  78  79
ENDBRANCH  46  71
BRANCH  58  83
ATOM     83  C   UNL A   1      40.035  33.875  37.139  1.00  0.00     0.058 A 
ATOM     84  C   UNL A   1      40.659  35.132  37.153  1.00  0.00     0.135 A 
ATOM     85  C   UNL A   1      39.136  33.579  38.177  1.00  0.00     0.135 A 
ATOM     86  F   UNL A   1      41.531  35.465  36.189  1.00  0.00    -0.206 F 
ATOM     87  C   UNL A   1      40.420  36.050  38.171  1.00  0.00     0.059 A 
ATOM     88  C   UNL A   1      38.858  34.494  39.188  1.00  0.00     0.059 A 
ATOM     89  F   UNL A   1      38.504  32.395  38.207  1.00  0.00    -0.206 F 
ATOM     90  C   UNL A   1      39.514  35.723  39.183  1.00  0.00     0.060 A 
BRANCH  90  91
ATOM     91  S   UNL A   1      39.189  36.938  40.479  1.00  0.00     0.124 S 
ATOM     92  O   UNL A   1      38.384  36.161  41.415  1.00  0.00    -0.237 OA
ATOM     93  O   UNL A   1      40.535  37.280  40.929  1.00  0.00    -0.237 OA
ATOM     94  O   UNL A   1      38.481  38.003  39.775  1.00  0.00    -0.744 OA
ENDBRANCH  90  91
ENDBRANCH  58  83
ENDBRANCH  32  33
ENDBRANCH  24  27
ENDBRANCH  22  23
ENDBRANCH  21  22
ENDBRANCH   1  21
TORSDOF 19
ENDMDL
MODEL 3
REMARK VINA RESULT:     -10.2      3.095      4.595
REMARK SMILES O=C(/C=C/c1ccc(O)c(O)c1)NCCCCCCNC(=O)c1ccc(-c2c3nc(c(-c4c(F)cc(S(=O)(=O)[O-])cc4F)c4ccc([nH]4)c(-c4c(F)cc(S(=O)(=O)[O-])cc4F)c4nc(c(-c5c(F)cc(S(=O)(=O)[O-])cc5F)c5ccc2[nH]5)C=C4)C=C3)cc1
REMARK SMILES IDX 17 1 16 2 15 3 14 4 13 5 1 6 2 7 3 9 4 10 5 11 6 12 12 13
REMARK SMILES IDX 7 14 10 15 8 16 11 17 9 19 18 21 19 22 20 23 21 24 22 26
REMARK SMILES IDX 23 27 24 28 88 29 25 30 87 31 26 32 27 33 28 34 81 35 29 36
REMARK SMILES IDX 86 37 80 38 82 39 30 40 85 41 79 42 78 43 31 45 65 46 44 47
REMARK SMILES IDX 64 48 45 49 48 50 63 51 83 52 46 53 47 54 62 56 84 57 49 58
REMARK SMILES IDX 32 59 33 60 42 61 34 62 35 63 41 64 43 65 36 66 37 67 38 68
REMARK SMILES IDX 39 69 40 70 66 71 67 72 76 73 68 74 69 75 75 76 77 77 70 78
REMARK SMILES IDX 71 79 72 80 73 81 74 82 50 83 51 84 60 85 52 86 53 87 59 88
REMARK SMILES IDX 61 89 54 90 55 91 56 92 57 93 58 94
REMARK H PARENT 13 8 11 18 9 20 20 25 82 44 48 55
REMARK Flexibility Score: inf
ROOT
ATOM      1  C   UNL A   1      35.791  33.991  29.238  1.00  0.00     0.002 C 
ENDROOT
BRANCH   1   2
ATOM      2  C   UNL A   1      35.339  33.438  27.882  1.00  0.00     0.002 C 
BRANCH   2   3
ATOM      3  C   UNL A   1      35.419  31.912  27.735  1.00  0.00     0.021 C 
BRANCH   3   4
ATOM      4  C   UNL A   1      34.066  31.198  27.750  1.00  0.00     0.116 C 
BRANCH   4   5
ATOM      5  N   UNL A   1      33.961  30.235  26.671  1.00  0.00    -0.353 N 
ATOM      6  O   UNL A   1      32.825  28.634  27.864  1.00  0.00    -0.270 OA
ATOM      7  C   UNL A   1      33.388  29.004  26.839  1.00  0.00     0.243 C 
ATOM      8  H   UNL A   1      34.316  30.475  25.785  1.00  0.00     0.163 HD
BRANCH   7   9
ATOM      9  C   UNL A   1      33.443  28.083  25.675  1.00  0.00     0.072 C 
ATOM     10  C   UNL A   1      33.459  26.741  25.720  1.00  0.00     0.014 C 
BRANCH  10  11
ATOM     11  C   UNL A   1      33.418  25.903  24.512  1.00  0.00    -0.022 A 
ATOM     12  C   UNL A   1      33.385  24.500  24.574  1.00  0.00     0.012 A 
ATOM     13  C   UNL A   1      33.380  26.530  23.259  1.00  0.00     0.058 A 
ATOM     14  C   UNL A   1      33.351  23.728  23.406  1.00  0.00     0.051 A 
ATOM     15  C   UNL A   1      33.347  25.758  22.106  1.00  0.00     0.157 A 
ATOM     16  C   UNL A   1      33.338  24.369  22.174  1.00  0.00     0.157 A 
BRANCH  15  17
ATOM     17  O   UNL A   1      33.327  26.380  20.889  1.00  0.00    -0.504 OA
ATOM     18  H   UNL A   1      32.900  27.208  20.793  1.00  0.00     0.293 HD
ENDBRANCH  15  17
BRANCH  16  19
ATOM     19  O   UNL A   1      33.312  23.672  20.999  1.00  0.00    -0.504 OA
ATOM     20  H   UNL A   1      33.656  22.801  20.961  1.00  0.00     0.293 HD
ENDBRANCH  16  19
ENDBRANCH  10  11
ENDBRANCH   7   9
ENDBRANCH   4   5
ENDBRANCH   3   4
ENDBRANCH   2   3
ENDBRANCH   1   2
BRANCH   1  21
ATOM     21  C   UNL A   1      37.261  33.747  29.585  1.00  0.00     0.021 C 
BRANCH  21  22
ATOM     22  C   UNL A   1      37.510  33.209  30.991  1.00  0.00     0.116 C 
BRANCH  22  23
ATOM     23  N   UNL A   1      36.618  32.111  31.332  1.00  0.00    -0.352 N 
ATOM     24  C   UNL A   1      36.766  30.765  31.107  1.00  0.00     0.251 C 
ATOM     25  H   UNL A   1      35.786  32.371  31.791  1.00  0.00     0.163 HD
ATOM     26  O   UNL A   1      35.821  30.003  31.307  1.00  0.00    -0.269 OA
BRANCH  24  27
ATOM     27  C   UNL A   1      38.050  30.233  30.598  1.00  0.00     0.039 A 
ATOM     28  C   UNL A   1      38.263  30.182  29.218  1.00  0.00     0.014 A 
ATOM     29  C   UNL A   1      39.042  29.785  31.475  1.00  0.00     0.014 A 
ATOM     30  C   UNL A   1      39.494  29.744  28.722  1.00  0.00     0.010 A 
ATOM     31  C   UNL A   1      40.293  29.422  30.982  1.00  0.00     0.010 A 
ATOM     32  C   UNL A   1      40.534  29.397  29.601  1.00  0.00    -0.014 A 
BRANCH  32  33
ATOM     33  C   UNL A   1      41.878  29.016  29.091  1.00  0.00     0.031 A 
ATOM     34  C   UNL A   1      42.969  30.049  28.976  1.00  0.00     0.074 A 
ATOM     35  C   UNL A   1      42.099  27.753  28.673  1.00  0.00     0.049 A 
ATOM     36  N   UNL A   1      44.180  29.920  28.498  1.00  0.00    -0.248 NA
ATOM     37  C   UNL A   1      42.647  31.410  29.437  1.00  0.00     0.031 C 
ATOM     38  C   UNL A   1      41.110  26.674  28.685  1.00  0.00     0.029 A 
ATOM     39  N   UNL A   1      43.222  27.165  28.144  1.00  0.00    -0.354 N 
ATOM     40  C   UNL A   1      44.759  31.180  28.589  1.00  0.00     0.074 A 
ATOM     41  C   UNL A   1      43.750  32.072  29.116  1.00  0.00     0.031 C 
ATOM     42  C   UNL A   1      41.674  25.553  28.209  1.00  0.00     0.029 A 
ATOM     43  C   UNL A   1      43.049  25.841  27.814  1.00  0.00     0.049 A 
ATOM     44  H   UNL A   1      44.070  27.646  28.013  1.00  0.00     0.167 HD
ATOM     45  C   UNL A   1      46.024  31.556  28.279  1.00  0.00     0.037 A 
ATOM     46  C   UNL A   1      43.896  24.959  27.248  1.00  0.00     0.037 A 
ATOM     47  C   UNL A   1      47.030  30.658  27.771  1.00  0.00     0.049 A 
ATOM     48  C   UNL A   1      45.294  25.402  26.907  1.00  0.00     0.074 A 
ATOM     49  C   UNL A   1      48.356  30.929  27.483  1.00  0.00     0.029 A 
ATOM     50  N   UNL A   1      46.822  29.320  27.469  1.00  0.00    -0.354 N 
ATOM     51  N   UNL A   1      45.846  26.581  27.063  1.00  0.00    -0.248 NA
ATOM     52  C   UNL A   1      46.188  24.392  26.321  1.00  0.00     0.031 C 
ATOM     53  C   UNL A   1      48.935  29.771  26.955  1.00  0.00     0.029 A 
ATOM     54  C   UNL A   1      47.988  28.759  26.973  1.00  0.00     0.049 A 
ATOM     55  H   UNL A   1      45.972  28.839  27.588  1.00  0.00     0.167 HD
ATOM     56  C   UNL A   1      47.159  26.449  26.620  1.00  0.00     0.074 A 
ATOM     57  C   UNL A   1      47.321  25.071  26.206  1.00  0.00     0.031 C 
ATOM     58  C   UNL A   1      48.140  27.383  26.566  1.00  0.00     0.037 A 
BRANCH  45  59
ATOM     59  C   UNL A   1      46.398  33.000  28.484  1.00  0.00     0.058 A 
ATOM     60  C   UNL A   1      46.951  33.458  29.690  1.00  0.00     0.135 A 
ATOM     61  C   UNL A   1      46.248  33.930  27.441  1.00  0.00     0.135 A 
ATOM     62  F   UNL A   1      47.104  32.618  30.726  1.00  0.00    -0.206 F 
ATOM     63  C   UNL A   1      47.315  34.789  29.867  1.00  0.00     0.059 A 
ATOM     64  C   UNL A   1      46.635  35.259  27.584  1.00  0.00     0.059 A 
ATOM     65  F   UNL A   1      45.725  33.549  26.265  1.00  0.00    -0.206 F 
ATOM     66  C   UNL A   1      47.156  35.682  28.806  1.00  0.00     0.060 A 
BRANCH  66  67
ATOM     67  S   UNL A   1      47.650  37.402  29.047  1.00  0.00     0.124 S 
ATOM     68  O   UNL A   1      47.960  37.418  30.473  1.00  0.00    -0.237 OA
ATOM     69  O   UNL A   1      48.795  37.525  28.150  1.00  0.00    -0.237 OA
ATOM     70  O   UNL A   1      46.464  38.156  28.654  1.00  0.00    -0.744 OA
ENDBRANCH  66  67
ENDBRANCH  45  59
BRANCH  46  71
ATOM     71  C   UNL A   1      43.448  23.566  26.978  1.00  0.00     0.058 A 
ATOM     72  C   UNL A   1      43.145  23.141  25.676  1.00  0.00     0.135 A 
ATOM     73  C   UNL A   1      43.328  22.626  28.014  1.00  0.00     0.135 A 
ATOM     74  F   UNL A   1      43.236  24.003  24.650  1.00  0.00    -0.206 F 
ATOM     75  C   UNL A   1      42.724  21.841  25.411  1.00  0.00     0.059 A 
ATOM     76  C   UNL A   1      42.939  21.313  27.771  1.00  0.00     0.059 A 
ATOM     77  F   UNL A   1      43.622  22.976  29.276  1.00  0.00    -0.206 F 
ATOM     78  C   UNL A   1      42.629  20.933  26.466  1.00  0.00     0.060 A 
BRANCH  78  79
ATOM     79  S   UNL A   1      42.132  19.234  26.104  1.00  0.00     0.124 S 
ATOM     80  O   UNL A   1      40.704  19.393  25.853  1.00  0.00    -0.237 OA
ATOM     81  O   UNL A   1      42.955  18.918  24.941  1.00  0.00    -0.237 OA
ATOM     82  O   UNL A   1      42.482  18.515  27.325  1.00  0.00    -0.744 OA
ENDBRANCH  78  79
ENDBRANCH  46  71
BRANCH  58  83
ATOM     83  C   UNL A   1      49.493  26.945  26.075  1.00  0.00     0.058 A 
ATOM     84  C   UNL A   1      50.428  26.332  26.923  1.00  0.00     0.135 A 
ATOM     85  C   UNL A   1      49.836  27.091  24.720  1.00  0.00     0.135 A 
ATOM     86  F   UNL A   1      50.155  26.173  28.228  1.00  0.00    -0.206 F 
ATOM     87  C   UNL A   1      51.666  25.904  26.452  1.00  0.00     0.059 A 
ATOM     88  C   UNL A   1      51.054  26.642  24.221  1.00  0.00     0.059 A 
ATOM     89  F   UNL A   1      48.975  27.660  23.862  1.00  0.00    -0.206 F 
ATOM     90  C   UNL A   1      51.968  26.060  25.098  1.00  0.00     0.060 A 
BRANCH  90  91
ATOM     91  S   UNL A   1      53.564  25.469  24.495  1.00  0.00     0.124 S 
ATOM     92  O   UNL A   1      54.492  26.203  25.349  1.00  0.00    -0.237 OA
ATOM     93  O   UNL A   1      53.477  24.032  24.739  1.00  0.00    -0.237 OA
ATOM     94  O   UNL A   1      53.562  25.860  23.088  1.00  0.00    -0.744 OA
ENDBRANCH  90  91
ENDBRANCH  58  83
ENDBRANCH  32  33
ENDBRANCH  24  27
ENDBRANCH  22  23
ENDBRANCH  21  22
ENDBRANCH   1  21
TORSDOF 19
ENDMDL
