MODEL 1
REMARK VINA RESULT:     -12.8      0.000      0.000
REMARK SMILES Cc1ccccc1SCC(=O)N[C@H]1C=C[C@H](C(=O)NCCCCCCNC(=O)c2ccc(-c3c4nc(c(-c5c(F)cc(S(=O)(=O)[O-])cc5F)c5ccc([nH]5)c(-c5c(F)cc(S(=O)(=O)[O-])cc5F)c5nc(c(-c6c(F)cc(S(=O)(=O)[O-])cc6F)c6ccc3[nH]6)C=C5)C=C4)cc2)C1
REMARK SMILES IDX 22 1 21 2 20 3 19 4 17 5 18 6 16 8 13 9 14 10 95 11 15 12
REMARK SMILES IDX 12 13 10 14 11 15 9 17 8 18 7 19 1 20 2 21 3 22 4 23 6 24
REMARK SMILES IDX 5 25 23 26 24 27 25 28 26 29 27 30 28 32 29 33 30 34 94 35
REMARK SMILES IDX 31 36 93 37 32 38 33 39 34 40 87 41 35 42 92 43 86 44 88 45
REMARK SMILES IDX 36 46 91 47 85 48 84 49 37 51 71 52 50 53 70 54 51 55 54 56
REMARK SMILES IDX 69 57 89 58 52 59 53 60 68 62 90 63 55 64 38 65 39 66 48 67
REMARK SMILES IDX 40 68 41 69 47 70 49 71 42 72 43 73 44 74 45 75 46 76 72 77
REMARK SMILES IDX 73 78 82 79 74 80 75 81 81 82 83 83 76 84 77 85 78 86 79 87
REMARK SMILES IDX 80 88 56 89 57 90 66 91 58 92 59 93 65 94 67 95 60 96 61 97
REMARK SMILES IDX 62 98 63 99 64 100
REMARK H PARENT 19 7 12 16 26 31 88 50 54 61
REMARK Flexibility Score: inf
ROOT
ATOM      1  C   UNL A   1      32.080  29.691  25.368  1.00  0.00     0.002 C 
ENDROOT
BRANCH   1   2
ATOM      2  C   UNL A   1      31.077  29.005  24.433  1.00  0.00     0.021 C 
BRANCH   2   3
ATOM      3  C   UNL A   1      31.693  28.189  23.298  1.00  0.00     0.116 C 
BRANCH   3   4
ATOM      4  N   UNL A   1      31.232  26.817  23.296  1.00  0.00    -0.356 N 
ATOM      5  C   UNL A   1      31.569  25.793  24.130  1.00  0.00     0.227 C 
ATOM      6  O   UNL A   1      30.986  24.714  24.006  1.00  0.00    -0.274 OA
ATOM      7  H   UNL A   1      30.582  26.590  22.592  1.00  0.00     0.163 HD
BRANCH   5   8
ATOM      8  C   UNL A   1      32.618  26.032  25.219  1.00  0.00     0.103 C 
ATOM      9  C   UNL A   1      34.449  24.461  24.834  1.00  0.00     0.106 C 
ATOM     10  C   UNL A   1      33.584  24.033  25.983  1.00  0.00    -0.006 C 
ATOM     11  C   UNL A   1      34.037  25.924  24.654  1.00  0.00     0.047 C 
ATOM     12  C   UNL A   1      32.586  24.899  26.202  1.00  0.00    -0.016 C 
BRANCH   9  13
ATOM     13  N   UNL A   1      35.829  24.285  25.226  1.00  0.00    -0.349 N 
ATOM     14  C   UNL A   1      36.600  23.167  25.223  1.00  0.00     0.230 C 
ATOM     15  O   UNL A   1      37.751  23.284  25.658  1.00  0.00    -0.274 OA
ATOM     16  H   UNL A   1      36.278  25.100  25.546  1.00  0.00     0.164 HD
BRANCH  14  17
ATOM     17  C   UNL A   1      36.153  21.876  24.572  1.00  0.00     0.174 C 
BRANCH  17  18
ATOM     18  S   UNL A   1      35.213  20.708  25.586  1.00  0.00    -0.116 SA
BRANCH  18  19
ATOM     19  C   UNL A   1      34.220  19.650  24.536  1.00  0.00     0.011 A 
ATOM     20  C   UNL A   1      32.223  21.186  23.959  1.00  0.00     0.045 C 
ATOM     21  C   UNL A   1      32.979  19.892  23.922  1.00  0.00    -0.038 A 
ATOM     22  C   UNL A   1      32.361  18.849  23.190  1.00  0.00     0.004 A 
ATOM     23  C   UNL A   1      32.913  17.573  23.118  1.00  0.00     0.000 A 
ATOM     24  C   UNL A   1      34.757  18.344  24.449  1.00  0.00     0.015 A 
ATOM     25  C   UNL A   1      34.113  17.316  23.758  1.00  0.00     0.001 A 
ENDBRANCH  18  19
ENDBRANCH  17  18
ENDBRANCH  14  17
ENDBRANCH   9  13
ENDBRANCH   5   8
ENDBRANCH   3   4
ENDBRANCH   2   3
ENDBRANCH   1   2
BRANCH   1  26
ATOM     26  C   UNL A   1      32.037  29.277  26.846  1.00  0.00     0.002 C 
BRANCH  26  27
ATOM     27  C   UNL A   1      33.314  28.670  27.435  1.00  0.00     0.021 C 
BRANCH  27  28
ATOM     28  C   UNL A   1      34.585  29.343  26.938  1.00  0.00     0.116 C 
BRANCH  28  29
ATOM     29  N   UNL A   1      34.918  30.571  27.653  1.00  0.00    -0.352 N 
ATOM     30  C   UNL A   1      36.069  30.824  28.388  1.00  0.00     0.251 C 
ATOM     31  H   UNL A   1      34.255  31.298  27.610  1.00  0.00     0.163 HD
ATOM     32  O   UNL A   1      36.261  31.885  28.945  1.00  0.00    -0.269 OA
BRANCH  30  33
ATOM     33  C   UNL A   1      37.079  29.743  28.428  1.00  0.00     0.039 A 
ATOM     34  C   UNL A   1      37.204  28.981  29.594  1.00  0.00     0.014 A 
ATOM     35  C   UNL A   1      38.040  29.686  27.423  1.00  0.00     0.014 A 
ATOM     36  C   UNL A   1      38.394  28.293  29.837  1.00  0.00     0.010 A 
ATOM     37  C   UNL A   1      39.249  29.083  27.705  1.00  0.00     0.010 A 
ATOM     38  C   UNL A   1      39.443  28.423  28.928  1.00  0.00    -0.014 A 
BRANCH  38  39
ATOM     39  C   UNL A   1      40.785  27.881  29.121  1.00  0.00     0.031 A 
ATOM     40  C   UNL A   1      41.055  26.486  28.680  1.00  0.00     0.074 A 
ATOM     41  C   UNL A   1      41.797  28.659  29.568  1.00  0.00     0.049 A 
ATOM     42  N   UNL A   1      42.109  25.804  28.973  1.00  0.00    -0.248 NA
ATOM     43  C   UNL A   1      40.098  25.729  27.878  1.00  0.00     0.031 C 
ATOM     44  C   UNL A   1      43.225  28.357  29.469  1.00  0.00     0.029 A 
ATOM     45  N   UNL A   1      41.788  29.831  30.321  1.00  0.00    -0.354 N 
ATOM     46  C   UNL A   1      42.101  24.644  28.225  1.00  0.00     0.074 A 
ATOM     47  C   UNL A   1      40.799  24.626  27.601  1.00  0.00     0.031 C 
ATOM     48  C   UNL A   1      43.886  29.097  30.372  1.00  0.00     0.029 A 
ATOM     49  C   UNL A   1      42.885  29.745  31.196  1.00  0.00     0.049 A 
ATOM     50  H   UNL A   1      41.143  30.573  30.254  1.00  0.00     0.167 HD
ATOM     51  C   UNL A   1      43.240  23.894  28.149  1.00  0.00     0.037 A 
ATOM     52  C   UNL A   1      42.788  29.584  32.554  1.00  0.00     0.037 A 
ATOM     53  C   UNL A   1      44.265  24.406  29.065  1.00  0.00     0.049 A 
ATOM     54  C   UNL A   1      43.424  28.303  33.086  1.00  0.00     0.074 A 
ATOM     55  C   UNL A   1      45.353  25.252  28.930  1.00  0.00     0.029 A 
ATOM     56  N   UNL A   1      44.063  24.263  30.426  1.00  0.00    -0.354 N 
ATOM     57  N   UNL A   1      44.010  27.399  32.348  1.00  0.00    -0.248 NA
ATOM     58  C   UNL A   1      43.343  27.897  34.492  1.00  0.00     0.031 C 
ATOM     59  C   UNL A   1      45.763  25.659  30.235  1.00  0.00     0.029 A 
ATOM     60  C   UNL A   1      44.934  25.049  31.158  1.00  0.00     0.049 A 
ATOM     61  H   UNL A   1      43.382  23.675  30.823  1.00  0.00     0.167 HD
ATOM     62  C   UNL A   1      44.281  26.294  33.111  1.00  0.00     0.074 A 
ATOM     63  C   UNL A   1      43.867  26.661  34.452  1.00  0.00     0.031 C 
ATOM     64  C   UNL A   1      44.766  25.125  32.601  1.00  0.00     0.037 A 
BRANCH  51  65
ATOM     65  C   UNL A   1      43.524  22.821  27.108  1.00  0.00     0.058 A 
ATOM     66  C   UNL A   1      42.770  21.624  27.095  1.00  0.00     0.135 A 
ATOM     67  C   UNL A   1      44.547  22.865  26.138  1.00  0.00     0.135 A 
ATOM     68  F   UNL A   1      41.701  21.462  27.886  1.00  0.00    -0.206 F 
ATOM     69  C   UNL A   1      43.079  20.532  26.279  1.00  0.00     0.059 A 
ATOM     70  C   UNL A   1      44.911  21.769  25.349  1.00  0.00     0.059 A 
ATOM     71  F   UNL A   1      45.207  23.992  25.857  1.00  0.00    -0.206 F 
ATOM     72  C   UNL A   1      44.180  20.597  25.437  1.00  0.00     0.060 A 
BRANCH  72  73
ATOM     73  S   UNL A   1      44.625  19.153  24.456  1.00  0.00     0.124 S 
ATOM     74  O   UNL A   1      46.006  18.919  24.871  1.00  0.00    -0.237 OA
ATOM     75  O   UNL A   1      43.649  18.166  24.903  1.00  0.00    -0.237 OA
ATOM     76  O   UNL A   1      44.464  19.613  23.079  1.00  0.00    -0.744 OA
ENDBRANCH  72  73
ENDBRANCH  51  65
BRANCH  52  77
ATOM     77  C   UNL A   1      41.573  30.206  33.141  1.00  0.00     0.058 A 
ATOM     78  C   UNL A   1      41.622  31.579  33.444  1.00  0.00     0.135 A 
ATOM     79  C   UNL A   1      40.315  29.612  32.968  1.00  0.00     0.135 A 
ATOM     80  F   UNL A   1      42.802  32.181  33.662  1.00  0.00    -0.206 F 
ATOM     81  C   UNL A   1      40.490  32.373  33.348  1.00  0.00     0.059 A 
ATOM     82  C   UNL A   1      39.165  30.388  32.886  1.00  0.00     0.059 A 
ATOM     83  F   UNL A   1      40.213  28.300  32.713  1.00  0.00    -0.206 F 
ATOM     84  C   UNL A   1      39.284  31.774  32.985  1.00  0.00     0.060 A 
BRANCH  84  85
ATOM     85  S   UNL A   1      37.956  32.852  32.407  1.00  0.00     0.124 S 
ATOM     86  O   UNL A   1      38.357  33.125  31.032  1.00  0.00    -0.237 OA
ATOM     87  O   UNL A   1      36.798  31.975  32.568  1.00  0.00    -0.237 OA
ATOM     88  O   UNL A   1      38.023  33.983  33.324  1.00  0.00    -0.744 OA
ENDBRANCH  84  85
ENDBRANCH  52  77
BRANCH  64  89
ATOM     89  C   UNL A   1      45.087  23.949  33.479  1.00  0.00     0.058 A 
ATOM     90  C   UNL A   1      46.387  23.733  33.967  1.00  0.00     0.135 A 
ATOM     91  C   UNL A   1      44.133  22.957  33.782  1.00  0.00     0.135 A 
ATOM     92  F   UNL A   1      47.377  24.595  33.682  1.00  0.00    -0.206 F 
ATOM     93  C   UNL A   1      46.710  22.634  34.759  1.00  0.00     0.059 A 
ATOM     94  C   UNL A   1      44.444  21.825  34.530  1.00  0.00     0.059 A 
ATOM     95  F   UNL A   1      42.856  23.078  33.390  1.00  0.00    -0.206 F 
ATOM     96  C   UNL A   1      45.729  21.685  35.039  1.00  0.00     0.060 A 
BRANCH  96  97
ATOM     97  S   UNL A   1      46.146  20.254  36.054  1.00  0.00     0.124 S 
ATOM     98  O   UNL A   1      45.317  19.199  35.478  1.00  0.00    -0.237 OA
ATOM     99  O   UNL A   1      47.579  20.135  35.810  1.00  0.00    -0.237 OA
ATOM    100  O   UNL A   1      45.767  20.676  37.399  1.00  0.00    -0.744 OA
ENDBRANCH  96  97
ENDBRANCH  64  89
ENDBRANCH  38  39
ENDBRANCH  30  33
ENDBRANCH  28  29
ENDBRANCH  27  28
ENDBRANCH  26  27
ENDBRANCH   1  26
TORSDOF 20
ENDMDL
MODEL 2
REMARK VINA RESULT:     -12.5      4.506     11.389
REMARK SMILES Cc1ccccc1SCC(=O)N[C@H]1C=C[C@H](C(=O)NCCCCCCNC(=O)c2ccc(-c3c4nc(c(-c5c(F)cc(S(=O)(=O)[O-])cc5F)c5ccc([nH]5)c(-c5c(F)cc(S(=O)(=O)[O-])cc5F)c5nc(c(-c6c(F)cc(S(=O)(=O)[O-])cc6F)c6ccc3[nH]6)C=C5)C=C4)cc2)C1
REMARK SMILES IDX 22 1 21 2 20 3 19 4 17 5 18 6 16 8 13 9 14 10 95 11 15 12
REMARK SMILES IDX 12 13 10 14 11 15 9 17 8 18 7 19 1 20 2 21 3 22 4 23 6 24
REMARK SMILES IDX 5 25 23 26 24 27 25 28 26 29 27 30 28 32 29 33 30 34 94 35
REMARK SMILES IDX 31 36 93 37 32 38 33 39 34 40 87 41 35 42 92 43 86 44 88 45
REMARK SMILES IDX 36 46 91 47 85 48 84 49 37 51 71 52 50 53 70 54 51 55 54 56
REMARK SMILES IDX 69 57 89 58 52 59 53 60 68 62 90 63 55 64 38 65 39 66 48 67
REMARK SMILES IDX 40 68 41 69 47 70 49 71 42 72 43 73 44 74 45 75 46 76 72 77
REMARK SMILES IDX 73 78 82 79 74 80 75 81 81 82 83 83 76 84 77 85 78 86 79 87
REMARK SMILES IDX 80 88 56 89 57 90 66 91 58 92 59 93 65 94 67 95 60 96 61 97
REMARK SMILES IDX 62 98 63 99 64 100
REMARK H PARENT 19 7 12 16 26 31 88 50 54 61
REMARK Flexibility Score: inf
ROOT
ATOM      1  C   UNL A   1      36.203  21.070  25.382  1.00  0.00     0.002 C 
ENDROOT
BRANCH   1   2
ATOM      2  C   UNL A   1      34.784  20.711  24.929  1.00  0.00     0.021 C 
BRANCH   2   3
ATOM      3  C   UNL A   1      33.659  21.252  25.808  1.00  0.00     0.116 C 
BRANCH   3   4
ATOM      4  N   UNL A   1      32.663  21.973  25.043  1.00  0.00    -0.356 N 
ATOM      5  C   UNL A   1      32.737  23.214  24.485  1.00  0.00     0.227 C 
ATOM      6  O   UNL A   1      31.797  23.607  23.792  1.00  0.00    -0.274 OA
ATOM      7  H   UNL A   1      31.811  21.500  24.906  1.00  0.00     0.163 HD
BRANCH   5   8
ATOM      8  C   UNL A   1      34.000  24.053  24.697  1.00  0.00     0.103 C 
ATOM      9  C   UNL A   1      33.305  26.216  25.596  1.00  0.00     0.106 C 
ATOM     10  C   UNL A   1      33.675  26.312  24.145  1.00  0.00    -0.006 C 
ATOM     11  C   UNL A   1      33.914  24.868  25.990  1.00  0.00     0.047 C 
ATOM     12  C   UNL A   1      34.066  25.130  23.653  1.00  0.00    -0.016 C 
BRANCH   9  13
ATOM     13  N   UNL A   1      33.891  27.346  26.281  1.00  0.00    -0.349 N 
ATOM     14  C   UNL A   1      33.452  28.627  26.382  1.00  0.00     0.230 C 
ATOM     15  O   UNL A   1      34.177  29.416  26.997  1.00  0.00    -0.274 OA
ATOM     16  H   UNL A   1      34.739  27.158  26.744  1.00  0.00     0.164 HD
BRANCH  14  17
ATOM     17  C   UNL A   1      32.075  29.050  25.920  1.00  0.00     0.174 C 
BRANCH  17  18
ATOM     18  S   UNL A   1      31.830  29.316  24.147  1.00  0.00    -0.116 SA
BRANCH  18  19
ATOM     19  C   UNL A   1      30.089  29.191  23.746  1.00  0.00     0.011 A 
ATOM     20  C   UNL A   1      29.778  26.640  23.478  1.00  0.00     0.045 C 
ATOM     21  C   UNL A   1      29.307  28.063  23.448  1.00  0.00    -0.038 A 
ATOM     22  C   UNL A   1      27.949  28.244  23.088  1.00  0.00     0.004 A 
ATOM     23  C   UNL A   1      27.385  29.510  22.957  1.00  0.00     0.000 A 
ATOM     24  C   UNL A   1      29.491  30.466  23.602  1.00  0.00     0.015 A 
ATOM     25  C   UNL A   1      28.162  30.628  23.206  1.00  0.00     0.001 A 
ENDBRANCH  18  19
ENDBRANCH  17  18
ENDBRANCH  14  17
ENDBRANCH   9  13
ENDBRANCH   5   8
ENDBRANCH   3   4
ENDBRANCH   2   3
ENDBRANCH   1   2
BRANCH   1  26
ATOM     26  C   UNL A   1      37.069  21.850  24.381  1.00  0.00     0.002 C 
BRANCH  26  27
ATOM     27  C   UNL A   1      37.216  23.356  24.618  1.00  0.00     0.021 C 
BRANCH  27  28
ATOM     28  C   UNL A   1      37.704  23.702  26.016  1.00  0.00     0.116 C 
BRANCH  28  29
ATOM     29  N   UNL A   1      39.054  23.226  26.303  1.00  0.00    -0.352 N 
ATOM     30  C   UNL A   1      40.088  23.948  26.883  1.00  0.00     0.251 C 
ATOM     31  H   UNL A   1      39.252  22.292  26.058  1.00  0.00     0.163 HD
ATOM     32  O   UNL A   1      41.181  23.461  27.089  1.00  0.00    -0.269 OA
BRANCH  30  33
ATOM     33  C   UNL A   1      39.783  25.341  27.279  1.00  0.00     0.039 A 
ATOM     34  C   UNL A   1      40.291  26.388  26.504  1.00  0.00     0.014 A 
ATOM     35  C   UNL A   1      39.232  25.575  28.535  1.00  0.00     0.014 A 
ATOM     36  C   UNL A   1      40.415  27.658  27.069  1.00  0.00     0.010 A 
ATOM     37  C   UNL A   1      39.439  26.806  29.124  1.00  0.00     0.010 A 
ATOM     38  C   UNL A   1      40.068  27.836  28.408  1.00  0.00    -0.014 A 
BRANCH  38  39
ATOM     39  C   UNL A   1      40.278  29.065  29.167  1.00  0.00     0.031 A 
ATOM     40  C   UNL A   1      39.199  30.090  29.165  1.00  0.00     0.074 A 
ATOM     41  C   UNL A   1      41.362  29.223  29.959  1.00  0.00     0.049 A 
ATOM     42  N   UNL A   1      39.319  31.297  29.602  1.00  0.00    -0.248 NA
ATOM     43  C   UNL A   1      37.874  29.818  28.615  1.00  0.00     0.031 C 
ATOM     44  C   UNL A   1      41.516  30.217  31.021  1.00  0.00     0.029 A 
ATOM     45  N   UNL A   1      42.619  28.624  29.922  1.00  0.00    -0.354 N 
ATOM     46  C   UNL A   1      38.068  31.879  29.629  1.00  0.00     0.074 A 
ATOM     47  C   UNL A   1      37.214  30.929  28.954  1.00  0.00     0.031 C 
ATOM     48  C   UNL A   1      42.823  30.371  31.282  1.00  0.00     0.029 A 
ATOM     49  C   UNL A   1      43.543  29.626  30.268  1.00  0.00     0.049 A 
ATOM     50  H   UNL A   1      42.822  27.686  29.698  1.00  0.00     0.167 HD
ATOM     51  C   UNL A   1      37.893  33.050  30.310  1.00  0.00     0.037 A 
ATOM     52  C   UNL A   1      44.448  30.185  29.402  1.00  0.00     0.037 A 
ATOM     53  C   UNL A   1      39.179  33.582  30.771  1.00  0.00     0.049 A 
ATOM     54  C   UNL A   1      44.276  31.687  29.192  1.00  0.00     0.074 A 
ATOM     55  C   UNL A   1      39.886  33.521  31.961  1.00  0.00     0.029 A 
ATOM     56  N   UNL A   1      40.066  34.070  29.828  1.00  0.00    -0.354 N 
ATOM     57  N   UNL A   1      43.353  32.419  29.755  1.00  0.00    -0.248 NA
ATOM     58  C   UNL A   1      45.076  32.454  28.233  1.00  0.00     0.031 C 
ATOM     59  C   UNL A   1      41.229  33.926  31.700  1.00  0.00     0.029 A 
ATOM     60  C   UNL A   1      41.331  34.247  30.358  1.00  0.00     0.049 A 
ATOM     61  H   UNL A   1      39.826  34.267  28.894  1.00  0.00     0.167 HD
ATOM     62  C   UNL A   1      43.356  33.668  29.193  1.00  0.00     0.074 A 
ATOM     63  C   UNL A   1      44.467  33.651  28.262  1.00  0.00     0.031 C 
ATOM     64  C   UNL A   1      42.419  34.621  29.468  1.00  0.00     0.037 A 
BRANCH  51  65
ATOM     65  C   UNL A   1      36.555  33.625  30.749  1.00  0.00     0.058 A 
ATOM     66  C   UNL A   1      35.637  34.107  29.787  1.00  0.00     0.135 A 
ATOM     67  C   UNL A   1      36.128  33.792  32.083  1.00  0.00     0.135 A 
ATOM     68  F   UNL A   1      35.845  33.938  28.474  1.00  0.00    -0.206 F 
ATOM     69  C   UNL A   1      34.465  34.795  30.121  1.00  0.00     0.059 A 
ATOM     70  C   UNL A   1      34.991  34.523  32.445  1.00  0.00     0.059 A 
ATOM     71  F   UNL A   1      36.755  33.203  33.104  1.00  0.00    -0.206 F 
ATOM     72  C   UNL A   1      34.171  35.035  31.455  1.00  0.00     0.060 A 
BRANCH  72  73
ATOM     73  S   UNL A   1      32.709  36.000  31.874  1.00  0.00     0.124 S 
ATOM     74  O   UNL A   1      33.247  36.971  32.823  1.00  0.00    -0.237 OA
ATOM     75  O   UNL A   1      32.309  36.532  30.575  1.00  0.00    -0.237 OA
ATOM     76  O   UNL A   1      31.801  35.011  32.450  1.00  0.00    -0.744 OA
ENDBRANCH  72  73
ENDBRANCH  51  65
BRANCH  52  77
ATOM     77  C   UNL A   1      44.912  29.253  28.343  1.00  0.00     0.058 A 
ATOM     78  C   UNL A   1      45.943  28.354  28.668  1.00  0.00     0.135 A 
ATOM     79  C   UNL A   1      44.082  28.941  27.256  1.00  0.00     0.135 A 
ATOM     80  F   UNL A   1      46.789  28.633  29.673  1.00  0.00    -0.206 F 
ATOM     81  C   UNL A   1      46.003  27.095  28.092  1.00  0.00     0.059 A 
ATOM     82  C   UNL A   1      44.137  27.690  26.652  1.00  0.00     0.059 A 
ATOM     83  F   UNL A   1      43.106  29.781  26.883  1.00  0.00    -0.206 F 
ATOM     84  C   UNL A   1      45.040  26.749  27.144  1.00  0.00     0.060 A 
BRANCH  84  85
ATOM     85  S   UNL A   1      44.836  24.996  26.763  1.00  0.00     0.124 S 
ATOM     86  O   UNL A   1      44.173  24.494  27.961  1.00  0.00    -0.237 OA
ATOM     87  O   UNL A   1      44.006  25.069  25.563  1.00  0.00    -0.237 OA
ATOM     88  O   UNL A   1      46.205  24.539  26.557  1.00  0.00    -0.744 OA
ENDBRANCH  84  85
ENDBRANCH  52  77
BRANCH  64  89
ATOM     89  C   UNL A   1      42.482  35.993  28.860  1.00  0.00     0.058 A 
ATOM     90  C   UNL A   1      41.870  36.276  27.627  1.00  0.00     0.135 A 
ATOM     91  C   UNL A   1      43.229  37.038  29.441  1.00  0.00     0.135 A 
ATOM     92  F   UNL A   1      41.183  35.327  26.970  1.00  0.00    -0.206 F 
ATOM     93  C   UNL A   1      41.941  37.535  27.034  1.00  0.00     0.059 A 
ATOM     94  C   UNL A   1      43.356  38.288  28.843  1.00  0.00     0.059 A 
ATOM     95  F   UNL A   1      43.830  36.885  30.630  1.00  0.00    -0.206 F 
ATOM     96  C   UNL A   1      42.685  38.537  27.652  1.00  0.00     0.060 A 
BRANCH  96  97
ATOM     97  S   UNL A   1      42.790  40.164  26.882  1.00  0.00     0.124 S 
ATOM     98  O   UNL A   1      44.012  40.067  26.090  1.00  0.00    -0.237 OA
ATOM     99  O   UNL A   1      41.545  40.204  26.120  1.00  0.00    -0.237 OA
ATOM    100  O   UNL A   1      42.861  41.071  28.023  1.00  0.00    -0.744 OA
ENDBRANCH  96  97
ENDBRANCH  64  89
ENDBRANCH  38  39
ENDBRANCH  30  33
ENDBRANCH  28  29
ENDBRANCH  27  28
ENDBRANCH  26  27
ENDBRANCH   1  26
TORSDOF 20
ENDMDL
MODEL 3
REMARK VINA RESULT:     -12.5      1.181      2.036
REMARK SMILES Cc1ccccc1SCC(=O)N[C@H]1C=C[C@H](C(=O)NCCCCCCNC(=O)c2ccc(-c3c4nc(c(-c5c(F)cc(S(=O)(=O)[O-])cc5F)c5ccc([nH]5)c(-c5c(F)cc(S(=O)(=O)[O-])cc5F)c5nc(c(-c6c(F)cc(S(=O)(=O)[O-])cc6F)c6ccc3[nH]6)C=C5)C=C4)cc2)C1
REMARK SMILES IDX 22 1 21 2 20 3 19 4 17 5 18 6 16 8 13 9 14 10 95 11 15 12
REMARK SMILES IDX 12 13 10 14 11 15 9 17 8 18 7 19 1 20 2 21 3 22 4 23 6 24
REMARK SMILES IDX 5 25 23 26 24 27 25 28 26 29 27 30 28 32 29 33 30 34 94 35
REMARK SMILES IDX 31 36 93 37 32 38 33 39 34 40 87 41 35 42 92 43 86 44 88 45
REMARK SMILES IDX 36 46 91 47 85 48 84 49 37 51 71 52 50 53 70 54 51 55 54 56
REMARK SMILES IDX 69 57 89 58 52 59 53 60 68 62 90 63 55 64 38 65 39 66 48 67
REMARK SMILES IDX 40 68 41 69 47 70 49 71 42 72 43 73 44 74 45 75 46 76 72 77
REMARK SMILES IDX 73 78 82 79 74 80 75 81 81 82 83 83 76 84 77 85 78 86 79 87
REMARK SMILES IDX 80 88 56 89 57 90 66 91 58 92 59 93 65 94 67 95 60 96 61 97
REMARK SMILES IDX 62 98 63 99 64 100
REMARK H PARENT 19 7 12 16 26 31 88 50 54 61
REMARK Flexibility Score: inf
ROOT
ATOM      1  C   UNL A   1      32.135  30.038  25.414  1.00  0.00     0.002 C 
ENDROOT
BRANCH   1   2
ATOM      2  C   UNL A   1      31.147  29.404  24.429  1.00  0.00     0.021 C 
BRANCH   2   3
ATOM      3  C   UNL A   1      31.778  28.592  23.300  1.00  0.00     0.116 C 
BRANCH   3   4
ATOM      4  N   UNL A   1      31.016  27.400  22.990  1.00  0.00    -0.356 N 
ATOM      5  C   UNL A   1      30.705  26.343  23.791  1.00  0.00     0.227 C 
ATOM      6  O   UNL A   1      29.962  25.465  23.347  1.00  0.00    -0.274 OA
ATOM      7  H   UNL A   1      30.672  27.347  22.068  1.00  0.00     0.163 HD
BRANCH   5   8
ATOM      8  C   UNL A   1      31.245  26.307  25.222  1.00  0.00     0.103 C 
ATOM      9  C   UNL A   1      31.878  23.998  25.712  1.00  0.00     0.106 C 
ATOM     10  C   UNL A   1      30.587  24.372  26.378  1.00  0.00    -0.006 C 
ATOM     11  C   UNL A   1      32.449  25.368  25.336  1.00  0.00     0.047 C 
ATOM     12  C   UNL A   1      30.244  25.640  26.119  1.00  0.00    -0.016 C 
BRANCH   9  13
ATOM     13  N   UNL A   1      32.680  23.273  26.671  1.00  0.00    -0.349 N 
ATOM     14  C   UNL A   1      32.931  21.942  26.767  1.00  0.00     0.230 C 
ATOM     15  O   UNL A   1      33.623  21.574  27.724  1.00  0.00    -0.274 OA
ATOM     16  H   UNL A   1      33.108  23.829  27.361  1.00  0.00     0.164 HD
BRANCH  14  17
ATOM     17  C   UNL A   1      32.538  20.963  25.683  1.00  0.00     0.174 C 
BRANCH  17  18
ATOM     18  S   UNL A   1      33.850  20.325  24.612  1.00  0.00    -0.116 SA
BRANCH  18  19
ATOM     19  C   UNL A   1      35.249  21.443  24.629  1.00  0.00     0.011 A 
ATOM     20  C   UNL A   1      34.491  23.279  22.975  1.00  0.00     0.045 C 
ATOM     21  C   UNL A   1      35.469  22.628  23.906  1.00  0.00    -0.038 A 
ATOM     22  C   UNL A   1      36.709  23.298  24.049  1.00  0.00     0.004 A 
ATOM     23  C   UNL A   1      37.739  22.782  24.831  1.00  0.00     0.000 A 
ATOM     24  C   UNL A   1      36.313  20.940  25.414  1.00  0.00     0.015 A 
ATOM     25  C   UNL A   1      37.544  21.592  25.510  1.00  0.00     0.001 A 
ENDBRANCH  18  19
ENDBRANCH  17  18
ENDBRANCH  14  17
ENDBRANCH   9  13
ENDBRANCH   5   8
ENDBRANCH   3   4
ENDBRANCH   2   3
ENDBRANCH   1   2
BRANCH   1  26
ATOM     26  C   UNL A   1      31.950  29.687  26.898  1.00  0.00     0.002 C 
BRANCH  26  27
ATOM     27  C   UNL A   1      32.992  28.756  27.526  1.00  0.00     0.021 C 
BRANCH  27  28
ATOM     28  C   UNL A   1      34.425  29.199  27.275  1.00  0.00     0.116 C 
BRANCH  28  29
ATOM     29  N   UNL A   1      34.778  30.452  27.937  1.00  0.00    -0.352 N 
ATOM     30  C   UNL A   1      35.955  30.735  28.616  1.00  0.00     0.251 C 
ATOM     31  H   UNL A   1      34.108  31.173  27.898  1.00  0.00     0.163 HD
ATOM     32  O   UNL A   1      36.162  31.814  29.130  1.00  0.00    -0.269 OA
BRANCH  30  33
ATOM     33  C   UNL A   1      36.975  29.662  28.649  1.00  0.00     0.039 A 
ATOM     34  C   UNL A   1      37.146  28.931  29.829  1.00  0.00     0.014 A 
ATOM     35  C   UNL A   1      37.901  29.585  27.613  1.00  0.00     0.014 A 
ATOM     36  C   UNL A   1      38.348  28.258  30.047  1.00  0.00     0.010 A 
ATOM     37  C   UNL A   1      39.123  28.998  27.868  1.00  0.00     0.010 A 
ATOM     38  C   UNL A   1      39.365  28.371  29.100  1.00  0.00    -0.014 A 
BRANCH  38  39
ATOM     39  C   UNL A   1      40.716  27.843  29.260  1.00  0.00     0.031 A 
ATOM     40  C   UNL A   1      40.995  26.458  28.792  1.00  0.00     0.074 A 
ATOM     41  C   UNL A   1      41.726  28.627  29.701  1.00  0.00     0.049 A 
ATOM     42  N   UNL A   1      42.063  25.785  29.055  1.00  0.00    -0.248 NA
ATOM     43  C   UNL A   1      40.033  25.702  27.996  1.00  0.00     0.031 C 
ATOM     44  C   UNL A   1      43.156  28.344  29.571  1.00  0.00     0.029 A 
ATOM     45  N   UNL A   1      41.717  29.787  30.472  1.00  0.00    -0.354 N 
ATOM     46  C   UNL A   1      42.056  24.638  28.290  1.00  0.00     0.074 A 
ATOM     47  C   UNL A   1      40.743  24.613  27.689  1.00  0.00     0.031 C 
ATOM     48  C   UNL A   1      43.825  29.079  30.473  1.00  0.00     0.029 A 
ATOM     49  C   UNL A   1      42.831  29.702  31.325  1.00  0.00     0.049 A 
ATOM     50  H   UNL A   1      41.062  30.522  30.428  1.00  0.00     0.167 HD
ATOM     51  C   UNL A   1      43.202  23.903  28.181  1.00  0.00     0.037 A 
ATOM     52  C   UNL A   1      42.761  29.519  32.682  1.00  0.00     0.037 A 
ATOM     53  C   UNL A   1      44.237  24.414  29.086  1.00  0.00     0.049 A 
ATOM     54  C   UNL A   1      43.422  28.237  33.182  1.00  0.00     0.074 A 
ATOM     55  C   UNL A   1      45.312  25.276  28.945  1.00  0.00     0.029 A 
ATOM     56  N   UNL A   1      44.062  24.248  30.448  1.00  0.00    -0.354 N 
ATOM     57  N   UNL A   1      44.006  27.353  32.420  1.00  0.00    -0.248 NA
ATOM     58  C   UNL A   1      43.372  27.809  34.583  1.00  0.00     0.031 C 
ATOM     59  C   UNL A   1      45.740  25.668  30.248  1.00  0.00     0.029 A 
ATOM     60  C   UNL A   1      44.936  25.033  31.177  1.00  0.00     0.049 A 
ATOM     61  H   UNL A   1      43.396  23.644  30.849  1.00  0.00     0.167 HD
ATOM     62  C   UNL A   1      44.304  26.239  33.161  1.00  0.00     0.074 A 
ATOM     63  C   UNL A   1      43.910  26.580  34.514  1.00  0.00     0.031 C 
ATOM     64  C   UNL A   1      44.794  25.085  32.623  1.00  0.00     0.037 A 
BRANCH  51  65
ATOM     65  C   UNL A   1      43.480  22.850  27.119  1.00  0.00     0.058 A 
ATOM     66  C   UNL A   1      42.728  21.652  27.090  1.00  0.00     0.135 A 
ATOM     67  C   UNL A   1      44.496  22.914  26.142  1.00  0.00     0.135 A 
ATOM     68  F   UNL A   1      41.665  21.474  27.886  1.00  0.00    -0.206 F 
ATOM     69  C   UNL A   1      43.033  20.575  26.251  1.00  0.00     0.059 A 
ATOM     70  C   UNL A   1      44.856  21.833  25.331  1.00  0.00     0.059 A 
ATOM     71  F   UNL A   1      45.151  24.046  25.877  1.00  0.00    -0.206 F 
ATOM     72  C   UNL A   1      44.127  20.658  25.402  1.00  0.00     0.060 A 
BRANCH  72  73
ATOM     73  S   UNL A   1      44.568  19.234  24.392  1.00  0.00     0.124 S 
ATOM     74  O   UNL A   1      44.465  19.776  23.040  1.00  0.00    -0.237 OA
ATOM     75  O   UNL A   1      45.918  18.933  24.857  1.00  0.00    -0.237 OA
ATOM     76  O   UNL A   1      43.552  18.242  24.738  1.00  0.00    -0.744 OA
ENDBRANCH  72  73
ENDBRANCH  51  65
BRANCH  52  77
ATOM     77  C   UNL A   1      41.549  30.116  33.301  1.00  0.00     0.058 A 
ATOM     78  C   UNL A   1      41.548  31.503  33.531  1.00  0.00     0.135 A 
ATOM     79  C   UNL A   1      40.314  29.457  33.226  1.00  0.00     0.135 A 
ATOM     80  F   UNL A   1      42.708  32.169  33.653  1.00  0.00    -0.206 F 
ATOM     81  C   UNL A   1      40.376  32.240  33.454  1.00  0.00     0.059 A 
ATOM     82  C   UNL A   1      39.125  30.176  33.166  1.00  0.00     0.059 A 
ATOM     83  F   UNL A   1      40.261  28.130  33.044  1.00  0.00    -0.206 F 
ATOM     84  C   UNL A   1      39.183  31.569  33.188  1.00  0.00     0.060 A 
BRANCH  84  85
ATOM     85  S   UNL A   1      37.778  32.554  32.627  1.00  0.00     0.124 S 
ATOM     86  O   UNL A   1      36.697  31.576  32.622  1.00  0.00    -0.237 OA
ATOM     87  O   UNL A   1      37.712  33.566  33.680  1.00  0.00    -0.237 OA
ATOM     88  O   UNL A   1      38.208  33.032  31.319  1.00  0.00    -0.744 OA
ENDBRANCH  84  85
ENDBRANCH  52  77
BRANCH  64  89
ATOM     89  C   UNL A   1      45.146  23.900  33.477  1.00  0.00     0.058 A 
ATOM     90  C   UNL A   1      44.215  22.878  33.731  1.00  0.00     0.135 A 
ATOM     91  C   UNL A   1      46.385  23.795  34.140  1.00  0.00     0.135 A 
ATOM     92  F   UNL A   1      42.987  22.920  33.188  1.00  0.00    -0.206 F 
ATOM     93  C   UNL A   1      44.513  21.785  34.542  1.00  0.00     0.059 A 
ATOM     94  C   UNL A   1      46.688  22.738  34.995  1.00  0.00     0.059 A 
ATOM     95  F   UNL A   1      47.356  24.700  33.947  1.00  0.00    -0.206 F 
ATOM     96  C   UNL A   1      45.756  21.723  35.168  1.00  0.00     0.060 A 
BRANCH  96  97
ATOM     97  S   UNL A   1      46.143  20.317  36.229  1.00  0.00     0.124 S 
ATOM     98  O   UNL A   1      45.800  20.813  37.559  1.00  0.00    -0.237 OA
ATOM     99  O   UNL A   1      45.253  19.294  35.689  1.00  0.00    -0.237 OA
ATOM    100  O   UNL A   1      47.568  20.103  35.996  1.00  0.00    -0.744 OA
ENDBRANCH  96  97
ENDBRANCH  64  89
ENDBRANCH  38  39
ENDBRANCH  30  33
ENDBRANCH  28  29
ENDBRANCH  27  28
ENDBRANCH  26  27
ENDBRANCH   1  26
TORSDOF 20
ENDMDL
