MODEL 1
REMARK VINA RESULT:     -10.7      0.000      0.000
REMARK SMILES C[C@H](C(=O)NCCCCCCNC(=O)c1ccc(-c2c3nc(c(-c4c(F)cc(S(=O)(=O)[O-])cc4F)c4ccc([nH]4)c(-c4c(F)cc(S(=O)(=O)[O-])cc4F)c4nc(c(-c5c(F)cc(S(=O)(=O)[O-])cc5F)c5ccc2[nH]5)C=C4)C=C3)cc1)c1ccc2c(c1)OCCO2
REMARK SMILES IDX 9 1 8 2 7 3 6 4 5 5 3 6 4 7 2 9 1 10 81 11 82 12 86 13 83 14
REMARK SMILES IDX 85 15 84 16 87 17 90 18 88 19 89 20 10 21 11 22 12 23 13 24
REMARK SMILES IDX 14 26 15 27 16 28 80 29 17 30 79 31 18 32 19 33 20 34 73 35
REMARK SMILES IDX 21 36 78 37 72 38 74 39 22 40 77 41 71 42 70 43 23 45 57 46
REMARK SMILES IDX 36 47 56 48 37 49 40 50 55 51 75 52 38 53 39 54 54 56 76 57
REMARK SMILES IDX 41 58 24 59 25 60 34 61 26 62 27 63 33 64 35 65 28 66 29 67
REMARK SMILES IDX 30 68 31 69 32 70 58 71 59 72 68 73 60 74 61 75 67 76 69 77
REMARK SMILES IDX 62 78 63 79 64 80 65 81 66 82 42 83 43 84 52 85 44 86 45 87
REMARK SMILES IDX 51 88 53 89 46 90 47 91 48 92 49 93 50 94
REMARK H PARENT 5 8 12 25 74 44 40 55
REMARK Flexibility Score: inf
ROOT
ATOM      1  C   UNL A   1      32.930  27.349  24.528  1.00  0.00     0.002 C 
ENDROOT
BRANCH   1   2
ATOM      2  C   UNL A   1      31.546  27.513  25.169  1.00  0.00     0.002 C 
BRANCH   2   3
ATOM      3  C   UNL A   1      30.379  27.221  24.224  1.00  0.00     0.021 C 
BRANCH   3   4
ATOM      4  C   UNL A   1      29.550  26.016  24.666  1.00  0.00     0.116 C 
BRANCH   4   5
ATOM      5  N   UNL A   1      30.045  24.809  24.041  1.00  0.00    -0.356 N 
ATOM      6  C   UNL A   1      30.908  23.881  24.550  1.00  0.00     0.227 C 
ATOM      7  O   UNL A   1      31.322  23.007  23.785  1.00  0.00    -0.274 OA
ATOM      8  H   UNL A   1      29.717  24.634  23.130  1.00  0.00     0.163 HD
BRANCH   6   9
ATOM      9  C   UNL A   1      31.263  23.916  26.038  1.00  0.00     0.105 C 
ATOM     10  C   UNL A   1      30.263  23.057  26.840  1.00  0.00     0.023 C 
BRANCH   9  11
ATOM     11  C   UNL A   1      32.694  23.501  26.369  1.00  0.00    -0.032 A 
ATOM     12  C   UNL A   1      32.945  22.238  26.951  1.00  0.00     0.008 A 
ATOM     13  C   UNL A   1      33.780  24.255  25.905  1.00  0.00     0.055 A 
ATOM     14  C   UNL A   1      34.226  21.695  26.983  1.00  0.00     0.051 A 
ATOM     15  C   UNL A   1      35.016  23.638  25.775  1.00  0.00     0.161 A 
ATOM     16  C   UNL A   1      35.226  22.360  26.300  1.00  0.00     0.161 A 
ATOM     17  O   UNL A   1      35.930  24.250  24.960  1.00  0.00    -0.486 OA
ATOM     18  O   UNL A   1      36.343  21.642  25.949  1.00  0.00    -0.486 OA
ATOM     19  C   UNL A   1      36.752  23.312  24.243  1.00  0.00     0.271 C 
ATOM     20  C   UNL A   1      36.462  21.840  24.534  1.00  0.00     0.271 C 
ENDBRANCH   9  11
ENDBRANCH   6   9
ENDBRANCH   4   5
ENDBRANCH   3   4
ENDBRANCH   2   3
ENDBRANCH   1   2
BRANCH   1  21
ATOM     21  C   UNL A   1      34.019  28.251  25.116  1.00  0.00     0.021 C 
BRANCH  21  22
ATOM     22  C   UNL A   1      34.021  28.311  26.640  1.00  0.00     0.116 C 
BRANCH  22  23
ATOM     23  N   UNL A   1      33.709  29.650  27.114  1.00  0.00    -0.352 N 
ATOM     24  C   UNL A   1      34.413  30.447  27.982  1.00  0.00     0.251 C 
ATOM     25  H   UNL A   1      32.876  30.041  26.762  1.00  0.00     0.163 HD
ATOM     26  O   UNL A   1      33.875  31.420  28.498  1.00  0.00    -0.269 OA
BRANCH  24  27
ATOM     27  C   UNL A   1      35.821  30.122  28.287  1.00  0.00     0.039 A 
ATOM     28  C   UNL A   1      36.149  29.624  29.550  1.00  0.00     0.014 A 
ATOM     29  C   UNL A   1      36.818  30.330  27.330  1.00  0.00     0.014 A 
ATOM     30  C   UNL A   1      37.475  29.292  29.837  1.00  0.00     0.010 A 
ATOM     31  C   UNL A   1      38.122  29.929  27.591  1.00  0.00     0.010 A 
ATOM     32  C   UNL A   1      38.467  29.419  28.851  1.00  0.00    -0.014 A 
BRANCH  32  33
ATOM     33  C   UNL A   1      39.879  29.050  29.120  1.00  0.00     0.031 A 
ATOM     34  C   UNL A   1      40.828  30.077  29.680  1.00  0.00     0.074 A 
ATOM     35  C   UNL A   1      40.325  27.822  28.791  1.00  0.00     0.049 A 
ATOM     36  N   UNL A   1      42.114  29.984  29.893  1.00  0.00    -0.248 NA
ATOM     37  C   UNL A   1      40.256  31.390  30.018  1.00  0.00     0.031 C 
ATOM     38  C   UNL A   1      39.510  26.756  28.204  1.00  0.00     0.029 A 
ATOM     39  N   UNL A   1      41.575  27.266  28.891  1.00  0.00    -0.354 N 
ATOM     40  C   UNL A   1      42.510  31.229  30.369  1.00  0.00     0.074 A 
ATOM     41  C   UNL A   1      41.336  32.076  30.363  1.00  0.00     0.031 C 
ATOM     42  C   UNL A   1      40.279  25.672  28.010  1.00  0.00     0.029 A 
ATOM     43  C   UNL A   1      41.646  25.977  28.420  1.00  0.00     0.049 A 
ATOM     44  H   UNL A   1      42.350  27.747  29.265  1.00  0.00     0.167 HD
ATOM     45  C   UNL A   1      43.733  31.624  30.794  1.00  0.00     0.037 A 
ATOM     46  C   UNL A   1      42.696  25.140  28.318  1.00  0.00     0.037 A 
ATOM     47  C   UNL A   1      44.889  30.767  30.818  1.00  0.00     0.049 A 
ATOM     48  C   UNL A   1      44.049  25.600  28.794  1.00  0.00     0.074 A 
ATOM     49  C   UNL A   1      46.162  31.051  31.281  1.00  0.00     0.029 A 
ATOM     50  N   UNL A   1      44.915  29.458  30.356  1.00  0.00    -0.354 N 
ATOM     51  N   UNL A   1      44.393  26.762  29.296  1.00  0.00    -0.248 NA
ATOM     52  C   UNL A   1      45.151  24.635  28.697  1.00  0.00     0.031 C 
ATOM     53  C   UNL A   1      46.969  29.931  31.056  1.00  0.00     0.029 A 
ATOM     54  C   UNL A   1      46.186  28.928  30.505  1.00  0.00     0.049 A 
ATOM     55  H   UNL A   1      44.142  28.977  29.979  1.00  0.00     0.167 HD
ATOM     56  C   UNL A   1      45.745  26.658  29.603  1.00  0.00     0.074 A 
ATOM     57  C   UNL A   1      46.153  25.316  29.237  1.00  0.00     0.031 C 
ATOM     58  C   UNL A   1      46.573  27.586  30.143  1.00  0.00     0.037 A 
BRANCH  45  59
ATOM     59  C   UNL A   1      43.882  33.047  31.264  1.00  0.00     0.058 A 
ATOM     60  C   UNL A   1      43.715  33.402  32.613  1.00  0.00     0.135 A 
ATOM     61  C   UNL A   1      44.213  34.067  30.357  1.00  0.00     0.135 A 
ATOM     62  F   UNL A   1      43.384  32.470  33.521  1.00  0.00    -0.206 F 
ATOM     63  C   UNL A   1      43.834  34.720  33.039  1.00  0.00     0.059 A 
ATOM     64  C   UNL A   1      44.368  35.389  30.767  1.00  0.00     0.059 A 
ATOM     65  F   UNL A   1      44.386  33.787  29.057  1.00  0.00    -0.206 F 
ATOM     66  C   UNL A   1      44.158  35.708  32.108  1.00  0.00     0.060 A 
BRANCH  66  67
ATOM     67  S   UNL A   1      44.301  37.415  32.677  1.00  0.00     0.124 S 
ATOM     68  O   UNL A   1      45.649  37.423  33.236  1.00  0.00    -0.237 OA
ATOM     69  O   UNL A   1      44.122  38.172  31.443  1.00  0.00    -0.237 OA
ATOM     70  O   UNL A   1      43.219  37.542  33.648  1.00  0.00    -0.744 OA
ENDBRANCH  66  67
ENDBRANCH  45  59
BRANCH  46  71
ATOM     71  C   UNL A   1      42.501  23.773  27.764  1.00  0.00     0.058 A 
ATOM     72  C   UNL A   1      42.483  23.553  26.379  1.00  0.00     0.135 A 
ATOM     73  C   UNL A   1      42.360  22.658  28.604  1.00  0.00     0.135 A 
ATOM     74  F   UNL A   1      42.606  24.588  25.534  1.00  0.00    -0.206 F 
ATOM     75  C   UNL A   1      42.320  22.279  25.844  1.00  0.00     0.059 A 
ATOM     76  C   UNL A   1      42.223  21.371  28.095  1.00  0.00     0.059 A 
ATOM     77  F   UNL A   1      42.390  22.812  29.938  1.00  0.00    -0.206 F 
ATOM     78  C   UNL A   1      42.196  21.192  26.713  1.00  0.00     0.060 A 
BRANCH  78  79
ATOM     79  S   UNL A   1      42.047  19.536  26.009  1.00  0.00     0.124 S 
ATOM     80  O   UNL A   1      42.490  18.702  27.120  1.00  0.00    -0.237 OA
ATOM     81  O   UNL A   1      40.626  19.468  25.684  1.00  0.00    -0.237 OA
ATOM     82  O   UNL A   1      42.943  19.580  24.856  1.00  0.00    -0.744 OA
ENDBRANCH  78  79
ENDBRANCH  46  71
BRANCH  58  83
ATOM     83  C   UNL A   1      47.995  27.177  30.413  1.00  0.00     0.058 A 
ATOM     84  C   UNL A   1      49.026  27.431  29.497  1.00  0.00     0.135 A 
ATOM     85  C   UNL A   1      48.338  26.579  31.637  1.00  0.00     0.135 A 
ATOM     86  F   UNL A   1      48.752  27.995  28.310  1.00  0.00    -0.206 F 
ATOM     87  C   UNL A   1      50.346  27.087  29.774  1.00  0.00     0.059 A 
ATOM     88  C   UNL A   1      49.654  26.253  31.948  1.00  0.00     0.059 A 
ATOM     89  F   UNL A   1      47.392  26.323  32.554  1.00  0.00    -0.206 F 
ATOM     90  C   UNL A   1      50.650  26.502  31.005  1.00  0.00     0.060 A 
BRANCH  90  91
ATOM     91  S   UNL A   1      52.372  26.100  31.370  1.00  0.00     0.124 S 
ATOM     92  O   UNL A   1      52.245  24.770  31.956  1.00  0.00    -0.237 OA
ATOM     93  O   UNL A   1      52.991  26.152  30.049  1.00  0.00    -0.237 OA
ATOM     94  O   UNL A   1      52.782  27.156  32.290  1.00  0.00    -0.744 OA
ENDBRANCH  90  91
ENDBRANCH  58  83
ENDBRANCH  32  33
ENDBRANCH  24  27
ENDBRANCH  22  23
ENDBRANCH  21  22
ENDBRANCH   1  21
TORSDOF 17
ENDMDL
MODEL 2
REMARK VINA RESULT:     -10.6      3.782      9.366
REMARK SMILES C[C@H](C(=O)NCCCCCCNC(=O)c1ccc(-c2c3nc(c(-c4c(F)cc(S(=O)(=O)[O-])cc4F)c4ccc([nH]4)c(-c4c(F)cc(S(=O)(=O)[O-])cc4F)c4nc(c(-c5c(F)cc(S(=O)(=O)[O-])cc5F)c5ccc2[nH]5)C=C4)C=C3)cc1)c1ccc2c(c1)OCCO2
REMARK SMILES IDX 9 1 8 2 7 3 6 4 5 5 3 6 4 7 2 9 1 10 81 11 82 12 86 13 83 14
REMARK SMILES IDX 85 15 84 16 87 17 90 18 88 19 89 20 10 21 11 22 12 23 13 24
REMARK SMILES IDX 14 26 15 27 16 28 80 29 17 30 79 31 18 32 19 33 20 34 73 35
REMARK SMILES IDX 21 36 78 37 72 38 74 39 22 40 77 41 71 42 70 43 23 45 57 46
REMARK SMILES IDX 36 47 56 48 37 49 40 50 55 51 75 52 38 53 39 54 54 56 76 57
REMARK SMILES IDX 41 58 24 59 25 60 34 61 26 62 27 63 33 64 35 65 28 66 29 67
REMARK SMILES IDX 30 68 31 69 32 70 58 71 59 72 68 73 60 74 61 75 67 76 69 77
REMARK SMILES IDX 62 78 63 79 64 80 65 81 66 82 42 83 43 84 52 85 44 86 45 87
REMARK SMILES IDX 51 88 53 89 46 90 47 91 48 92 49 93 50 94
REMARK H PARENT 5 8 12 25 74 44 40 55
REMARK Flexibility Score: inf
ROOT
ATOM      1  C   UNL A   1      40.589  21.983  27.528  1.00  0.00     0.002 C 
ENDROOT
BRANCH   1   2
ATOM      2  C   UNL A   1      39.597  22.356  26.419  1.00  0.00     0.002 C 
BRANCH   2   3
ATOM      3  C   UNL A   1      38.912  23.708  26.621  1.00  0.00     0.021 C 
BRANCH   3   4
ATOM      4  C   UNL A   1      37.489  23.736  26.061  1.00  0.00     0.116 C 
BRANCH   4   5
ATOM      5  N   UNL A   1      37.505  23.488  24.636  1.00  0.00    -0.356 N 
ATOM      6  C   UNL A   1      36.447  23.269  23.800  1.00  0.00     0.227 C 
ATOM      7  O   UNL A   1      36.697  22.920  22.644  1.00  0.00    -0.274 OA
ATOM      8  H   UNL A   1      38.394  23.474  24.215  1.00  0.00     0.163 HD
BRANCH   6   9
ATOM      9  C   UNL A   1      35.025  23.532  24.298  1.00  0.00     0.105 C 
ATOM     10  C   UNL A   1      34.188  24.192  23.183  1.00  0.00     0.023 C 
BRANCH   9  11
ATOM     11  C   UNL A   1      34.296  22.306  24.843  1.00  0.00    -0.032 A 
ATOM     12  C   UNL A   1      32.900  22.355  25.062  1.00  0.00     0.008 A 
ATOM     13  C   UNL A   1      34.946  21.068  24.922  1.00  0.00     0.055 A 
ATOM     14  C   UNL A   1      32.156  21.196  25.256  1.00  0.00     0.051 A 
ATOM     15  C   UNL A   1      34.181  19.910  24.933  1.00  0.00     0.161 A 
ATOM     16  C   UNL A   1      32.793  19.982  25.085  1.00  0.00     0.161 A 
ATOM     17  O   UNL A   1      34.818  18.744  24.604  1.00  0.00    -0.486 OA
ATOM     18  O   UNL A   1      32.011  18.882  24.832  1.00  0.00    -0.486 OA
ATOM     19  C   UNL A   1      33.974  17.837  23.873  1.00  0.00     0.271 C 
ATOM     20  C   UNL A   1      32.550  18.333  23.623  1.00  0.00     0.271 C 
ENDBRANCH   9  11
ENDBRANCH   6   9
ENDBRANCH   4   5
ENDBRANCH   3   4
ENDBRANCH   2   3
ENDBRANCH   1   2
BRANCH   1  21
ATOM     21  C   UNL A   1      41.063  20.527  27.502  1.00  0.00     0.021 C 
BRANCH  21  22
ATOM     22  C   UNL A   1      40.864  19.833  26.158  1.00  0.00     0.116 C 
BRANCH  22  23
ATOM     23  N   UNL A   1      42.046  19.076  25.778  1.00  0.00    -0.352 N 
ATOM     24  C   UNL A   1      43.277  19.535  25.378  1.00  0.00     0.251 C 
ATOM     25  H   UNL A   1      41.952  18.096  25.811  1.00  0.00     0.163 HD
ATOM     26  O   UNL A   1      44.065  18.780  24.820  1.00  0.00    -0.269 OA
BRANCH  24  27
ATOM     27  C   UNL A   1      43.641  20.945  25.626  1.00  0.00     0.039 A 
ATOM     28  C   UNL A   1      43.413  21.896  24.629  1.00  0.00     0.014 A 
ATOM     29  C   UNL A   1      44.228  21.320  26.838  1.00  0.00     0.014 A 
ATOM     30  C   UNL A   1      43.734  23.234  24.867  1.00  0.00     0.010 A 
ATOM     31  C   UNL A   1      44.476  22.662  27.101  1.00  0.00     0.010 A 
ATOM     32  C   UNL A   1      44.245  23.631  26.113  1.00  0.00    -0.014 A 
BRANCH  32  33
ATOM     33  C   UNL A   1      44.570  25.050  26.403  1.00  0.00     0.031 A 
ATOM     34  C   UNL A   1      45.984  25.542  26.238  1.00  0.00     0.074 A 
ATOM     35  C   UNL A   1      43.616  25.872  26.882  1.00  0.00     0.049 A 
ATOM     36  N   UNL A   1      46.491  26.711  26.530  1.00  0.00    -0.248 NA
ATOM     37  C   UNL A   1      46.960  24.581  25.701  1.00  0.00     0.031 C 
ATOM     38  C   UNL A   1      42.221  25.498  27.124  1.00  0.00     0.029 A 
ATOM     39  N   UNL A   1      43.679  27.187  27.268  1.00  0.00    -0.354 N 
ATOM     40  C   UNL A   1      47.846  26.621  26.232  1.00  0.00     0.074 A 
ATOM     41  C   UNL A   1      48.091  25.265  25.788  1.00  0.00     0.031 C 
ATOM     42  C   UNL A   1      41.558  26.563  27.601  1.00  0.00     0.029 A 
ATOM     43  C   UNL A   1      42.485  27.682  27.738  1.00  0.00     0.049 A 
ATOM     44  H   UNL A   1      44.501  27.726  27.213  1.00  0.00     0.167 HD
ATOM     45  C   UNL A   1      48.794  27.584  26.301  1.00  0.00     0.037 A 
ATOM     46  C   UNL A   1      42.177  28.895  28.235  1.00  0.00     0.037 A 
ATOM     47  C   UNL A   1      48.536  28.936  26.722  1.00  0.00     0.049 A 
ATOM     48  C   UNL A   1      43.247  29.951  28.306  1.00  0.00     0.074 A 
ATOM     49  C   UNL A   1      49.413  30.005  26.775  1.00  0.00     0.029 A 
ATOM     50  N   UNL A   1      47.307  29.406  27.166  1.00  0.00    -0.354 N 
ATOM     51  N   UNL A   1      44.511  29.866  27.965  1.00  0.00    -0.248 NA
ATOM     52  C   UNL A   1      42.849  31.268  28.819  1.00  0.00     0.031 C 
ATOM     53  C   UNL A   1      48.728  31.108  27.296  1.00  0.00     0.029 A 
ATOM     54  C   UNL A   1      47.409  30.743  27.514  1.00  0.00     0.049 A 
ATOM     55  H   UNL A   1      46.485  28.868  27.225  1.00  0.00     0.167 HD
ATOM     56  C   UNL A   1      45.052  31.126  28.195  1.00  0.00     0.074 A 
ATOM     57  C   UNL A   1      43.976  31.957  28.695  1.00  0.00     0.031 C 
ATOM     58  C   UNL A   1      46.324  31.558  28.004  1.00  0.00     0.037 A 
BRANCH  45  59
ATOM     59  C   UNL A   1      50.200  27.208  25.914  1.00  0.00     0.058 A 
ATOM     60  C   UNL A   1      51.132  26.754  26.863  1.00  0.00     0.135 A 
ATOM     61  C   UNL A   1      50.617  27.284  24.576  1.00  0.00     0.135 A 
ATOM     62  F   UNL A   1      50.792  26.674  28.160  1.00  0.00    -0.206 F 
ATOM     63  C   UNL A   1      52.435  26.426  26.506  1.00  0.00     0.059 A 
ATOM     64  C   UNL A   1      51.909  26.931  24.190  1.00  0.00     0.059 A 
ATOM     65  F   UNL A   1      49.771  27.709  23.626  1.00  0.00    -0.206 F 
ATOM     66  C   UNL A   1      52.815  26.521  25.166  1.00  0.00     0.060 A 
BRANCH  66  67
ATOM     67  S   UNL A   1      54.513  26.099  24.721  1.00  0.00     0.124 S 
ATOM     68  O   UNL A   1      54.542  24.669  25.008  1.00  0.00    -0.237 OA
ATOM     69  O   UNL A   1      54.565  26.463  23.309  1.00  0.00    -0.237 OA
ATOM     70  O   UNL A   1      55.315  26.934  25.609  1.00  0.00    -0.744 OA
ENDBRANCH  66  67
ENDBRANCH  45  59
BRANCH  46  71
ATOM     71  C   UNL A   1      40.787  29.179  28.682  1.00  0.00     0.058 A 
ATOM     72  C   UNL A   1      40.472  29.269  30.046  1.00  0.00     0.135 A 
ATOM     73  C   UNL A   1      39.753  29.395  27.758  1.00  0.00     0.135 A 
ATOM     74  F   UNL A   1      41.424  29.064  30.968  1.00  0.00    -0.206 F 
ATOM     75  C   UNL A   1      39.181  29.553  30.480  1.00  0.00     0.059 A 
ATOM     76  C   UNL A   1      38.460  29.706  28.166  1.00  0.00     0.059 A 
ATOM     77  F   UNL A   1      40.005  29.338  26.440  1.00  0.00    -0.206 F 
ATOM     78  C   UNL A   1      38.182  29.775  29.530  1.00  0.00     0.060 A 
BRANCH  78  79
ATOM     79  S   UNL A   1      36.524  30.203  30.103  1.00  0.00     0.124 S 
ATOM     80  O   UNL A   1      36.685  31.610  30.448  1.00  0.00    -0.237 OA
ATOM     81  O   UNL A   1      35.711  29.922  28.924  1.00  0.00    -0.237 OA
ATOM     82  O   UNL A   1      36.314  29.297  31.229  1.00  0.00    -0.744 OA
ENDBRANCH  78  79
ENDBRANCH  46  71
BRANCH  58  83
ATOM     83  C   UNL A   1      46.618  33.004  28.295  1.00  0.00     0.058 A 
ATOM     84  C   UNL A   1      46.458  34.004  27.325  1.00  0.00     0.135 A 
ATOM     85  C   UNL A   1      47.006  33.400  29.586  1.00  0.00     0.135 A 
ATOM     86  F   UNL A   1      46.095  33.679  26.074  1.00  0.00    -0.206 F 
ATOM     87  C   UNL A   1      46.691  35.344  27.617  1.00  0.00     0.059 A 
ATOM     88  C   UNL A   1      47.217  34.736  29.909  1.00  0.00     0.059 A 
ATOM     89  F   UNL A   1      47.165  32.485  30.556  1.00  0.00    -0.206 F 
ATOM     90  C   UNL A   1      47.067  35.700  28.914  1.00  0.00     0.060 A 
BRANCH  90  91
ATOM     91  S   UNL A   1      47.326  37.447  29.290  1.00  0.00     0.124 S 
ATOM     92  O   UNL A   1      48.727  37.456  29.695  1.00  0.00    -0.237 OA
ATOM     93  O   UNL A   1      47.032  38.089  28.012  1.00  0.00    -0.237 OA
ATOM     94  O   UNL A   1      46.362  37.713  30.354  1.00  0.00    -0.744 OA
ENDBRANCH  90  91
ENDBRANCH  58  83
ENDBRANCH  32  33
ENDBRANCH  24  27
ENDBRANCH  22  23
ENDBRANCH  21  22
ENDBRANCH   1  21
TORSDOF 17
ENDMDL
MODEL 3
REMARK VINA RESULT:     -10.5      4.858     10.231
REMARK SMILES C[C@H](C(=O)NCCCCCCNC(=O)c1ccc(-c2c3nc(c(-c4c(F)cc(S(=O)(=O)[O-])cc4F)c4ccc([nH]4)c(-c4c(F)cc(S(=O)(=O)[O-])cc4F)c4nc(c(-c5c(F)cc(S(=O)(=O)[O-])cc5F)c5ccc2[nH]5)C=C4)C=C3)cc1)c1ccc2c(c1)OCCO2
REMARK SMILES IDX 9 1 8 2 7 3 6 4 5 5 3 6 4 7 2 9 1 10 81 11 82 12 86 13 83 14
REMARK SMILES IDX 85 15 84 16 87 17 90 18 88 19 89 20 10 21 11 22 12 23 13 24
REMARK SMILES IDX 14 26 15 27 16 28 80 29 17 30 79 31 18 32 19 33 20 34 73 35
REMARK SMILES IDX 21 36 78 37 72 38 74 39 22 40 77 41 71 42 70 43 23 45 57 46
REMARK SMILES IDX 36 47 56 48 37 49 40 50 55 51 75 52 38 53 39 54 54 56 76 57
REMARK SMILES IDX 41 58 24 59 25 60 34 61 26 62 27 63 33 64 35 65 28 66 29 67
REMARK SMILES IDX 30 68 31 69 32 70 58 71 59 72 68 73 60 74 61 75 67 76 69 77
REMARK SMILES IDX 62 78 63 79 64 80 65 81 66 82 42 83 43 84 52 85 44 86 45 87
REMARK SMILES IDX 51 88 53 89 46 90 47 91 48 92 49 93 50 94
REMARK H PARENT 5 8 12 25 74 44 40 55
REMARK Flexibility Score: inf
ROOT
ATOM      1  C   UNL A   1      31.712  30.937  26.197  1.00  0.00     0.002 C 
ENDROOT
BRANCH   1   2
ATOM      2  C   UNL A   1      32.552  29.949  27.015  1.00  0.00     0.002 C 
BRANCH   2   3
ATOM      3  C   UNL A   1      33.709  29.318  26.239  1.00  0.00     0.021 C 
BRANCH   3   4
ATOM      4  C   UNL A   1      33.290  28.062  25.475  1.00  0.00     0.116 C 
BRANCH   4   5
ATOM      5  N   UNL A   1      32.269  27.346  26.207  1.00  0.00    -0.356 N 
ATOM      6  C   UNL A   1      31.175  26.690  25.719  1.00  0.00     0.227 C 
ATOM      7  O   UNL A   1      30.345  26.281  26.533  1.00  0.00    -0.274 OA
ATOM      8  H   UNL A   1      32.376  27.330  27.185  1.00  0.00     0.163 HD
BRANCH   6   9
ATOM      9  C   UNL A   1      31.060  26.429  24.216  1.00  0.00     0.105 C 
ATOM     10  C   UNL A   1      30.922  24.916  23.951  1.00  0.00     0.023 C 
BRANCH   9  11
ATOM     11  C   UNL A   1      29.937  27.189  23.514  1.00  0.00    -0.032 A 
ATOM     12  C   UNL A   1      28.590  26.927  23.853  1.00  0.00     0.008 A 
ATOM     13  C   UNL A   1      30.223  28.294  22.701  1.00  0.00     0.055 A 
ATOM     14  C   UNL A   1      27.566  27.792  23.479  1.00  0.00     0.051 A 
ATOM     15  C   UNL A   1      29.233  29.242  22.488  1.00  0.00     0.161 A 
ATOM     16  C   UNL A   1      27.918  28.992  22.890  1.00  0.00     0.161 A 
ATOM     17  O   UNL A   1      29.640  30.474  22.052  1.00  0.00    -0.486 OA
ATOM     18  O   UNL A   1      26.999  30.013  22.927  1.00  0.00    -0.486 OA
ATOM     19  C   UNL A   1      28.844  31.545  22.590  1.00  0.00     0.271 C 
ATOM     20  C   UNL A   1      27.710  31.108  23.517  1.00  0.00     0.271 C 
ENDBRANCH   9  11
ENDBRANCH   6   9
ENDBRANCH   4   5
ENDBRANCH   3   4
ENDBRANCH   2   3
ENDBRANCH   1   2
BRANCH   1  21
ATOM     21  C   UNL A   1      31.517  32.308  26.850  1.00  0.00     0.021 C 
BRANCH  21  22
ATOM     22  C   UNL A   1      32.793  32.905  27.435  1.00  0.00     0.116 C 
BRANCH  22  23
ATOM     23  N   UNL A   1      32.618  34.314  27.750  1.00  0.00    -0.352 N 
ATOM     24  C   UNL A   1      33.158  35.045  28.779  1.00  0.00     0.251 C 
ATOM     25  H   UNL A   1      32.030  34.815  27.139  1.00  0.00     0.163 HD
ATOM     26  O   UNL A   1      32.687  36.139  29.071  1.00  0.00    -0.269 OA
BRANCH  24  27
ATOM     27  C   UNL A   1      34.307  34.502  29.531  1.00  0.00     0.039 A 
ATOM     28  C   UNL A   1      34.090  33.903  30.773  1.00  0.00     0.014 A 
ATOM     29  C   UNL A   1      35.602  34.605  29.013  1.00  0.00     0.014 A 
ATOM     30  C   UNL A   1      35.171  33.366  31.477  1.00  0.00     0.010 A 
ATOM     31  C   UNL A   1      36.663  34.004  29.679  1.00  0.00     0.010 A 
ATOM     32  C   UNL A   1      36.462  33.391  30.924  1.00  0.00    -0.014 A 
BRANCH  32  33
ATOM     33  C   UNL A   1      37.623  32.805  31.639  1.00  0.00     0.031 A 
ATOM     34  C   UNL A   1      38.311  31.589  31.077  1.00  0.00     0.074 A 
ATOM     35  C   UNL A   1      38.009  33.319  32.823  1.00  0.00     0.049 A 
ATOM     36  N   UNL A   1      39.273  30.872  31.595  1.00  0.00    -0.248 NA
ATOM     37  C   UNL A   1      37.830  31.099  29.775  1.00  0.00     0.031 C 
ATOM     38  C   UNL A   1      37.394  34.469  33.488  1.00  0.00     0.029 A 
ATOM     39  N   UNL A   1      39.003  32.930  33.686  1.00  0.00    -0.354 N 
ATOM     40  C   UNL A   1      39.501  29.837  30.694  1.00  0.00     0.074 A 
ATOM     41  C   UNL A   1      38.538  29.990  29.625  1.00  0.00     0.031 C 
ATOM     42  C   UNL A   1      38.033  34.701  34.645  1.00  0.00     0.029 A 
ATOM     43  C   UNL A   1      39.075  33.695  34.826  1.00  0.00     0.049 A 
ATOM     44  H   UNL A   1      39.608  32.173  33.506  1.00  0.00     0.167 HD
ATOM     45  C   UNL A   1      40.440  28.863  30.743  1.00  0.00     0.037 A 
ATOM     46  C   UNL A   1      39.880  33.590  35.900  1.00  0.00     0.037 A 
ATOM     47  C   UNL A   1      41.409  28.734  31.800  1.00  0.00     0.049 A 
ATOM     48  C   UNL A   1      40.915  32.498  35.935  1.00  0.00     0.074 A 
ATOM     49  C   UNL A   1      42.438  27.817  31.917  1.00  0.00     0.029 A 
ATOM     50  N   UNL A   1      41.466  29.545  32.925  1.00  0.00    -0.354 N 
ATOM     51  N   UNL A   1      41.154  31.562  35.047  1.00  0.00    -0.248 NA
ATOM     52  C   UNL A   1      41.794  32.451  37.111  1.00  0.00     0.031 C 
ATOM     53  C   UNL A   1      43.088  28.043  33.135  1.00  0.00     0.029 A 
ATOM     54  C   UNL A   1      42.500  29.137  33.751  1.00  0.00     0.049 A 
ATOM     55  H   UNL A   1      40.860  30.300  33.108  1.00  0.00     0.167 HD
ATOM     56  C   UNL A   1      42.231  30.834  35.543  1.00  0.00     0.074 A 
ATOM     57  C   UNL A   1      42.600  31.443  36.805  1.00  0.00     0.031 C 
ATOM     58  C   UNL A   1      42.860  29.761  35.001  1.00  0.00     0.037 A 
BRANCH  45  59
ATOM     59  C   UNL A   1      40.461  27.859  29.621  1.00  0.00     0.058 A 
ATOM     60  C   UNL A   1      39.528  26.810  29.549  1.00  0.00     0.135 A 
ATOM     61  C   UNL A   1      41.414  27.955  28.595  1.00  0.00     0.135 A 
ATOM     62  F   UNL A   1      38.603  26.661  30.511  1.00  0.00    -0.206 F 
ATOM     63  C   UNL A   1      39.563  25.873  28.522  1.00  0.00     0.059 A 
ATOM     64  C   UNL A   1      41.448  27.046  27.540  1.00  0.00     0.059 A 
ATOM     65  F   UNL A   1      42.329  28.936  28.610  1.00  0.00    -0.206 F 
ATOM     66  C   UNL A   1      40.530  25.998  27.523  1.00  0.00     0.060 A 
BRANCH  66  67
ATOM     67  S   UNL A   1      40.566  24.768  26.202  1.00  0.00     0.124 S 
ATOM     68  O   UNL A   1      39.164  24.371  26.136  1.00  0.00    -0.237 OA
ATOM     69  O   UNL A   1      41.059  25.543  25.067  1.00  0.00    -0.237 OA
ATOM     70  O   UNL A   1      41.483  23.752  26.708  1.00  0.00    -0.744 OA
ENDBRANCH  66  67
ENDBRANCH  45  59
BRANCH  46  71
ATOM     71  C   UNL A   1      39.752  34.563  37.018  1.00  0.00     0.058 A 
ATOM     72  C   UNL A   1      40.461  35.772  37.006  1.00  0.00     0.135 A 
ATOM     73  C   UNL A   1      38.897  34.318  38.103  1.00  0.00     0.135 A 
ATOM     74  F   UNL A   1      41.296  36.049  35.994  1.00  0.00    -0.206 F 
ATOM     75  C   UNL A   1      40.338  36.701  38.035  1.00  0.00     0.059 A 
ATOM     76  C   UNL A   1      38.736  35.242  39.131  1.00  0.00     0.059 A 
ATOM     77  F   UNL A   1      38.181  33.183  38.154  1.00  0.00    -0.206 F 
ATOM     78  C   UNL A   1      39.467  36.428  39.092  1.00  0.00     0.060 A 
BRANCH  78  79
ATOM     79  S   UNL A   1      39.268  37.667  40.390  1.00  0.00     0.124 S 
ATOM     80  O   UNL A   1      40.581  38.300  40.398  1.00  0.00    -0.237 OA
ATOM     81  O   UNL A   1      38.169  38.477  39.874  1.00  0.00    -0.237 OA
ATOM     82  O   UNL A   1      38.945  36.868  41.569  1.00  0.00    -0.744 OA
ENDBRANCH  78  79
ENDBRANCH  46  71
BRANCH  58  83
ATOM     83  C   UNL A   1      44.040  29.198  35.744  1.00  0.00     0.058 A 
ATOM     84  C   UNL A   1      43.925  28.072  36.574  1.00  0.00     0.135 A 
ATOM     85  C   UNL A   1      45.317  29.758  35.572  1.00  0.00     0.135 A 
ATOM     86  F   UNL A   1      42.727  27.502  36.778  1.00  0.00    -0.206 F 
ATOM     87  C   UNL A   1      45.031  27.533  37.223  1.00  0.00     0.059 A 
ATOM     88  C   UNL A   1      46.441  29.218  36.188  1.00  0.00     0.059 A 
ATOM     89  F   UNL A   1      45.484  30.830  34.781  1.00  0.00    -0.206 F 
ATOM     90  C   UNL A   1      46.286  28.111  37.020  1.00  0.00     0.060 A 
BRANCH  90  91
ATOM     91  S   UNL A   1      47.719  27.376  37.835  1.00  0.00     0.124 S 
ATOM     92  O   UNL A   1      47.901  26.152  37.063  1.00  0.00    -0.237 OA
ATOM     93  O   UNL A   1      48.743  28.400  37.650  1.00  0.00    -0.237 OA
ATOM     94  O   UNL A   1      47.270  27.190  39.212  1.00  0.00    -0.744 OA
ENDBRANCH  90  91
ENDBRANCH  58  83
ENDBRANCH  32  33
ENDBRANCH  24  27
ENDBRANCH  22  23
ENDBRANCH  21  22
ENDBRANCH   1  21
TORSDOF 17
ENDMDL
