MODEL 1
REMARK VINA RESULT:     -13.4      0.000      0.000
REMARK SMILES O=C(NCCCCCCNC(=O)c1ccn(-c2cc(-c3ccncc3)nc(-c3ccccc3F)n2)n1)c1ccc(-c2c3nc(c(-c4c(F)cc(S(=O)(=O)[O-])cc4F)c4ccc([nH]4)c(-c4c(F)cc(S(=O)(=O)[O-])cc4F)c4nc(c(-c5c(F)cc(S(=O)(=O)[O-])cc5F)c5ccc2[nH]5)C=C4)C=C3)cc1
REMARK SMILES IDX 6 1 5 2 4 3 3 4 1 5 2 6 37 8 38 9 102 10 39 11 101 12 40 13
REMARK SMILES IDX 41 14 42 15 95 16 43 17 100 18 94 19 96 20 44 21 99 22 93 23
REMARK SMILES IDX 92 24 45 26 79 27 58 28 78 29 59 30 62 31 77 32 97 33 60 34
REMARK SMILES IDX 61 35 76 37 98 38 63 39 46 40 47 41 56 42 48 43 49 44 55 45
REMARK SMILES IDX 57 46 50 47 51 48 52 49 53 50 54 51 80 52 81 53 90 54 82 55
REMARK SMILES IDX 83 56 89 57 91 58 84 59 85 60 86 61 87 62 88 63 64 64 65 65
REMARK SMILES IDX 74 66 66 67 67 68 73 69 75 70 68 71 69 72 70 73 71 74 72 75
REMARK SMILES IDX 7 76 8 77 9 78 10 79 11 80 12 82 13 83 14 84 36 85 15 86
REMARK SMILES IDX 16 87 17 88 18 89 35 90 19 91 27 92 26 93 20 94 21 95 25 96
REMARK SMILES IDX 22 97 24 98 23 99 28 100 29 101 33 102 30 103 32 104 34 105
REMARK SMILES IDX 31 106
REMARK H PARENT 3 7 96 25 62 36 10 81
REMARK Flexibility Score: inf
ROOT
ATOM      1  C   UNL A   1      35.832  22.652  23.426  1.00  0.00     0.002 C 
ENDROOT
BRANCH   1   2
ATOM      2  C   UNL A   1      36.715  23.412  24.422  1.00  0.00     0.021 C 
BRANCH   2   3
ATOM      3  C   UNL A   1      37.197  22.560  25.596  1.00  0.00     0.116 C 
BRANCH   3   4
ATOM      4  N   UNL A   1      38.535  22.038  25.439  1.00  0.00    -0.352 N 
ATOM      5  O   UNL A   1      40.683  21.590  25.743  1.00  0.00    -0.269 OA
ATOM      6  C   UNL A   1      39.733  22.316  26.036  1.00  0.00     0.251 C 
ATOM      7  H   UNL A   1      38.598  21.330  24.758  1.00  0.00     0.163 HD
BRANCH   6   8
ATOM      8  C   UNL A   1      39.959  23.492  26.910  1.00  0.00     0.039 A 
ATOM      9  C   UNL A   1      39.193  24.662  26.909  1.00  0.00     0.014 A 
ATOM     10  C   UNL A   1      41.076  23.408  27.753  1.00  0.00     0.014 A 
ATOM     11  C   UNL A   1      39.627  25.787  27.595  1.00  0.00     0.010 A 
ATOM     12  C   UNL A   1      41.489  24.510  28.477  1.00  0.00     0.010 A 
ATOM     13  C   UNL A   1      40.800  25.715  28.337  1.00  0.00    -0.014 A 
BRANCH  13  14
ATOM     14  C   UNL A   1      41.237  26.895  29.073  1.00  0.00     0.031 A 
ATOM     15  C   UNL A   1      42.449  27.572  28.507  1.00  0.00     0.074 A 
ATOM     16  C   UNL A   1      40.443  27.408  30.035  1.00  0.00     0.049 A 
ATOM     17  N   UNL A   1      43.530  27.960  29.105  1.00  0.00    -0.248 NA
ATOM     18  C   UNL A   1      42.503  27.734  27.039  1.00  0.00     0.031 C 
ATOM     19  C   UNL A   1      39.115  26.938  30.455  1.00  0.00     0.029 A 
ATOM     20  N   UNL A   1      40.586  28.552  30.750  1.00  0.00    -0.354 N 
ATOM     21  C   UNL A   1      44.301  28.600  28.131  1.00  0.00     0.074 A 
ATOM     22  C   UNL A   1      43.695  28.298  26.862  1.00  0.00     0.031 C 
ATOM     23  C   UNL A   1      38.485  27.922  31.135  1.00  0.00     0.029 A 
ATOM     24  C   UNL A   1      39.406  29.028  31.310  1.00  0.00     0.049 A 
ATOM     25  H   UNL A   1      41.452  29.007  30.863  1.00  0.00     0.167 HD
ATOM     26  C   UNL A   1      45.268  29.510  28.434  1.00  0.00     0.037 A 
ATOM     27  C   UNL A   1      39.194  30.292  31.763  1.00  0.00     0.037 A 
ATOM     28  C   UNL A   1      45.717  29.382  29.791  1.00  0.00     0.049 A 
ATOM     29  C   UNL A   1      40.539  30.887  31.995  1.00  0.00     0.074 A 
ATOM     30  C   UNL A   1      46.366  28.391  30.503  1.00  0.00     0.029 A 
ATOM     31  N   UNL A   1      45.191  30.231  30.734  1.00  0.00    -0.354 N 
ATOM     32  N   UNL A   1      41.387  30.436  32.883  1.00  0.00    -0.248 NA
ATOM     33  C   UNL A   1      41.125  31.655  30.905  1.00  0.00     0.031 C 
ATOM     34  C   UNL A   1      45.761  28.413  31.793  1.00  0.00     0.029 A 
ATOM     35  C   UNL A   1      44.830  29.454  31.807  1.00  0.00     0.049 A 
ATOM     36  H   UNL A   1      45.093  31.206  30.656  1.00  0.00     0.167 HD
ATOM     37  C   UNL A   1      42.630  30.518  32.271  1.00  0.00     0.074 A 
ATOM     38  C   UNL A   1      42.408  31.316  31.066  1.00  0.00     0.031 C 
ATOM     39  C   UNL A   1      43.667  29.703  32.631  1.00  0.00     0.037 A 
BRANCH  26  40
ATOM     40  C   UNL A   1      45.569  30.721  27.585  1.00  0.00     0.058 A 
ATOM     41  C   UNL A   1      44.653  31.783  27.414  1.00  0.00     0.135 A 
ATOM     42  C   UNL A   1      46.886  30.977  27.153  1.00  0.00     0.135 A 
ATOM     43  F   UNL A   1      43.395  31.718  27.870  1.00  0.00    -0.206 F 
ATOM     44  C   UNL A   1      45.008  33.003  26.854  1.00  0.00     0.059 A 
ATOM     45  C   UNL A   1      47.277  32.215  26.635  1.00  0.00     0.059 A 
ATOM     46  F   UNL A   1      47.841  30.043  27.289  1.00  0.00    -0.206 F 
ATOM     47  C   UNL A   1      46.329  33.224  26.497  1.00  0.00     0.060 A 
BRANCH  47  48
ATOM     48  S   UNL A   1      46.783  34.883  25.960  1.00  0.00     0.124 S 
ATOM     49  O   UNL A   1      47.192  35.497  27.220  1.00  0.00    -0.237 OA
ATOM     50  O   UNL A   1      47.855  34.607  25.009  1.00  0.00    -0.237 OA
ATOM     51  O   UNL A   1      45.548  35.400  25.379  1.00  0.00    -0.744 OA
ENDBRANCH  47  48
ENDBRANCH  26  40
BRANCH  27  52
ATOM     52  C   UNL A   1      37.975  31.118  31.515  1.00  0.00     0.058 A 
ATOM     53  C   UNL A   1      37.761  31.765  30.278  1.00  0.00     0.135 A 
ATOM     54  C   UNL A   1      37.129  31.514  32.567  1.00  0.00     0.135 A 
ATOM     55  F   UNL A   1      38.548  31.519  29.220  1.00  0.00    -0.206 F 
ATOM     56  C   UNL A   1      36.796  32.753  30.101  1.00  0.00     0.059 A 
ATOM     57  C   UNL A   1      36.155  32.512  32.414  1.00  0.00     0.059 A 
ATOM     58  F   UNL A   1      37.279  30.974  33.787  1.00  0.00    -0.206 F 
ATOM     59  C   UNL A   1      36.013  33.142  31.180  1.00  0.00     0.060 A 
BRANCH  59  60
ATOM     60  S   UNL A   1      34.884  34.533  30.940  1.00  0.00     0.124 S 
ATOM     61  O   UNL A   1      35.401  35.507  31.895  1.00  0.00    -0.237 OA
ATOM     62  O   UNL A   1      35.094  34.857  29.532  1.00  0.00    -0.237 OA
ATOM     63  O   UNL A   1      33.576  33.972  31.262  1.00  0.00    -0.744 OA
ENDBRANCH  59  60
ENDBRANCH  27  52
BRANCH  39  64
ATOM     64  C   UNL A   1      43.500  28.807  33.833  1.00  0.00     0.058 A 
ATOM     65  C   UNL A   1      42.981  27.519  33.644  1.00  0.00     0.135 A 
ATOM     66  C   UNL A   1      43.624  29.254  35.164  1.00  0.00     0.135 A 
ATOM     67  F   UNL A   1      42.780  27.052  32.401  1.00  0.00    -0.206 F 
ATOM     68  C   UNL A   1      42.585  26.720  34.715  1.00  0.00     0.059 A 
ATOM     69  C   UNL A   1      43.263  28.459  36.254  1.00  0.00     0.059 A 
ATOM     70  F   UNL A   1      44.014  30.505  35.432  1.00  0.00    -0.206 F 
ATOM     71  C   UNL A   1      42.723  27.198  36.017  1.00  0.00     0.060 A 
BRANCH  71  72
ATOM     72  S   UNL A   1      42.134  26.167  37.376  1.00  0.00     0.124 S 
ATOM     73  O   UNL A   1      43.106  26.461  38.425  1.00  0.00    -0.237 OA
ATOM     74  O   UNL A   1      40.788  26.687  37.601  1.00  0.00    -0.237 OA
ATOM     75  O   UNL A   1      42.194  24.810  36.838  1.00  0.00    -0.744 OA
ENDBRANCH  71  72
ENDBRANCH  39  64
ENDBRANCH  13  14
ENDBRANCH   6   8
ENDBRANCH   3   4
ENDBRANCH   2   3
ENDBRANCH   1   2
BRANCH   1  76
ATOM     76  C   UNL A   1      34.330  22.713  23.722  1.00  0.00     0.002 C 
BRANCH  76  77
ATOM     77  C   UNL A   1      33.809  21.601  24.642  1.00  0.00     0.021 C 
BRANCH  77  78
ATOM     78  C   UNL A   1      33.329  22.101  26.001  1.00  0.00     0.116 C 
BRANCH  78  79
ATOM     79  N   UNL A   1      31.946  21.725  26.215  1.00  0.00    -0.351 N 
ATOM     80  C   UNL A   1      30.832  22.482  25.971  1.00  0.00     0.271 C 
ATOM     81  H   UNL A   1      31.789  20.824  26.578  1.00  0.00     0.163 HD
ATOM     82  O   UNL A   1      29.752  22.153  26.478  1.00  0.00    -0.267 OA
BRANCH  80  83
ATOM     83  C   UNL A   1      30.962  23.622  25.066  1.00  0.00     0.150 A 
ATOM     84  C   UNL A   1      30.741  23.613  23.664  1.00  0.00     0.056 A 
ATOM     85  N   UNL A   1      31.312  24.849  25.494  1.00  0.00    -0.161 NA
ATOM     86  C   UNL A   1      30.812  24.930  23.285  1.00  0.00     0.118 A 
ATOM     87  N   UNL A   1      31.106  25.649  24.419  1.00  0.00    -0.222 N 
BRANCH  87  88
ATOM     88  C   UNL A   1      31.162  27.063  24.518  1.00  0.00     0.158 A 
ATOM     89  C   UNL A   1      30.386  27.817  23.667  1.00  0.00     0.078 A 
ATOM     90  N   UNL A   1      31.982  27.597  25.448  1.00  0.00    -0.209 NA
ATOM     91  C   UNL A   1      30.455  29.182  23.846  1.00  0.00     0.077 A 
ATOM     92  C   UNL A   1      32.048  28.936  25.476  1.00  0.00     0.165 A 
ATOM     93  N   UNL A   1      31.313  29.762  24.712  1.00  0.00    -0.228 NA
BRANCH  91  94
ATOM     94  C   UNL A   1      29.552  30.092  23.136  1.00  0.00     0.003 A 
ATOM     95  C   UNL A   1      29.440  30.042  21.740  1.00  0.00     0.030 A 
ATOM     96  C   UNL A   1      28.776  31.027  23.824  1.00  0.00     0.030 A 
ATOM     97  C   UNL A   1      28.581  30.923  21.104  1.00  0.00     0.111 A 
ATOM     98  C   UNL A   1      27.951  31.872  23.098  1.00  0.00     0.111 A 
ATOM     99  N   UNL A   1      27.839  31.843  21.753  1.00  0.00    -0.265 NA
ENDBRANCH  91  94
BRANCH  92 100
ATOM    100  C   UNL A   1      33.077  29.518  26.326  1.00  0.00     0.055 A 
ATOM    101  C   UNL A   1      34.305  28.858  26.527  1.00  0.00     0.015 A 
ATOM    102  C   UNL A   1      32.871  30.731  26.984  1.00  0.00     0.134 A 
ATOM    103  C   UNL A   1      35.290  29.407  27.354  1.00  0.00     0.001 A 
ATOM    104  C   UNL A   1      33.845  31.280  27.819  1.00  0.00     0.040 A 
ATOM    105  F   UNL A   1      31.708  31.387  26.851  1.00  0.00    -0.206 F 
ATOM    106  C   UNL A   1      35.058  30.619  28.003  1.00  0.00     0.003 A 
ENDBRANCH  92 100
ENDBRANCH  87  88
ENDBRANCH  80  83
ENDBRANCH  78  79
ENDBRANCH  77  78
ENDBRANCH  76  77
ENDBRANCH   1  76
TORSDOF 19
ENDMDL
MODEL 2
REMARK VINA RESULT:     -11.7      3.140      6.477
REMARK SMILES O=C(NCCCCCCNC(=O)c1ccn(-c2cc(-c3ccncc3)nc(-c3ccccc3F)n2)n1)c1ccc(-c2c3nc(c(-c4c(F)cc(S(=O)(=O)[O-])cc4F)c4ccc([nH]4)c(-c4c(F)cc(S(=O)(=O)[O-])cc4F)c4nc(c(-c5c(F)cc(S(=O)(=O)[O-])cc5F)c5ccc2[nH]5)C=C4)C=C3)cc1
REMARK SMILES IDX 6 1 5 2 4 3 3 4 1 5 2 6 37 8 38 9 102 10 39 11 101 12 40 13
REMARK SMILES IDX 41 14 42 15 95 16 43 17 100 18 94 19 96 20 44 21 99 22 93 23
REMARK SMILES IDX 92 24 45 26 79 27 58 28 78 29 59 30 62 31 77 32 97 33 60 34
REMARK SMILES IDX 61 35 76 37 98 38 63 39 46 40 47 41 56 42 48 43 49 44 55 45
REMARK SMILES IDX 57 46 50 47 51 48 52 49 53 50 54 51 80 52 81 53 90 54 82 55
REMARK SMILES IDX 83 56 89 57 91 58 84 59 85 60 86 61 87 62 88 63 64 64 65 65
REMARK SMILES IDX 74 66 66 67 67 68 73 69 75 70 68 71 69 72 70 73 71 74 72 75
REMARK SMILES IDX 7 76 8 77 9 78 10 79 11 80 12 82 13 83 14 84 36 85 15 86
REMARK SMILES IDX 16 87 17 88 18 89 35 90 19 91 27 92 26 93 20 94 21 95 25 96
REMARK SMILES IDX 22 97 24 98 23 99 28 100 29 101 33 102 30 103 32 104 34 105
REMARK SMILES IDX 31 106
REMARK H PARENT 3 7 96 25 62 36 10 81
REMARK Flexibility Score: inf
ROOT
ATOM      1  C   UNL A   1      42.791  24.584  26.580  1.00  0.00     0.002 C 
ENDROOT
BRANCH   1   2
ATOM      2  C   UNL A   1      43.493  23.993  25.352  1.00  0.00     0.021 C 
BRANCH   2   3
ATOM      3  C   UNL A   1      44.958  23.632  25.591  1.00  0.00     0.116 C 
BRANCH   3   4
ATOM      4  N   UNL A   1      45.898  24.452  24.861  1.00  0.00    -0.352 N 
ATOM      5  O   UNL A   1      47.285  26.079  24.280  1.00  0.00    -0.269 OA
ATOM      6  C   UNL A   1      46.388  25.715  25.042  1.00  0.00     0.251 C 
ATOM      7  H   UNL A   1      46.264  24.006  24.063  1.00  0.00     0.163 HD
BRANCH   6   8
ATOM      8  C   UNL A   1      45.825  26.681  26.016  1.00  0.00     0.039 A 
ATOM      9  C   UNL A   1      46.231  26.821  27.346  1.00  0.00     0.014 A 
ATOM     10  C   UNL A   1      44.761  27.461  25.540  1.00  0.00     0.014 A 
ATOM     11  C   UNL A   1      45.486  27.586  28.232  1.00  0.00     0.010 A 
ATOM     12  C   UNL A   1      44.043  28.263  26.406  1.00  0.00     0.010 A 
ATOM     13  C   UNL A   1      44.368  28.265  27.763  1.00  0.00    -0.014 A 
BRANCH  13  14
ATOM     14  C   UNL A   1      43.604  29.084  28.695  1.00  0.00     0.031 A 
ATOM     15  C   UNL A   1      44.104  30.489  28.848  1.00  0.00     0.074 A 
ATOM     16  C   UNL A   1      42.427  28.626  29.169  1.00  0.00     0.049 A 
ATOM     17  N   UNL A   1      44.347  31.164  29.927  1.00  0.00    -0.248 NA
ATOM     18  C   UNL A   1      44.494  31.202  27.613  1.00  0.00     0.031 C 
ATOM     19  C   UNL A   1      41.755  27.360  28.845  1.00  0.00     0.029 A 
ATOM     20  N   UNL A   1      41.503  29.258  29.935  1.00  0.00    -0.354 N 
ATOM     21  C   UNL A   1      44.717  32.444  29.506  1.00  0.00     0.074 A 
ATOM     22  C   UNL A   1      44.936  32.364  28.087  1.00  0.00     0.031 C 
ATOM     23  C   UNL A   1      40.450  27.444  29.187  1.00  0.00     0.029 A 
ATOM     24  C   UNL A   1      40.228  28.705  29.867  1.00  0.00     0.049 A 
ATOM     25  H   UNL A   1      41.715  30.042  30.491  1.00  0.00     0.167 HD
ATOM     26  C   UNL A   1      44.620  33.541  30.307  1.00  0.00     0.037 A 
ATOM     27  C   UNL A   1      39.074  29.319  30.237  1.00  0.00     0.037 A 
ATOM     28  C   UNL A   1      44.568  33.187  31.697  1.00  0.00     0.049 A 
ATOM     29  C   UNL A   1      39.463  30.436  31.143  1.00  0.00     0.074 A 
ATOM     30  C   UNL A   1      45.446  32.574  32.570  1.00  0.00     0.029 A 
ATOM     31  N   UNL A   1      43.340  33.132  32.309  1.00  0.00    -0.354 N 
ATOM     32  N   UNL A   1      40.043  30.258  32.303  1.00  0.00    -0.248 NA
ATOM     33  C   UNL A   1      39.661  31.746  30.539  1.00  0.00     0.031 C 
ATOM     34  C   UNL A   1      44.627  31.745  33.390  1.00  0.00     0.029 A 
ATOM     35  C   UNL A   1      43.300  31.952  33.010  1.00  0.00     0.049 A 
ATOM     36  H   UNL A   1      42.627  33.809  32.257  1.00  0.00     0.167 HD
ATOM     37  C   UNL A   1      40.989  31.270  32.393  1.00  0.00     0.074 A 
ATOM     38  C   UNL A   1      40.677  32.180  31.291  1.00  0.00     0.031 C 
ATOM     39  C   UNL A   1      42.110  31.143  33.164  1.00  0.00     0.037 A 
BRANCH  26  40
ATOM     40  C   UNL A   1      44.250  34.914  29.800  1.00  0.00     0.058 A 
ATOM     41  C   UNL A   1      45.197  35.950  29.636  1.00  0.00     0.135 A 
ATOM     42  C   UNL A   1      42.995  35.135  29.199  1.00  0.00     0.135 A 
ATOM     43  F   UNL A   1      46.461  35.833  30.065  1.00  0.00    -0.206 F 
ATOM     44  C   UNL A   1      44.924  37.119  28.938  1.00  0.00     0.059 A 
ATOM     45  C   UNL A   1      42.715  36.281  28.449  1.00  0.00     0.059 A 
ATOM     46  F   UNL A   1      42.029  34.205  29.276  1.00  0.00    -0.206 F 
ATOM     47  C   UNL A   1      43.692  37.264  28.319  1.00  0.00     0.060 A 
BRANCH  47  48
ATOM     48  S   UNL A   1      43.451  38.704  27.263  1.00  0.00     0.124 S 
ATOM     49  O   UNL A   1      42.268  38.315  26.503  1.00  0.00    -0.237 OA
ATOM     50  O   UNL A   1      43.258  39.766  28.245  1.00  0.00    -0.237 OA
ATOM     51  O   UNL A   1      44.694  38.775  26.502  1.00  0.00    -0.744 OA
ENDBRANCH  47  48
ENDBRANCH  26  40
BRANCH  27  52
ATOM     52  C   UNL A   1      37.791  29.307  29.473  1.00  0.00     0.058 A 
ATOM     53  C   UNL A   1      37.762  29.503  28.076  1.00  0.00     0.135 A 
ATOM     54  C   UNL A   1      36.546  29.372  30.127  1.00  0.00     0.135 A 
ATOM     55  F   UNL A   1      38.892  29.529  27.354  1.00  0.00    -0.206 F 
ATOM     56  C   UNL A   1      36.588  29.772  27.376  1.00  0.00     0.059 A 
ATOM     57  C   UNL A   1      35.352  29.648  29.445  1.00  0.00     0.059 A 
ATOM     58  F   UNL A   1      36.481  29.225  31.460  1.00  0.00    -0.206 F 
ATOM     59  C   UNL A   1      35.389  29.870  28.070  1.00  0.00     0.060 A 
BRANCH  59  60
ATOM     60  S   UNL A   1      33.921  30.373  27.143  1.00  0.00     0.124 S 
ATOM     61  O   UNL A   1      33.910  31.816  27.359  1.00  0.00    -0.237 OA
ATOM     62  O   UNL A   1      34.253  29.941  25.789  1.00  0.00    -0.237 OA
ATOM     63  O   UNL A   1      32.840  29.634  27.786  1.00  0.00    -0.744 OA
ENDBRANCH  59  60
ENDBRANCH  27  52
BRANCH  39  64
ATOM     64  C   UNL A   1      42.237  29.939  34.065  1.00  0.00     0.058 A 
ATOM     65  C   UNL A   1      42.777  28.759  33.536  1.00  0.00     0.135 A 
ATOM     66  C   UNL A   1      41.646  29.853  35.341  1.00  0.00     0.135 A 
ATOM     67  F   UNL A   1      43.302  28.757  32.299  1.00  0.00    -0.206 F 
ATOM     68  C   UNL A   1      42.719  27.549  34.224  1.00  0.00     0.059 A 
ATOM     69  C   UNL A   1      41.604  28.658  36.063  1.00  0.00     0.059 A 
ATOM     70  F   UNL A   1      41.018  30.905  35.877  1.00  0.00    -0.206 F 
ATOM     71  C   UNL A   1      42.125  27.505  35.486  1.00  0.00     0.060 A 
BRANCH  71  72
ATOM     72  S   UNL A   1      42.002  25.908  36.319  1.00  0.00     0.124 S 
ATOM     73  O   UNL A   1      43.123  25.174  35.737  1.00  0.00    -0.237 OA
ATOM     74  O   UNL A   1      42.152  26.277  37.723  1.00  0.00    -0.237 OA
ATOM     75  O   UNL A   1      40.679  25.417  35.942  1.00  0.00    -0.744 OA
ENDBRANCH  71  72
ENDBRANCH  39  64
ENDBRANCH  13  14
ENDBRANCH   6   8
ENDBRANCH   3   4
ENDBRANCH   2   3
ENDBRANCH   1   2
BRANCH   1  76
ATOM     76  C   UNL A   1      43.518  24.351  27.909  1.00  0.00     0.002 C 
BRANCH  76  77
ATOM     77  C   UNL A   1      43.003  23.157  28.723  1.00  0.00     0.021 C 
BRANCH  77  78
ATOM     78  C   UNL A   1      41.638  22.646  28.272  1.00  0.00     0.116 C 
BRANCH  78  79
ATOM     79  N   UNL A   1      41.796  21.568  27.316  1.00  0.00    -0.351 N 
ATOM     80  C   UNL A   1      40.823  20.993  26.545  1.00  0.00     0.271 C 
ATOM     81  H   UNL A   1      42.706  21.207  27.211  1.00  0.00     0.163 HD
ATOM     82  O   UNL A   1      41.042  19.900  26.007  1.00  0.00    -0.267 OA
BRANCH  80  83
ATOM     83  C   UNL A   1      39.580  21.735  26.341  1.00  0.00     0.150 A 
ATOM     84  C   UNL A   1      39.431  23.146  26.351  1.00  0.00     0.056 A 
ATOM     85  N   UNL A   1      38.405  21.124  26.106  1.00  0.00    -0.161 NA
ATOM     86  C   UNL A   1      38.139  23.370  25.946  1.00  0.00     0.118 A 
ATOM     87  N   UNL A   1      37.568  22.133  25.758  1.00  0.00    -0.222 N 
BRANCH  87  88
ATOM     88  C   UNL A   1      36.275  21.885  25.232  1.00  0.00     0.158 A 
ATOM     89  C   UNL A   1      35.481  22.957  24.891  1.00  0.00     0.078 A 
ATOM     90  N   UNL A   1      35.888  20.599  25.093  1.00  0.00    -0.209 NA
ATOM     91  C   UNL A   1      34.255  22.645  24.344  1.00  0.00     0.077 A 
ATOM     92  C   UNL A   1      34.640  20.404  24.642  1.00  0.00     0.165 A 
ATOM     93  N   UNL A   1      33.799  21.377  24.253  1.00  0.00    -0.228 NA
BRANCH  91  94
ATOM     94  C   UNL A   1      33.388  23.678  23.773  1.00  0.00     0.003 A 
ATOM     95  C   UNL A   1      33.901  24.940  23.444  1.00  0.00     0.030 A 
ATOM     96  C   UNL A   1      32.033  23.436  23.532  1.00  0.00     0.030 A 
ATOM     97  C   UNL A   1      33.048  25.892  22.912  1.00  0.00     0.111 A 
ATOM     98  C   UNL A   1      31.258  24.457  23.004  1.00  0.00     0.111 A 
ATOM     99  N   UNL A   1      31.735  25.681  22.692  1.00  0.00    -0.265 NA
ENDBRANCH  91  94
BRANCH  92 100
ATOM    100  C   UNL A   1      34.140  19.038  24.683  1.00  0.00     0.055 A 
ATOM    101  C   UNL A   1      34.982  17.951  24.374  1.00  0.00     0.015 A 
ATOM    102  C   UNL A   1      32.811  18.763  25.008  1.00  0.00     0.134 A 
ATOM    103  C   UNL A   1      34.502  16.638  24.399  1.00  0.00     0.001 A 
ATOM    104  C   UNL A   1      32.322  17.456  25.025  1.00  0.00     0.040 A 
ATOM    105  F   UNL A   1      31.958  19.762  25.282  1.00  0.00    -0.206 F 
ATOM    106  C   UNL A   1      33.169  16.391  24.723  1.00  0.00     0.003 A 
ENDBRANCH  92 100
ENDBRANCH  87  88
ENDBRANCH  80  83
ENDBRANCH  78  79
ENDBRANCH  77  78
ENDBRANCH  76  77
ENDBRANCH   1  76
TORSDOF 19
ENDMDL
MODEL 3
REMARK VINA RESULT:     -11.4      1.694      3.296
REMARK SMILES O=C(NCCCCCCNC(=O)c1ccn(-c2cc(-c3ccncc3)nc(-c3ccccc3F)n2)n1)c1ccc(-c2c3nc(c(-c4c(F)cc(S(=O)(=O)[O-])cc4F)c4ccc([nH]4)c(-c4c(F)cc(S(=O)(=O)[O-])cc4F)c4nc(c(-c5c(F)cc(S(=O)(=O)[O-])cc5F)c5ccc2[nH]5)C=C4)C=C3)cc1
REMARK SMILES IDX 6 1 5 2 4 3 3 4 1 5 2 6 37 8 38 9 102 10 39 11 101 12 40 13
REMARK SMILES IDX 41 14 42 15 95 16 43 17 100 18 94 19 96 20 44 21 99 22 93 23
REMARK SMILES IDX 92 24 45 26 79 27 58 28 78 29 59 30 62 31 77 32 97 33 60 34
REMARK SMILES IDX 61 35 76 37 98 38 63 39 46 40 47 41 56 42 48 43 49 44 55 45
REMARK SMILES IDX 57 46 50 47 51 48 52 49 53 50 54 51 80 52 81 53 90 54 82 55
REMARK SMILES IDX 83 56 89 57 91 58 84 59 85 60 86 61 87 62 88 63 64 64 65 65
REMARK SMILES IDX 74 66 66 67 67 68 73 69 75 70 68 71 69 72 70 73 71 74 72 75
REMARK SMILES IDX 7 76 8 77 9 78 10 79 11 80 12 82 13 83 14 84 36 85 15 86
REMARK SMILES IDX 16 87 17 88 18 89 35 90 19 91 27 92 26 93 20 94 21 95 25 96
REMARK SMILES IDX 22 97 24 98 23 99 28 100 29 101 33 102 30 103 32 104 34 105
REMARK SMILES IDX 31 106
REMARK H PARENT 3 7 96 25 62 36 10 81
REMARK Flexibility Score: inf
ROOT
ATOM      1  C   UNL A   1      38.121  21.888  25.694  1.00  0.00     0.002 C 
ENDROOT
BRANCH   1   2
ATOM      2  C   UNL A   1      38.996  22.828  26.530  1.00  0.00     0.021 C 
BRANCH   2   3
ATOM      3  C   UNL A   1      40.379  22.264  26.851  1.00  0.00     0.116 C 
BRANCH   3   4
ATOM      4  N   UNL A   1      41.336  22.390  25.776  1.00  0.00    -0.352 N 
ATOM      5  O   UNL A   1      43.101  22.966  24.568  1.00  0.00    -0.269 OA
ATOM      6  C   UNL A   1      42.414  23.201  25.563  1.00  0.00     0.251 C 
ATOM      7  H   UNL A   1      41.178  21.756  25.039  1.00  0.00     0.163 HD
BRANCH   6   8
ATOM      8  C   UNL A   1      42.721  24.391  26.393  1.00  0.00     0.039 A 
ATOM      9  C   UNL A   1      43.716  24.463  27.372  1.00  0.00     0.014 A 
ATOM     10  C   UNL A   1      41.884  25.498  26.187  1.00  0.00     0.014 A 
ATOM     11  C   UNL A   1      43.765  25.538  28.247  1.00  0.00     0.010 A 
ATOM     12  C   UNL A   1      41.959  26.595  27.024  1.00  0.00     0.010 A 
ATOM     13  C   UNL A   1      42.854  26.576  28.095  1.00  0.00    -0.014 A 
BRANCH  13  14
ATOM     14  C   UNL A   1      42.926  27.712  29.004  1.00  0.00     0.031 A 
ATOM     15  C   UNL A   1      44.049  28.666  28.725  1.00  0.00     0.074 A 
ATOM     16  C   UNL A   1      41.907  27.946  29.855  1.00  0.00     0.049 A 
ATOM     17  N   UNL A   1      44.925  29.167  29.537  1.00  0.00    -0.248 NA
ATOM     18  C   UNL A   1      44.294  29.020  27.311  1.00  0.00     0.031 C 
ATOM     19  C   UNL A   1      40.653  27.192  29.990  1.00  0.00     0.029 A 
ATOM     20  N   UNL A   1      41.705  28.997  30.689  1.00  0.00    -0.354 N 
ATOM     21  C   UNL A   1      45.692  30.055  28.778  1.00  0.00     0.074 A 
ATOM     22  C   UNL A   1      45.361  29.810  27.400  1.00  0.00     0.031 C 
ATOM     23  C   UNL A   1      39.741  27.950  30.639  1.00  0.00     0.029 A 
ATOM     24  C   UNL A   1      40.381  29.175  31.076  1.00  0.00     0.049 A 
ATOM     25  H   UNL A   1      42.434  29.585  30.994  1.00  0.00     0.167 HD
ATOM     26  C   UNL A   1      46.397  31.080  29.330  1.00  0.00     0.037 A 
ATOM     27  C   UNL A   1      39.852  30.311  31.601  1.00  0.00     0.037 A 
ATOM     28  C   UNL A   1      46.649  30.866  30.727  1.00  0.00     0.049 A 
ATOM     29  C   UNL A   1      40.998  31.108  32.121  1.00  0.00     0.074 A 
ATOM     30  C   UNL A   1      47.366  29.929  31.445  1.00  0.00     0.029 A 
ATOM     31  N   UNL A   1      45.825  31.478  31.638  1.00  0.00    -0.354 N 
ATOM     32  N   UNL A   1      41.773  30.711  33.097  1.00  0.00    -0.248 NA
ATOM     33  C   UNL A   1      41.578  32.102  31.228  1.00  0.00     0.031 C 
ATOM     34  C   UNL A   1      46.579  29.676  32.605  1.00  0.00     0.029 A 
ATOM     35  C   UNL A   1      45.467  30.519  32.554  1.00  0.00     0.049 A 
ATOM     36  H   UNL A   1      45.545  32.421  31.636  1.00  0.00     0.167 HD
ATOM     37  C   UNL A   1      43.053  31.095  32.723  1.00  0.00     0.074 A 
ATOM     38  C   UNL A   1      42.862  31.986  31.578  1.00  0.00     0.031 C 
ATOM     39  C   UNL A   1      44.165  30.445  33.180  1.00  0.00     0.037 A 
BRANCH  26  40
ATOM     40  C   UNL A   1      46.575  32.423  28.665  1.00  0.00     0.058 A 
ATOM     41  C   UNL A   1      45.504  33.320  28.450  1.00  0.00     0.135 A 
ATOM     42  C   UNL A   1      47.865  32.962  28.483  1.00  0.00     0.135 A 
ATOM     43  F   UNL A   1      44.230  32.974  28.684  1.00  0.00    -0.206 F 
ATOM     44  C   UNL A   1      45.690  34.644  28.078  1.00  0.00     0.059 A 
ATOM     45  C   UNL A   1      48.077  34.305  28.160  1.00  0.00     0.059 A 
ATOM     46  F   UNL A   1      48.954  32.202  28.682  1.00  0.00    -0.206 F 
ATOM     47  C   UNL A   1      46.980  35.139  27.967  1.00  0.00     0.060 A 
BRANCH  47  48
ATOM     48  S   UNL A   1      47.175  36.907  27.678  1.00  0.00     0.124 S 
ATOM     49  O   UNL A   1      48.612  37.078  27.864  1.00  0.00    -0.237 OA
ATOM     50  O   UNL A   1      46.689  37.042  26.308  1.00  0.00    -0.237 OA
ATOM     51  O   UNL A   1      46.330  37.512  28.703  1.00  0.00    -0.744 OA
ENDBRANCH  47  48
ENDBRANCH  26  40
BRANCH  27  52
ATOM     52  C   UNL A   1      38.545  30.926  31.223  1.00  0.00     0.058 A 
ATOM     53  C   UNL A   1      38.334  31.480  29.942  1.00  0.00     0.135 A 
ATOM     54  C   UNL A   1      37.567  31.226  32.189  1.00  0.00     0.135 A 
ATOM     55  F   UNL A   1      39.231  31.318  28.958  1.00  0.00    -0.206 F 
ATOM     56  C   UNL A   1      37.246  32.296  29.644  1.00  0.00     0.059 A 
ATOM     57  C   UNL A   1      36.466  32.051  31.914  1.00  0.00     0.059 A 
ATOM     58  F   UNL A   1      37.700  30.765  33.443  1.00  0.00    -0.206 F 
ATOM     59  C   UNL A   1      36.329  32.601  30.641  1.00  0.00     0.060 A 
BRANCH  59  60
ATOM     60  S   UNL A   1      35.023  33.787  30.248  1.00  0.00     0.124 S 
ATOM     61  O   UNL A   1      35.116  34.718  31.367  1.00  0.00    -0.237 OA
ATOM     62  O   UNL A   1      35.462  34.307  28.957  1.00  0.00    -0.237 OA
ATOM     63  O   UNL A   1      33.816  32.967  30.212  1.00  0.00    -0.744 OA
ENDBRANCH  59  60
ENDBRANCH  27  52
BRANCH  39  64
ATOM     64  C   UNL A   1      43.999  29.389  34.245  1.00  0.00     0.058 A 
ATOM     65  C   UNL A   1      43.682  28.082  33.852  1.00  0.00     0.135 A 
ATOM     66  C   UNL A   1      43.925  29.674  35.623  1.00  0.00     0.135 A 
ATOM     67  F   UNL A   1      43.674  27.757  32.548  1.00  0.00    -0.206 F 
ATOM     68  C   UNL A   1      43.290  27.110  34.770  1.00  0.00     0.059 A 
ATOM     69  C   UNL A   1      43.565  28.707  36.566  1.00  0.00     0.059 A 
ATOM     70  F   UNL A   1      44.113  30.919  36.076  1.00  0.00    -0.206 F 
ATOM     71  C   UNL A   1      43.229  27.431  36.126  1.00  0.00     0.060 A 
BRANCH  71  72
ATOM     72  S   UNL A   1      42.649  26.170  37.280  1.00  0.00     0.124 S 
ATOM     73  O   UNL A   1      43.516  26.393  38.434  1.00  0.00    -0.237 OA
ATOM     74  O   UNL A   1      41.248  26.537  37.464  1.00  0.00    -0.237 OA
ATOM     75  O   UNL A   1      42.875  24.915  36.569  1.00  0.00    -0.744 OA
ENDBRANCH  71  72
ENDBRANCH  39  64
ENDBRANCH  13  14
ENDBRANCH   6   8
ENDBRANCH   3   4
ENDBRANCH   2   3
ENDBRANCH   1   2
BRANCH   1  76
ATOM     76  C   UNL A   1      36.636  22.267  25.644  1.00  0.00     0.002 C 
BRANCH  76  77
ATOM     77  C   UNL A   1      35.683  21.097  25.367  1.00  0.00     0.021 C 
BRANCH  77  78
ATOM     78  C   UNL A   1      34.209  21.488  25.380  1.00  0.00     0.116 C 
BRANCH  78  79
ATOM     79  N   UNL A   1      33.600  21.199  24.097  1.00  0.00    -0.351 N 
ATOM     80  C   UNL A   1      32.367  21.593  23.655  1.00  0.00     0.271 C 
ATOM     81  H   UNL A   1      34.134  20.656  23.472  1.00  0.00     0.163 HD
ATOM     82  O   UNL A   1      31.864  21.028  22.675  1.00  0.00    -0.267 OA
BRANCH  80  83
ATOM     83  C   UNL A   1      31.721  22.715  24.332  1.00  0.00     0.150 A 
ATOM     84  C   UNL A   1      30.989  22.658  25.547  1.00  0.00     0.056 A 
ATOM     85  N   UNL A   1      31.765  23.971  23.851  1.00  0.00    -0.161 NA
ATOM     86  C   UNL A   1      30.732  23.966  25.869  1.00  0.00     0.118 A 
ATOM     87  N   UNL A   1      31.257  24.730  24.854  1.00  0.00    -0.222 N 
BRANCH  87  88
ATOM     88  C   UNL A   1      31.320  26.147  24.824  1.00  0.00     0.158 A 
ATOM     89  C   UNL A   1      32.125  26.793  25.736  1.00  0.00     0.078 A 
ATOM     90  N   UNL A   1      30.581  26.791  23.896  1.00  0.00    -0.209 NA
ATOM     91  C   UNL A   1      32.174  28.166  25.623  1.00  0.00     0.077 A 
ATOM     92  C   UNL A   1      30.625  28.130  23.933  1.00  0.00     0.165 A 
ATOM     93  N   UNL A   1      31.398  28.855  24.760  1.00  0.00    -0.228 NA
BRANCH  91  94
ATOM     94  C   UNL A   1      33.122  28.963  26.406  1.00  0.00     0.003 A 
ATOM     95  C   UNL A   1      32.810  30.275  26.785  1.00  0.00     0.030 A 
ATOM     96  C   UNL A   1      34.355  28.440  26.803  1.00  0.00     0.030 A 
ATOM     97  C   UNL A   1      33.734  30.999  27.520  1.00  0.00     0.111 A 
ATOM     98  C   UNL A   1      35.217  29.246  27.530  1.00  0.00     0.111 A 
ATOM     99  N   UNL A   1      34.936  30.515  27.894  1.00  0.00    -0.265 NA
ENDBRANCH  91  94
BRANCH  92 100
ATOM    100  C   UNL A   1      29.679  28.836  23.081  1.00  0.00     0.055 A 
ATOM    101  C   UNL A   1      30.110  29.874  22.231  1.00  0.00     0.015 A 
ATOM    102  C   UNL A   1      28.319  28.524  23.094  1.00  0.00     0.134 A 
ATOM    103  C   UNL A   1      29.203  30.564  21.420  1.00  0.00     0.001 A 
ATOM    104  C   UNL A   1      27.407  29.215  22.296  1.00  0.00     0.040 A 
ATOM    105  F   UNL A   1      27.851  27.565  23.907  1.00  0.00    -0.206 F 
ATOM    106  C   UNL A   1      27.850  30.235  21.455  1.00  0.00     0.003 A 
ENDBRANCH  92 100
ENDBRANCH  87  88
ENDBRANCH  80  83
ENDBRANCH  78  79
ENDBRANCH  77  78
ENDBRANCH  76  77
ENDBRANCH   1  76
TORSDOF 19
ENDMDL
