MODEL 1
REMARK VINA RESULT:     -11.1      0.000      0.000
REMARK SMILES CCCC[C@@H](C(=O)NCCCCCCNC(=O)c1ccc(-c2c3nc(c(-c4c(F)cc(S(=O)(=O)[O-])cc4F)c4ccc([nH]4)c(-c4c(F)cc(S(=O)(=O)[O-])cc4F)c4nc(c(-c5c(F)cc(S(=O)(=O)[O-])cc5F)c5ccc2[nH]5)C=C4)C=C3)cc1)[C@]1(O)COc2cc(O)ccc21
REMARK SMILES IDX 11 1 10 2 9 3 8 4 6 5 7 6 5 8 4 9 3 10 2 11 1 12 84 13 86 14
REMARK SMILES IDX 94 15 87 16 88 17 93 18 89 19 92 20 90 21 85 22 91 24 12 26
REMARK SMILES IDX 13 27 14 28 15 29 16 30 17 32 18 33 19 34 83 35 20 36 82 37
REMARK SMILES IDX 21 38 22 39 23 40 76 41 24 42 81 43 75 44 77 45 25 46 80 47
REMARK SMILES IDX 74 48 73 49 26 51 60 52 39 53 59 54 40 55 43 56 58 57 78 58
REMARK SMILES IDX 41 59 42 60 57 62 79 63 44 64 27 65 28 66 37 67 29 68 30 69
REMARK SMILES IDX 36 70 38 71 31 72 32 73 33 74 34 75 35 76 61 77 62 78 71 79
REMARK SMILES IDX 63 80 64 81 70 82 72 83 65 84 66 85 67 86 68 87 69 88 45 89
REMARK SMILES IDX 46 90 55 91 47 92 48 93 54 94 56 95 49 96 50 97 51 98 52 99
REMARK SMILES IDX 53 100
REMARK H PARENT 8 7 85 23 91 25 15 31 77 50 43 61
REMARK Flexibility Score: inf
ROOT
ATOM      1  C   UNL A   1      37.057  21.132  24.554  1.00  0.00     0.002 C 
ENDROOT
BRANCH   1   2
ATOM      2  C   UNL A   1      36.325  19.885  25.054  1.00  0.00     0.021 C 
BRANCH   2   3
ATOM      3  C   UNL A   1      34.831  19.874  24.707  1.00  0.00     0.116 C 
BRANCH   3   4
ATOM      4  N   UNL A   1      34.061  20.179  25.898  1.00  0.00    -0.356 N 
ATOM      5  C   UNL A   1      34.003  21.424  26.470  1.00  0.00     0.226 C 
ATOM      6  O   UNL A   1      34.258  21.526  27.667  1.00  0.00    -0.275 OA
ATOM      7  H   UNL A   1      33.552  19.450  26.320  1.00  0.00     0.163 HD
BRANCH   5   8
ATOM      8  C   UNL A   1      33.568  22.604  25.602  1.00  0.00     0.118 C 
BRANCH   8   9
ATOM      9  C   UNL A   1      33.747  23.961  26.333  1.00  0.00     0.017 C 
BRANCH   9  10
ATOM     10  C   UNL A   1      34.419  25.115  25.580  1.00  0.00     0.001 C 
BRANCH  10  11
ATOM     11  C   UNL A   1      33.694  26.461  25.631  1.00  0.00    -0.003 C 
ATOM     12  C   UNL A   1      33.529  27.093  24.259  1.00  0.00     0.004 C 
ENDBRANCH  10  11
ENDBRANCH   9  10
ENDBRANCH   8   9
BRANCH   8  13
ATOM     13  C   UNL A   1      32.081  22.414  25.122  1.00  0.00     0.139 C 
ATOM     14  C   UNL A   1      31.882  21.974  23.648  1.00  0.00     0.270 C 
ATOM     15  C   UNL A   1      31.222  23.648  25.061  1.00  0.00     0.030 A 
ATOM     16  O   UNL A   1      31.616  23.132  22.831  1.00  0.00    -0.490 OA
ATOM     17  C   UNL A   1      31.057  24.010  23.723  1.00  0.00     0.129 A 
ATOM     18  C   UNL A   1      30.664  24.434  26.058  1.00  0.00     0.014 A 
ATOM     19  C   UNL A   1      30.414  25.166  23.332  1.00  0.00     0.093 A 
ATOM     20  C   UNL A   1      29.967  25.594  25.683  1.00  0.00     0.047 A 
ATOM     21  C   UNL A   1      29.867  25.959  24.332  1.00  0.00     0.119 A 
BRANCH  13  22
ATOM     22  O   UNL A   1      31.485  21.420  25.974  1.00  0.00    -0.381 OA
ATOM     23  H   UNL A   1      31.738  20.536  25.665  1.00  0.00     0.212 HD
ENDBRANCH  13  22
BRANCH  21  24
ATOM     24  O   UNL A   1      29.229  27.103  23.950  1.00  0.00    -0.508 OA
ATOM     25  H   UNL A   1      28.579  27.485  24.506  1.00  0.00     0.293 HD
ENDBRANCH  21  24
ENDBRANCH   8  13
ENDBRANCH   5   8
ENDBRANCH   3   4
ENDBRANCH   2   3
ENDBRANCH   1   2
BRANCH   1  26
ATOM     26  C   UNL A   1      37.816  21.891  25.645  1.00  0.00     0.002 C 
BRANCH  26  27
ATOM     27  C   UNL A   1      37.629  23.411  25.619  1.00  0.00     0.021 C 
BRANCH  27  28
ATOM     28  C   UNL A   1      38.519  24.178  26.595  1.00  0.00     0.116 C 
BRANCH  28  29
ATOM     29  N   UNL A   1      39.914  24.139  26.188  1.00  0.00    -0.352 N 
ATOM     30  C   UNL A   1      40.934  25.009  26.478  1.00  0.00     0.251 C 
ATOM     31  H   UNL A   1      40.164  23.375  25.621  1.00  0.00     0.163 HD
ATOM     32  O   UNL A   1      41.974  24.964  25.830  1.00  0.00    -0.269 OA
BRANCH  30  33
ATOM     33  C   UNL A   1      40.777  25.997  27.565  1.00  0.00     0.039 A 
ATOM     34  C   UNL A   1      39.797  25.778  28.537  1.00  0.00     0.014 A 
ATOM     35  C   UNL A   1      41.562  27.154  27.606  1.00  0.00     0.014 A 
ATOM     36  C   UNL A   1      39.636  26.699  29.573  1.00  0.00     0.010 A 
ATOM     37  C   UNL A   1      41.444  28.037  28.677  1.00  0.00     0.010 A 
ATOM     38  C   UNL A   1      40.474  27.823  29.665  1.00  0.00    -0.014 A 
BRANCH  38  39
ATOM     39  C   UNL A   1      40.344  28.768  30.803  1.00  0.00     0.031 A 
ATOM     40  C   UNL A   1      41.213  28.623  32.022  1.00  0.00     0.074 A 
ATOM     41  C   UNL A   1      39.412  29.739  30.744  1.00  0.00     0.049 A 
ATOM     42  N   UNL A   1      41.248  29.363  33.100  1.00  0.00    -0.248 NA
ATOM     43  C   UNL A   1      42.145  27.484  32.046  1.00  0.00     0.031 C 
ATOM     44  C   UNL A   1      38.466  29.936  29.643  1.00  0.00     0.029 A 
ATOM     45  N   UNL A   1      39.105  30.742  31.628  1.00  0.00    -0.354 N 
ATOM     46  C   UNL A   1      42.199  28.780  33.931  1.00  0.00     0.074 A 
ATOM     47  C   UNL A   1      42.678  27.594  33.255  1.00  0.00     0.031 C 
ATOM     48  C   UNL A   1      37.705  31.011  29.902  1.00  0.00     0.029 A 
ATOM     49  C   UNL A   1      38.091  31.564  31.197  1.00  0.00     0.049 A 
ATOM     50  H   UNL A   1      39.567  30.862  32.488  1.00  0.00     0.167 HD
ATOM     51  C   UNL A   1      42.648  29.208  35.135  1.00  0.00     0.037 A 
ATOM     52  C   UNL A   1      37.537  32.646  31.778  1.00  0.00     0.037 A 
ATOM     53  C   UNL A   1      42.181  30.404  35.791  1.00  0.00     0.049 A 
ATOM     54  C   UNL A   1      38.075  33.119  33.099  1.00  0.00     0.074 A 
ATOM     55  C   UNL A   1      42.617  30.961  36.980  1.00  0.00     0.029 A 
ATOM     56  N   UNL A   1      41.168  31.224  35.315  1.00  0.00    -0.354 N 
ATOM     57  N   UNL A   1      39.030  32.599  33.835  1.00  0.00    -0.248 NA
ATOM     58  C   UNL A   1      37.471  34.333  33.663  1.00  0.00     0.031 C 
ATOM     59  C   UNL A   1      41.841  32.096  37.244  1.00  0.00     0.029 A 
ATOM     60  C   UNL A   1      40.952  32.272  36.195  1.00  0.00     0.049 A 
ATOM     61  H   UNL A   1      40.675  31.083  34.474  1.00  0.00     0.167 HD
ATOM     62  C   UNL A   1      39.151  33.432  34.941  1.00  0.00     0.074 A 
ATOM     63  C   UNL A   1      38.189  34.502  34.764  1.00  0.00     0.031 C 
ATOM     64  C   UNL A   1      39.980  33.321  36.009  1.00  0.00     0.037 A 
BRANCH  51  65
ATOM     65  C   UNL A   1      43.705  28.384  35.820  1.00  0.00     0.058 A 
ATOM     66  C   UNL A   1      45.074  28.609  35.597  1.00  0.00     0.135 A 
ATOM     67  C   UNL A   1      43.349  27.383  36.737  1.00  0.00     0.135 A 
ATOM     68  F   UNL A   1      45.471  29.543  34.719  1.00  0.00    -0.206 F 
ATOM     69  C   UNL A   1      46.050  27.853  36.238  1.00  0.00     0.059 A 
ATOM     70  C   UNL A   1      44.309  26.633  37.410  1.00  0.00     0.059 A 
ATOM     71  F   UNL A   1      42.056  27.125  36.989  1.00  0.00    -0.206 F 
ATOM     72  C   UNL A   1      45.658  26.866  37.144  1.00  0.00     0.060 A 
BRANCH  72  73
ATOM     73  S   UNL A   1      46.937  25.900  37.974  1.00  0.00     0.124 S 
ATOM     74  O   UNL A   1      46.426  24.543  37.815  1.00  0.00    -0.237 OA
ATOM     75  O   UNL A   1      48.129  26.224  37.196  1.00  0.00    -0.237 OA
ATOM     76  O   UNL A   1      46.923  26.420  39.338  1.00  0.00    -0.744 OA
ENDBRANCH  72  73
ENDBRANCH  51  65
BRANCH  52  77
ATOM     77  C   UNL A   1      36.434  33.371  31.093  1.00  0.00     0.058 A 
ATOM     78  C   UNL A   1      36.672  34.121  29.933  1.00  0.00     0.135 A 
ATOM     79  C   UNL A   1      35.118  33.312  31.575  1.00  0.00     0.135 A 
ATOM     80  F   UNL A   1      37.916  34.209  29.435  1.00  0.00    -0.206 F 
ATOM     81  C   UNL A   1      35.650  34.801  29.281  1.00  0.00     0.059 A 
ATOM     82  C   UNL A   1      34.072  33.963  30.928  1.00  0.00     0.059 A 
ATOM     83  F   UNL A   1      34.834  32.591  32.671  1.00  0.00    -0.206 F 
ATOM     84  C   UNL A   1      34.351  34.714  29.786  1.00  0.00     0.060 A 
BRANCH  84  85
ATOM     85  S   UNL A   1      33.018  35.556  28.905  1.00  0.00     0.124 S 
ATOM     86  O   UNL A   1      33.756  36.566  28.155  1.00  0.00    -0.237 OA
ATOM     87  O   UNL A   1      32.437  34.473  28.118  1.00  0.00    -0.237 OA
ATOM     88  O   UNL A   1      32.172  36.060  29.982  1.00  0.00    -0.744 OA
ENDBRANCH  84  85
ENDBRANCH  52  77
BRANCH  64  89
ATOM     89  C   UNL A   1      39.886  34.394  37.058  1.00  0.00     0.058 A 
ATOM     90  C   UNL A   1      40.624  35.585  36.960  1.00  0.00     0.135 A 
ATOM     91  C   UNL A   1      39.045  34.234  38.170  1.00  0.00     0.135 A 
ATOM     92  F   UNL A   1      41.447  35.786  35.918  1.00  0.00    -0.206 F 
ATOM     93  C   UNL A   1      40.566  36.560  37.949  1.00  0.00     0.059 A 
ATOM     94  C   UNL A   1      38.949  35.209  39.158  1.00  0.00     0.059 A 
ATOM     95  F   UNL A   1      38.307  33.122  38.306  1.00  0.00    -0.206 F 
ATOM     96  C   UNL A   1      39.729  36.359  39.049  1.00  0.00     0.060 A 
BRANCH  96  97
ATOM     97  S   UNL A   1      39.667  37.625  40.334  1.00  0.00     0.124 S 
ATOM     98  O   UNL A   1      38.853  38.652  39.693  1.00  0.00    -0.237 OA
ATOM     99  O   UNL A   1      39.035  36.918  41.443  1.00  0.00    -0.237 OA
ATOM    100  O   UNL A   1      41.069  37.972  40.538  1.00  0.00    -0.744 OA
ENDBRANCH  96  97
ENDBRANCH  64  89
ENDBRANCH  38  39
ENDBRANCH  30  33
ENDBRANCH  28  29
ENDBRANCH  27  28
ENDBRANCH  26  27
ENDBRANCH   1  26
TORSDOF 22
ENDMDL
MODEL 2
REMARK VINA RESULT:     -10.8      1.022      2.216
REMARK SMILES CCCC[C@@H](C(=O)NCCCCCCNC(=O)c1ccc(-c2c3nc(c(-c4c(F)cc(S(=O)(=O)[O-])cc4F)c4ccc([nH]4)c(-c4c(F)cc(S(=O)(=O)[O-])cc4F)c4nc(c(-c5c(F)cc(S(=O)(=O)[O-])cc5F)c5ccc2[nH]5)C=C4)C=C3)cc1)[C@]1(O)COc2cc(O)ccc21
REMARK SMILES IDX 11 1 10 2 9 3 8 4 6 5 7 6 5 8 4 9 3 10 2 11 1 12 84 13 86 14
REMARK SMILES IDX 94 15 87 16 88 17 93 18 89 19 92 20 90 21 85 22 91 24 12 26
REMARK SMILES IDX 13 27 14 28 15 29 16 30 17 32 18 33 19 34 83 35 20 36 82 37
REMARK SMILES IDX 21 38 22 39 23 40 76 41 24 42 81 43 75 44 77 45 25 46 80 47
REMARK SMILES IDX 74 48 73 49 26 51 60 52 39 53 59 54 40 55 43 56 58 57 78 58
REMARK SMILES IDX 41 59 42 60 57 62 79 63 44 64 27 65 28 66 37 67 29 68 30 69
REMARK SMILES IDX 36 70 38 71 31 72 32 73 33 74 34 75 35 76 61 77 62 78 71 79
REMARK SMILES IDX 63 80 64 81 70 82 72 83 65 84 66 85 67 86 68 87 69 88 45 89
REMARK SMILES IDX 46 90 55 91 47 92 48 93 54 94 56 95 49 96 50 97 51 98 52 99
REMARK SMILES IDX 53 100
REMARK H PARENT 8 7 85 23 91 25 15 31 77 50 43 61
REMARK Flexibility Score: inf
ROOT
ATOM      1  C   UNL A   1      37.421  23.650  25.945  1.00  0.00     0.002 C 
ENDROOT
BRANCH   1   2
ATOM      2  C   UNL A   1      35.896  23.613  25.827  1.00  0.00     0.021 C 
BRANCH   2   3
ATOM      3  C   UNL A   1      35.295  22.232  26.120  1.00  0.00     0.116 C 
BRANCH   3   4
ATOM      4  N   UNL A   1      34.817  21.647  24.882  1.00  0.00    -0.356 N 
ATOM      5  C   UNL A   1      33.489  21.541  24.552  1.00  0.00     0.226 C 
ATOM      6  O   UNL A   1      33.059  20.439  24.221  1.00  0.00    -0.275 OA
ATOM      7  H   UNL A   1      35.482  21.306  24.242  1.00  0.00     0.163 HD
BRANCH   5   8
ATOM      8  C   UNL A   1      32.635  22.808  24.559  1.00  0.00     0.118 C 
BRANCH   8   9
ATOM      9  C   UNL A   1      31.353  22.640  25.418  1.00  0.00     0.017 C 
BRANCH   9  10
ATOM     10  C   UNL A   1      31.227  23.454  26.711  1.00  0.00     0.001 C 
BRANCH  10  11
ATOM     11  C   UNL A   1      31.224  24.975  26.547  1.00  0.00    -0.003 C 
ATOM     12  C   UNL A   1      32.620  25.551  26.378  1.00  0.00     0.004 C 
ENDBRANCH  10  11
ENDBRANCH   9  10
ENDBRANCH   8   9
BRANCH   8  13
ATOM     13  C   UNL A   1      32.275  23.236  23.089  1.00  0.00     0.139 C 
ATOM     14  C   UNL A   1      33.451  23.288  22.078  1.00  0.00     0.270 C 
ATOM     15  C   UNL A   1      31.800  24.649  22.887  1.00  0.00     0.030 A 
ATOM     16  O   UNL A   1      33.933  24.642  21.969  1.00  0.00    -0.490 OA
ATOM     17  C   UNL A   1      32.828  25.385  22.293  1.00  0.00     0.129 A 
ATOM     18  C   UNL A   1      30.612  25.280  23.224  1.00  0.00     0.014 A 
ATOM     19  C   UNL A   1      32.750  26.745  22.080  1.00  0.00     0.093 A 
ATOM     20  C   UNL A   1      30.492  26.656  22.976  1.00  0.00     0.047 A 
ATOM     21  C   UNL A   1      31.564  27.377  22.429  1.00  0.00     0.119 A 
BRANCH  13  22
ATOM     22  O   UNL A   1      31.302  22.296  22.600  1.00  0.00    -0.381 OA
ATOM     23  H   UNL A   1      31.178  21.591  23.253  1.00  0.00     0.212 HD
ENDBRANCH  13  22
BRANCH  21  24
ATOM     24  O   UNL A   1      31.482  28.723  22.219  1.00  0.00    -0.508 OA
ATOM     25  H   UNL A   1      30.654  29.156  22.273  1.00  0.00     0.293 HD
ENDBRANCH  21  24
ENDBRANCH   8  13
ENDBRANCH   5   8
ENDBRANCH   3   4
ENDBRANCH   2   3
ENDBRANCH   1   2
BRANCH   1  26
ATOM     26  C   UNL A   1      38.100  22.301  25.698  1.00  0.00     0.002 C 
BRANCH  26  27
ATOM     27  C   UNL A   1      39.448  22.122  26.404  1.00  0.00     0.021 C 
BRANCH  27  28
ATOM     28  C   UNL A   1      40.029  23.402  27.000  1.00  0.00     0.116 C 
BRANCH  28  29
ATOM     29  N   UNL A   1      40.907  24.078  26.058  1.00  0.00    -0.352 N 
ATOM     30  C   UNL A   1      41.330  25.382  26.039  1.00  0.00     0.251 C 
ATOM     31  H   UNL A   1      41.247  23.516  25.325  1.00  0.00     0.163 HD
ATOM     32  O   UNL A   1      41.845  25.839  25.024  1.00  0.00    -0.269 OA
BRANCH  30  33
ATOM     33  C   UNL A   1      41.164  26.231  27.236  1.00  0.00     0.039 A 
ATOM     34  C   UNL A   1      42.029  27.313  27.419  1.00  0.00     0.014 A 
ATOM     35  C   UNL A   1      40.187  25.941  28.194  1.00  0.00     0.014 A 
ATOM     36  C   UNL A   1      41.885  28.128  28.543  1.00  0.00     0.010 A 
ATOM     37  C   UNL A   1      40.003  26.795  29.280  1.00  0.00     0.010 A 
ATOM     38  C   UNL A   1      40.856  27.890  29.470  1.00  0.00    -0.014 A 
BRANCH  38  39
ATOM     39  C   UNL A   1      40.664  28.796  30.630  1.00  0.00     0.031 A 
ATOM     40  C   UNL A   1      41.511  28.649  31.864  1.00  0.00     0.074 A 
ATOM     41  C   UNL A   1      39.696  29.731  30.578  1.00  0.00     0.049 A 
ATOM     42  N   UNL A   1      41.495  29.359  32.963  1.00  0.00    -0.248 NA
ATOM     43  C   UNL A   1      42.487  27.547  31.877  1.00  0.00     0.031 C 
ATOM     44  C   UNL A   1      38.767  29.924  29.462  1.00  0.00     0.029 A 
ATOM     45  N   UNL A   1      39.331  30.696  31.482  1.00  0.00    -0.354 N 
ATOM     46  C   UNL A   1      42.449  28.789  33.798  1.00  0.00     0.074 A 
ATOM     47  C   UNL A   1      42.989  27.643  33.101  1.00  0.00     0.031 C 
ATOM     48  C   UNL A   1      37.959  30.960  29.734  1.00  0.00     0.029 A 
ATOM     49  C   UNL A   1      38.294  31.490  31.052  1.00  0.00     0.049 A 
ATOM     50  H   UNL A   1      39.770  30.809  32.356  1.00  0.00     0.167 HD
ATOM     51  C   UNL A   1      42.855  29.199  35.025  1.00  0.00     0.037 A 
ATOM     52  C   UNL A   1      37.687  32.532  31.650  1.00  0.00     0.037 A 
ATOM     53  C   UNL A   1      42.327  30.356  35.703  1.00  0.00     0.049 A 
ATOM     54  C   UNL A   1      38.177  32.988  32.997  1.00  0.00     0.074 A 
ATOM     55  C   UNL A   1      42.716  30.895  36.917  1.00  0.00     0.029 A 
ATOM     56  N   UNL A   1      41.294  31.151  35.227  1.00  0.00    -0.354 N 
ATOM     57  N   UNL A   1      39.135  32.484  33.738  1.00  0.00    -0.248 NA
ATOM     58  C   UNL A   1      37.514  34.160  33.581  1.00  0.00     0.031 C 
ATOM     59  C   UNL A   1      41.891  31.991  37.194  1.00  0.00     0.029 A 
ATOM     60  C   UNL A   1      41.018  32.163  36.132  1.00  0.00     0.049 A 
ATOM     61  H   UNL A   1      40.825  31.014  34.372  1.00  0.00     0.167 HD
ATOM     62  C   UNL A   1      39.200  33.288  34.870  1.00  0.00     0.074 A 
ATOM     63  C   UNL A   1      38.201  34.325  34.701  1.00  0.00     0.031 C 
ATOM     64  C   UNL A   1      40.010  33.178  35.953  1.00  0.00     0.037 A 
BRANCH  51  65
ATOM     65  C   UNL A   1      43.929  28.397  35.709  1.00  0.00     0.058 A 
ATOM     66  C   UNL A   1      43.618  27.359  36.602  1.00  0.00     0.135 A 
ATOM     67  C   UNL A   1      45.285  28.643  35.441  1.00  0.00     0.135 A 
ATOM     68  F   UNL A   1      42.339  27.089  36.905  1.00  0.00    -0.206 F 
ATOM     69  C   UNL A   1      44.613  26.612  37.226  1.00  0.00     0.059 A 
ATOM     70  C   UNL A   1      46.296  27.891  36.034  1.00  0.00     0.059 A 
ATOM     71  F   UNL A   1      45.641  29.625  34.597  1.00  0.00    -0.206 F 
ATOM     72  C   UNL A   1      45.950  26.886  36.936  1.00  0.00     0.060 A 
BRANCH  72  73
ATOM     73  S   UNL A   1      47.228  25.902  37.746  1.00  0.00     0.124 S 
ATOM     74  O   UNL A   1      48.049  25.499  36.609  1.00  0.00    -0.237 OA
ATOM     75  O   UNL A   1      47.836  26.867  38.657  1.00  0.00    -0.237 OA
ATOM     76  O   UNL A   1      46.474  24.829  38.388  1.00  0.00    -0.744 OA
ENDBRANCH  72  73
ENDBRANCH  51  65
BRANCH  52  77
ATOM     77  C   UNL A   1      36.571  33.234  30.962  1.00  0.00     0.058 A 
ATOM     78  C   UNL A   1      35.246  33.081  31.391  1.00  0.00     0.135 A 
ATOM     79  C   UNL A   1      36.812  34.086  29.873  1.00  0.00     0.135 A 
ATOM     80  F   UNL A   1      34.965  32.273  32.427  1.00  0.00    -0.206 F 
ATOM     81  C   UNL A   1      34.193  33.733  30.758  1.00  0.00     0.059 A 
ATOM     82  C   UNL A   1      35.780  34.769  29.237  1.00  0.00     0.059 A 
ATOM     83  F   UNL A   1      38.065  34.282  29.436  1.00  0.00    -0.206 F 
ATOM     84  C   UNL A   1      34.471  34.578  29.682  1.00  0.00     0.060 A 
BRANCH  84  85
ATOM     85  S   UNL A   1      33.107  35.464  28.898  1.00  0.00     0.124 S 
ATOM     86  O   UNL A   1      32.368  35.948  30.058  1.00  0.00    -0.237 OA
ATOM     87  O   UNL A   1      33.807  36.478  28.117  1.00  0.00    -0.237 OA
ATOM     88  O   UNL A   1      32.443  34.427  28.113  1.00  0.00    -0.744 OA
ENDBRANCH  84  85
ENDBRANCH  52  77
BRANCH  64  89
ATOM     89  C   UNL A   1      39.851  34.217  37.029  1.00  0.00     0.058 A 
ATOM     90  C   UNL A   1      39.083  33.973  38.179  1.00  0.00     0.135 A 
ATOM     91  C   UNL A   1      40.479  35.468  36.912  1.00  0.00     0.135 A 
ATOM     92  F   UNL A   1      38.459  32.795  38.336  1.00  0.00    -0.206 F 
ATOM     93  C   UNL A   1      38.906  34.948  39.154  1.00  0.00     0.059 A 
ATOM     94  C   UNL A   1      40.338  36.448  37.890  1.00  0.00     0.059 A 
ATOM     95  F   UNL A   1      41.235  35.748  35.840  1.00  0.00    -0.206 F 
ATOM     96  C   UNL A   1      39.532  36.186  38.996  1.00  0.00     0.060 A 
BRANCH  96  97
ATOM     97  S   UNL A   1      39.288  37.449  40.263  1.00  0.00     0.124 S 
ATOM     98  O   UNL A   1      38.476  38.427  39.547  1.00  0.00    -0.237 OA
ATOM     99  O   UNL A   1      38.603  36.709  41.318  1.00  0.00    -0.237 OA
ATOM    100  O   UNL A   1      40.646  37.874  40.584  1.00  0.00    -0.744 OA
ENDBRANCH  96  97
ENDBRANCH  64  89
ENDBRANCH  38  39
ENDBRANCH  30  33
ENDBRANCH  28  29
ENDBRANCH  27  28
ENDBRANCH  26  27
ENDBRANCH   1  26
TORSDOF 22
ENDMDL
MODEL 3
REMARK VINA RESULT:     -10.6      6.330      8.686
REMARK SMILES CCCC[C@@H](C(=O)NCCCCCCNC(=O)c1ccc(-c2c3nc(c(-c4c(F)cc(S(=O)(=O)[O-])cc4F)c4ccc([nH]4)c(-c4c(F)cc(S(=O)(=O)[O-])cc4F)c4nc(c(-c5c(F)cc(S(=O)(=O)[O-])cc5F)c5ccc2[nH]5)C=C4)C=C3)cc1)[C@]1(O)COc2cc(O)ccc21
REMARK SMILES IDX 11 1 10 2 9 3 8 4 6 5 7 6 5 8 4 9 3 10 2 11 1 12 84 13 86 14
REMARK SMILES IDX 94 15 87 16 88 17 93 18 89 19 92 20 90 21 85 22 91 24 12 26
REMARK SMILES IDX 13 27 14 28 15 29 16 30 17 32 18 33 19 34 83 35 20 36 82 37
REMARK SMILES IDX 21 38 22 39 23 40 76 41 24 42 81 43 75 44 77 45 25 46 80 47
REMARK SMILES IDX 74 48 73 49 26 51 60 52 39 53 59 54 40 55 43 56 58 57 78 58
REMARK SMILES IDX 41 59 42 60 57 62 79 63 44 64 27 65 28 66 37 67 29 68 30 69
REMARK SMILES IDX 36 70 38 71 31 72 32 73 33 74 34 75 35 76 61 77 62 78 71 79
REMARK SMILES IDX 63 80 64 81 70 82 72 83 65 84 66 85 67 86 68 87 69 88 45 89
REMARK SMILES IDX 46 90 55 91 47 92 48 93 54 94 56 95 49 96 50 97 51 98 52 99
REMARK SMILES IDX 53 100
REMARK H PARENT 8 7 85 23 91 25 15 31 77 50 43 61
REMARK Flexibility Score: inf
ROOT
ATOM      1  C   UNL A   1      37.636  22.349  25.292  1.00  0.00     0.002 C 
ENDROOT
BRANCH   1   2
ATOM      2  C   UNL A   1      36.884  23.446  24.535  1.00  0.00     0.021 C 
BRANCH   2   3
ATOM      3  C   UNL A   1      36.217  22.949  23.246  1.00  0.00     0.116 C 
BRANCH   3   4
ATOM      4  N   UNL A   1      34.853  23.439  23.195  1.00  0.00    -0.356 N 
ATOM      5  C   UNL A   1      33.749  22.635  23.319  1.00  0.00     0.226 C 
ATOM      6  O   UNL A   1      32.881  22.701  22.452  1.00  0.00    -0.275 OA
ATOM      7  H   UNL A   1      34.711  24.404  23.063  1.00  0.00     0.163 HD
BRANCH   5   8
ATOM      8  C   UNL A   1      33.633  21.746  24.556  1.00  0.00     0.118 C 
BRANCH   8   9
ATOM      9  C   UNL A   1      33.141  20.316  24.201  1.00  0.00     0.017 C 
BRANCH   9  10
ATOM     10  C   UNL A   1      34.005  19.121  24.621  1.00  0.00     0.001 C 
BRANCH  10  11
ATOM     11  C   UNL A   1      33.537  17.751  24.127  1.00  0.00    -0.003 C 
ATOM     12  C   UNL A   1      32.586  17.845  22.946  1.00  0.00     0.004 C 
ENDBRANCH  10  11
ENDBRANCH   9  10
ENDBRANCH   8   9
BRANCH   8  13
ATOM     13  C   UNL A   1      32.693  22.414  25.627  1.00  0.00     0.139 C 
ATOM     14  C   UNL A   1      31.167  22.220  25.423  1.00  0.00     0.270 C 
ATOM     15  C   UNL A   1      32.679  23.917  25.678  1.00  0.00     0.030 A 
ATOM     16  O   UNL A   1      30.620  23.373  24.753  1.00  0.00    -0.490 OA
ATOM     17  C   UNL A   1      31.486  24.372  25.112  1.00  0.00     0.129 A 
ATOM     18  C   UNL A   1      33.620  24.834  26.122  1.00  0.00     0.014 A 
ATOM     19  C   UNL A   1      31.216  25.708  24.904  1.00  0.00     0.093 A 
ATOM     20  C   UNL A   1      33.349  26.202  25.960  1.00  0.00     0.047 A 
ATOM     21  C   UNL A   1      32.165  26.624  25.337  1.00  0.00     0.119 A 
BRANCH  13  22
ATOM     22  O   UNL A   1      33.050  21.864  26.907  1.00  0.00    -0.381 OA
ATOM     23  H   UNL A   1      33.298  22.582  27.509  1.00  0.00     0.212 HD
ENDBRANCH  13  22
BRANCH  21  24
ATOM     24  O   UNL A   1      31.901  27.948  25.134  1.00  0.00    -0.508 OA
ATOM     25  H   UNL A   1      31.019  28.236  25.009  1.00  0.00     0.293 HD
ENDBRANCH  21  24
ENDBRANCH   8  13
ENDBRANCH   5   8
ENDBRANCH   3   4
ENDBRANCH   2   3
ENDBRANCH   1   2
BRANCH   1  26
ATOM     26  C   UNL A   1      37.273  20.928  24.856  1.00  0.00     0.002 C 
BRANCH  26  27
ATOM     27  C   UNL A   1      38.404  19.904  24.996  1.00  0.00     0.021 C 
BRANCH  27  28
ATOM     28  C   UNL A   1      39.396  20.202  26.119  1.00  0.00     0.116 C 
BRANCH  28  29
ATOM     29  N   UNL A   1      40.482  19.236  26.142  1.00  0.00    -0.352 N 
ATOM     30  C   UNL A   1      41.837  19.444  26.125  1.00  0.00     0.251 C 
ATOM     31  H   UNL A   1      40.203  18.293  26.174  1.00  0.00     0.163 HD
ATOM     32  O   UNL A   1      42.593  18.512  25.876  1.00  0.00    -0.269 OA
BRANCH  30  33
ATOM     33  C   UNL A   1      42.383  20.789  26.405  1.00  0.00     0.039 A 
ATOM     34  C   UNL A   1      42.761  21.598  25.330  1.00  0.00     0.014 A 
ATOM     35  C   UNL A   1      42.559  21.236  27.718  1.00  0.00     0.014 A 
ATOM     36  C   UNL A   1      43.275  22.872  25.574  1.00  0.00     0.010 A 
ATOM     37  C   UNL A   1      43.010  22.533  27.957  1.00  0.00     0.010 A 
ATOM     38  C   UNL A   1      43.381  23.359  26.889  1.00  0.00    -0.014 A 
BRANCH  38  39
ATOM     39  C   UNL A   1      43.869  24.738  27.143  1.00  0.00     0.031 A 
ATOM     40  C   UNL A   1      45.318  25.086  26.946  1.00  0.00     0.074 A 
ATOM     41  C   UNL A   1      43.001  25.668  27.586  1.00  0.00     0.049 A 
ATOM     42  N   UNL A   1      45.917  26.239  27.104  1.00  0.00    -0.248 NA
ATOM     43  C   UNL A   1      46.219  23.994  26.544  1.00  0.00     0.031 C 
ATOM     44  C   UNL A   1      41.585  25.430  27.880  1.00  0.00     0.029 A 
ATOM     45  N   UNL A   1      43.178  26.998  27.869  1.00  0.00    -0.354 N 
ATOM     46  C   UNL A   1      47.260  26.011  26.826  1.00  0.00     0.074 A 
ATOM     47  C   UNL A   1      47.398  24.600  26.543  1.00  0.00     0.031 C 
ATOM     48  C   UNL A   1      41.017  26.581  28.272  1.00  0.00     0.029 A 
ATOM     49  C   UNL A   1      42.030  27.631  28.282  1.00  0.00     0.049 A 
ATOM     50  H   UNL A   1      44.045  27.456  27.784  1.00  0.00     0.167 HD
ATOM     51  C   UNL A   1      48.280  26.903  26.788  1.00  0.00     0.037 A 
ATOM     52  C   UNL A   1      41.816  28.916  28.626  1.00  0.00     0.037 A 
ATOM     53  C   UNL A   1      48.129  28.312  27.050  1.00  0.00     0.049 A 
ATOM     54  C   UNL A   1      42.957  29.892  28.544  1.00  0.00     0.074 A 
ATOM     55  C   UNL A   1      49.084  29.310  26.974  1.00  0.00     0.029 A 
ATOM     56  N   UNL A   1      46.947  28.922  27.444  1.00  0.00    -0.354 N 
ATOM     57  N   UNL A   1      44.206  29.673  28.204  1.00  0.00    -0.248 NA
ATOM     58  C   UNL A   1      42.658  31.290  28.880  1.00  0.00     0.031 C 
ATOM     59  C   UNL A   1      48.490  30.517  27.360  1.00  0.00     0.029 A 
ATOM     60  C   UNL A   1      47.152  30.279  27.633  1.00  0.00     0.049 A 
ATOM     61  H   UNL A   1      46.087  28.459  27.571  1.00  0.00     0.167 HD
ATOM     62  C   UNL A   1      44.837  30.910  28.269  1.00  0.00     0.074 A 
ATOM     63  C   UNL A   1      43.826  31.874  28.657  1.00  0.00     0.031 C 
ATOM     64  C   UNL A   1      46.137  31.221  28.033  1.00  0.00     0.037 A 
BRANCH  51  65
ATOM     65  C   UNL A   1      49.649  26.383  26.442  1.00  0.00     0.058 A 
ATOM     66  C   UNL A   1      50.455  25.735  27.393  1.00  0.00     0.135 A 
ATOM     67  C   UNL A   1      50.148  26.499  25.134  1.00  0.00     0.135 A 
ATOM     68  F   UNL A   1      50.034  25.609  28.661  1.00  0.00    -0.206 F 
ATOM     69  C   UNL A   1      51.716  25.246  27.067  1.00  0.00     0.059 A 
ATOM     70  C   UNL A   1      51.396  25.993  24.780  1.00  0.00     0.059 A 
ATOM     71  F   UNL A   1      49.422  27.109  24.184  1.00  0.00    -0.206 F 
ATOM     72  C   UNL A   1      52.179  25.381  25.757  1.00  0.00     0.060 A 
BRANCH  72  73
ATOM     73  S   UNL A   1      53.814  24.732  25.350  1.00  0.00     0.124 S 
ATOM     74  O   UNL A   1      54.529  24.937  26.605  1.00  0.00    -0.237 OA
ATOM     75  O   UNL A   1      53.523  23.344  25.005  1.00  0.00    -0.237 OA
ATOM     76  O   UNL A   1      54.246  25.574  24.238  1.00  0.00    -0.744 OA
ENDBRANCH  72  73
ENDBRANCH  51  65
BRANCH  52  77
ATOM     77  C   UNL A   1      40.459  29.355  29.044  1.00  0.00     0.058 A 
ATOM     78  C   UNL A   1      40.162  29.602  30.392  1.00  0.00     0.135 A 
ATOM     79  C   UNL A   1      39.438  29.555  28.102  1.00  0.00     0.135 A 
ATOM     80  F   UNL A   1      41.105  29.422  31.330  1.00  0.00    -0.206 F 
ATOM     81  C   UNL A   1      38.897  30.015  30.796  1.00  0.00     0.059 A 
ATOM     82  C   UNL A   1      38.172  29.991  28.478  1.00  0.00     0.059 A 
ATOM     83  F   UNL A   1      39.678  29.351  26.797  1.00  0.00    -0.206 F 
ATOM     84  C   UNL A   1      37.908  30.209  29.830  1.00  0.00     0.060 A 
BRANCH  84  85
ATOM     85  S   UNL A   1      36.284  30.798  30.356  1.00  0.00     0.124 S 
ATOM     86  O   UNL A   1      35.542  30.772  29.100  1.00  0.00    -0.237 OA
ATOM     87  O   UNL A   1      35.900  29.797  31.346  1.00  0.00    -0.237 OA
ATOM     88  O   UNL A   1      36.569  32.124  30.895  1.00  0.00    -0.744 OA
ENDBRANCH  84  85
ENDBRANCH  52  77
BRANCH  64  89
ATOM     89  C   UNL A   1      46.527  32.666  28.177  1.00  0.00     0.058 A 
ATOM     90  C   UNL A   1      47.049  33.170  29.379  1.00  0.00     0.135 A 
ATOM     91  C   UNL A   1      46.383  33.556  27.100  1.00  0.00     0.135 A 
ATOM     92  F   UNL A   1      47.202  32.362  30.441  1.00  0.00    -0.206 F 
ATOM     93  C   UNL A   1      47.373  34.515  29.524  1.00  0.00     0.059 A 
ATOM     94  C   UNL A   1      46.728  34.899  27.213  1.00  0.00     0.059 A 
ATOM     95  F   UNL A   1      45.902  33.123  25.925  1.00  0.00    -0.206 F 
ATOM     96  C   UNL A   1      47.202  35.373  28.436  1.00  0.00     0.060 A 
BRANCH  96  97
ATOM     97  S   UNL A   1      47.616  37.119  28.635  1.00  0.00     0.124 S 
ATOM     98  O   UNL A   1      47.320  37.330  30.048  1.00  0.00    -0.237 OA
ATOM     99  O   UNL A   1      49.030  37.150  28.273  1.00  0.00    -0.237 OA
ATOM    100  O   UNL A   1      46.720  37.789  27.698  1.00  0.00    -0.744 OA
ENDBRANCH  96  97
ENDBRANCH  64  89
ENDBRANCH  38  39
ENDBRANCH  30  33
ENDBRANCH  28  29
ENDBRANCH  27  28
ENDBRANCH  26  27
ENDBRANCH   1  26
TORSDOF 22
ENDMDL
