MODEL 1
REMARK VINA RESULT:     -13.2      0.000      0.000
REMARK SMILES Cc1cc(-c2cncc(C(=O)NCCCCCCNC(=O)c3ccc(-c4c5nc(c(-c6c(F)cc(S(=O)(=O)[O-])cc6F)c6ccc([nH]6)c(-c6c(F)cc(S(=O)(=O)[O-])cc6F)c6nc(c(-c7c(F)cc(S(=O)(=O)[O-])cc7F)c7ccc4[nH]7)C=C6)C=C5)cc3)c2)ccc1F
REMARK SMILES IDX 16 1 15 2 14 3 13 4 12 5 10 6 11 7 9 9 5 10 6 11 88 12 7 13
REMARK SMILES IDX 8 14 4 15 1 16 2 17 3 18 91 19 90 20 92 21 89 22 17 23 18 24
REMARK SMILES IDX 19 25 20 26 21 28 22 29 23 30 87 31 24 32 86 33 25 34 26 35
REMARK SMILES IDX 27 36 80 37 28 38 85 39 79 40 81 41 29 42 84 43 78 44 77 45
REMARK SMILES IDX 30 47 64 48 43 49 63 50 44 51 47 52 62 53 82 54 45 55 46 56
REMARK SMILES IDX 61 58 83 59 48 60 31 61 32 62 41 63 33 64 34 65 40 66 42 67
REMARK SMILES IDX 35 68 36 69 37 70 38 71 39 72 65 73 66 74 75 75 67 76 68 77
REMARK SMILES IDX 74 78 76 79 69 80 70 81 71 82 72 83 73 84 49 85 50 86 59 87
REMARK SMILES IDX 51 88 52 89 58 90 60 91 53 92 54 93 55 94 56 95 57 96
REMARK H PARENT 12 8 19 27 81 46 47 57
REMARK Flexibility Score: inf
ROOT
ATOM      1  C   UNL A   1      35.331  24.045  25.627  1.00  0.00     0.002 C 
ENDROOT
BRANCH   1   2
ATOM      2  C   UNL A   1      33.986  23.801  26.335  1.00  0.00     0.002 C 
BRANCH   2   3
ATOM      3  C   UNL A   1      33.184  22.602  25.808  1.00  0.00     0.021 C 
BRANCH   3   4
ATOM      4  C   UNL A   1      32.180  22.994  24.723  1.00  0.00     0.116 C 
BRANCH   4   5
ATOM      5  N   UNL A   1      32.873  23.230  23.472  1.00  0.00    -0.352 N 
ATOM      6  C   UNL A   1      32.948  24.308  22.633  1.00  0.00     0.252 C 
ATOM      7  O   UNL A   1      33.636  24.197  21.618  1.00  0.00    -0.269 OA
ATOM      8  H   UNL A   1      33.395  22.455  23.162  1.00  0.00     0.163 HD
BRANCH   6   9
ATOM      9  C   UNL A   1      32.317  25.617  22.927  1.00  0.00     0.058 A 
ATOM     10  C   UNL A   1      32.037  27.703  24.137  1.00  0.00     0.001 A 
ATOM     11  C   UNL A   1      31.200  28.122  23.106  1.00  0.00     0.119 A 
ATOM     12  C   UNL A   1      32.529  26.392  24.064  1.00  0.00     0.025 A 
ATOM     13  N   UNL A   1      30.876  27.361  22.034  1.00  0.00    -0.263 NA
ATOM     14  C   UNL A   1      31.457  26.137  21.965  1.00  0.00     0.124 A 
BRANCH  10  15
ATOM     15  C   UNL A   1      32.482  28.600  25.205  1.00  0.00    -0.016 A 
ATOM     16  C   UNL A   1      31.413  31.952  26.724  1.00  0.00     0.047 C 
ATOM     17  C   UNL A   1      32.172  30.688  26.452  1.00  0.00    -0.015 A 
ATOM     18  C   UNL A   1      31.757  29.782  25.468  1.00  0.00     0.015 A 
ATOM     19  C   UNL A   1      33.324  30.394  27.180  1.00  0.00     0.126 A 
ATOM     20  C   UNL A   1      34.052  29.232  26.943  1.00  0.00     0.040 A 
ATOM     21  F   UNL A   1      33.744  31.242  28.129  1.00  0.00    -0.207 F 
ATOM     22  C   UNL A   1      33.632  28.334  25.958  1.00  0.00     0.012 A 
ENDBRANCH  10  15
ENDBRANCH   6   9
ENDBRANCH   4   5
ENDBRANCH   3   4
ENDBRANCH   2   3
ENDBRANCH   1   2
BRANCH   1  23
ATOM     23  C   UNL A   1      36.490  23.160  26.100  1.00  0.00     0.021 C 
BRANCH  23  24
ATOM     24  C   UNL A   1      37.830  23.791  25.826  1.00  0.00     0.116 C 
BRANCH  24  25
ATOM     25  N   UNL A   1      38.783  23.488  26.879  1.00  0.00    -0.352 N 
ATOM     26  C   UNL A   1      39.930  24.278  26.944  1.00  0.00     0.251 C 
ATOM     27  H   UNL A   1      38.626  22.757  27.519  1.00  0.00     0.163 HD
ATOM     28  O   UNL A   1      40.929  24.029  26.325  1.00  0.00    -0.269 OA
BRANCH  26  29
ATOM     29  C   UNL A   1      39.683  25.605  27.587  1.00  0.00     0.039 A 
ATOM     30  C   UNL A   1      39.195  25.679  28.897  1.00  0.00     0.014 A 
ATOM     31  C   UNL A   1      40.140  26.752  26.935  1.00  0.00     0.014 A 
ATOM     32  C   UNL A   1      39.220  26.903  29.568  1.00  0.00     0.010 A 
ATOM     33  C   UNL A   1      40.301  27.908  27.631  1.00  0.00     0.010 A 
ATOM     34  C   UNL A   1      39.804  27.995  28.929  1.00  0.00    -0.014 A 
BRANCH  34  35
ATOM     35  C   UNL A   1      39.958  29.327  29.470  1.00  0.00     0.031 A 
ATOM     36  C   UNL A   1      38.865  30.302  29.381  1.00  0.00     0.074 A 
ATOM     37  C   UNL A   1      41.029  29.486  30.276  1.00  0.00     0.049 A 
ATOM     38  N   UNL A   1      39.028  31.566  29.542  1.00  0.00    -0.248 NA
ATOM     39  C   UNL A   1      37.478  29.934  29.104  1.00  0.00     0.031 C 
ATOM     40  C   UNL A   1      41.293  30.487  31.292  1.00  0.00     0.029 A 
ATOM     41  N   UNL A   1      42.189  28.728  30.274  1.00  0.00    -0.354 N 
ATOM     42  C   UNL A   1      37.781  32.128  29.711  1.00  0.00     0.074 A 
ATOM     43  C   UNL A   1      36.848  31.098  29.320  1.00  0.00     0.031 C 
ATOM     44  C   UNL A   1      42.606  30.451  31.601  1.00  0.00     0.029 A 
ATOM     45  C   UNL A   1      43.250  29.524  30.675  1.00  0.00     0.049 A 
ATOM     46  H   UNL A   1      42.249  27.777  30.025  1.00  0.00     0.167 HD
ATOM     47  C   UNL A   1      37.697  33.342  30.328  1.00  0.00     0.037 A 
ATOM     48  C   UNL A   1      44.182  29.880  29.736  1.00  0.00     0.037 A 
ATOM     49  C   UNL A   1      39.037  33.801  30.699  1.00  0.00     0.049 A 
ATOM     50  C   UNL A   1      44.106  31.355  29.418  1.00  0.00     0.074 A 
ATOM     51  C   UNL A   1      39.747  33.690  31.884  1.00  0.00     0.029 A 
ATOM     52  N   UNL A   1      39.964  34.108  29.710  1.00  0.00    -0.354 N 
ATOM     53  N   UNL A   1      43.023  32.077  29.526  1.00  0.00    -0.248 NA
ATOM     54  C   UNL A   1      45.275  32.147  29.051  1.00  0.00     0.031 C 
ATOM     55  C   UNL A   1      41.121  33.868  31.590  1.00  0.00     0.029 A 
ATOM     56  C   UNL A   1      41.246  34.095  30.229  1.00  0.00     0.049 A 
ATOM     57  H   UNL A   1      39.739  34.306  28.773  1.00  0.00     0.167 HD
ATOM     58  C   UNL A   1      43.327  33.394  29.296  1.00  0.00     0.074 A 
ATOM     59  C   UNL A   1      44.748  33.383  29.000  1.00  0.00     0.031 C 
ATOM     60  C   UNL A   1      42.399  34.394  29.393  1.00  0.00     0.037 A 
BRANCH  47  61
ATOM     61  C   UNL A   1      36.431  33.980  30.861  1.00  0.00     0.058 A 
ATOM     62  C   UNL A   1      35.384  34.341  29.979  1.00  0.00     0.135 A 
ATOM     63  C   UNL A   1      36.173  34.258  32.219  1.00  0.00     0.135 A 
ATOM     64  F   UNL A   1      35.458  34.105  28.662  1.00  0.00    -0.206 F 
ATOM     65  C   UNL A   1      34.211  34.967  30.395  1.00  0.00     0.059 A 
ATOM     66  C   UNL A   1      35.016  34.919  32.658  1.00  0.00     0.059 A 
ATOM     67  F   UNL A   1      37.016  33.858  33.180  1.00  0.00    -0.206 F 
ATOM     68  C   UNL A   1      34.037  35.267  31.736  1.00  0.00     0.060 A 
BRANCH  68  69
ATOM     69  S   UNL A   1      32.508  36.081  32.235  1.00  0.00     0.124 S 
ATOM     70  O   UNL A   1      32.956  36.927  33.338  1.00  0.00    -0.237 OA
ATOM     71  O   UNL A   1      32.125  36.783  31.015  1.00  0.00    -0.237 OA
ATOM     72  O   UNL A   1      31.640  34.972  32.617  1.00  0.00    -0.744 OA
ENDBRANCH  68  69
ENDBRANCH  47  61
BRANCH  48  73
ATOM     73  C   UNL A   1      44.454  28.769  28.757  1.00  0.00     0.058 A 
ATOM     74  C   UNL A   1      43.956  28.950  27.450  1.00  0.00     0.135 A 
ATOM     75  C   UNL A   1      45.555  27.908  28.906  1.00  0.00     0.135 A 
ATOM     76  F   UNL A   1      42.886  29.738  27.246  1.00  0.00    -0.206 F 
ATOM     77  C   UNL A   1      44.637  28.480  26.330  1.00  0.00     0.059 A 
ATOM     78  C   UNL A   1      46.251  27.418  27.793  1.00  0.00     0.059 A 
ATOM     79  F   UNL A   1      46.062  27.663  30.124  1.00  0.00    -0.206 F 
ATOM     80  C   UNL A   1      45.831  27.785  26.512  1.00  0.00     0.060 A 
BRANCH  80  81
ATOM     81  S   UNL A   1      46.890  27.535  25.063  1.00  0.00     0.124 S 
ATOM     82  O   UNL A   1      48.227  27.601  25.643  1.00  0.00    -0.237 OA
ATOM     83  O   UNL A   1      46.467  26.207  24.612  1.00  0.00    -0.237 OA
ATOM     84  O   UNL A   1      46.530  28.640  24.185  1.00  0.00    -0.744 OA
ENDBRANCH  80  81
ENDBRANCH  48  73
BRANCH  60  85
ATOM     85  C   UNL A   1      42.538  35.787  28.818  1.00  0.00     0.058 A 
ATOM     86  C   UNL A   1      41.883  36.218  27.653  1.00  0.00     0.135 A 
ATOM     87  C   UNL A   1      43.224  36.802  29.534  1.00  0.00     0.135 A 
ATOM     88  F   UNL A   1      41.089  35.403  26.947  1.00  0.00    -0.206 F 
ATOM     89  C   UNL A   1      41.971  37.527  27.185  1.00  0.00     0.059 A 
ATOM     90  C   UNL A   1      43.260  38.131  29.126  1.00  0.00     0.059 A 
ATOM     91  F   UNL A   1      43.874  36.547  30.680  1.00  0.00    -0.206 F 
ATOM     92  C   UNL A   1      42.660  38.478  27.928  1.00  0.00     0.060 A 
BRANCH  92  93
ATOM     93  S   UNL A   1      42.718  40.178  27.347  1.00  0.00     0.124 S 
ATOM     94  O   UNL A   1      44.082  40.260  26.834  1.00  0.00    -0.237 OA
ATOM     95  O   UNL A   1      41.662  40.208  26.338  1.00  0.00    -0.237 OA
ATOM     96  O   UNL A   1      42.446  40.957  28.551  1.00  0.00    -0.744 OA
ENDBRANCH  92  93
ENDBRANCH  60  85
ENDBRANCH  34  35
ENDBRANCH  26  29
ENDBRANCH  24  25
ENDBRANCH  23  24
ENDBRANCH   1  23
TORSDOF 17
ENDMDL
MODEL 2
REMARK VINA RESULT:     -13.2      4.236     10.622
REMARK SMILES Cc1cc(-c2cncc(C(=O)NCCCCCCNC(=O)c3ccc(-c4c5nc(c(-c6c(F)cc(S(=O)(=O)[O-])cc6F)c6ccc([nH]6)c(-c6c(F)cc(S(=O)(=O)[O-])cc6F)c6nc(c(-c7c(F)cc(S(=O)(=O)[O-])cc7F)c7ccc4[nH]7)C=C6)C=C5)cc3)c2)ccc1F
REMARK SMILES IDX 16 1 15 2 14 3 13 4 12 5 10 6 11 7 9 9 5 10 6 11 88 12 7 13
REMARK SMILES IDX 8 14 4 15 1 16 2 17 3 18 91 19 90 20 92 21 89 22 17 23 18 24
REMARK SMILES IDX 19 25 20 26 21 28 22 29 23 30 87 31 24 32 86 33 25 34 26 35
REMARK SMILES IDX 27 36 80 37 28 38 85 39 79 40 81 41 29 42 84 43 78 44 77 45
REMARK SMILES IDX 30 47 64 48 43 49 63 50 44 51 47 52 62 53 82 54 45 55 46 56
REMARK SMILES IDX 61 58 83 59 48 60 31 61 32 62 41 63 33 64 34 65 40 66 42 67
REMARK SMILES IDX 35 68 36 69 37 70 38 71 39 72 65 73 66 74 75 75 67 76 68 77
REMARK SMILES IDX 74 78 76 79 69 80 70 81 71 82 72 83 73 84 49 85 50 86 59 87
REMARK SMILES IDX 51 88 52 89 58 90 60 91 53 92 54 93 55 94 56 95 57 96
REMARK H PARENT 12 8 19 27 81 46 47 57
REMARK Flexibility Score: inf
ROOT
ATOM      1  C   UNL A   1      32.646  26.528  25.714  1.00  0.00     0.002 C 
ENDROOT
BRANCH   1   2
ATOM      2  C   UNL A   1      31.313  27.151  25.264  1.00  0.00     0.002 C 
BRANCH   2   3
ATOM      3  C   UNL A   1      31.367  27.899  23.924  1.00  0.00     0.021 C 
BRANCH   3   4
ATOM      4  C   UNL A   1      30.667  27.139  22.795  1.00  0.00     0.116 C 
BRANCH   4   5
ATOM      5  N   UNL A   1      31.606  26.870  21.724  1.00  0.00    -0.352 N 
ATOM      6  C   UNL A   1      32.562  25.910  21.538  1.00  0.00     0.252 C 
ATOM      7  O   UNL A   1      33.217  25.949  20.496  1.00  0.00    -0.269 OA
ATOM      8  H   UNL A   1      31.542  27.510  20.979  1.00  0.00     0.163 HD
BRANCH   6   9
ATOM      9  C   UNL A   1      32.788  24.789  22.481  1.00  0.00     0.058 A 
ATOM     10  C   UNL A   1      34.114  23.382  23.949  1.00  0.00     0.001 A 
ATOM     11  C   UNL A   1      32.919  22.854  24.429  1.00  0.00     0.119 A 
ATOM     12  C   UNL A   1      34.026  24.308  22.900  1.00  0.00     0.025 A 
ATOM     13  N   UNL A   1      31.694  23.211  23.974  1.00  0.00    -0.263 NA
ATOM     14  C   UNL A   1      31.662  24.182  23.027  1.00  0.00     0.124 A 
BRANCH  10  15
ATOM     15  C   UNL A   1      35.410  23.082  24.561  1.00  0.00    -0.016 A 
ATOM     16  C   UNL A   1      37.765  20.077  24.889  1.00  0.00     0.047 C 
ATOM     17  C   UNL A   1      37.181  21.450  25.024  1.00  0.00    -0.015 A 
ATOM     18  C   UNL A   1      35.965  21.791  24.420  1.00  0.00     0.015 A 
ATOM     19  C   UNL A   1      37.845  22.422  25.771  1.00  0.00     0.126 A 
ATOM     20  C   UNL A   1      37.322  23.703  25.920  1.00  0.00     0.040 A 
ATOM     21  F   UNL A   1      39.012  22.124  26.359  1.00  0.00    -0.207 F 
ATOM     22  C   UNL A   1      36.107  24.035  25.315  1.00  0.00     0.012 A 
ENDBRANCH  10  15
ENDBRANCH   6   9
ENDBRANCH   4   5
ENDBRANCH   3   4
ENDBRANCH   2   3
ENDBRANCH   1   2
BRANCH   1  23
ATOM     23  C   UNL A   1      33.862  27.458  25.643  1.00  0.00     0.021 C 
BRANCH  23  24
ATOM     24  C   UNL A   1      33.979  28.331  26.865  1.00  0.00     0.116 C 
BRANCH  24  25
ATOM     25  N   UNL A   1      34.488  29.648  26.528  1.00  0.00    -0.352 N 
ATOM     26  C   UNL A   1      34.861  30.474  27.588  1.00  0.00     0.251 C 
ATOM     27  H   UNL A   1      34.569  29.945  25.593  1.00  0.00     0.163 HD
ATOM     28  O   UNL A   1      34.088  31.203  28.148  1.00  0.00    -0.269 OA
BRANCH  26  29
ATOM     29  C   UNL A   1      36.203  30.128  28.148  1.00  0.00     0.039 A 
ATOM     30  C   UNL A   1      36.311  29.490  29.389  1.00  0.00     0.014 A 
ATOM     31  C   UNL A   1      37.321  30.267  27.323  1.00  0.00     0.014 A 
ATOM     32  C   UNL A   1      37.536  28.943  29.772  1.00  0.00     0.010 A 
ATOM     33  C   UNL A   1      38.472  29.611  27.626  1.00  0.00     0.010 A 
ATOM     34  C   UNL A   1      38.593  28.988  28.865  1.00  0.00    -0.014 A 
BRANCH  34  35
ATOM     35  C   UNL A   1      39.919  28.446  29.062  1.00  0.00     0.031 A 
ATOM     36  C   UNL A   1      40.213  27.046  28.735  1.00  0.00     0.074 A 
ATOM     37  C   UNL A   1      40.876  29.371  29.285  1.00  0.00     0.049 A 
ATOM     38  N   UNL A   1      41.246  26.419  29.170  1.00  0.00    -0.248 NA
ATOM     39  C   UNL A   1      39.361  26.223  27.879  1.00  0.00     0.031 C 
ATOM     40  C   UNL A   1      42.316  29.283  29.124  1.00  0.00     0.029 A 
ATOM     41  N   UNL A   1      40.695  30.648  29.792  1.00  0.00    -0.354 N 
ATOM     42  C   UNL A   1      41.374  25.265  28.427  1.00  0.00     0.074 A 
ATOM     43  C   UNL A   1      40.122  25.132  27.719  1.00  0.00     0.031 C 
ATOM     44  C   UNL A   1      42.886  30.321  29.772  1.00  0.00     0.029 A 
ATOM     45  C   UNL A   1      41.828  31.020  30.496  1.00  0.00     0.049 A 
ATOM     46  H   UNL A   1      39.890  31.201  29.671  1.00  0.00     0.167 HD
ATOM     47  C   UNL A   1      42.596  24.660  28.376  1.00  0.00     0.037 A 
ATOM     48  C   UNL A   1      41.742  31.104  31.861  1.00  0.00     0.037 A 
ATOM     49  C   UNL A   1      43.559  25.427  29.169  1.00  0.00     0.049 A 
ATOM     50  C   UNL A   1      42.538  30.007  32.531  1.00  0.00     0.074 A 
ATOM     51  C   UNL A   1      44.468  26.408  28.808  1.00  0.00     0.029 A 
ATOM     52  N   UNL A   1      43.404  25.519  30.548  1.00  0.00    -0.354 N 
ATOM     53  N   UNL A   1      42.786  28.844  31.992  1.00  0.00    -0.248 NA
ATOM     54  C   UNL A   1      43.199  30.182  33.819  1.00  0.00     0.031 C 
ATOM     55  C   UNL A   1      44.811  27.138  29.972  1.00  0.00     0.029 A 
ATOM     56  C   UNL A   1      44.118  26.597  31.043  1.00  0.00     0.049 A 
ATOM     57  H   UNL A   1      42.863  24.906  31.094  1.00  0.00     0.167 HD
ATOM     58  C   UNL A   1      43.643  28.140  32.798  1.00  0.00     0.074 A 
ATOM     59  C   UNL A   1      43.868  29.022  33.930  1.00  0.00     0.031 C 
ATOM     60  C   UNL A   1      44.125  26.905  32.465  1.00  0.00     0.037 A 
BRANCH  47  61
ATOM     61  C   UNL A   1      43.009  23.575  27.404  1.00  0.00     0.058 A 
ATOM     62  C   UNL A   1      42.473  22.270  27.517  1.00  0.00     0.135 A 
ATOM     63  C   UNL A   1      43.915  23.745  26.337  1.00  0.00     0.135 A 
ATOM     64  F   UNL A   1      41.567  21.958  28.452  1.00  0.00    -0.206 F 
ATOM     65  C   UNL A   1      42.838  21.215  26.683  1.00  0.00     0.059 A 
ATOM     66  C   UNL A   1      44.325  22.691  25.507  1.00  0.00     0.059 A 
ATOM     67  F   UNL A   1      44.406  24.953  26.030  1.00  0.00    -0.206 F 
ATOM     68  C   UNL A   1      43.777  21.427  25.686  1.00  0.00     0.060 A 
BRANCH  68  69
ATOM     69  S   UNL A   1      44.227  20.037  24.630  1.00  0.00     0.124 S 
ATOM     70  O   UNL A   1      44.528  20.698  23.364  1.00  0.00    -0.237 OA
ATOM     71  O   UNL A   1      45.373  19.476  25.339  1.00  0.00    -0.237 OA
ATOM     72  O   UNL A   1      43.026  19.208  24.628  1.00  0.00    -0.744 OA
ENDBRANCH  68  69
ENDBRANCH  47  61
BRANCH  48  73
ATOM     73  C   UNL A   1      40.412  31.643  32.314  1.00  0.00     0.058 A 
ATOM     74  C   UNL A   1      40.186  33.018  32.096  1.00  0.00     0.135 A 
ATOM     75  C   UNL A   1      39.277  30.819  32.415  1.00  0.00     0.135 A 
ATOM     76  F   UNL A   1      41.229  33.863  32.020  1.00  0.00    -0.206 F 
ATOM     77  C   UNL A   1      38.925  33.517  31.780  1.00  0.00     0.059 A 
ATOM     78  C   UNL A   1      37.998  31.302  32.108  1.00  0.00     0.059 A 
ATOM     79  F   UNL A   1      39.414  29.506  32.655  1.00  0.00    -0.206 F 
ATOM     80  C   UNL A   1      37.851  32.632  31.708  1.00  0.00     0.060 A 
BRANCH  80  81
ATOM     81  S   UNL A   1      36.328  33.218  30.920  1.00  0.00     0.124 S 
ATOM     82  O   UNL A   1      35.371  32.180  31.288  1.00  0.00    -0.237 OA
ATOM     83  O   UNL A   1      36.132  34.512  31.576  1.00  0.00    -0.237 OA
ATOM     84  O   UNL A   1      36.678  33.276  29.507  1.00  0.00    -0.744 OA
ENDBRANCH  80  81
ENDBRANCH  48  73
BRANCH  60  85
ATOM     85  C   UNL A   1      44.760  25.917  33.419  1.00  0.00     0.058 A 
ATOM     86  C   UNL A   1      44.032  25.126  34.323  1.00  0.00     0.135 A 
ATOM     87  C   UNL A   1      46.144  25.613  33.333  1.00  0.00     0.135 A 
ATOM     88  F   UNL A   1      42.698  25.209  34.415  1.00  0.00    -0.206 F 
ATOM     89  C   UNL A   1      44.634  24.173  35.139  1.00  0.00     0.059 A 
ATOM     90  C   UNL A   1      46.753  24.612  34.083  1.00  0.00     0.059 A 
ATOM     91  F   UNL A   1      46.964  26.265  32.494  1.00  0.00    -0.206 F 
ATOM     92  C   UNL A   1      45.995  23.920  35.013  1.00  0.00     0.060 A 
BRANCH  92  93
ATOM     93  S   UNL A   1      46.753  22.646  36.029  1.00  0.00     0.124 S 
ATOM     94  O   UNL A   1      47.557  21.933  35.041  1.00  0.00    -0.237 OA
ATOM     95  O   UNL A   1      47.503  23.423  37.011  1.00  0.00    -0.237 OA
ATOM     96  O   UNL A   1      45.609  21.914  36.562  1.00  0.00    -0.744 OA
ENDBRANCH  92  93
ENDBRANCH  60  85
ENDBRANCH  34  35
ENDBRANCH  26  29
ENDBRANCH  24  25
ENDBRANCH  23  24
ENDBRANCH   1  23
TORSDOF 17
ENDMDL
MODEL 3
REMARK VINA RESULT:     -13.0      4.949     11.216
REMARK SMILES Cc1cc(-c2cncc(C(=O)NCCCCCCNC(=O)c3ccc(-c4c5nc(c(-c6c(F)cc(S(=O)(=O)[O-])cc6F)c6ccc([nH]6)c(-c6c(F)cc(S(=O)(=O)[O-])cc6F)c6nc(c(-c7c(F)cc(S(=O)(=O)[O-])cc7F)c7ccc4[nH]7)C=C6)C=C5)cc3)c2)ccc1F
REMARK SMILES IDX 16 1 15 2 14 3 13 4 12 5 10 6 11 7 9 9 5 10 6 11 88 12 7 13
REMARK SMILES IDX 8 14 4 15 1 16 2 17 3 18 91 19 90 20 92 21 89 22 17 23 18 24
REMARK SMILES IDX 19 25 20 26 21 28 22 29 23 30 87 31 24 32 86 33 25 34 26 35
REMARK SMILES IDX 27 36 80 37 28 38 85 39 79 40 81 41 29 42 84 43 78 44 77 45
REMARK SMILES IDX 30 47 64 48 43 49 63 50 44 51 47 52 62 53 82 54 45 55 46 56
REMARK SMILES IDX 61 58 83 59 48 60 31 61 32 62 41 63 33 64 34 65 40 66 42 67
REMARK SMILES IDX 35 68 36 69 37 70 38 71 39 72 65 73 66 74 75 75 67 76 68 77
REMARK SMILES IDX 74 78 76 79 69 80 70 81 71 82 72 83 73 84 49 85 50 86 59 87
REMARK SMILES IDX 51 88 52 89 58 90 60 91 53 92 54 93 55 94 56 95 57 96
REMARK H PARENT 12 8 19 27 81 46 47 57
REMARK Flexibility Score: inf
ROOT
ATOM      1  C   UNL A   1      33.073  26.651  25.839  1.00  0.00     0.002 C 
ENDROOT
BRANCH   1   2
ATOM      2  C   UNL A   1      31.617  27.136  25.717  1.00  0.00     0.002 C 
BRANCH   2   3
ATOM      3  C   UNL A   1      31.305  27.937  24.445  1.00  0.00     0.021 C 
BRANCH   3   4
ATOM      4  C   UNL A   1      30.761  27.061  23.315  1.00  0.00     0.116 C 
BRANCH   4   5
ATOM      5  N   UNL A   1      31.723  26.997  22.233  1.00  0.00    -0.352 N 
ATOM      6  C   UNL A   1      32.714  26.109  21.914  1.00  0.00     0.252 C 
ATOM      7  O   UNL A   1      33.381  26.335  20.904  1.00  0.00    -0.269 OA
ATOM      8  H   UNL A   1      31.649  27.746  21.598  1.00  0.00     0.163 HD
BRANCH   6   9
ATOM      9  C   UNL A   1      32.964  24.859  22.670  1.00  0.00     0.058 A 
ATOM     10  C   UNL A   1      34.306  23.292  23.950  1.00  0.00     0.001 A 
ATOM     11  C   UNL A   1      33.123  22.634  24.277  1.00  0.00     0.119 A 
ATOM     12  C   UNL A   1      34.208  24.374  23.064  1.00  0.00     0.025 A 
ATOM     13  N   UNL A   1      31.900  23.002  23.827  1.00  0.00    -0.263 NA
ATOM     14  C   UNL A   1      31.851  24.115  23.052  1.00  0.00     0.124 A 
BRANCH  10  15
ATOM     15  C   UNL A   1      35.590  22.957  24.567  1.00  0.00    -0.016 A 
ATOM     16  C   UNL A   1      37.859  19.888  24.909  1.00  0.00     0.047 C 
ATOM     17  C   UNL A   1      37.313  21.277  25.039  1.00  0.00    -0.015 A 
ATOM     18  C   UNL A   1      36.109  21.651  24.431  1.00  0.00     0.015 A 
ATOM     19  C   UNL A   1      38.001  22.232  25.786  1.00  0.00     0.126 A 
ATOM     20  C   UNL A   1      37.514  23.527  25.931  1.00  0.00     0.040 A 
ATOM     21  F   UNL A   1      39.158  21.903  26.380  1.00  0.00    -0.207 F 
ATOM     22  C   UNL A   1      36.311  23.892  25.321  1.00  0.00     0.012 A 
ENDBRANCH  10  15
ENDBRANCH   6   9
ENDBRANCH   4   5
ENDBRANCH   3   4
ENDBRANCH   2   3
ENDBRANCH   1   2
BRANCH   1  23
ATOM     23  C   UNL A   1      34.143  27.717  25.577  1.00  0.00     0.021 C 
BRANCH  23  24
ATOM     24  C   UNL A   1      34.654  28.330  26.855  1.00  0.00     0.116 C 
BRANCH  24  25
ATOM     25  N   UNL A   1      35.258  29.629  26.614  1.00  0.00    -0.352 N 
ATOM     26  C   UNL A   1      35.640  30.367  27.733  1.00  0.00     0.251 C 
ATOM     27  H   UNL A   1      35.393  29.972  25.702  1.00  0.00     0.163 HD
ATOM     28  O   UNL A   1      34.894  31.111  28.309  1.00  0.00    -0.269 OA
BRANCH  26  29
ATOM     29  C   UNL A   1      36.935  29.904  28.319  1.00  0.00     0.039 A 
ATOM     30  C   UNL A   1      36.963  29.266  29.565  1.00  0.00     0.014 A 
ATOM     31  C   UNL A   1      38.075  29.934  27.513  1.00  0.00     0.014 A 
ATOM     32  C   UNL A   1      38.126  28.611  29.972  1.00  0.00     0.010 A 
ATOM     33  C   UNL A   1      39.156  29.178  27.840  1.00  0.00     0.010 A 
ATOM     34  C   UNL A   1      39.198  28.554  29.084  1.00  0.00    -0.014 A 
BRANCH  34  35
ATOM     35  C   UNL A   1      40.466  27.895  29.307  1.00  0.00     0.031 A 
ATOM     36  C   UNL A   1      40.684  26.518  28.851  1.00  0.00     0.074 A 
ATOM     37  C   UNL A   1      41.466  28.716  29.690  1.00  0.00     0.049 A 
ATOM     38  N   UNL A   1      41.637  25.771  29.281  1.00  0.00    -0.248 NA
ATOM     39  C   UNL A   1      39.841  25.855  27.857  1.00  0.00     0.031 C 
ATOM     40  C   UNL A   1      42.904  28.535  29.614  1.00  0.00     0.029 A 
ATOM     41  N   UNL A   1      41.338  29.944  30.319  1.00  0.00    -0.354 N 
ATOM     42  C   UNL A   1      41.738  24.693  28.428  1.00  0.00     0.074 A 
ATOM     43  C   UNL A   1      40.535  24.731  27.630  1.00  0.00     0.031 C 
ATOM     44  C   UNL A   1      43.496  29.454  30.406  1.00  0.00     0.029 A 
ATOM     45  C   UNL A   1      42.440  30.153  31.131  1.00  0.00     0.049 A 
ATOM     46  H   UNL A   1      40.583  30.567  30.206  1.00  0.00     0.167 HD
ATOM     47  C   UNL A   1      42.916  24.005  28.392  1.00  0.00     0.037 A 
ATOM     48  C   UNL A   1      42.260  30.103  32.489  1.00  0.00     0.037 A 
ATOM     49  C   UNL A   1      43.869  24.610  29.324  1.00  0.00     0.049 A 
ATOM     50  C   UNL A   1      42.928  28.885  33.086  1.00  0.00     0.074 A 
ATOM     51  C   UNL A   1      44.868  25.551  29.130  1.00  0.00     0.029 A 
ATOM     52  N   UNL A   1      43.621  24.572  30.691  1.00  0.00    -0.354 N 
ATOM     53  N   UNL A   1      43.133  27.768  32.443  1.00  0.00    -0.248 NA
ATOM     54  C   UNL A   1      43.504  28.876  34.426  1.00  0.00     0.031 C 
ATOM     55  C   UNL A   1      45.175  26.128  30.386  1.00  0.00     0.029 A 
ATOM     56  C   UNL A   1      44.371  25.534  31.344  1.00  0.00     0.049 A 
ATOM     57  H   UNL A   1      43.001  23.949  31.132  1.00  0.00     0.167 HD
ATOM     58  C   UNL A   1      43.878  26.921  33.222  1.00  0.00     0.074 A 
ATOM     59  C   UNL A   1      44.081  27.662  34.455  1.00  0.00     0.031 C 
ATOM     60  C   UNL A   1      44.296  25.694  32.789  1.00  0.00     0.037 A 
BRANCH  47  61
ATOM     61  C   UNL A   1      43.322  22.997  27.337  1.00  0.00     0.058 A 
ATOM     62  C   UNL A   1      42.691  21.732  27.275  1.00  0.00     0.135 A 
ATOM     63  C   UNL A   1      44.311  23.207  26.354  1.00  0.00     0.135 A 
ATOM     64  F   UNL A   1      41.701  21.394  28.112  1.00  0.00    -0.206 F 
ATOM     65  C   UNL A   1      43.042  20.743  26.358  1.00  0.00     0.059 A 
ATOM     66  C   UNL A   1      44.706  22.215  25.444  1.00  0.00     0.059 A 
ATOM     67  F   UNL A   1      44.903  24.400  26.210  1.00  0.00    -0.206 F 
ATOM     68  C   UNL A   1      44.061  20.985  25.451  1.00  0.00     0.060 A 
BRANCH  68  69
ATOM     69  S   UNL A   1      44.490  19.680  24.283  1.00  0.00     0.124 S 
ATOM     70  O   UNL A   1      43.368  18.757  24.429  1.00  0.00    -0.237 OA
ATOM     71  O   UNL A   1      44.548  20.409  23.020  1.00  0.00    -0.237 OA
ATOM     72  O   UNL A   1      45.770  19.186  24.779  1.00  0.00    -0.744 OA
ENDBRANCH  68  69
ENDBRANCH  47  61
BRANCH  48  73
ATOM     73  C   UNL A   1      40.942  30.693  32.910  1.00  0.00     0.058 A 
ATOM     74  C   UNL A   1      39.949  29.780  33.323  1.00  0.00     0.135 A 
ATOM     75  C   UNL A   1      40.845  32.006  33.403  1.00  0.00     0.135 A 
ATOM     76  F   UNL A   1      39.969  28.517  32.862  1.00  0.00    -0.206 F 
ATOM     77  C   UNL A   1      39.041  30.086  34.334  1.00  0.00     0.059 A 
ATOM     78  C   UNL A   1      39.934  32.337  34.415  1.00  0.00     0.059 A 
ATOM     79  F   UNL A   1      41.734  32.937  33.027  1.00  0.00    -0.206 F 
ATOM     80  C   UNL A   1      39.098  31.344  34.930  1.00  0.00     0.060 A 
BRANCH  80  81
ATOM     81  S   UNL A   1      38.196  31.581  36.484  1.00  0.00     0.124 S 
ATOM     82  O   UNL A   1      37.781  30.221  36.811  1.00  0.00    -0.237 OA
ATOM     83  O   UNL A   1      39.235  32.144  37.348  1.00  0.00    -0.237 OA
ATOM     84  O   UNL A   1      37.122  32.494  36.116  1.00  0.00    -0.744 OA
ENDBRANCH  80  81
ENDBRANCH  48  73
BRANCH  60  85
ATOM     85  C   UNL A   1      44.790  24.567  33.670  1.00  0.00     0.058 A 
ATOM     86  C   UNL A   1      43.950  23.591  34.233  1.00  0.00     0.135 A 
ATOM     87  C   UNL A   1      46.180  24.338  33.844  1.00  0.00     0.135 A 
ATOM     88  F   UNL A   1      42.625  23.603  34.037  1.00  0.00    -0.206 F 
ATOM     89  C   UNL A   1      44.439  22.523  34.981  1.00  0.00     0.059 A 
ATOM     90  C   UNL A   1      46.692  23.237  34.522  1.00  0.00     0.059 A 
ATOM     91  F   UNL A   1      47.105  25.169  33.340  1.00  0.00    -0.206 F 
ATOM     92  C   UNL A   1      45.812  22.352  35.120  1.00  0.00     0.060 A 
BRANCH  92  93
ATOM     93  S   UNL A   1      46.435  20.937  36.037  1.00  0.00     0.124 S 
ATOM     94  O   UNL A   1      45.486  19.900  35.643  1.00  0.00    -0.237 OA
ATOM     95  O   UNL A   1      47.789  20.786  35.512  1.00  0.00    -0.237 OA
ATOM     96  O   UNL A   1      46.354  21.374  37.427  1.00  0.00    -0.744 OA
ENDBRANCH  92  93
ENDBRANCH  60  85
ENDBRANCH  34  35
ENDBRANCH  26  29
ENDBRANCH  24  25
ENDBRANCH  23  24
ENDBRANCH   1  23
TORSDOF 17
ENDMDL
