MODEL 1
REMARK VINA RESULT:     -10.9      0.000      0.000
REMARK SMILES Cc1cc(NCc2ccc(C(=O)NCCCCCCNC(=O)c3ccc(-c4c5nc(c(-c6c(F)cc(S(=O)(=O)[O-])cc6F)c6ccc([nH]6)c(-c6c(F)cc(S(=O)(=O)[O-])cc6F)c6nc(c(-c7c(F)cc(S(=O)(=O)[O-])cc7F)c7ccc4[nH]7)C=C6)C=C5)cc3)o2)ccc1Br
REMARK SMILES IDX 16 1 15 2 14 3 13 4 11 5 12 6 10 8 7 9 8 10 89 11 9 12 6 13
REMARK SMILES IDX 5 14 4 16 1 17 2 18 3 19 92 20 91 21 93 22 90 23 17 24 18 25
REMARK SMILES IDX 19 26 20 27 21 28 22 30 23 31 24 32 88 33 25 34 87 35 26 36
REMARK SMILES IDX 27 37 28 38 81 39 29 40 86 41 80 42 82 43 30 44 85 45 79 46
REMARK SMILES IDX 78 47 31 49 65 50 44 51 64 52 45 53 48 54 63 55 83 56 46 57
REMARK SMILES IDX 47 58 62 60 84 61 49 62 32 63 33 64 42 65 34 66 35 67 41 68
REMARK SMILES IDX 43 69 36 70 37 71 38 72 39 73 40 74 66 75 67 76 76 77 68 78
REMARK SMILES IDX 69 79 75 80 77 81 70 82 71 83 72 84 73 85 74 86 50 87 51 88
REMARK SMILES IDX 60 89 52 90 53 91 59 92 61 93 54 94 55 95 56 96 57 97 58 98
REMARK H PARENT 13 7 5 15 20 29 82 48 48 59
REMARK Flexibility Score: inf
ROOT
ATOM      1  C   UNL A   1      35.245  34.269  34.230  1.00  0.00     0.002 C 
ENDROOT
BRANCH   1   2
ATOM      2  C   UNL A   1      35.232  35.391  33.183  1.00  0.00     0.021 C 
BRANCH   2   3
ATOM      3  C   UNL A   1      34.217  36.494  33.483  1.00  0.00     0.116 C 
BRANCH   3   4
ATOM      4  N   UNL A   1      32.872  36.047  33.196  1.00  0.00    -0.349 N 
ATOM      5  C   UNL A   1      32.238  35.731  32.018  1.00  0.00     0.286 C 
ATOM      6  O   UNL A   1      31.085  35.308  32.140  1.00  0.00    -0.266 OA
ATOM      7  H   UNL A   1      32.303  35.950  33.994  1.00  0.00     0.163 HD
BRANCH   5   8
ATOM      8  C   UNL A   1      32.891  35.864  30.726  1.00  0.00     0.191 A 
ATOM      9  C   UNL A   1      33.879  34.981  28.942  1.00  0.00     0.124 A 
ATOM     10  C   UNL A   1      33.875  36.341  28.744  1.00  0.00     0.048 A 
ATOM     11  O   UNL A   1      33.297  34.687  30.138  1.00  0.00    -0.454 OA
ATOM     12  C   UNL A   1      33.212  36.903  29.867  1.00  0.00     0.056 A 
BRANCH   9  13
ATOM     13  C   UNL A   1      34.378  33.823  28.153  1.00  0.00     0.188 C 
BRANCH  13  14
ATOM     14  N   UNL A   1      33.772  32.551  28.505  1.00  0.00    -0.378 N 
ATOM     15  H   UNL A   1      33.826  32.281  29.452  1.00  0.00     0.161 HD
BRANCH  14  16
ATOM     16  C   UNL A   1      33.131  31.681  27.649  1.00  0.00     0.035 A 
ATOM     17  C   UNL A   1      34.025  28.321  26.058  1.00  0.00     0.045 C 
ATOM     18  C   UNL A   1      33.255  29.572  26.374  1.00  0.00    -0.035 A 
ATOM     19  C   UNL A   1      33.780  30.481  27.311  1.00  0.00     0.030 A 
ATOM     20  C   UNL A   1      32.039  29.884  25.758  1.00  0.00     0.021 A 
ATOM     21  C   UNL A   1      31.375  31.070  26.077  1.00  0.00     0.018 A 
ATOM     22  Br  UNL A   1      31.242  28.746  24.463  1.00  0.00    -0.051 Br
ATOM     23  C   UNL A   1      31.924  31.960  27.007  1.00  0.00     0.027 A 
ENDBRANCH  14  16
ENDBRANCH  13  14
ENDBRANCH   9  13
ENDBRANCH   5   8
ENDBRANCH   3   4
ENDBRANCH   2   3
ENDBRANCH   1   2
BRANCH   1  24
ATOM     24  C   UNL A   1      36.279  33.161  33.987  1.00  0.00     0.002 C 
BRANCH  24  25
ATOM     25  C   UNL A   1      37.587  33.625  33.338  1.00  0.00     0.021 C 
BRANCH  25  26
ATOM     26  C   UNL A   1      37.757  33.193  31.884  1.00  0.00     0.116 C 
BRANCH  26  27
ATOM     27  N   UNL A   1      36.672  32.329  31.448  1.00  0.00    -0.352 N 
ATOM     28  C   UNL A   1      36.705  31.251  30.600  1.00  0.00     0.251 C 
ATOM     29  H   UNL A   1      35.784  32.551  31.814  1.00  0.00     0.163 HD
ATOM     30  O   UNL A   1      35.657  30.781  30.167  1.00  0.00    -0.269 OA
BRANCH  28  31
ATOM     31  C   UNL A   1      38.004  30.667  30.201  1.00  0.00     0.039 A 
ATOM     32  C   UNL A   1      38.322  30.587  28.843  1.00  0.00     0.014 A 
ATOM     33  C   UNL A   1      38.899  30.191  31.164  1.00  0.00     0.014 A 
ATOM     34  C   UNL A   1      39.566  30.084  28.455  1.00  0.00     0.010 A 
ATOM     35  C   UNL A   1      40.164  29.756  30.778  1.00  0.00     0.010 A 
ATOM     36  C   UNL A   1      40.511  29.697  29.420  1.00  0.00    -0.014 A 
BRANCH  36  37
ATOM     37  C   UNL A   1      41.870  29.243  29.029  1.00  0.00     0.031 A 
ATOM     38  C   UNL A   1      43.014  30.219  28.985  1.00  0.00     0.074 A 
ATOM     39  C   UNL A   1      42.056  27.963  28.650  1.00  0.00     0.049 A 
ATOM     40  N   UNL A   1      44.250  30.025  28.601  1.00  0.00    -0.248 NA
ATOM     41  C   UNL A   1      42.726  31.601  29.401  1.00  0.00     0.031 C 
ATOM     42  C   UNL A   1      41.014  26.935  28.605  1.00  0.00     0.029 A 
ATOM     43  N   UNL A   1      43.183  27.310  28.216  1.00  0.00    -0.354 N 
ATOM     44  C   UNL A   1      44.882  31.257  28.719  1.00  0.00     0.074 A 
ATOM     45  C   UNL A   1      43.880  32.205  29.158  1.00  0.00     0.031 C 
ATOM     46  C   UNL A   1      41.554  25.777  28.189  1.00  0.00     0.029 A 
ATOM     47  C   UNL A   1      42.968  25.989  27.899  1.00  0.00     0.049 A 
ATOM     48  H   UNL A   1      44.063  27.746  28.141  1.00  0.00     0.167 HD
ATOM     49  C   UNL A   1      46.183  31.566  28.501  1.00  0.00     0.037 A 
ATOM     50  C   UNL A   1      43.812  25.055  27.416  1.00  0.00     0.037 A 
ATOM     51  C   UNL A   1      47.178  30.613  28.083  1.00  0.00     0.049 A 
ATOM     52  C   UNL A   1      45.250  25.425  27.174  1.00  0.00     0.074 A 
ATOM     53  C   UNL A   1      48.534  30.812  27.891  1.00  0.00     0.029 A 
ATOM     54  N   UNL A   1      46.925  29.280  27.787  1.00  0.00    -0.354 N 
ATOM     55  N   UNL A   1      45.846  26.581  27.352  1.00  0.00    -0.248 NA
ATOM     56  C   UNL A   1      46.134  24.363  26.672  1.00  0.00     0.031 C 
ATOM     57  C   UNL A   1      49.091  29.615  27.430  1.00  0.00     0.029 A 
ATOM     58  C   UNL A   1      48.095  28.653  27.389  1.00  0.00     0.049 A 
ATOM     59  H   UNL A   1      46.045  28.845  27.850  1.00  0.00     0.167 HD
ATOM     60  C   UNL A   1      47.179  26.379  27.010  1.00  0.00     0.074 A 
ATOM     61  C   UNL A   1      47.304  24.987  26.627  1.00  0.00     0.031 C 
ATOM     62  C   UNL A   1      48.205  27.264  27.014  1.00  0.00     0.037 A 
BRANCH  49  63
ATOM     63  C   UNL A   1      46.608  32.995  28.714  1.00  0.00     0.058 A 
ATOM     64  C   UNL A   1      46.574  33.938  27.674  1.00  0.00     0.135 A 
ATOM     65  C   UNL A   1      47.016  33.438  29.983  1.00  0.00     0.135 A 
ATOM     66  F   UNL A   1      46.207  33.568  26.437  1.00  0.00    -0.206 F 
ATOM     67  C   UNL A   1      46.958  35.259  27.876  1.00  0.00     0.059 A 
ATOM     68  C   UNL A   1      47.375  34.763  30.216  1.00  0.00     0.059 A 
ATOM     69  F   UNL A   1      47.066  32.581  31.015  1.00  0.00    -0.206 F 
ATOM     70  C   UNL A   1      47.357  35.663  29.152  1.00  0.00     0.060 A 
BRANCH  70  71
ATOM     71  S   UNL A   1      47.846  37.383  29.398  1.00  0.00     0.124 S 
ATOM     72  O   UNL A   1      49.052  37.229  30.204  1.00  0.00    -0.237 OA
ATOM     73  O   UNL A   1      48.054  37.846  28.029  1.00  0.00    -0.237 OA
ATOM     74  O   UNL A   1      46.701  37.967  30.087  1.00  0.00    -0.744 OA
ENDBRANCH  70  71
ENDBRANCH  49  63
BRANCH  50  75
ATOM     75  C   UNL A   1      43.319  23.678  27.146  1.00  0.00     0.058 A 
ATOM     76  C   UNL A   1      43.086  23.239  25.834  1.00  0.00     0.135 A 
ATOM     77  C   UNL A   1      43.087  22.769  28.190  1.00  0.00     0.135 A 
ATOM     78  F   UNL A   1      43.289  24.072  24.802  1.00  0.00    -0.206 F 
ATOM     79  C   UNL A   1      42.625  21.954  25.567  1.00  0.00     0.059 A 
ATOM     80  C   UNL A   1      42.650  21.471  27.946  1.00  0.00     0.059 A 
ATOM     81  F   UNL A   1      43.311  23.134  29.462  1.00  0.00    -0.206 F 
ATOM     82  C   UNL A   1      42.412  21.076  26.630  1.00  0.00     0.060 A 
BRANCH  82  83
ATOM     83  S   UNL A   1      41.860  19.396  26.269  1.00  0.00     0.124 S 
ATOM     84  O   UNL A   1      42.584  19.107  25.037  1.00  0.00    -0.237 OA
ATOM     85  O   UNL A   1      42.300  18.667  27.455  1.00  0.00    -0.237 OA
ATOM     86  O   UNL A   1      40.414  19.540  26.133  1.00  0.00    -0.744 OA
ENDBRANCH  82  83
ENDBRANCH  50  75
BRANCH  62  87
ATOM     87  C   UNL A   1      49.565  26.751  26.623  1.00  0.00     0.058 A 
ATOM     88  C   UNL A   1      50.421  26.144  27.555  1.00  0.00     0.135 A 
ATOM     89  C   UNL A   1      49.994  26.826  25.288  1.00  0.00     0.135 A 
ATOM     90  F   UNL A   1      50.063  26.054  28.845  1.00  0.00    -0.206 F 
ATOM     91  C   UNL A   1      51.666  25.650  27.180  1.00  0.00     0.059 A 
ATOM     92  C   UNL A   1      51.223  26.311  24.886  1.00  0.00     0.059 A 
ATOM     93  F   UNL A   1      49.209  27.389  24.356  1.00  0.00    -0.206 F 
ATOM     94  C   UNL A   1      52.057  25.735  25.842  1.00  0.00     0.060 A 
BRANCH  94  95
ATOM     95  S   UNL A   1      53.662  25.060  25.365  1.00  0.00     0.124 S 
ATOM     96  O   UNL A   1      54.479  25.393  26.527  1.00  0.00    -0.237 OA
ATOM     97  O   UNL A   1      53.362  23.643  25.185  1.00  0.00    -0.237 OA
ATOM     98  O   UNL A   1      53.986  25.786  24.141  1.00  0.00    -0.744 OA
ENDBRANCH  94  95
ENDBRANCH  62  87
ENDBRANCH  36  37
ENDBRANCH  28  31
ENDBRANCH  26  27
ENDBRANCH  25  26
ENDBRANCH  24  25
ENDBRANCH   1  24
TORSDOF 19
ENDMDL
MODEL 2
REMARK VINA RESULT:     -10.8      6.482     13.091
REMARK SMILES Cc1cc(NCc2ccc(C(=O)NCCCCCCNC(=O)c3ccc(-c4c5nc(c(-c6c(F)cc(S(=O)(=O)[O-])cc6F)c6ccc([nH]6)c(-c6c(F)cc(S(=O)(=O)[O-])cc6F)c6nc(c(-c7c(F)cc(S(=O)(=O)[O-])cc7F)c7ccc4[nH]7)C=C6)C=C5)cc3)o2)ccc1Br
REMARK SMILES IDX 16 1 15 2 14 3 13 4 11 5 12 6 10 8 7 9 8 10 89 11 9 12 6 13
REMARK SMILES IDX 5 14 4 16 1 17 2 18 3 19 92 20 91 21 93 22 90 23 17 24 18 25
REMARK SMILES IDX 19 26 20 27 21 28 22 30 23 31 24 32 88 33 25 34 87 35 26 36
REMARK SMILES IDX 27 37 28 38 81 39 29 40 86 41 80 42 82 43 30 44 85 45 79 46
REMARK SMILES IDX 78 47 31 49 65 50 44 51 64 52 45 53 48 54 63 55 83 56 46 57
REMARK SMILES IDX 47 58 62 60 84 61 49 62 32 63 33 64 42 65 34 66 35 67 41 68
REMARK SMILES IDX 43 69 36 70 37 71 38 72 39 73 40 74 66 75 67 76 76 77 68 78
REMARK SMILES IDX 69 79 75 80 77 81 70 82 71 83 72 84 73 85 74 86 50 87 51 88
REMARK SMILES IDX 60 89 52 90 53 91 59 92 61 93 54 94 55 95 56 96 57 97 58 98
REMARK H PARENT 13 7 5 15 20 29 82 48 48 59
REMARK Flexibility Score: inf
ROOT
ATOM      1  C   UNL A   1      36.784  22.310  24.204  1.00  0.00     0.002 C 
ENDROOT
BRANCH   1   2
ATOM      2  C   UNL A   1      36.441  20.878  24.640  1.00  0.00     0.021 C 
BRANCH   2   3
ATOM      3  C   UNL A   1      35.218  20.796  25.554  1.00  0.00     0.116 C 
BRANCH   3   4
ATOM      4  N   UNL A   1      34.278  19.811  25.066  1.00  0.00    -0.349 N 
ATOM      5  C   UNL A   1      33.009  19.926  24.552  1.00  0.00     0.286 C 
ATOM      6  O   UNL A   1      32.505  18.870  24.158  1.00  0.00    -0.266 OA
ATOM      7  H   UNL A   1      34.609  18.885  25.110  1.00  0.00     0.163 HD
BRANCH   5   8
ATOM      8  C   UNL A   1      32.322  21.204  24.457  1.00  0.00     0.191 A 
ATOM      9  C   UNL A   1      31.189  22.880  25.376  1.00  0.00     0.124 A 
ATOM     10  C   UNL A   1      31.312  23.186  24.042  1.00  0.00     0.048 A 
ATOM     11  O   UNL A   1      31.786  21.683  25.631  1.00  0.00    -0.454 OA
ATOM     12  C   UNL A   1      32.066  22.133  23.461  1.00  0.00     0.056 A 
BRANCH   9  13
ATOM     13  C   UNL A   1      30.554  23.558  26.537  1.00  0.00     0.188 C 
BRANCH  13  14
ATOM     14  N   UNL A   1      31.218  24.782  26.953  1.00  0.00    -0.378 N 
ATOM     15  H   UNL A   1      31.206  24.988  27.917  1.00  0.00     0.161 HD
BRANCH  14  16
ATOM     16  C   UNL A   1      31.861  25.686  26.135  1.00  0.00     0.035 A 
ATOM     17  C   UNL A   1      30.721  28.531  23.848  1.00  0.00     0.045 C 
ATOM     18  C   UNL A   1      31.628  27.551  24.534  1.00  0.00    -0.035 A 
ATOM     19  C   UNL A   1      31.083  26.645  25.463  1.00  0.00     0.030 A 
ATOM     20  C   UNL A   1      33.001  27.485  24.274  1.00  0.00     0.021 A 
ATOM     21  C   UNL A   1      33.795  26.541  24.928  1.00  0.00     0.018 A 
ATOM     22  Br  UNL A   1      33.848  28.639  23.026  1.00  0.00    -0.051 Br
ATOM     23  C   UNL A   1      33.224  25.648  25.842  1.00  0.00     0.027 A 
ENDBRANCH  14  16
ENDBRANCH  13  14
ENDBRANCH   9  13
ENDBRANCH   5   8
ENDBRANCH   3   4
ENDBRANCH   2   3
ENDBRANCH   1   2
BRANCH   1  24
ATOM     24  C   UNL A   1      37.267  23.237  25.327  1.00  0.00     0.002 C 
BRANCH  24  25
ATOM     25  C   UNL A   1      38.492  22.739  26.099  1.00  0.00     0.021 C 
BRANCH  25  26
ATOM     26  C   UNL A   1      39.281  23.837  26.806  1.00  0.00     0.116 C 
BRANCH  26  27
ATOM     27  N   UNL A   1      40.631  23.957  26.277  1.00  0.00    -0.352 N 
ATOM     28  C   UNL A   1      41.545  24.967  26.445  1.00  0.00     0.251 C 
ATOM     29  H   UNL A   1      40.932  23.204  25.718  1.00  0.00     0.163 HD
ATOM     30  O   UNL A   1      42.549  25.006  25.740  1.00  0.00    -0.269 OA
BRANCH  28  31
ATOM     31  C   UNL A   1      41.311  26.011  27.466  1.00  0.00     0.039 A 
ATOM     32  C   UNL A   1      40.293  25.823  28.404  1.00  0.00     0.014 A 
ATOM     33  C   UNL A   1      42.086  27.174  27.490  1.00  0.00     0.014 A 
ATOM     34  C   UNL A   1      40.093  26.777  29.405  1.00  0.00     0.010 A 
ATOM     35  C   UNL A   1      41.931  28.087  28.530  1.00  0.00     0.010 A 
ATOM     36  C   UNL A   1      40.934  27.899  29.498  1.00  0.00    -0.014 A 
BRANCH  36  37
ATOM     37  C   UNL A   1      40.793  28.878  30.606  1.00  0.00     0.031 A 
ATOM     38  C   UNL A   1      41.659  28.768  31.832  1.00  0.00     0.074 A 
ATOM     39  C   UNL A   1      39.838  29.826  30.534  1.00  0.00     0.049 A 
ATOM     40  N   UNL A   1      41.633  29.482  32.927  1.00  0.00    -0.248 NA
ATOM     41  C   UNL A   1      42.669  27.697  31.838  1.00  0.00     0.031 C 
ATOM     42  C   UNL A   1      38.905  30.003  29.419  1.00  0.00     0.029 A 
ATOM     43  N   UNL A   1      39.481  30.810  31.422  1.00  0.00    -0.354 N 
ATOM     44  C   UNL A   1      42.611  28.944  33.755  1.00  0.00     0.074 A 
ATOM     45  C   UNL A   1      43.176  27.809  33.057  1.00  0.00     0.031 C 
ATOM     46  C   UNL A   1      38.099  31.045  29.680  1.00  0.00     0.029 A 
ATOM     47  C   UNL A   1      38.427  31.584  30.995  1.00  0.00     0.049 A 
ATOM     48  H   UNL A   1      39.938  30.950  32.283  1.00  0.00     0.167 HD
ATOM     49  C   UNL A   1      43.016  29.370  34.976  1.00  0.00     0.037 A 
ATOM     50  C   UNL A   1      37.789  32.606  31.600  1.00  0.00     0.037 A 
ATOM     51  C   UNL A   1      42.461  30.512  35.655  1.00  0.00     0.049 A 
ATOM     52  C   UNL A   1      38.251  33.055  32.959  1.00  0.00     0.074 A 
ATOM     53  C   UNL A   1      42.841  31.061  36.867  1.00  0.00     0.029 A 
ATOM     54  N   UNL A   1      41.406  31.281  35.183  1.00  0.00    -0.354 N 
ATOM     55  N   UNL A   1      39.221  32.574  33.701  1.00  0.00    -0.248 NA
ATOM     56  C   UNL A   1      37.537  34.188  33.563  1.00  0.00     0.031 C 
ATOM     57  C   UNL A   1      41.983  32.127  37.153  1.00  0.00     0.029 A 
ATOM     58  C   UNL A   1      41.105  32.282  36.093  1.00  0.00     0.049 A 
ATOM     59  H   UNL A   1      40.940  31.136  34.328  1.00  0.00     0.167 HD
ATOM     60  C   UNL A   1      39.252  33.363  34.845  1.00  0.00     0.074 A 
ATOM     61  C   UNL A   1      38.212  34.359  34.692  1.00  0.00     0.031 C 
ATOM     62  C   UNL A   1      40.068  33.271  35.924  1.00  0.00     0.037 A 
BRANCH  49  63
ATOM     63  C   UNL A   1      44.114  28.598  35.658  1.00  0.00     0.058 A 
ATOM     64  C   UNL A   1      45.469  28.900  35.447  1.00  0.00     0.135 A 
ATOM     65  C   UNL A   1      43.808  27.570  36.564  1.00  0.00     0.135 A 
ATOM     66  F   UNL A   1      45.821  29.863  34.581  1.00  0.00    -0.206 F 
ATOM     67  C   UNL A   1      46.482  28.191  36.086  1.00  0.00     0.059 A 
ATOM     68  C   UNL A   1      44.803  26.868  37.239  1.00  0.00     0.059 A 
ATOM     69  F   UNL A   1      42.530  27.239  36.806  1.00  0.00    -0.206 F 
ATOM     70  C   UNL A   1      46.138  27.176  36.981  1.00  0.00     0.060 A 
BRANCH  70  71
ATOM     71  S   UNL A   1      47.464  26.271  37.807  1.00  0.00     0.124 S 
ATOM     72  O   UNL A   1      46.709  25.278  38.564  1.00  0.00    -0.237 OA
ATOM     73  O   UNL A   1      48.237  25.755  36.681  1.00  0.00    -0.237 OA
ATOM     74  O   UNL A   1      48.130  27.294  38.604  1.00  0.00    -0.744 OA
ENDBRANCH  70  71
ENDBRANCH  49  63
BRANCH  50  75
ATOM     75  C   UNL A   1      36.655  33.281  30.915  1.00  0.00     0.058 A 
ATOM     76  C   UNL A   1      35.332  33.074  31.333  1.00  0.00     0.135 A 
ATOM     77  C   UNL A   1      36.870  34.159  29.840  1.00  0.00     0.135 A 
ATOM     78  F   UNL A   1      35.073  32.241  32.352  1.00  0.00    -0.206 F 
ATOM     79  C   UNL A   1      34.261  33.699  30.701  1.00  0.00     0.059 A 
ATOM     80  C   UNL A   1      35.818  34.815  29.210  1.00  0.00     0.059 A 
ATOM     81  F   UNL A   1      38.119  34.405  29.413  1.00  0.00    -0.206 F 
ATOM     82  C   UNL A   1      34.515  34.571  29.641  1.00  0.00     0.060 A 
BRANCH  82  83
ATOM     83  S   UNL A   1      33.123  35.414  28.860  1.00  0.00     0.124 S 
ATOM     84  O   UNL A   1      33.803  36.433  28.069  1.00  0.00    -0.237 OA
ATOM     85  O   UNL A   1      32.494  34.333  28.106  1.00  0.00    -0.237 OA
ATOM     86  O   UNL A   1      32.351  35.908  29.996  1.00  0.00    -0.744 OA
ENDBRANCH  82  83
ENDBRANCH  50  75
BRANCH  62  87
ATOM     87  C   UNL A   1      39.895  34.294  37.014  1.00  0.00     0.058 A 
ATOM     88  C   UNL A   1      40.472  35.571  36.927  1.00  0.00     0.135 A 
ATOM     89  C   UNL A   1      39.099  34.008  38.135  1.00  0.00     0.135 A 
ATOM     90  F   UNL A   1      41.247  35.894  35.880  1.00  0.00    -0.206 F 
ATOM     91  C   UNL A   1      40.286  36.520  37.927  1.00  0.00     0.059 A 
ATOM     92  C   UNL A   1      38.876  34.953  39.132  1.00  0.00     0.059 A 
ATOM     93  F   UNL A   1      38.517  32.806  38.263  1.00  0.00    -0.206 F 
ATOM     94  C   UNL A   1      39.484  36.203  39.025  1.00  0.00     0.060 A 
BRANCH  94  95
ATOM     95  S   UNL A   1      39.224  37.456  40.298  1.00  0.00     0.124 S 
ATOM     96  O   UNL A   1      38.298  38.365  39.630  1.00  0.00    -0.237 OA
ATOM     97  O   UNL A   1      38.665  36.674  41.395  1.00  0.00    -0.237 OA
ATOM     98  O   UNL A   1      40.564  37.985  40.533  1.00  0.00    -0.744 OA
ENDBRANCH  94  95
ENDBRANCH  62  87
ENDBRANCH  36  37
ENDBRANCH  28  31
ENDBRANCH  26  27
ENDBRANCH  25  26
ENDBRANCH  24  25
ENDBRANCH   1  24
TORSDOF 19
ENDMDL
MODEL 3
REMARK VINA RESULT:     -10.6      3.083      5.378
REMARK SMILES Cc1cc(NCc2ccc(C(=O)NCCCCCCNC(=O)c3ccc(-c4c5nc(c(-c6c(F)cc(S(=O)(=O)[O-])cc6F)c6ccc([nH]6)c(-c6c(F)cc(S(=O)(=O)[O-])cc6F)c6nc(c(-c7c(F)cc(S(=O)(=O)[O-])cc7F)c7ccc4[nH]7)C=C6)C=C5)cc3)o2)ccc1Br
REMARK SMILES IDX 16 1 15 2 14 3 13 4 11 5 12 6 10 8 7 9 8 10 89 11 9 12 6 13
REMARK SMILES IDX 5 14 4 16 1 17 2 18 3 19 92 20 91 21 93 22 90 23 17 24 18 25
REMARK SMILES IDX 19 26 20 27 21 28 22 30 23 31 24 32 88 33 25 34 87 35 26 36
REMARK SMILES IDX 27 37 28 38 81 39 29 40 86 41 80 42 82 43 30 44 85 45 79 46
REMARK SMILES IDX 78 47 31 49 65 50 44 51 64 52 45 53 48 54 63 55 83 56 46 57
REMARK SMILES IDX 47 58 62 60 84 61 49 62 32 63 33 64 42 65 34 66 35 67 41 68
REMARK SMILES IDX 43 69 36 70 37 71 38 72 39 73 40 74 66 75 67 76 76 77 68 78
REMARK SMILES IDX 69 79 75 80 77 81 70 82 71 83 72 84 73 85 74 86 50 87 51 88
REMARK SMILES IDX 60 89 52 90 53 91 59 92 61 93 54 94 55 95 56 96 57 97 58 98
REMARK H PARENT 13 7 5 15 20 29 82 48 48 59
REMARK Flexibility Score: inf
ROOT
ATOM      1  C   UNL A   1      32.747  29.652  27.098  1.00  0.00     0.002 C 
ENDROOT
BRANCH   1   2
ATOM      2  C   UNL A   1      31.853  29.983  25.894  1.00  0.00     0.021 C 
BRANCH   2   3
ATOM      3  C   UNL A   1      32.284  29.286  24.604  1.00  0.00     0.116 C 
BRANCH   3   4
ATOM      4  N   UNL A   1      31.227  29.330  23.618  1.00  0.00    -0.349 N 
ATOM      5  C   UNL A   1      30.772  28.400  22.714  1.00  0.00     0.286 C 
ATOM      6  O   UNL A   1      29.787  28.746  22.057  1.00  0.00    -0.266 OA
ATOM      7  H   UNL A   1      30.742  30.187  23.588  1.00  0.00     0.163 HD
BRANCH   5   8
ATOM      8  C   UNL A   1      31.394  27.095  22.565  1.00  0.00     0.191 A 
ATOM      9  C   UNL A   1      31.446  24.906  22.945  1.00  0.00     0.124 A 
ATOM     10  C   UNL A   1      32.557  25.190  22.187  1.00  0.00     0.048 A 
ATOM     11  O   UNL A   1      30.746  26.050  23.184  1.00  0.00    -0.454 OA
ATOM     12  C   UNL A   1      32.505  26.581  21.914  1.00  0.00     0.056 A 
BRANCH   9  13
ATOM     13  C   UNL A   1      30.889  23.659  23.536  1.00  0.00     0.188 C 
BRANCH  13  14
ATOM     14  N   UNL A   1      31.539  23.237  24.766  1.00  0.00    -0.378 N 
ATOM     15  H   UNL A   1      31.029  23.358  25.600  1.00  0.00     0.161 HD
BRANCH  14  16
ATOM     16  C   UNL A   1      32.798  22.687  24.882  1.00  0.00     0.035 A 
ATOM     17  C   UNL A   1      36.253  24.043  25.802  1.00  0.00     0.045 C 
ATOM     18  C   UNL A   1      35.186  23.082  25.361  1.00  0.00    -0.035 A 
ATOM     19  C   UNL A   1      33.850  23.519  25.300  1.00  0.00     0.030 A 
ATOM     20  C   UNL A   1      35.468  21.764  24.986  1.00  0.00     0.021 A 
ATOM     21  C   UNL A   1      34.440  20.918  24.567  1.00  0.00     0.018 A 
ATOM     22  Br  UNL A   1      37.234  21.065  25.006  1.00  0.00    -0.051 Br
ATOM     23  C   UNL A   1      33.121  21.382  24.509  1.00  0.00     0.027 A 
ENDBRANCH  14  16
ENDBRANCH  13  14
ENDBRANCH   9  13
ENDBRANCH   5   8
ENDBRANCH   3   4
ENDBRANCH   2   3
ENDBRANCH   1   2
BRANCH   1  24
ATOM     24  C   UNL A   1      33.968  28.779  26.782  1.00  0.00     0.002 C 
BRANCH  24  25
ATOM     25  C   UNL A   1      35.202  29.048  27.649  1.00  0.00     0.021 C 
BRANCH  25  26
ATOM     26  C   UNL A   1      35.434  30.521  27.975  1.00  0.00     0.116 C 
BRANCH  26  27
ATOM     27  N   UNL A   1      35.340  30.778  29.404  1.00  0.00    -0.352 N 
ATOM     28  C   UNL A   1      36.279  30.585  30.386  1.00  0.00     0.251 C 
ATOM     29  H   UNL A   1      34.479  31.144  29.710  1.00  0.00     0.163 HD
ATOM     30  O   UNL A   1      35.949  30.643  31.566  1.00  0.00    -0.269 OA
BRANCH  28  31
ATOM     31  C   UNL A   1      37.682  30.296  30.018  1.00  0.00     0.039 A 
ATOM     32  C   UNL A   1      38.530  29.731  30.974  1.00  0.00     0.014 A 
ATOM     33  C   UNL A   1      38.161  30.590  28.737  1.00  0.00     0.014 A 
ATOM     34  C   UNL A   1      39.843  29.405  30.626  1.00  0.00     0.010 A 
ATOM     35  C   UNL A   1      39.447  30.201  28.373  1.00  0.00     0.010 A 
ATOM     36  C   UNL A   1      40.302  29.605  29.312  1.00  0.00    -0.014 A 
BRANCH  36  37
ATOM     37  C   UNL A   1      41.665  29.184  28.900  1.00  0.00     0.031 A 
ATOM     38  C   UNL A   1      42.779  30.192  28.819  1.00  0.00     0.074 A 
ATOM     39  C   UNL A   1      41.881  27.905  28.534  1.00  0.00     0.049 A 
ATOM     40  N   UNL A   1      44.012  30.029  28.413  1.00  0.00    -0.248 NA
ATOM     41  C   UNL A   1      42.459  31.571  29.222  1.00  0.00     0.031 C 
ATOM     42  C   UNL A   1      40.868  26.847  28.524  1.00  0.00     0.029 A 
ATOM     43  N   UNL A   1      43.017  27.279  28.086  1.00  0.00    -0.354 N 
ATOM     44  C   UNL A   1      44.610  31.280  28.501  1.00  0.00     0.074 A 
ATOM     45  C   UNL A   1      43.589  32.204  28.948  1.00  0.00     0.031 C 
ATOM     46  C   UNL A   1      41.434  25.700  28.113  1.00  0.00     0.029 A 
ATOM     47  C   UNL A   1      42.835  25.948  27.791  1.00  0.00     0.049 A 
ATOM     48  H   UNL A   1      43.882  27.739  27.987  1.00  0.00     0.167 HD
ATOM     49  C   UNL A   1      45.897  31.623  28.253  1.00  0.00     0.037 A 
ATOM     50  C   UNL A   1      43.696  25.033  27.303  1.00  0.00     0.037 A 
ATOM     51  C   UNL A   1      46.910  30.693  27.827  1.00  0.00     0.049 A 
ATOM     52  C   UNL A   1      45.117  25.440  27.028  1.00  0.00     0.074 A 
ATOM     53  C   UNL A   1      48.256  30.929  27.604  1.00  0.00     0.029 A 
ATOM     54  N   UNL A   1      46.691  29.350  27.554  1.00  0.00    -0.354 N 
ATOM     55  N   UNL A   1      45.682  26.615  27.178  1.00  0.00    -0.248 NA
ATOM     56  C   UNL A   1      46.021  24.398  26.522  1.00  0.00     0.031 C 
ATOM     57  C   UNL A   1      48.839  29.743  27.149  1.00  0.00     0.029 A 
ATOM     58  C   UNL A   1      47.870  28.752  27.141  1.00  0.00     0.049 A 
ATOM     59  H   UNL A   1      45.825  28.891  27.641  1.00  0.00     0.167 HD
ATOM     60  C   UNL A   1      47.013  26.447  26.812  1.00  0.00     0.074 A 
ATOM     61  C   UNL A   1      47.171  25.054  26.445  1.00  0.00     0.031 C 
ATOM     62  C   UNL A   1      48.013  27.362  26.783  1.00  0.00     0.037 A 
BRANCH  49  63
ATOM     63  C   UNL A   1      46.284  33.067  28.438  1.00  0.00     0.058 A 
ATOM     64  C   UNL A   1      46.210  33.992  27.384  1.00  0.00     0.135 A 
ATOM     65  C   UNL A   1      46.696  33.541  29.694  1.00  0.00     0.135 A 
ATOM     66  F   UNL A   1      45.836  33.592  26.158  1.00  0.00    -0.206 F 
ATOM     67  C   UNL A   1      46.559  35.327  27.560  1.00  0.00     0.059 A 
ATOM     68  C   UNL A   1      47.021  34.879  29.901  1.00  0.00     0.059 A 
ATOM     69  F   UNL A   1      46.785  32.702  30.738  1.00  0.00    -0.206 F 
ATOM     70  C   UNL A   1      46.964  35.761  28.824  1.00  0.00     0.060 A 
BRANCH  70  71
ATOM     71  S   UNL A   1      47.407  37.498  29.036  1.00  0.00     0.124 S 
ATOM     72  O   UNL A   1      47.541  37.935  27.651  1.00  0.00    -0.237 OA
ATOM     73  O   UNL A   1      46.253  38.028  29.758  1.00  0.00    -0.237 OA
ATOM     74  O   UNL A   1      48.648  37.442  29.799  1.00  0.00    -0.744 OA
ENDBRANCH  70  71
ENDBRANCH  49  63
BRANCH  50  75
ATOM     75  C   UNL A   1      43.238  23.638  27.062  1.00  0.00     0.058 A 
ATOM     76  C   UNL A   1      43.148  22.715  28.115  1.00  0.00     0.135 A 
ATOM     77  C   UNL A   1      42.867  23.204  25.779  1.00  0.00     0.135 A 
ATOM     78  F   UNL A   1      43.496  23.080  29.358  1.00  0.00    -0.206 F 
ATOM     79  C   UNL A   1      42.722  21.408  27.904  1.00  0.00     0.059 A 
ATOM     80  C   UNL A   1      42.413  21.910  25.548  1.00  0.00     0.059 A 
ATOM     81  F   UNL A   1      42.919  24.053  24.741  1.00  0.00    -0.206 F 
ATOM     82  C   UNL A   1      42.354  21.015  26.616  1.00  0.00     0.060 A 
BRANCH  82  83
ATOM     83  S   UNL A   1      41.756  19.331  26.361  1.00  0.00     0.124 S 
ATOM     84  O   UNL A   1      42.039  18.720  27.654  1.00  0.00    -0.237 OA
ATOM     85  O   UNL A   1      40.346  19.550  26.051  1.00  0.00    -0.237 OA
ATOM     86  O   UNL A   1      42.568  18.852  25.246  1.00  0.00    -0.744 OA
ENDBRANCH  82  83
ENDBRANCH  50  75
BRANCH  62  87
ATOM     87  C   UNL A   1      49.379  26.883  26.371  1.00  0.00     0.058 A 
ATOM     88  C   UNL A   1      50.190  26.130  27.235  1.00  0.00     0.135 A 
ATOM     89  C   UNL A   1      49.861  27.140  25.077  1.00  0.00     0.135 A 
ATOM     90  F   UNL A   1      49.781  25.862  28.485  1.00  0.00    -0.206 F 
ATOM     91  C   UNL A   1      51.441  25.670  26.838  1.00  0.00     0.059 A 
ATOM     92  C   UNL A   1      51.096  26.664  24.649  1.00  0.00     0.059 A 
ATOM     93  F   UNL A   1      49.122  27.848  24.208  1.00  0.00    -0.206 F 
ATOM     94  C   UNL A   1      51.885  25.939  25.542  1.00  0.00     0.060 A 
BRANCH  94  95
ATOM     95  S   UNL A   1      53.496  25.307  25.029  1.00  0.00     0.124 S 
ATOM     96  O   UNL A   1      53.466  25.557  23.592  1.00  0.00    -0.237 OA
ATOM     97  O   UNL A   1      54.416  26.139  25.798  1.00  0.00    -0.237 OA
ATOM     98  O   UNL A   1      53.452  23.903  25.424  1.00  0.00    -0.744 OA
ENDBRANCH  94  95
ENDBRANCH  62  87
ENDBRANCH  36  37
ENDBRANCH  28  31
ENDBRANCH  26  27
ENDBRANCH  25  26
ENDBRANCH  24  25
ENDBRANCH   1  24
TORSDOF 19
ENDMDL
