MODEL 1
REMARK VINA RESULT:     -11.4      0.000      0.000
REMARK SMILES Cc1c[nH]c(C[N@H+]2C[C@@H]3CN(S(C)(=O)=O)C[C@]3(C(=O)NCCCCCCNC(=O)c3ccc(-c4c5nc(c(-c6c(F)cc(S(=O)(=O)[O-])cc6F)c6ccc([nH]6)c(-c6c(F)cc(S(=O)(=O)[O-])cc6F)c6nc(c(-c7c(F)cc(S(=O)(=O)[O-])cc7F)c7ccc4[nH]7)C=C6)C=C5)cc3)C2)n1
REMARK SMILES IDX 24 1 23 2 22 3 21 4 20 5 18 6 19 7 17 9 7 10 8 11 96 12 9 14
REMARK SMILES IDX 10 15 16 16 11 17 6 18 5 19 1 20 2 21 3 22 97 23 4 24 12 26
REMARK SMILES IDX 13 27 14 28 15 29 25 30 26 31 27 32 28 33 29 35 30 36 31 37
REMARK SMILES IDX 95 38 32 39 94 40 33 41 34 42 35 43 88 44 36 45 93 46 87 47
REMARK SMILES IDX 89 48 37 49 92 50 86 51 85 52 38 54 72 55 51 56 71 57 52 58
REMARK SMILES IDX 55 59 70 60 90 61 53 62 54 63 69 65 91 66 56 67 39 68 40 69
REMARK SMILES IDX 49 70 41 71 42 72 48 73 50 74 43 75 44 76 45 77 46 78 47 79
REMARK SMILES IDX 73 80 74 81 83 82 75 83 76 84 82 85 84 86 77 87 78 88 79 89
REMARK SMILES IDX 80 90 81 91 57 92 58 93 67 94 59 95 60 96 66 97 68 98 61 99
REMARK SMILES IDX 62 100 63 101 64 102 65 103
REMARK H PARENT 20 8 7 13 4 25 27 34 89 53 55 64
REMARK Flexibility Score: inf
ROOT
ATOM      1  C   UNL A   1      38.145  22.047  25.558  1.00  0.00     0.002 C 
ENDROOT
BRANCH   1   2
ATOM      2  C   UNL A   1      37.167  21.529  24.500  1.00  0.00     0.002 C 
BRANCH   2   3
ATOM      3  C   UNL A   1      36.665  22.604  23.540  1.00  0.00     0.021 C 
BRANCH   3   4
ATOM      4  C   UNL A   1      35.163  22.883  23.676  1.00  0.00     0.116 C 
BRANCH   4   5
ATOM      5  N   UNL A   1      34.733  23.759  22.603  1.00  0.00    -0.355 N 
ATOM      6  C   UNL A   1      33.496  24.359  22.485  1.00  0.00     0.233 C 
ATOM      7  O   UNL A   1      33.061  24.558  21.352  1.00  0.00    -0.274 OA
ATOM      8  H   UNL A   1      35.387  23.945  21.891  1.00  0.00     0.163 HD
BRANCH   6   9
ATOM      9  C   UNL A   1      32.773  24.771  23.829  1.00  0.00     0.121 C 
ATOM     10  N   UNL A   1      33.346  27.043  24.795  1.00  0.00    -0.327 N 
ATOM     11  C   UNL A   1      32.089  26.626  25.365  1.00  0.00     0.268 C 
ATOM     12  C   UNL A   1      33.550  26.160  23.624  1.00  0.00     0.281 C 
ATOM     13  H   UNL A   1      34.098  26.949  25.477  1.00  0.00     0.348 HD
ATOM     14  C   UNL A   1      31.537  25.671  24.325  1.00  0.00     0.082 C 
ATOM     15  C   UNL A   1      30.449  24.825  24.985  1.00  0.00     0.113 C 
ATOM     16  C   UNL A   1      31.702  23.695  23.401  1.00  0.00     0.125 C 
ATOM     17  N   UNL A   1      30.820  23.489  24.573  1.00  0.00    -0.200 NA
BRANCH  10  18
ATOM     18  C   UNL A   1      33.406  28.481  24.450  1.00  0.00     0.338 C 
BRANCH  18  19
ATOM     19  C   UNL A   1      33.238  29.430  25.607  1.00  0.00     0.161 A 
ATOM     20  C   UNL A   1      34.414  31.375  28.340  1.00  0.00     0.068 C 
ATOM     21  C   UNL A   1      33.610  30.752  27.267  1.00  0.00     0.056 A 
ATOM     22  C   UNL A   1      32.356  31.078  26.800  1.00  0.00     0.107 A 
ATOM     23  N   UNL A   1      34.123  29.705  26.544  1.00  0.00    -0.233 NA
ATOM     24  N   UNL A   1      32.120  30.212  25.768  1.00  0.00    -0.344 N 
ATOM     25  H   UNL A   1      31.294  30.159  25.233  1.00  0.00     0.167 HD
ENDBRANCH  18  19
ENDBRANCH  10  18
BRANCH  17  26
ATOM     26  S   UNL A   1      31.181  22.350  25.763  1.00  0.00     0.211 S 
ATOM     27  C   UNL A   1      32.229  23.221  26.927  1.00  0.00     0.176 C 
ATOM     28  O   UNL A   1      29.949  22.049  26.455  1.00  0.00    -0.213 OA
ATOM     29  O   UNL A   1      31.976  21.305  25.150  1.00  0.00    -0.213 OA
ENDBRANCH  17  26
ENDBRANCH   6   9
ENDBRANCH   4   5
ENDBRANCH   3   4
ENDBRANCH   2   3
ENDBRANCH   1   2
BRANCH   1  30
ATOM     30  C   UNL A   1      37.584  23.144  26.471  1.00  0.00     0.021 C 
BRANCH  30  31
ATOM     31  C   UNL A   1      38.350  24.463  26.406  1.00  0.00     0.116 C 
BRANCH  31  32
ATOM     32  N   UNL A   1      39.757  24.234  26.118  1.00  0.00    -0.352 N 
ATOM     33  C   UNL A   1      40.850  24.971  26.486  1.00  0.00     0.251 C 
ATOM     34  H   UNL A   1      39.950  23.433  25.579  1.00  0.00     0.163 HD
ATOM     35  O   UNL A   1      41.913  24.821  25.891  1.00  0.00    -0.269 OA
BRANCH  33  36
ATOM     36  C   UNL A   1      40.747  25.933  27.602  1.00  0.00     0.039 A 
ATOM     37  C   UNL A   1      39.775  25.729  28.583  1.00  0.00     0.014 A 
ATOM     38  C   UNL A   1      41.573  27.061  27.653  1.00  0.00     0.014 A 
ATOM     39  C   UNL A   1      39.649  26.645  29.627  1.00  0.00     0.010 A 
ATOM     40  C   UNL A   1      41.502  27.925  28.739  1.00  0.00     0.010 A 
ATOM     41  C   UNL A   1      40.522  27.741  29.724  1.00  0.00    -0.014 A 
BRANCH  41  42
ATOM     42  C   UNL A   1      40.399  28.716  30.836  1.00  0.00     0.031 A 
ATOM     43  C   UNL A   1      41.276  28.591  32.052  1.00  0.00     0.074 A 
ATOM     44  C   UNL A   1      39.475  29.693  30.759  1.00  0.00     0.049 A 
ATOM     45  N   UNL A   1      41.311  29.339  33.125  1.00  0.00    -0.248 NA
ATOM     46  C   UNL A   1      42.223  27.464  32.080  1.00  0.00     0.031 C 
ATOM     47  C   UNL A   1      38.535  29.881  29.651  1.00  0.00     0.029 A 
ATOM     48  N   UNL A   1      39.173  30.712  31.626  1.00  0.00    -0.354 N 
ATOM     49  C   UNL A   1      42.271  28.770  33.954  1.00  0.00     0.074 A 
ATOM     50  C   UNL A   1      42.752  27.581  33.289  1.00  0.00     0.031 C 
ATOM     51  C   UNL A   1      37.784  30.968  29.891  1.00  0.00     0.029 A 
ATOM     52  C   UNL A   1      38.160  31.529  31.184  1.00  0.00     0.049 A 
ATOM     53  H   UNL A   1      39.638  30.844  32.483  1.00  0.00     0.167 HD
ATOM     54  C   UNL A   1      42.730  29.216  35.149  1.00  0.00     0.037 A 
ATOM     55  C   UNL A   1      37.595  32.609  31.761  1.00  0.00     0.037 A 
ATOM     56  C   UNL A   1      42.252  30.411  35.794  1.00  0.00     0.049 A 
ATOM     57  C   UNL A   1      38.117  33.080  33.091  1.00  0.00     0.074 A 
ATOM     58  C   UNL A   1      42.685  30.981  36.978  1.00  0.00     0.029 A 
ATOM     59  N   UNL A   1      41.231  31.219  35.312  1.00  0.00    -0.354 N 
ATOM     60  N   UNL A   1      39.076  32.572  33.828  1.00  0.00    -0.248 NA
ATOM     61  C   UNL A   1      37.488  34.278  33.663  1.00  0.00     0.031 C 
ATOM     62  C   UNL A   1      41.888  32.099  37.242  1.00  0.00     0.029 A 
ATOM     63  C   UNL A   1      41.002  32.267  36.189  1.00  0.00     0.049 A 
ATOM     64  H   UNL A   1      40.741  31.069  34.472  1.00  0.00     0.167 HD
ATOM     65  C   UNL A   1      39.187  33.406  34.936  1.00  0.00     0.074 A 
ATOM     66  C   UNL A   1      38.206  34.458  34.762  1.00  0.00     0.031 C 
ATOM     67  C   UNL A   1      40.023  33.311  35.999  1.00  0.00     0.037 A 
BRANCH  54  68
ATOM     68  C   UNL A   1      43.799  28.406  35.834  1.00  0.00     0.058 A 
ATOM     69  C   UNL A   1      45.165  28.653  35.622  1.00  0.00     0.135 A 
ATOM     70  C   UNL A   1      43.456  27.395  36.746  1.00  0.00     0.135 A 
ATOM     71  F   UNL A   1      45.555  29.597  34.751  1.00  0.00    -0.206 F 
ATOM     72  C   UNL A   1      46.150  27.907  36.262  1.00  0.00     0.059 A 
ATOM     73  C   UNL A   1      44.424  26.658  37.422  1.00  0.00     0.059 A 
ATOM     74  F   UNL A   1      42.165  27.114  36.990  1.00  0.00    -0.206 F 
ATOM     75  C   UNL A   1      45.768  26.912  37.163  1.00  0.00     0.060 A 
BRANCH  75  76
ATOM     76  S   UNL A   1      47.061  25.963  37.993  1.00  0.00     0.124 S 
ATOM     77  O   UNL A   1      46.680  24.595  37.656  1.00  0.00    -0.237 OA
ATOM     78  O   UNL A   1      48.273  26.459  37.350  1.00  0.00    -0.237 OA
ATOM     79  O   UNL A   1      46.904  26.329  39.398  1.00  0.00    -0.744 OA
ENDBRANCH  75  76
ENDBRANCH  54  68
BRANCH  55  80
ATOM     80  C   UNL A   1      36.490  33.327  31.068  1.00  0.00     0.058 A 
ATOM     81  C   UNL A   1      36.731  34.096  29.920  1.00  0.00     0.135 A 
ATOM     82  C   UNL A   1      35.168  33.249  31.535  1.00  0.00     0.135 A 
ATOM     83  F   UNL A   1      37.980  34.206  29.437  1.00  0.00    -0.206 F 
ATOM     84  C   UNL A   1      35.709  34.778  29.270  1.00  0.00     0.059 A 
ATOM     85  C   UNL A   1      34.123  33.897  30.884  1.00  0.00     0.059 A 
ATOM     86  F   UNL A   1      34.878  32.512  32.618  1.00  0.00    -0.206 F 
ATOM     87  C   UNL A   1      34.405  34.669  29.758  1.00  0.00     0.060 A 
BRANCH  87  88
ATOM     88  S   UNL A   1      33.077  35.522  28.880  1.00  0.00     0.124 S 
ATOM     89  O   UNL A   1      32.468  34.427  28.133  1.00  0.00    -0.237 OA
ATOM     90  O   UNL A   1      32.285  36.064  29.979  1.00  0.00    -0.237 OA
ATOM     91  O   UNL A   1      33.787  36.515  28.080  1.00  0.00    -0.744 OA
ENDBRANCH  87  88
ENDBRANCH  55  80
BRANCH  67  92
ATOM     92  C   UNL A   1      39.948  34.396  37.039  1.00  0.00     0.058 A 
ATOM     93  C   UNL A   1      40.734  35.557  36.960  1.00  0.00     0.135 A 
ATOM     94  C   UNL A   1      39.046  34.288  38.111  1.00  0.00     0.135 A 
ATOM     95  F   UNL A   1      41.615  35.710  35.959  1.00  0.00    -0.206 F 
ATOM     96  C   UNL A   1      40.653  36.556  37.925  1.00  0.00     0.059 A 
ATOM     97  C   UNL A   1      38.924  35.290  39.068  1.00  0.00     0.059 A 
ATOM     98  F   UNL A   1      38.261  33.205  38.229  1.00  0.00    -0.206 F 
ATOM     99  C   UNL A   1      39.743  36.413  38.975  1.00  0.00     0.060 A 
BRANCH  99 100
ATOM    100  S   UNL A   1      39.636  37.726  40.210  1.00  0.00     0.124 S 
ATOM    101  O   UNL A   1      39.256  36.977  41.403  1.00  0.00    -0.237 OA
ATOM    102  O   UNL A   1      40.990  38.270  40.206  1.00  0.00    -0.237 OA
ATOM    103  O   UNL A   1      38.608  38.614  39.674  1.00  0.00    -0.744 OA
ENDBRANCH  99 100
ENDBRANCH  67  92
ENDBRANCH  41  42
ENDBRANCH  33  36
ENDBRANCH  31  32
ENDBRANCH  30  31
ENDBRANCH   1  30
TORSDOF 19
ENDMDL
MODEL 2
REMARK VINA RESULT:     -11.3      1.363      2.149
REMARK SMILES Cc1c[nH]c(C[N@H+]2C[C@@H]3CN(S(C)(=O)=O)C[C@]3(C(=O)NCCCCCCNC(=O)c3ccc(-c4c5nc(c(-c6c(F)cc(S(=O)(=O)[O-])cc6F)c6ccc([nH]6)c(-c6c(F)cc(S(=O)(=O)[O-])cc6F)c6nc(c(-c7c(F)cc(S(=O)(=O)[O-])cc7F)c7ccc4[nH]7)C=C6)C=C5)cc3)C2)n1
REMARK SMILES IDX 24 1 23 2 22 3 21 4 20 5 18 6 19 7 17 9 7 10 8 11 96 12 9 14
REMARK SMILES IDX 10 15 16 16 11 17 6 18 5 19 1 20 2 21 3 22 97 23 4 24 12 26
REMARK SMILES IDX 13 27 14 28 15 29 25 30 26 31 27 32 28 33 29 35 30 36 31 37
REMARK SMILES IDX 95 38 32 39 94 40 33 41 34 42 35 43 88 44 36 45 93 46 87 47
REMARK SMILES IDX 89 48 37 49 92 50 86 51 85 52 38 54 72 55 51 56 71 57 52 58
REMARK SMILES IDX 55 59 70 60 90 61 53 62 54 63 69 65 91 66 56 67 39 68 40 69
REMARK SMILES IDX 49 70 41 71 42 72 48 73 50 74 43 75 44 76 45 77 46 78 47 79
REMARK SMILES IDX 73 80 74 81 83 82 75 83 76 84 82 85 84 86 77 87 78 88 79 89
REMARK SMILES IDX 80 90 81 91 57 92 58 93 67 94 59 95 60 96 66 97 68 98 61 99
REMARK SMILES IDX 62 100 63 101 64 102 65 103
REMARK H PARENT 20 8 7 13 4 25 27 34 89 53 55 64
REMARK Flexibility Score: inf
ROOT
ATOM      1  C   UNL A   1      38.298  21.976  25.722  1.00  0.00     0.002 C 
ENDROOT
BRANCH   1   2
ATOM      2  C   UNL A   1      37.093  22.015  24.778  1.00  0.00     0.002 C 
BRANCH   2   3
ATOM      3  C   UNL A   1      35.764  22.285  25.478  1.00  0.00     0.021 C 
BRANCH   3   4
ATOM      4  C   UNL A   1      35.269  23.726  25.304  1.00  0.00     0.116 C 
BRANCH   4   5
ATOM      5  N   UNL A   1      35.152  24.031  23.891  1.00  0.00    -0.355 N 
ATOM      6  C   UNL A   1      33.979  24.261  23.201  1.00  0.00     0.233 C 
ATOM      7  O   UNL A   1      33.937  23.931  22.016  1.00  0.00    -0.274 OA
ATOM      8  H   UNL A   1      35.989  24.080  23.375  1.00  0.00     0.163 HD
BRANCH   6   9
ATOM      9  C   UNL A   1      32.812  24.970  23.996  1.00  0.00     0.121 C 
ATOM     10  N   UNL A   1      32.628  27.487  23.773  1.00  0.00    -0.327 N 
ATOM     11  C   UNL A   1      31.354  26.992  24.234  1.00  0.00     0.268 C 
ATOM     12  C   UNL A   1      33.345  26.295  23.265  1.00  0.00     0.281 C 
ATOM     13  H   UNL A   1      33.134  27.940  24.533  1.00  0.00     0.348 HD
ATOM     14  C   UNL A   1      31.339  25.560  23.736  1.00  0.00     0.082 C 
ATOM     15  C   UNL A   1      30.275  24.794  24.520  1.00  0.00     0.113 C 
ATOM     16  C   UNL A   1      32.144  23.541  23.980  1.00  0.00     0.125 C 
ATOM     17  N   UNL A   1      30.994  23.602  24.913  1.00  0.00    -0.200 NA
BRANCH  10  18
ATOM     18  C   UNL A   1      32.527  28.569  22.768  1.00  0.00     0.338 C 
BRANCH  18  19
ATOM     19  C   UNL A   1      31.224  29.324  22.762  1.00  0.00     0.161 A 
ATOM     20  C   UNL A   1      27.989  30.103  21.511  1.00  0.00     0.068 C 
ATOM     21  C   UNL A   1      29.229  30.002  22.309  1.00  0.00     0.056 A 
ATOM     22  C   UNL A   1      29.499  30.451  23.583  1.00  0.00     0.107 A 
ATOM     23  N   UNL A   1      30.320  29.342  21.802  1.00  0.00    -0.233 NA
ATOM     24  N   UNL A   1      30.778  30.042  23.846  1.00  0.00    -0.344 N 
ATOM     25  H   UNL A   1      31.289  30.228  24.667  1.00  0.00     0.167 HD
ENDBRANCH  18  19
ENDBRANCH  10  18
BRANCH  17  26
ATOM     26  S   UNL A   1      31.170  23.272  26.557  1.00  0.00     0.211 S 
ATOM     27  C   UNL A   1      29.593  22.582  27.057  1.00  0.00     0.176 C 
ATOM     28  O   UNL A   1      32.145  22.213  26.678  1.00  0.00    -0.213 OA
ATOM     29  O   UNL A   1      31.338  24.534  27.248  1.00  0.00    -0.213 OA
ENDBRANCH  17  26
ENDBRANCH   6   9
ENDBRANCH   4   5
ENDBRANCH   3   4
ENDBRANCH   2   3
ENDBRANCH   1   2
BRANCH   1  30
ATOM     30  C   UNL A   1      38.690  23.330  26.324  1.00  0.00     0.021 C 
BRANCH  30  31
ATOM     31  C   UNL A   1      40.050  23.337  27.014  1.00  0.00     0.116 C 
BRANCH  31  32
ATOM     32  N   UNL A   1      41.072  23.897  26.144  1.00  0.00    -0.352 N 
ATOM     33  C   UNL A   1      41.572  25.171  26.098  1.00  0.00     0.251 C 
ATOM     34  H   UNL A   1      41.461  23.268  25.494  1.00  0.00     0.163 HD
ATOM     35  O   UNL A   1      42.181  25.549  25.103  1.00  0.00    -0.269 OA
BRANCH  33  36
ATOM     36  C   UNL A   1      41.384  26.076  27.249  1.00  0.00     0.039 A 
ATOM     37  C   UNL A   1      40.365  25.805  28.164  1.00  0.00     0.014 A 
ATOM     38  C   UNL A   1      42.177  27.219  27.398  1.00  0.00     0.014 A 
ATOM     39  C   UNL A   1      40.159  26.668  29.241  1.00  0.00     0.010 A 
ATOM     40  C   UNL A   1      42.025  28.030  28.516  1.00  0.00     0.010 A 
ATOM     41  C   UNL A   1      40.998  27.778  29.436  1.00  0.00    -0.014 A 
BRANCH  41  42
ATOM     42  C   UNL A   1      40.789  28.697  30.582  1.00  0.00     0.031 A 
ATOM     43  C   UNL A   1      41.625  28.556  31.826  1.00  0.00     0.074 A 
ATOM     44  C   UNL A   1      39.826  29.635  30.510  1.00  0.00     0.049 A 
ATOM     45  N   UNL A   1      41.586  29.256  32.931  1.00  0.00    -0.248 NA
ATOM     46  C   UNL A   1      42.619  27.470  31.843  1.00  0.00     0.031 C 
ATOM     47  C   UNL A   1      38.921  29.832  29.375  1.00  0.00     0.029 A 
ATOM     48  N   UNL A   1      39.447  30.601  31.408  1.00  0.00    -0.354 N 
ATOM     49  C   UNL A   1      42.538  28.693  33.772  1.00  0.00     0.074 A 
ATOM     50  C   UNL A   1      43.097  27.556  33.076  1.00  0.00     0.031 C 
ATOM     51  C   UNL A   1      38.114  30.874  29.632  1.00  0.00     0.029 A 
ATOM     52  C   UNL A   1      38.415  31.393  30.961  1.00  0.00     0.049 A 
ATOM     53  H   UNL A   1      39.872  30.715  32.288  1.00  0.00     0.167 HD
ATOM     54  C   UNL A   1      42.932  29.105  35.001  1.00  0.00     0.037 A 
ATOM     55  C   UNL A   1      37.781  32.420  31.560  1.00  0.00     0.037 A 
ATOM     56  C   UNL A   1      42.377  30.249  35.677  1.00  0.00     0.049 A 
ATOM     57  C   UNL A   1      38.231  32.854  32.929  1.00  0.00     0.074 A 
ATOM     58  C   UNL A   1      42.739  30.784  36.901  1.00  0.00     0.029 A 
ATOM     59  N   UNL A   1      41.340  31.033  35.191  1.00  0.00    -0.354 N 
ATOM     60  N   UNL A   1      39.184  32.356  33.681  1.00  0.00    -0.248 NA
ATOM     61  C   UNL A   1      37.528  33.998  33.526  1.00  0.00     0.031 C 
ATOM     62  C   UNL A   1      41.884  31.854  37.181  1.00  0.00     0.029 A 
ATOM     63  C   UNL A   1      41.031  32.030  36.102  1.00  0.00     0.049 A 
ATOM     64  H   UNL A   1      40.889  30.899  34.326  1.00  0.00     0.167 HD
ATOM     65  C   UNL A   1      39.215  33.144  34.827  1.00  0.00     0.074 A 
ATOM     66  C   UNL A   1      38.196  34.160  34.659  1.00  0.00     0.031 C 
ATOM     67  C   UNL A   1      40.015  33.038  35.918  1.00  0.00     0.037 A 
BRANCH  54  68
ATOM     68  C   UNL A   1      44.009  28.313  35.694  1.00  0.00     0.058 A 
ATOM     69  C   UNL A   1      43.706  27.258  36.570  1.00  0.00     0.135 A 
ATOM     70  C   UNL A   1      45.365  28.585  35.450  1.00  0.00     0.135 A 
ATOM     71  F   UNL A   1      42.428  26.960  36.855  1.00  0.00    -0.206 F 
ATOM     72  C   UNL A   1      44.705  26.525  37.204  1.00  0.00     0.059 A 
ATOM     73  C   UNL A   1      46.381  27.843  36.046  1.00  0.00     0.059 A 
ATOM     74  F   UNL A   1      45.716  29.581  34.620  1.00  0.00    -0.206 F 
ATOM     75  C   UNL A   1      46.040  26.824  36.932  1.00  0.00     0.060 A 
BRANCH  75  76
ATOM     76  S   UNL A   1      47.323  25.853  37.754  1.00  0.00     0.124 S 
ATOM     77  O   UNL A   1      46.768  25.715  39.097  1.00  0.00    -0.237 OA
ATOM     78  O   UNL A   1      47.352  24.635  36.952  1.00  0.00    -0.237 OA
ATOM     79  O   UNL A   1      48.509  26.698  37.650  1.00  0.00    -0.744 OA
ENDBRANCH  75  76
ENDBRANCH  54  68
BRANCH  55  80
ATOM     80  C   UNL A   1      36.672  33.120  30.856  1.00  0.00     0.058 A 
ATOM     81  C   UNL A   1      35.333  32.893  31.205  1.00  0.00     0.135 A 
ATOM     82  C   UNL A   1      36.931  34.040  29.827  1.00  0.00     0.135 A 
ATOM     83  F   UNL A   1      35.033  32.019  32.180  1.00  0.00    -0.206 F 
ATOM     84  C   UNL A   1      34.289  33.535  30.549  1.00  0.00     0.059 A 
ATOM     85  C   UNL A   1      35.905  34.718  29.176  1.00  0.00     0.059 A 
ATOM     86  F   UNL A   1      38.195  34.309  29.466  1.00  0.00    -0.206 F 
ATOM     87  C   UNL A   1      34.585  34.450  29.537  1.00  0.00     0.060 A 
BRANCH  87  88
ATOM     88  S   UNL A   1      33.224  35.312  28.722  1.00  0.00     0.124 S 
ATOM     89  O   UNL A   1      32.502  35.866  29.861  1.00  0.00    -0.237 OA
ATOM     90  O   UNL A   1      33.932  36.275  27.884  1.00  0.00    -0.237 OA
ATOM     91  O   UNL A   1      32.538  34.247  27.996  1.00  0.00    -0.744 OA
ENDBRANCH  87  88
ENDBRANCH  55  80
BRANCH  67  92
ATOM     92  C   UNL A   1      39.852  34.072  36.999  1.00  0.00     0.058 A 
ATOM     93  C   UNL A   1      40.462  35.334  36.918  1.00  0.00     0.135 A 
ATOM     94  C   UNL A   1      39.039  33.808  38.114  1.00  0.00     0.135 A 
ATOM     95  F   UNL A   1      41.253  35.638  35.877  1.00  0.00    -0.206 F 
ATOM     96  C   UNL A   1      40.302  36.284  37.923  1.00  0.00     0.059 A 
ATOM     97  C   UNL A   1      38.837  34.756  39.113  1.00  0.00     0.059 A 
ATOM     98  F   UNL A   1      38.421  32.623  38.236  1.00  0.00    -0.206 F 
ATOM     99  C   UNL A   1      39.485  35.985  39.015  1.00  0.00     0.060 A 
BRANCH  99 100
ATOM    100  S   UNL A   1      39.271  37.234  40.301  1.00  0.00     0.124 S 
ATOM    101  O   UNL A   1      38.526  36.490  41.311  1.00  0.00    -0.237 OA
ATOM    102  O   UNL A   1      40.649  37.567  40.645  1.00  0.00    -0.237 OA
ATOM    103  O   UNL A   1      38.526  38.293  39.626  1.00  0.00    -0.744 OA
ENDBRANCH  99 100
ENDBRANCH  67  92
ENDBRANCH  41  42
ENDBRANCH  33  36
ENDBRANCH  31  32
ENDBRANCH  30  31
ENDBRANCH   1  30
TORSDOF 19
ENDMDL
MODEL 3
REMARK VINA RESULT:     -11.2      2.060      4.291
REMARK SMILES Cc1c[nH]c(C[N@H+]2C[C@@H]3CN(S(C)(=O)=O)C[C@]3(C(=O)NCCCCCCNC(=O)c3ccc(-c4c5nc(c(-c6c(F)cc(S(=O)(=O)[O-])cc6F)c6ccc([nH]6)c(-c6c(F)cc(S(=O)(=O)[O-])cc6F)c6nc(c(-c7c(F)cc(S(=O)(=O)[O-])cc7F)c7ccc4[nH]7)C=C6)C=C5)cc3)C2)n1
REMARK SMILES IDX 24 1 23 2 22 3 21 4 20 5 18 6 19 7 17 9 7 10 8 11 96 12 9 14
REMARK SMILES IDX 10 15 16 16 11 17 6 18 5 19 1 20 2 21 3 22 97 23 4 24 12 26
REMARK SMILES IDX 13 27 14 28 15 29 25 30 26 31 27 32 28 33 29 35 30 36 31 37
REMARK SMILES IDX 95 38 32 39 94 40 33 41 34 42 35 43 88 44 36 45 93 46 87 47
REMARK SMILES IDX 89 48 37 49 92 50 86 51 85 52 38 54 72 55 51 56 71 57 52 58
REMARK SMILES IDX 55 59 70 60 90 61 53 62 54 63 69 65 91 66 56 67 39 68 40 69
REMARK SMILES IDX 49 70 41 71 42 72 48 73 50 74 43 75 44 76 45 77 46 78 47 79
REMARK SMILES IDX 73 80 74 81 83 82 75 83 76 84 82 85 84 86 77 87 78 88 79 89
REMARK SMILES IDX 80 90 81 91 57 92 58 93 67 94 59 95 60 96 66 97 68 98 61 99
REMARK SMILES IDX 62 100 63 101 64 102 65 103
REMARK H PARENT 20 8 7 13 4 25 27 34 89 53 55 64
REMARK Flexibility Score: inf
ROOT
ATOM      1  C   UNL A   1      39.404  21.149  25.947  1.00  0.00     0.002 C 
ENDROOT
BRANCH   1   2
ATOM      2  C   UNL A   1      38.272  22.111  25.571  1.00  0.00     0.002 C 
BRANCH   2   3
ATOM      3  C   UNL A   1      36.878  21.500  25.677  1.00  0.00     0.021 C 
BRANCH   3   4
ATOM      4  C   UNL A   1      35.820  22.490  26.180  1.00  0.00     0.116 C 
BRANCH   4   5
ATOM      5  N   UNL A   1      34.739  21.763  26.817  1.00  0.00    -0.355 N 
ATOM      6  C   UNL A   1      33.399  21.853  26.503  1.00  0.00     0.233 C 
ATOM      7  O   UNL A   1      32.584  21.689  27.410  1.00  0.00    -0.274 OA
ATOM      8  H   UNL A   1      34.985  21.145  27.543  1.00  0.00     0.163 HD
BRANCH   6   9
ATOM      9  C   UNL A   1      33.039  22.118  24.986  1.00  0.00     0.121 C 
ATOM     10  N   UNL A   1      32.864  20.094  23.473  1.00  0.00    -0.327 N 
ATOM     11  C   UNL A   1      32.158  21.180  22.839  1.00  0.00     0.268 C 
ATOM     12  C   UNL A   1      33.040  20.517  24.880  1.00  0.00     0.281 C 
ATOM     13  H   UNL A   1      33.758  19.928  23.011  1.00  0.00     0.348 HD
ATOM     14  C   UNL A   1      31.767  22.065  24.005  1.00  0.00     0.082 C 
ATOM     15  C   UNL A   1      31.416  23.447  23.458  1.00  0.00     0.113 C 
ATOM     16  C   UNL A   1      32.454  23.480  25.526  1.00  0.00     0.125 C 
ATOM     17  N   UNL A   1      32.167  24.317  24.336  1.00  0.00    -0.200 NA
BRANCH  10  18
ATOM     18  C   UNL A   1      32.192  18.781  23.346  1.00  0.00     0.338 C 
BRANCH  18  19
ATOM     19  C   UNL A   1      32.835  17.651  24.106  1.00  0.00     0.161 A 
ATOM     20  C   UNL A   1      35.608  15.831  25.385  1.00  0.00     0.068 C 
ATOM     21  C   UNL A   1      34.262  16.355  25.069  1.00  0.00     0.056 A 
ATOM     22  C   UNL A   1      33.045  16.070  25.646  1.00  0.00     0.107 A 
ATOM     23  N   UNL A   1      34.108  17.306  24.092  1.00  0.00    -0.233 NA
ATOM     24  N   UNL A   1      32.144  16.875  25.005  1.00  0.00    -0.344 N 
ATOM     25  H   UNL A   1      31.172  16.895  25.161  1.00  0.00     0.167 HD
ENDBRANCH  18  19
ENDBRANCH  10  18
BRANCH  17  26
ATOM     26  S   UNL A   1      33.337  25.327  23.663  1.00  0.00     0.211 S 
ATOM     27  C   UNL A   1      34.456  25.695  25.014  1.00  0.00     0.176 C 
ATOM     28  O   UNL A   1      34.082  24.541  22.707  1.00  0.00    -0.213 OA
ATOM     29  O   UNL A   1      32.687  26.564  23.279  1.00  0.00    -0.213 OA
ENDBRANCH  17  26
ENDBRANCH   6   9
ENDBRANCH   4   5
ENDBRANCH   3   4
ENDBRANCH   2   3
ENDBRANCH   1   2
BRANCH   1  30
ATOM     30  C   UNL A   1      40.398  21.696  26.977  1.00  0.00     0.021 C 
BRANCH  30  31
ATOM     31  C   UNL A   1      40.347  23.212  27.152  1.00  0.00     0.116 C 
BRANCH  31  32
ATOM     32  N   UNL A   1      41.185  23.877  26.167  1.00  0.00    -0.352 N 
ATOM     33  C   UNL A   1      41.503  25.203  26.050  1.00  0.00     0.251 C 
ATOM     34  H   UNL A   1      41.580  23.287  25.484  1.00  0.00     0.163 HD
ATOM     35  O   UNL A   1      41.945  25.632  24.988  1.00  0.00    -0.269 OA
BRANCH  33  36
ATOM     36  C   UNL A   1      41.323  26.107  27.204  1.00  0.00     0.039 A 
ATOM     37  C   UNL A   1      40.269  25.872  28.089  1.00  0.00     0.014 A 
ATOM     38  C   UNL A   1      42.161  27.213  27.385  1.00  0.00     0.014 A 
ATOM     39  C   UNL A   1      40.071  26.734  29.167  1.00  0.00     0.010 A 
ATOM     40  C   UNL A   1      42.013  28.020  28.506  1.00  0.00     0.010 A 
ATOM     41  C   UNL A   1      40.951  27.806  29.395  1.00  0.00    -0.014 A 
BRANCH  41  42
ATOM     42  C   UNL A   1      40.751  28.723  30.544  1.00  0.00     0.031 A 
ATOM     43  C   UNL A   1      41.594  28.579  31.783  1.00  0.00     0.074 A 
ATOM     44  C   UNL A   1      39.789  29.664  30.480  1.00  0.00     0.049 A 
ATOM     45  N   UNL A   1      41.564  29.278  32.888  1.00  0.00    -0.248 NA
ATOM     46  C   UNL A   1      42.588  27.492  31.792  1.00  0.00     0.031 C 
ATOM     47  C   UNL A   1      38.877  29.863  29.351  1.00  0.00     0.029 A 
ATOM     48  N   UNL A   1      39.417  30.628  31.380  1.00  0.00    -0.354 N 
ATOM     49  C   UNL A   1      42.521  28.713  33.723  1.00  0.00     0.074 A 
ATOM     50  C   UNL A   1      43.073  27.576  33.022  1.00  0.00     0.031 C 
ATOM     51  C   UNL A   1      38.073  30.906  29.613  1.00  0.00     0.029 A 
ATOM     52  C   UNL A   1      38.384  31.422  30.942  1.00  0.00     0.049 A 
ATOM     53  H   UNL A   1      39.848  30.741  32.258  1.00  0.00     0.167 HD
ATOM     54  C   UNL A   1      42.922  29.122  34.950  1.00  0.00     0.037 A 
ATOM     55  C   UNL A   1      37.755  32.450  31.546  1.00  0.00     0.037 A 
ATOM     56  C   UNL A   1      42.374  30.267  35.631  1.00  0.00     0.049 A 
ATOM     57  C   UNL A   1      38.214  32.882  32.913  1.00  0.00     0.074 A 
ATOM     58  C   UNL A   1      42.744  30.799  36.853  1.00  0.00     0.029 A 
ATOM     59  N   UNL A   1      41.335  31.052  35.152  1.00  0.00    -0.354 N 
ATOM     60  N   UNL A   1      39.171  32.381  33.658  1.00  0.00    -0.248 NA
ATOM     61  C   UNL A   1      37.517  34.025  33.515  1.00  0.00     0.031 C 
ATOM     62  C   UNL A   1      41.892  31.870  37.139  1.00  0.00     0.029 A 
ATOM     63  C   UNL A   1      41.034  32.049  36.066  1.00  0.00     0.049 A 
ATOM     64  H   UNL A   1      40.878  30.921  34.290  1.00  0.00     0.167 HD
ATOM     65  C   UNL A   1      39.211  33.167  34.804  1.00  0.00     0.074 A 
ATOM     66  C   UNL A   1      38.192  34.185  34.645  1.00  0.00     0.031 C 
ATOM     67  C   UNL A   1      40.017  33.059  35.890  1.00  0.00     0.037 A 
BRANCH  54  68
ATOM     68  C   UNL A   1      44.003  28.328  35.635  1.00  0.00     0.058 A 
ATOM     69  C   UNL A   1      45.366  28.602  35.430  1.00  0.00     0.135 A 
ATOM     70  C   UNL A   1      43.674  27.303  36.537  1.00  0.00     0.135 A 
ATOM     71  F   UNL A   1      45.742  29.560  34.568  1.00  0.00    -0.206 F 
ATOM     72  C   UNL A   1      46.361  27.869  36.069  1.00  0.00     0.059 A 
ATOM     73  C   UNL A   1      44.653  26.579  37.212  1.00  0.00     0.059 A 
ATOM     74  F   UNL A   1      42.389  26.997  36.773  1.00  0.00    -0.206 F 
ATOM     75  C   UNL A   1      45.994  26.861  36.961  1.00  0.00     0.060 A 
BRANCH  75  76
ATOM     76  S   UNL A   1      47.300  25.929  37.790  1.00  0.00     0.124 S 
ATOM     77  O   UNL A   1      47.005  26.199  39.194  1.00  0.00    -0.237 OA
ATOM     78  O   UNL A   1      47.043  24.565  37.339  1.00  0.00    -0.237 OA
ATOM     79  O   UNL A   1      48.527  26.534  37.281  1.00  0.00    -0.744 OA
ENDBRANCH  75  76
ENDBRANCH  54  68
BRANCH  55  80
ATOM     80  C   UNL A   1      36.643  33.153  30.850  1.00  0.00     0.058 A 
ATOM     81  C   UNL A   1      35.305  32.925  31.205  1.00  0.00     0.135 A 
ATOM     82  C   UNL A   1      36.896  34.076  29.823  1.00  0.00     0.135 A 
ATOM     83  F   UNL A   1      35.010  32.047  32.178  1.00  0.00    -0.206 F 
ATOM     84  C   UNL A   1      34.258  33.569  30.556  1.00  0.00     0.059 A 
ATOM     85  C   UNL A   1      35.867  34.756  29.179  1.00  0.00     0.059 A 
ATOM     86  F   UNL A   1      38.159  34.346  29.456  1.00  0.00    -0.206 F 
ATOM     87  C   UNL A   1      34.549  34.487  29.546  1.00  0.00     0.060 A 
BRANCH  87  88
ATOM     88  S   UNL A   1      33.184  35.352  28.740  1.00  0.00     0.124 S 
ATOM     89  O   UNL A   1      32.457  35.886  29.886  1.00  0.00    -0.237 OA
ATOM     90  O   UNL A   1      33.887  36.332  27.917  1.00  0.00    -0.237 OA
ATOM     91  O   UNL A   1      32.506  34.294  27.998  1.00  0.00    -0.744 OA
ENDBRANCH  87  88
ENDBRANCH  55  80
BRANCH  67  92
ATOM     92  C   UNL A   1      39.863  34.092  36.973  1.00  0.00     0.058 A 
ATOM     93  C   UNL A   1      40.573  35.303  36.952  1.00  0.00     0.135 A 
ATOM     94  C   UNL A   1      38.959  33.881  38.029  1.00  0.00     0.135 A 
ATOM     95  F   UNL A   1      41.453  35.554  35.970  1.00  0.00    -0.206 F 
ATOM     96  C   UNL A   1      40.420  36.252  37.958  1.00  0.00     0.059 A 
ATOM     97  C   UNL A   1      38.764  34.832  39.026  1.00  0.00     0.059 A 
ATOM     98  F   UNL A   1      38.245  32.747  38.091  1.00  0.00    -0.206 F 
ATOM     99  C   UNL A   1      39.511  36.008  38.989  1.00  0.00     0.060 A 
BRANCH  99 100
ATOM    100  S   UNL A   1      39.308  37.257  40.277  1.00  0.00     0.124 S 
ATOM    101  O   UNL A   1      38.502  38.260  39.588  1.00  0.00    -0.237 OA
ATOM    102  O   UNL A   1      38.628  36.511  41.331  1.00  0.00    -0.237 OA
ATOM    103  O   UNL A   1      40.678  37.656  40.583  1.00  0.00    -0.744 OA
ENDBRANCH  99 100
ENDBRANCH  67  92
ENDBRANCH  41  42
ENDBRANCH  33  36
ENDBRANCH  31  32
ENDBRANCH  30  31
ENDBRANCH   1  30
TORSDOF 19
ENDMDL
