MODEL 1
REMARK VINA RESULT:     -10.9      0.000      0.000
REMARK SMILES Cc1occc1-c1nnnn1C[C@@H](CC(C)C)C(=O)NCCCCCCNC(=O)c1ccc(-c2c3nc(c(-c4c(F)cc(S(=O)(=O)[O-])cc4F)c4ccc([nH]4)c(-c4c(F)cc(S(=O)(=O)[O-])cc4F)c4nc(c(-c5c(F)cc(S(=O)(=O)[O-])cc5F)c5ccc2[nH]5)C=C4)C=C3)cc1
REMARK SMILES IDX 23 1 22 2 21 3 20 4 18 5 19 6 13 8 12 9 11 10 7 11 8 12 9 13
REMARK SMILES IDX 10 14 6 15 1 16 2 17 3 18 4 19 5 20 14 21 15 22 16 23 17 24
REMARK SMILES IDX 24 25 25 26 26 27 27 28 28 29 29 31 30 32 31 33 95 34 32 35
REMARK SMILES IDX 94 36 33 37 34 38 35 39 88 40 36 41 93 42 87 43 89 44 37 45
REMARK SMILES IDX 92 46 86 47 85 48 38 50 72 51 51 52 71 53 52 54 55 55 70 56
REMARK SMILES IDX 90 57 53 58 54 59 69 61 91 62 56 63 39 64 40 65 49 66 41 67
REMARK SMILES IDX 42 68 48 69 50 70 43 71 44 72 45 73 46 74 47 75 73 76 74 77
REMARK SMILES IDX 83 78 75 79 76 80 82 81 84 82 77 83 78 84 79 85 80 86 81 87
REMARK SMILES IDX 57 88 58 89 67 90 59 91 60 92 66 93 68 94 61 95 62 96 63 97
REMARK SMILES IDX 64 98 65 99
REMARK H PARENT 20 7 27 30 89 49 55 60
REMARK Flexibility Score: inf
ROOT
ATOM      1  C   UNL A   1      38.745  22.056  26.139  1.00  0.00     0.002 C 
ENDROOT
BRANCH   1   2
ATOM      2  C   UNL A   1      38.616  23.566  26.345  1.00  0.00     0.021 C 
BRANCH   2   3
ATOM      3  C   UNL A   1      37.233  24.103  26.031  1.00  0.00     0.116 C 
BRANCH   3   4
ATOM      4  N   UNL A   1      36.601  23.487  24.880  1.00  0.00    -0.356 N 
ATOM      5  C   UNL A   1      35.465  23.819  24.201  1.00  0.00     0.224 C 
ATOM      6  O   UNL A   1      35.318  23.332  23.076  1.00  0.00    -0.275 OA
ATOM      7  H   UNL A   1      37.072  22.696  24.529  1.00  0.00     0.163 HD
BRANCH   5   8
ATOM      8  C   UNL A   1      34.391  24.736  24.782  1.00  0.00     0.100 C 
BRANCH   8   9
ATOM      9  C   UNL A   1      33.466  25.223  23.650  1.00  0.00     0.162 C 
BRANCH   9  10
ATOM     10  N   UNL A   1      33.659  26.550  23.129  1.00  0.00    -0.225 N 
ATOM     11  C   UNL A   1      33.587  27.752  23.780  1.00  0.00     0.185 A 
ATOM     12  N   UNL A   1      33.638  28.695  22.860  1.00  0.00    -0.108 NA
ATOM     13  N   UNL A   1      33.936  28.060  21.676  1.00  0.00    -0.023 NA
ATOM     14  N   UNL A   1      33.973  26.747  21.840  1.00  0.00    -0.045 NA
BRANCH  11  15
ATOM     15  C   UNL A   1      33.368  27.978  25.226  1.00  0.00     0.062 A 
ATOM     16  C   UNL A   1      31.000  26.895  25.745  1.00  0.00     0.088 C 
ATOM     17  C   UNL A   1      32.247  27.662  25.972  1.00  0.00     0.111 A 
ATOM     18  O   UNL A   1      32.403  28.135  27.243  1.00  0.00    -0.469 OA
ATOM     19  C   UNL A   1      33.647  28.670  27.325  1.00  0.00     0.196 A 
ATOM     20  C   UNL A   1      34.301  28.553  26.122  1.00  0.00     0.054 A 
ENDBRANCH  11  15
ENDBRANCH   9  10
ENDBRANCH   8   9
BRANCH   8  21
ATOM     21  C   UNL A   1      33.816  24.266  26.142  1.00  0.00     0.018 C 
BRANCH  21  22
ATOM     22  C   UNL A   1      33.283  22.828  26.285  1.00  0.00    -0.017 C 
ATOM     23  C   UNL A   1      33.589  22.240  27.671  1.00  0.00     0.007 C 
ATOM     24  C   UNL A   1      31.765  22.770  26.084  1.00  0.00     0.007 C 
ENDBRANCH  21  22
ENDBRANCH   8  21
ENDBRANCH   5   8
ENDBRANCH   3   4
ENDBRANCH   2   3
ENDBRANCH   1   2
BRANCH   1  25
ATOM     25  C   UNL A   1      40.171  21.478  26.179  1.00  0.00     0.002 C 
BRANCH  25  26
ATOM     26  C   UNL A   1      40.795  21.226  27.561  1.00  0.00     0.021 C 
BRANCH  26  27
ATOM     27  C   UNL A   1      42.172  21.836  27.748  1.00  0.00     0.116 C 
BRANCH  27  28
ATOM     28  N   UNL A   1      42.939  21.880  26.507  1.00  0.00    -0.352 N 
ATOM     29  C   UNL A   1      43.151  22.964  25.686  1.00  0.00     0.251 C 
ATOM     30  H   UNL A   1      43.353  21.034  26.224  1.00  0.00     0.163 HD
ATOM     31  O   UNL A   1      43.492  22.799  24.510  1.00  0.00    -0.269 OA
BRANCH  29  32
ATOM     32  C   UNL A   1      42.970  24.319  26.229  1.00  0.00     0.039 A 
ATOM     33  C   UNL A   1      41.934  25.147  25.791  1.00  0.00     0.014 A 
ATOM     34  C   UNL A   1      43.854  24.748  27.218  1.00  0.00     0.014 A 
ATOM     35  C   UNL A   1      41.753  26.381  26.413  1.00  0.00     0.010 A 
ATOM     36  C   UNL A   1      43.583  25.887  27.932  1.00  0.00     0.010 A 
ATOM     37  C   UNL A   1      42.572  26.735  27.499  1.00  0.00    -0.014 A 
BRANCH  37  38
ATOM     38  C   UNL A   1      42.298  27.934  28.286  1.00  0.00     0.031 A 
ATOM     39  C   UNL A   1      43.345  28.986  28.161  1.00  0.00     0.074 A 
ATOM     40  C   UNL A   1      41.104  28.162  28.879  1.00  0.00     0.049 A 
ATOM     41  N   UNL A   1      44.166  29.395  29.070  1.00  0.00    -0.248 NA
ATOM     42  C   UNL A   1      43.631  29.532  26.821  1.00  0.00     0.031 C 
ATOM     43  C   UNL A   1      39.881  27.351  28.812  1.00  0.00     0.029 A 
ATOM     44  N   UNL A   1      40.693  29.242  29.597  1.00  0.00    -0.354 N 
ATOM     45  C   UNL A   1      44.902  30.424  28.486  1.00  0.00     0.074 A 
ATOM     46  C   UNL A   1      44.682  30.318  27.069  1.00  0.00     0.031 C 
ATOM     47  C   UNL A   1      38.826  28.075  29.249  1.00  0.00     0.029 A 
ATOM     48  C   UNL A   1      39.315  29.331  29.786  1.00  0.00     0.049 A 
ATOM     49  H   UNL A   1      41.321  29.910  29.956  1.00  0.00     0.167 HD
ATOM     50  C   UNL A   1      45.423  31.431  29.243  1.00  0.00     0.037 A 
ATOM     51  C   UNL A   1      38.630  30.375  30.326  1.00  0.00     0.037 A 
ATOM     52  C   UNL A   1      45.434  31.069  30.639  1.00  0.00     0.049 A 
ATOM     53  C   UNL A   1      39.614  31.169  31.109  1.00  0.00     0.074 A 
ATOM     54  C   UNL A   1      46.011  30.048  31.369  1.00  0.00     0.029 A 
ATOM     55  N   UNL A   1      44.438  31.581  31.435  1.00  0.00    -0.354 N 
ATOM     56  N   UNL A   1      40.214  30.721  32.178  1.00  0.00    -0.248 NA
ATOM     57  C   UNL A   1      40.292  32.258  30.421  1.00  0.00     0.031 C 
ATOM     58  C   UNL A   1      45.019  29.676  32.323  1.00  0.00     0.029 A 
ATOM     59  C   UNL A   1      43.938  30.548  32.187  1.00  0.00     0.049 A 
ATOM     60  H   UNL A   1      44.137  32.518  31.461  1.00  0.00     0.167 HD
ATOM     61  C   UNL A   1      41.528  31.152  32.054  1.00  0.00     0.074 A 
ATOM     62  C   UNL A   1      41.498  32.152  30.986  1.00  0.00     0.031 C 
ATOM     63  C   UNL A   1      42.559  30.457  32.618  1.00  0.00     0.037 A 
BRANCH  50  64
ATOM     64  C   UNL A   1      45.569  32.865  28.783  1.00  0.00     0.058 A 
ATOM     65  C   UNL A   1      46.826  33.498  28.891  1.00  0.00     0.135 A 
ATOM     66  C   UNL A   1      44.482  33.723  28.505  1.00  0.00     0.135 A 
ATOM     67  F   UNL A   1      47.930  32.786  29.165  1.00  0.00    -0.206 F 
ATOM     68  C   UNL A   1      46.978  34.883  28.800  1.00  0.00     0.059 A 
ATOM     69  C   UNL A   1      44.620  35.098  28.356  1.00  0.00     0.059 A 
ATOM     70  F   UNL A   1      43.218  33.287  28.458  1.00  0.00    -0.206 F 
ATOM     71  C   UNL A   1      45.864  35.675  28.542  1.00  0.00     0.060 A 
BRANCH  71  72
ATOM     72  S   UNL A   1      46.041  37.466  28.502  1.00  0.00     0.124 S 
ATOM     73  O   UNL A   1      47.051  37.681  29.532  1.00  0.00    -0.237 OA
ATOM     74  O   UNL A   1      46.470  37.694  27.126  1.00  0.00    -0.237 OA
ATOM     75  O   UNL A   1      44.700  37.943  28.822  1.00  0.00    -0.744 OA
ENDBRANCH  71  72
ENDBRANCH  50  64
BRANCH  51  76
ATOM     76  C   UNL A   1      37.305  30.924  29.921  1.00  0.00     0.058 A 
ATOM     77  C   UNL A   1      36.461  31.563  30.851  1.00  0.00     0.135 A 
ATOM     78  C   UNL A   1      36.969  31.100  28.563  1.00  0.00     0.135 A 
ATOM     79  F   UNL A   1      36.713  31.466  32.165  1.00  0.00    -0.206 F 
ATOM     80  C   UNL A   1      35.386  32.373  30.457  1.00  0.00     0.059 A 
ATOM     81  C   UNL A   1      35.899  31.895  28.148  1.00  0.00     0.059 A 
ATOM     82  F   UNL A   1      37.731  30.579  27.590  1.00  0.00    -0.206 F 
ATOM     83  C   UNL A   1      35.129  32.552  29.099  1.00  0.00     0.060 A 
BRANCH  83  84
ATOM     84  S   UNL A   1      33.866  33.740  28.576  1.00  0.00     0.124 S 
ATOM     85  O   UNL A   1      32.953  32.895  27.813  1.00  0.00    -0.237 OA
ATOM     86  O   UNL A   1      33.360  34.236  29.851  1.00  0.00    -0.237 OA
ATOM     87  O   UNL A   1      34.623  34.710  27.789  1.00  0.00    -0.744 OA
ENDBRANCH  83  84
ENDBRANCH  51  76
BRANCH  63  88
ATOM     88  C   UNL A   1      42.238  29.375  33.622  1.00  0.00     0.058 A 
ATOM     89  C   UNL A   1      42.006  28.023  33.307  1.00  0.00     0.135 A 
ATOM     90  C   UNL A   1      42.328  29.706  34.982  1.00  0.00     0.135 A 
ATOM     91  F   UNL A   1      42.004  27.599  32.037  1.00  0.00    -0.206 F 
ATOM     92  C   UNL A   1      41.835  27.055  34.301  1.00  0.00     0.059 A 
ATOM     93  C   UNL A   1      42.194  28.754  35.988  1.00  0.00     0.059 A 
ATOM     94  F   UNL A   1      42.605  30.967  35.350  1.00  0.00    -0.206 F 
ATOM     95  C   UNL A   1      41.933  27.430  35.641  1.00  0.00     0.060 A 
BRANCH  95  96
ATOM     96  S   UNL A   1      41.775  26.173  36.928  1.00  0.00     0.124 S 
ATOM     97  O   UNL A   1      42.828  26.556  37.862  1.00  0.00    -0.237 OA
ATOM     98  O   UNL A   1      40.407  26.369  37.398  1.00  0.00    -0.237 OA
ATOM     99  O   UNL A   1      42.004  24.921  36.211  1.00  0.00    -0.744 OA
ENDBRANCH  95  96
ENDBRANCH  63  88
ENDBRANCH  37  38
ENDBRANCH  29  32
ENDBRANCH  27  28
ENDBRANCH  26  27
ENDBRANCH  25  26
ENDBRANCH   1  25
TORSDOF 21
ENDMDL
MODEL 2
REMARK VINA RESULT:     -10.8      2.914      9.414
REMARK SMILES Cc1occc1-c1nnnn1C[C@@H](CC(C)C)C(=O)NCCCCCCNC(=O)c1ccc(-c2c3nc(c(-c4c(F)cc(S(=O)(=O)[O-])cc4F)c4ccc([nH]4)c(-c4c(F)cc(S(=O)(=O)[O-])cc4F)c4nc(c(-c5c(F)cc(S(=O)(=O)[O-])cc5F)c5ccc2[nH]5)C=C4)C=C3)cc1
REMARK SMILES IDX 23 1 22 2 21 3 20 4 18 5 19 6 13 8 12 9 11 10 7 11 8 12 9 13
REMARK SMILES IDX 10 14 6 15 1 16 2 17 3 18 4 19 5 20 14 21 15 22 16 23 17 24
REMARK SMILES IDX 24 25 25 26 26 27 27 28 28 29 29 31 30 32 31 33 95 34 32 35
REMARK SMILES IDX 94 36 33 37 34 38 35 39 88 40 36 41 93 42 87 43 89 44 37 45
REMARK SMILES IDX 92 46 86 47 85 48 38 50 72 51 51 52 71 53 52 54 55 55 70 56
REMARK SMILES IDX 90 57 53 58 54 59 69 61 91 62 56 63 39 64 40 65 49 66 41 67
REMARK SMILES IDX 42 68 48 69 50 70 43 71 44 72 45 73 46 74 47 75 73 76 74 77
REMARK SMILES IDX 83 78 75 79 76 80 82 81 84 82 77 83 78 84 79 85 80 86 81 87
REMARK SMILES IDX 57 88 58 89 67 90 59 91 60 92 66 93 68 94 61 95 62 96 63 97
REMARK SMILES IDX 64 98 65 99
REMARK H PARENT 20 7 27 30 89 49 55 60
REMARK Flexibility Score: inf
ROOT
ATOM      1  C   UNL A   1      31.421  28.449  25.035  1.00  0.00     0.002 C 
ENDROOT
BRANCH   1   2
ATOM      2  C   UNL A   1      31.040  27.475  26.150  1.00  0.00     0.021 C 
BRANCH   2   3
ATOM      3  C   UNL A   1      31.730  26.129  26.038  1.00  0.00     0.116 C 
BRANCH   3   4
ATOM      4  N   UNL A   1      30.998  25.032  26.643  1.00  0.00    -0.356 N 
ATOM      5  C   UNL A   1      31.254  23.692  26.665  1.00  0.00     0.224 C 
ATOM      6  O   UNL A   1      30.655  23.017  27.507  1.00  0.00    -0.275 OA
ATOM      7  H   UNL A   1      30.177  25.300  27.117  1.00  0.00     0.163 HD
BRANCH   5   8
ATOM      8  C   UNL A   1      32.221  23.018  25.693  1.00  0.00     0.100 C 
BRANCH   8   9
ATOM      9  C   UNL A   1      33.070  21.980  26.453  1.00  0.00     0.162 C 
BRANCH   9  10
ATOM     10  N   UNL A   1      33.403  20.748  25.789  1.00  0.00    -0.225 N 
ATOM     11  C   UNL A   1      34.532  20.424  25.085  1.00  0.00     0.185 A 
ATOM     12  N   UNL A   1      34.303  19.268  24.495  1.00  0.00    -0.108 NA
ATOM     13  N   UNL A   1      33.110  18.807  25.004  1.00  0.00    -0.023 NA
ATOM     14  N   UNL A   1      32.565  19.700  25.815  1.00  0.00    -0.045 NA
BRANCH  11  15
ATOM     15  C   UNL A   1      35.744  21.254  24.901  1.00  0.00     0.062 A 
ATOM     16  C   UNL A   1      37.768  19.536  24.919  1.00  0.00     0.088 C 
ATOM     17  C   UNL A   1      37.064  20.839  24.909  1.00  0.00     0.111 A 
ATOM     18  O   UNL A   1      37.879  21.929  24.815  1.00  0.00    -0.469 OA
ATOM     19  C   UNL A   1      37.084  23.017  24.662  1.00  0.00     0.196 A 
ATOM     20  C   UNL A   1      35.760  22.648  24.658  1.00  0.00     0.054 A 
ENDBRANCH  11  15
ENDBRANCH   9  10
ENDBRANCH   8   9
BRANCH   8  21
ATOM     21  C   UNL A   1      31.613  22.696  24.305  1.00  0.00     0.018 C 
BRANCH  21  22
ATOM     22  C   UNL A   1      32.546  22.397  23.118  1.00  0.00    -0.017 C 
ATOM     23  C   UNL A   1      31.989  21.282  22.219  1.00  0.00     0.007 C 
ATOM     24  C   UNL A   1      32.755  23.636  22.241  1.00  0.00     0.007 C 
ENDBRANCH  21  22
ENDBRANCH   8  21
ENDBRANCH   5   8
ENDBRANCH   3   4
ENDBRANCH   2   3
ENDBRANCH   1   2
BRANCH   1  25
ATOM     25  C   UNL A   1      32.482  29.509  25.383  1.00  0.00     0.002 C 
BRANCH  25  26
ATOM     26  C   UNL A   1      33.863  29.006  25.834  1.00  0.00     0.021 C 
BRANCH  26  27
ATOM     27  C   UNL A   1      34.133  29.164  27.319  1.00  0.00     0.116 C 
BRANCH  27  28
ATOM     28  N   UNL A   1      33.956  30.539  27.777  1.00  0.00    -0.352 N 
ATOM     29  C   UNL A   1      34.834  31.301  28.514  1.00  0.00     0.251 C 
ATOM     30  H   UNL A   1      33.109  30.973  27.529  1.00  0.00     0.163 HD
ATOM     31  O   UNL A   1      34.432  32.288  29.138  1.00  0.00    -0.269 OA
BRANCH  29  32
ATOM     32  C   UNL A   1      36.256  30.926  28.544  1.00  0.00     0.039 A 
ATOM     33  C   UNL A   1      37.218  31.758  29.121  1.00  0.00     0.014 A 
ATOM     34  C   UNL A   1      36.617  29.695  27.997  1.00  0.00     0.014 A 
ATOM     35  C   UNL A   1      38.532  31.305  29.208  1.00  0.00     0.010 A 
ATOM     36  C   UNL A   1      37.870  29.187  28.221  1.00  0.00     0.010 A 
ATOM     37  C   UNL A   1      38.847  30.006  28.773  1.00  0.00    -0.014 A 
BRANCH  37  38
ATOM     38  C   UNL A   1      40.168  29.434  29.012  1.00  0.00     0.031 A 
ATOM     39  C   UNL A   1      40.491  29.249  30.455  1.00  0.00     0.074 A 
ATOM     40  C   UNL A   1      40.926  28.905  28.024  1.00  0.00     0.049 A 
ATOM     41  N   UNL A   1      41.378  29.878  31.152  1.00  0.00    -0.248 NA
ATOM     42  C   UNL A   1      39.609  28.388  31.264  1.00  0.00     0.031 C 
ATOM     43  C   UNL A   1      40.588  28.736  26.605  1.00  0.00     0.029 A 
ATOM     44  N   UNL A   1      42.143  28.302  28.103  1.00  0.00    -0.354 N 
ATOM     45  C   UNL A   1      41.336  29.312  32.424  1.00  0.00     0.074 A 
ATOM     46  C   UNL A   1      40.107  28.567  32.489  1.00  0.00     0.031 C 
ATOM     47  C   UNL A   1      41.455  27.875  26.026  1.00  0.00     0.029 A 
ATOM     48  C   UNL A   1      42.507  27.567  26.976  1.00  0.00     0.049 A 
ATOM     49  H   UNL A   1      42.723  28.380  28.895  1.00  0.00     0.167 HD
ATOM     50  C   UNL A   1      42.441  29.295  33.222  1.00  0.00     0.037 A 
ATOM     51  C   UNL A   1      43.586  26.749  26.848  1.00  0.00     0.037 A 
ATOM     52  C   UNL A   1      43.432  30.227  32.743  1.00  0.00     0.049 A 
ATOM     53  C   UNL A   1      44.550  27.147  27.909  1.00  0.00     0.074 A 
ATOM     54  C   UNL A   1      43.451  31.591  32.523  1.00  0.00     0.029 A 
ATOM     55  N   UNL A   1      44.486  29.718  32.024  1.00  0.00    -0.354 N 
ATOM     56  N   UNL A   1      45.152  28.305  27.939  1.00  0.00    -0.248 NA
ATOM     57  C   UNL A   1      44.457  26.458  29.187  1.00  0.00     0.031 C 
ATOM     58  C   UNL A   1      44.179  31.755  31.308  1.00  0.00     0.029 A 
ATOM     59  C   UNL A   1      44.642  30.500  30.908  1.00  0.00     0.049 A 
ATOM     60  H   UNL A   1      45.031  28.934  32.265  1.00  0.00     0.167 HD
ATOM     61  C   UNL A   1      45.121  28.687  29.273  1.00  0.00     0.074 A 
ATOM     62  C   UNL A   1      44.741  27.477  30.003  1.00  0.00     0.031 C 
ATOM     63  C   UNL A   1      45.117  30.004  29.634  1.00  0.00     0.037 A 
BRANCH  50  64
ATOM     64  C   UNL A   1      42.782  28.190  34.197  1.00  0.00     0.058 A 
ATOM     65  C   UNL A   1      42.849  28.483  35.576  1.00  0.00     0.135 A 
ATOM     66  C   UNL A   1      43.312  26.936  33.819  1.00  0.00     0.135 A 
ATOM     67  F   UNL A   1      42.386  29.651  36.051  1.00  0.00    -0.206 F 
ATOM     68  C   UNL A   1      43.459  27.628  36.495  1.00  0.00     0.059 A 
ATOM     69  C   UNL A   1      43.875  26.046  34.727  1.00  0.00     0.059 A 
ATOM     70  F   UNL A   1      43.400  26.550  32.541  1.00  0.00    -0.206 F 
ATOM     71  C   UNL A   1      43.979  26.415  36.057  1.00  0.00     0.060 A 
BRANCH  71  72
ATOM     72  S   UNL A   1      44.836  25.345  37.224  1.00  0.00     0.124 S 
ATOM     73  O   UNL A   1      44.235  25.755  38.489  1.00  0.00    -0.237 OA
ATOM     74  O   UNL A   1      44.470  24.018  36.740  1.00  0.00    -0.237 OA
ATOM     75  O   UNL A   1      46.238  25.708  37.044  1.00  0.00    -0.744 OA
ENDBRANCH  71  72
ENDBRANCH  50  64
BRANCH  51  76
ATOM     76  C   UNL A   1      43.681  25.444  26.134  1.00  0.00     0.058 A 
ATOM     77  C   UNL A   1      44.757  25.159  25.269  1.00  0.00     0.135 A 
ATOM     78  C   UNL A   1      42.887  24.343  26.511  1.00  0.00     0.135 A 
ATOM     79  F   UNL A   1      45.579  26.141  24.871  1.00  0.00    -0.206 F 
ATOM     80  C   UNL A   1      45.060  23.855  24.852  1.00  0.00     0.059 A 
ATOM     81  C   UNL A   1      43.164  23.037  26.102  1.00  0.00     0.059 A 
ATOM     82  F   UNL A   1      41.868  24.489  27.371  1.00  0.00    -0.206 F 
ATOM     83  C   UNL A   1      44.269  22.796  25.295  1.00  0.00     0.060 A 
BRANCH  83  84
ATOM     84  S   UNL A   1      44.758  21.094  24.917  1.00  0.00     0.124 S 
ATOM     85  O   UNL A   1      43.785  20.322  25.683  1.00  0.00    -0.237 OA
ATOM     86  O   UNL A   1      44.612  21.044  23.467  1.00  0.00    -0.237 OA
ATOM     87  O   UNL A   1      46.133  21.023  25.406  1.00  0.00    -0.744 OA
ENDBRANCH  83  84
ENDBRANCH  51  76
BRANCH  63  88
ATOM     88  C   UNL A   1      45.440  31.041  28.585  1.00  0.00     0.058 A 
ATOM     89  C   UNL A   1      44.543  31.507  27.605  1.00  0.00     0.135 A 
ATOM     90  C   UNL A   1      46.672  31.704  28.686  1.00  0.00     0.135 A 
ATOM     91  F   UNL A   1      43.307  31.001  27.502  1.00  0.00    -0.206 F 
ATOM     92  C   UNL A   1      44.873  32.558  26.745  1.00  0.00     0.059 A 
ATOM     93  C   UNL A   1      47.009  32.773  27.863  1.00  0.00     0.059 A 
ATOM     94  F   UNL A   1      47.549  31.348  29.638  1.00  0.00    -0.206 F 
ATOM     95  C   UNL A   1      46.111  33.188  26.883  1.00  0.00     0.060 A 
BRANCH  95  96
ATOM     96  S   UNL A   1      46.518  34.586  25.816  1.00  0.00     0.124 S 
ATOM     97  O   UNL A   1      47.886  34.279  25.416  1.00  0.00    -0.237 OA
ATOM     98  O   UNL A   1      45.511  34.487  24.763  1.00  0.00    -0.237 OA
ATOM     99  O   UNL A   1      46.371  35.742  26.697  1.00  0.00    -0.744 OA
ENDBRANCH  95  96
ENDBRANCH  63  88
ENDBRANCH  37  38
ENDBRANCH  29  32
ENDBRANCH  27  28
ENDBRANCH  26  27
ENDBRANCH  25  26
ENDBRANCH   1  25
TORSDOF 21
ENDMDL
MODEL 3
REMARK VINA RESULT:     -10.7      2.736      9.166
REMARK SMILES Cc1occc1-c1nnnn1C[C@@H](CC(C)C)C(=O)NCCCCCCNC(=O)c1ccc(-c2c3nc(c(-c4c(F)cc(S(=O)(=O)[O-])cc4F)c4ccc([nH]4)c(-c4c(F)cc(S(=O)(=O)[O-])cc4F)c4nc(c(-c5c(F)cc(S(=O)(=O)[O-])cc5F)c5ccc2[nH]5)C=C4)C=C3)cc1
REMARK SMILES IDX 23 1 22 2 21 3 20 4 18 5 19 6 13 8 12 9 11 10 7 11 8 12 9 13
REMARK SMILES IDX 10 14 6 15 1 16 2 17 3 18 4 19 5 20 14 21 15 22 16 23 17 24
REMARK SMILES IDX 24 25 25 26 26 27 27 28 28 29 29 31 30 32 31 33 95 34 32 35
REMARK SMILES IDX 94 36 33 37 34 38 35 39 88 40 36 41 93 42 87 43 89 44 37 45
REMARK SMILES IDX 92 46 86 47 85 48 38 50 72 51 51 52 71 53 52 54 55 55 70 56
REMARK SMILES IDX 90 57 53 58 54 59 69 61 91 62 56 63 39 64 40 65 49 66 41 67
REMARK SMILES IDX 42 68 48 69 50 70 43 71 44 72 45 73 46 74 47 75 73 76 74 77
REMARK SMILES IDX 83 78 75 79 76 80 82 81 84 82 77 83 78 84 79 85 80 86 81 87
REMARK SMILES IDX 57 88 58 89 67 90 59 91 60 92 66 93 68 94 61 95 62 96 63 97
REMARK SMILES IDX 64 98 65 99
REMARK H PARENT 20 7 27 30 89 49 55 60
REMARK Flexibility Score: inf
ROOT
ATOM      1  C   UNL A   1      31.683  29.104  24.460  1.00  0.00     0.002 C 
ENDROOT
BRANCH   1   2
ATOM      2  C   UNL A   1      32.618  28.900  23.268  1.00  0.00     0.021 C 
BRANCH   2   3
ATOM      3  C   UNL A   1      33.498  27.670  23.393  1.00  0.00     0.116 C 
BRANCH   3   4
ATOM      4  N   UNL A   1      33.570  26.864  22.189  1.00  0.00    -0.356 N 
ATOM      5  C   UNL A   1      33.296  25.544  21.981  1.00  0.00     0.224 C 
ATOM      6  O   UNL A   1      33.133  25.179  20.813  1.00  0.00    -0.275 OA
ATOM      7  H   UNL A   1      33.868  27.352  21.387  1.00  0.00     0.163 HD
BRANCH   5   8
ATOM      8  C   UNL A   1      33.206  24.528  23.117  1.00  0.00     0.100 C 
BRANCH   8   9
ATOM      9  C   UNL A   1      31.726  24.292  23.478  1.00  0.00     0.162 C 
BRANCH   9  10
ATOM     10  N   UNL A   1      31.325  24.427  24.852  1.00  0.00    -0.225 N 
ATOM     11  C   UNL A   1      31.476  23.545  25.888  1.00  0.00     0.185 A 
ATOM     12  N   UNL A   1      30.780  24.015  26.904  1.00  0.00    -0.108 NA
ATOM     13  N   UNL A   1      30.372  25.277  26.538  1.00  0.00    -0.023 NA
ATOM     14  N   UNL A   1      30.722  25.544  25.289  1.00  0.00    -0.045 NA
BRANCH  11  15
ATOM     15  C   UNL A   1      32.178  22.242  25.860  1.00  0.00     0.062 A 
ATOM     16  C   UNL A   1      33.938  22.361  27.844  1.00  0.00     0.088 C 
ATOM     17  C   UNL A   1      33.237  21.833  26.652  1.00  0.00     0.111 A 
ATOM     18  O   UNL A   1      33.663  20.605  26.235  1.00  0.00    -0.469 OA
ATOM     19  C   UNL A   1      32.827  20.202  25.245  1.00  0.00     0.196 A 
ATOM     20  C   UNL A   1      31.864  21.153  25.011  1.00  0.00     0.054 A 
ENDBRANCH  11  15
ENDBRANCH   9  10
ENDBRANCH   8   9
BRANCH   8  21
ATOM     21  C   UNL A   1      34.201  23.346  23.000  1.00  0.00     0.018 C 
BRANCH  21  22
ATOM     22  C   UNL A   1      35.560  23.423  23.719  1.00  0.00    -0.017 C 
ATOM     23  C   UNL A   1      35.487  24.286  24.988  1.00  0.00     0.007 C 
ATOM     24  C   UNL A   1      36.056  22.033  24.134  1.00  0.00     0.007 C 
ENDBRANCH  21  22
ENDBRANCH   8  21
ENDBRANCH   5   8
ENDBRANCH   3   4
ENDBRANCH   2   3
ENDBRANCH   1   2
BRANCH   1  25
ATOM     25  C   UNL A   1      32.344  29.524  25.785  1.00  0.00     0.002 C 
BRANCH  25  26
ATOM     26  C   UNL A   1      33.863  29.329  25.912  1.00  0.00     0.021 C 
BRANCH  26  27
ATOM     27  C   UNL A   1      34.399  29.477  27.325  1.00  0.00     0.116 C 
BRANCH  27  28
ATOM     28  N   UNL A   1      34.191  30.817  27.865  1.00  0.00    -0.352 N 
ATOM     29  C   UNL A   1      34.862  31.421  28.904  1.00  0.00     0.251 C 
ATOM     30  H   UNL A   1      33.487  31.353  27.434  1.00  0.00     0.163 HD
ATOM     31  O   UNL A   1      34.362  32.384  29.494  1.00  0.00    -0.269 OA
BRANCH  29  32
ATOM     32  C   UNL A   1      36.182  30.904  29.298  1.00  0.00     0.039 A 
ATOM     33  C   UNL A   1      36.321  29.668  29.933  1.00  0.00     0.014 A 
ATOM     34  C   UNL A   1      37.301  31.679  28.997  1.00  0.00     0.014 A 
ATOM     35  C   UNL A   1      37.602  29.188  30.193  1.00  0.00     0.010 A 
ATOM     36  C   UNL A   1      38.557  31.141  29.110  1.00  0.00     0.010 A 
ATOM     37  C   UNL A   1      38.718  29.923  29.759  1.00  0.00    -0.014 A 
BRANCH  37  38
ATOM     38  C   UNL A   1      40.065  29.369  29.853  1.00  0.00     0.031 A 
ATOM     39  C   UNL A   1      40.517  29.124  31.251  1.00  0.00     0.074 A 
ATOM     40  C   UNL A   1      40.742  28.905  28.778  1.00  0.00     0.049 A 
ATOM     41  N   UNL A   1      41.452  29.738  31.898  1.00  0.00    -0.248 NA
ATOM     42  C   UNL A   1      39.726  28.206  32.091  1.00  0.00     0.031 C 
ATOM     43  C   UNL A   1      40.282  28.795  27.387  1.00  0.00     0.029 A 
ATOM     44  N   UNL A   1      41.971  28.326  28.720  1.00  0.00    -0.354 N 
ATOM     45  C   UNL A   1      41.532  29.112  33.140  1.00  0.00     0.074 A 
ATOM     46  C   UNL A   1      40.328  28.338  33.276  1.00  0.00     0.031 C 
ATOM     47  C   UNL A   1      41.110  27.982  26.694  1.00  0.00     0.029 A 
ATOM     48  C   UNL A   1      42.247  27.652  27.531  1.00  0.00     0.049 A 
ATOM     49  H   UNL A   1      42.618  28.378  29.462  1.00  0.00     0.167 HD
ATOM     50  C   UNL A   1      42.704  29.082  33.837  1.00  0.00     0.037 A 
ATOM     51  C   UNL A   1      43.325  26.865  27.270  1.00  0.00     0.037 A 
ATOM     52  C   UNL A   1      43.632  30.057  33.319  1.00  0.00     0.049 A 
ATOM     53  C   UNL A   1      44.372  27.233  28.260  1.00  0.00     0.074 A 
ATOM     54  C   UNL A   1      43.608  31.430  33.165  1.00  0.00     0.029 A 
ATOM     55  N   UNL A   1      44.628  29.605  32.486  1.00  0.00    -0.354 N 
ATOM     56  N   UNL A   1      44.954  28.402  28.294  1.00  0.00    -0.248 NA
ATOM     57  C   UNL A   1      44.404  26.483  29.507  1.00  0.00     0.031 C 
ATOM     58  C   UNL A   1      44.222  31.666  31.900  1.00  0.00     0.029 A 
ATOM     59  C   UNL A   1      44.670  30.443  31.400  1.00  0.00     0.049 A 
ATOM     60  H   UNL A   1      45.205  28.822  32.640  1.00  0.00     0.167 HD
ATOM     61  C   UNL A   1      45.034  28.719  29.643  1.00  0.00     0.074 A 
ATOM     62  C   UNL A   1      44.742  27.468  30.344  1.00  0.00     0.031 C 
ATOM     63  C   UNL A   1      45.039  30.017  30.067  1.00  0.00     0.037 A 
BRANCH  50  64
ATOM     64  C   UNL A   1      43.149  27.939  34.722  1.00  0.00     0.058 A 
ATOM     65  C   UNL A   1      43.478  28.200  36.070  1.00  0.00     0.135 A 
ATOM     66  C   UNL A   1      43.530  26.666  34.243  1.00  0.00     0.135 A 
ATOM     67  F   UNL A   1      43.176  29.381  36.633  1.00  0.00    -0.206 F 
ATOM     68  C   UNL A   1      44.192  27.294  36.856  1.00  0.00     0.059 A 
ATOM     69  C   UNL A   1      44.194  25.728  35.025  1.00  0.00     0.059 A 
ATOM     70  F   UNL A   1      43.366  26.302  32.965  1.00  0.00    -0.206 F 
ATOM     71  C   UNL A   1      44.555  26.063  36.318  1.00  0.00     0.060 A 
BRANCH  71  72
ATOM     72  S   UNL A   1      45.543  24.924  37.301  1.00  0.00     0.124 S 
ATOM     73  O   UNL A   1      45.689  23.799  36.384  1.00  0.00    -0.237 OA
ATOM     74  O   UNL A   1      46.748  25.709  37.549  1.00  0.00    -0.237 OA
ATOM     75  O   UNL A   1      44.708  24.681  38.473  1.00  0.00    -0.744 OA
ENDBRANCH  71  72
ENDBRANCH  50  64
BRANCH  51  76
ATOM     76  C   UNL A   1      43.380  25.598  26.487  1.00  0.00     0.058 A 
ATOM     77  C   UNL A   1      44.264  25.445  25.401  1.00  0.00     0.135 A 
ATOM     78  C   UNL A   1      42.787  24.413  26.968  1.00  0.00     0.135 A 
ATOM     79  F   UNL A   1      44.889  26.514  24.886  1.00  0.00    -0.206 F 
ATOM     80  C   UNL A   1      44.585  24.190  24.864  1.00  0.00     0.059 A 
ATOM     81  C   UNL A   1      43.084  23.154  26.445  1.00  0.00     0.059 A 
ATOM     82  F   UNL A   1      41.969  24.433  28.031  1.00  0.00    -0.206 F 
ATOM     83  C   UNL A   1      44.006  23.046  25.410  1.00  0.00     0.060 A 
BRANCH  83  84
ATOM     84  S   UNL A   1      44.552  21.412  24.852  1.00  0.00     0.124 S 
ATOM     85  O   UNL A   1      44.607  21.589  23.405  1.00  0.00    -0.237 OA
ATOM     86  O   UNL A   1      45.837  21.268  25.527  1.00  0.00    -0.237 OA
ATOM     87  O   UNL A   1      43.496  20.523  25.332  1.00  0.00    -0.744 OA
ENDBRANCH  83  84
ENDBRANCH  51  76
BRANCH  63  88
ATOM     88  C   UNL A   1      45.249  31.110  29.046  1.00  0.00     0.058 A 
ATOM     89  C   UNL A   1      44.229  31.720  28.292  1.00  0.00     0.135 A 
ATOM     90  C   UNL A   1      46.532  31.668  28.949  1.00  0.00     0.135 A 
ATOM     91  F   UNL A   1      42.956  31.317  28.399  1.00  0.00    -0.206 F 
ATOM     92  C   UNL A   1      44.484  32.810  27.455  1.00  0.00     0.059 A 
ATOM     93  C   UNL A   1      46.803  32.773  28.148  1.00  0.00     0.059 A 
ATOM     94  F   UNL A   1      47.539  31.171  29.686  1.00  0.00    -0.206 F 
ATOM     95  C   UNL A   1      45.776  33.332  27.391  1.00  0.00     0.060 A 
BRANCH  95  96
ATOM     96  S   UNL A   1      46.098  34.779  26.359  1.00  0.00     0.124 S 
ATOM     97  O   UNL A   1      47.043  34.254  25.380  1.00  0.00    -0.237 OA
ATOM     98  O   UNL A   1      44.770  35.106  25.847  1.00  0.00    -0.237 OA
ATOM     99  O   UNL A   1      46.649  35.752  27.299  1.00  0.00    -0.744 OA
ENDBRANCH  95  96
ENDBRANCH  63  88
ENDBRANCH  37  38
ENDBRANCH  29  32
ENDBRANCH  27  28
ENDBRANCH  26  27
ENDBRANCH  25  26
ENDBRANCH   1  25
TORSDOF 21
ENDMDL
