MODEL 1
REMARK VINA RESULT:     -10.8      0.000      0.000
REMARK SMILES CCOc1ccc(C(=O)NCC(=O)NCCCCCCNC(=O)c2ccc(-c3c4nc(c(-c5c(F)cc(S(=O)(=O)[O-])cc5F)c5ccc([nH]5)c(-c5c(F)cc(S(=O)(=O)[O-])cc5F)c5nc(c(-c6c(F)cc(S(=O)(=O)[O-])cc6F)c6ccc3[nH]6)C=C5)C=C4)cc2)c2ccccc12
REMARK SMILES IDX 17 1 16 2 15 3 14 4 12 5 13 6 11 8 10 9 8 10 9 11 7 13 4 14
REMARK SMILES IDX 5 15 95 16 6 17 90 18 94 19 91 20 93 21 92 22 3 23 2 24 1 25
REMARK SMILES IDX 18 26 19 27 20 28 21 29 22 30 23 32 24 33 25 34 89 35 26 36
REMARK SMILES IDX 88 37 27 38 28 39 29 40 82 41 30 42 87 43 81 44 83 45 31 46
REMARK SMILES IDX 86 47 80 48 79 49 32 51 66 52 45 53 65 54 46 55 49 56 64 57
REMARK SMILES IDX 84 58 47 59 48 60 63 62 85 63 50 64 33 65 34 66 43 67 35 68
REMARK SMILES IDX 36 69 42 70 44 71 37 72 38 73 39 74 40 75 41 76 67 77 68 78
REMARK SMILES IDX 77 79 69 80 70 81 76 82 78 83 71 84 72 85 73 86 74 87 75 88
REMARK SMILES IDX 51 89 52 90 61 91 53 92 54 93 60 94 62 95 55 96 56 97 57 98
REMARK SMILES IDX 58 99 59 100
REMARK H PARENT 14 7 10 12 21 31 83 50 49 61
REMARK Flexibility Score: inf
ROOT
ATOM      1  C   UNL A   1      32.263  28.720  24.038  1.00  0.00     0.002 C 
ENDROOT
BRANCH   1   2
ATOM      2  C   UNL A   1      32.492  27.964  22.727  1.00  0.00     0.021 C 
BRANCH   2   3
ATOM      3  C   UNL A   1      31.286  27.162  22.260  1.00  0.00     0.116 C 
BRANCH   3   4
ATOM      4  N   UNL A   1      31.487  25.732  22.349  1.00  0.00    -0.355 N 
ATOM      5  C   UNL A   1      31.065  24.809  23.249  1.00  0.00     0.239 C 
ATOM      6  O   UNL A   1      31.294  23.625  22.970  1.00  0.00    -0.273 OA
ATOM      7  H   UNL A   1      32.033  25.359  21.619  1.00  0.00     0.163 HD
BRANCH   5   8
ATOM      8  C   UNL A   1      30.209  25.131  24.491  1.00  0.00     0.216 C 
BRANCH   8   9
ATOM      9  N   UNL A   1      30.297  24.323  25.695  1.00  0.00    -0.343 N 
ATOM     10  C   UNL A   1      31.288  23.759  26.461  1.00  0.00     0.252 C 
ATOM     11  O   UNL A   1      30.876  23.364  27.552  1.00  0.00    -0.269 OA
ATOM     12  H   UNL A   1      29.404  24.125  26.061  1.00  0.00     0.164 HD
BRANCH  10  13
ATOM     13  C   UNL A   1      32.739  23.568  26.048  1.00  0.00     0.047 A 
ATOM     14  C   UNL A   1      35.454  23.305  25.305  1.00  0.00     0.127 A 
ATOM     15  C   UNL A   1      34.925  24.550  25.590  1.00  0.00     0.048 A 
ATOM     16  C   UNL A   1      34.626  22.169  25.262  1.00  0.00     0.025 A 
ATOM     17  C   UNL A   1      33.599  24.672  25.977  1.00  0.00     0.018 A 
ATOM     18  C   UNL A   1      33.245  22.283  25.620  1.00  0.00    -0.002 A 
ATOM     19  C   UNL A   1      35.148  20.929  24.830  1.00  0.00     0.012 A 
ATOM     20  C   UNL A   1      32.471  21.096  25.468  1.00  0.00     0.010 A 
ATOM     21  C   UNL A   1      34.347  19.799  24.702  1.00  0.00     0.001 A 
ATOM     22  C   UNL A   1      33.004  19.886  25.014  1.00  0.00     0.001 A 
BRANCH  14  23
ATOM     23  O   UNL A   1      36.772  23.238  24.924  1.00  0.00    -0.493 OA
BRANCH  23  24
ATOM     24  C   UNL A   1      37.671  23.690  25.949  1.00  0.00     0.226 C 
ATOM     25  C   UNL A   1      38.773  22.678  26.234  1.00  0.00     0.049 C 
ENDBRANCH  23  24
ENDBRANCH  14  23
ENDBRANCH  10  13
ENDBRANCH   8   9
ENDBRANCH   5   8
ENDBRANCH   3   4
ENDBRANCH   2   3
ENDBRANCH   1   2
BRANCH   1  26
ATOM     26  C   UNL A   1      33.537  29.127  24.787  1.00  0.00     0.002 C 
BRANCH  26  27
ATOM     27  C   UNL A   1      34.087  28.084  25.766  1.00  0.00     0.021 C 
BRANCH  27  28
ATOM     28  C   UNL A   1      33.663  28.281  27.217  1.00  0.00     0.116 C 
BRANCH  28  29
ATOM     29  N   UNL A   1      33.510  29.686  27.554  1.00  0.00    -0.352 N 
ATOM     30  C   UNL A   1      34.398  30.545  28.149  1.00  0.00     0.251 C 
ATOM     31  H   UNL A   1      32.638  30.080  27.321  1.00  0.00     0.163 HD
ATOM     32  O   UNL A   1      34.010  31.645  28.530  1.00  0.00    -0.269 OA
BRANCH  30  33
ATOM     33  C   UNL A   1      35.812  30.149  28.340  1.00  0.00     0.039 A 
ATOM     34  C   UNL A   1      36.216  29.688  29.595  1.00  0.00     0.014 A 
ATOM     35  C   UNL A   1      36.748  30.276  27.310  1.00  0.00     0.014 A 
ATOM     36  C   UNL A   1      37.549  29.334  29.809  1.00  0.00     0.010 A 
ATOM     37  C   UNL A   1      38.059  29.849  27.502  1.00  0.00     0.010 A 
ATOM     38  C   UNL A   1      38.481  29.400  28.761  1.00  0.00    -0.014 A 
BRANCH  38  39
ATOM     39  C   UNL A   1      39.908  29.052  28.986  1.00  0.00     0.031 A 
ATOM     40  C   UNL A   1      40.847  30.070  29.579  1.00  0.00     0.074 A 
ATOM     41  C   UNL A   1      40.364  27.834  28.632  1.00  0.00     0.049 A 
ATOM     42  N   UNL A   1      42.125  29.965  29.839  1.00  0.00    -0.248 NA
ATOM     43  C   UNL A   1      40.280  31.391  29.897  1.00  0.00     0.031 C 
ATOM     44  C   UNL A   1      39.566  26.782  28.001  1.00  0.00     0.029 A 
ATOM     45  N   UNL A   1      41.613  27.277  28.752  1.00  0.00    -0.354 N 
ATOM     46  C   UNL A   1      42.516  31.203  30.335  1.00  0.00     0.074 A 
ATOM     47  C   UNL A   1      41.355  32.064  30.282  1.00  0.00     0.031 C 
ATOM     48  C   UNL A   1      40.336  25.697  27.816  1.00  0.00     0.029 A 
ATOM     49  C   UNL A   1      41.688  25.985  28.288  1.00  0.00     0.049 A 
ATOM     50  H   UNL A   1      42.383  27.757  29.135  1.00  0.00     0.167 HD
ATOM     51  C   UNL A   1      43.723  31.583  30.819  1.00  0.00     0.037 A 
ATOM     52  C   UNL A   1      42.727  25.129  28.252  1.00  0.00     0.037 A 
ATOM     53  C   UNL A   1      44.867  30.712  30.896  1.00  0.00     0.049 A 
ATOM     54  C   UNL A   1      44.052  25.564  28.819  1.00  0.00     0.074 A 
ATOM     55  C   UNL A   1      46.122  30.981  31.412  1.00  0.00     0.029 A 
ATOM     56  N   UNL A   1      44.894  29.400  30.447  1.00  0.00    -0.354 N 
ATOM     57  N   UNL A   1      44.388  26.721  29.338  1.00  0.00    -0.248 NA
ATOM     58  C   UNL A   1      45.134  24.571  28.811  1.00  0.00     0.031 C 
ATOM     59  C   UNL A   1      46.920  29.844  31.240  1.00  0.00     0.029 A 
ATOM     60  C   UNL A   1      46.146  28.849  30.665  1.00  0.00     0.049 A 
ATOM     61  H   UNL A   1      44.134  28.928  30.032  1.00  0.00     0.167 HD
ATOM     62  C   UNL A   1      45.709  26.582  29.753  1.00  0.00     0.074 A 
ATOM     63  C   UNL A   1      46.104  25.226  29.432  1.00  0.00     0.031 C 
ATOM     64  C   UNL A   1      46.520  27.493  30.348  1.00  0.00     0.037 A 
BRANCH  51  65
ATOM     65  C   UNL A   1      43.862  32.999  31.312  1.00  0.00     0.058 A 
ATOM     66  C   UNL A   1      43.593  33.347  32.646  1.00  0.00     0.135 A 
ATOM     67  C   UNL A   1      44.293  34.018  30.446  1.00  0.00     0.135 A 
ATOM     68  F   UNL A   1      43.162  32.418  33.514  1.00  0.00    -0.206 F 
ATOM     69  C   UNL A   1      43.710  34.659  33.096  1.00  0.00     0.059 A 
ATOM     70  C   UNL A   1      44.448  35.331  30.883  1.00  0.00     0.059 A 
ATOM     71  F   UNL A   1      44.566  33.744  29.161  1.00  0.00    -0.206 F 
ATOM     72  C   UNL A   1      44.138  35.644  32.205  1.00  0.00     0.060 A 
BRANCH  72  73
ATOM     73  S   UNL A   1      44.288  37.340  32.806  1.00  0.00     0.124 S 
ATOM     74  O   UNL A   1      43.084  37.467  33.623  1.00  0.00    -0.237 OA
ATOM     75  O   UNL A   1      45.549  37.303  33.537  1.00  0.00    -0.237 OA
ATOM     76  O   UNL A   1      44.300  38.135  31.581  1.00  0.00    -0.744 OA
ENDBRANCH  72  73
ENDBRANCH  51  65
BRANCH  52  77
ATOM     77  C   UNL A   1      42.544  23.760  27.699  1.00  0.00     0.058 A 
ATOM     78  C   UNL A   1      42.381  22.654  28.545  1.00  0.00     0.135 A 
ATOM     79  C   UNL A   1      42.521  23.531  26.314  1.00  0.00     0.135 A 
ATOM     80  F   UNL A   1      42.400  22.821  29.878  1.00  0.00    -0.206 F 
ATOM     81  C   UNL A   1      42.224  21.367  28.044  1.00  0.00     0.059 A 
ATOM     82  C   UNL A   1      42.338  22.256  25.787  1.00  0.00     0.059 A 
ATOM     83  F   UNL A   1      42.654  24.557  25.459  1.00  0.00    -0.206 F 
ATOM     84  C   UNL A   1      42.203  21.178  26.660  1.00  0.00     0.060 A 
BRANCH  84  85
ATOM     85  S   UNL A   1      41.956  19.508  26.018  1.00  0.00     0.124 S 
ATOM     86  O   UNL A   1      42.834  19.509  24.854  1.00  0.00    -0.237 OA
ATOM     87  O   UNL A   1      42.384  18.680  27.141  1.00  0.00    -0.237 OA
ATOM     88  O   UNL A   1      40.525  19.468  25.730  1.00  0.00    -0.744 OA
ENDBRANCH  84  85
ENDBRANCH  52  77
BRANCH  64  89
ATOM     89  C   UNL A   1      47.898  27.034  30.741  1.00  0.00     0.058 A 
ATOM     90  C   UNL A   1      48.150  26.400  31.968  1.00  0.00     0.135 A 
ATOM     91  C   UNL A   1      48.979  27.217  29.863  1.00  0.00     0.135 A 
ATOM     92  F   UNL A   1      47.152  26.202  32.844  1.00  0.00    -0.206 F 
ATOM     93  C   UNL A   1      49.433  26.002  32.330  1.00  0.00     0.059 A 
ATOM     94  C   UNL A   1      50.265  26.799  30.192  1.00  0.00     0.059 A 
ATOM     95  F   UNL A   1      48.793  27.803  28.671  1.00  0.00    -0.206 F 
ATOM     96  C   UNL A   1      50.485  26.211  31.436  1.00  0.00     0.060 A 
BRANCH  96  97
ATOM     97  S   UNL A   1      52.147  25.693  31.917  1.00  0.00     0.124 S 
ATOM     98  O   UNL A   1      52.395  26.546  33.076  1.00  0.00    -0.237 OA
ATOM     99  O   UNL A   1      51.963  24.274  32.201  1.00  0.00    -0.237 OA
ATOM    100  O   UNL A   1      52.950  25.991  30.735  1.00  0.00    -0.744 OA
ENDBRANCH  96  97
ENDBRANCH  64  89
ENDBRANCH  38  39
ENDBRANCH  30  33
ENDBRANCH  28  29
ENDBRANCH  27  28
ENDBRANCH  26  27
ENDBRANCH   1  26
TORSDOF 20
ENDMDL
MODEL 2
REMARK VINA RESULT:     -10.7      4.675     10.456
REMARK SMILES CCOc1ccc(C(=O)NCC(=O)NCCCCCCNC(=O)c2ccc(-c3c4nc(c(-c5c(F)cc(S(=O)(=O)[O-])cc5F)c5ccc([nH]5)c(-c5c(F)cc(S(=O)(=O)[O-])cc5F)c5nc(c(-c6c(F)cc(S(=O)(=O)[O-])cc6F)c6ccc3[nH]6)C=C5)C=C4)cc2)c2ccccc12
REMARK SMILES IDX 17 1 16 2 15 3 14 4 12 5 13 6 11 8 10 9 8 10 9 11 7 13 4 14
REMARK SMILES IDX 5 15 95 16 6 17 90 18 94 19 91 20 93 21 92 22 3 23 2 24 1 25
REMARK SMILES IDX 18 26 19 27 20 28 21 29 22 30 23 32 24 33 25 34 89 35 26 36
REMARK SMILES IDX 88 37 27 38 28 39 29 40 82 41 30 42 87 43 81 44 83 45 31 46
REMARK SMILES IDX 86 47 80 48 79 49 32 51 66 52 45 53 65 54 46 55 49 56 64 57
REMARK SMILES IDX 84 58 47 59 48 60 63 62 85 63 50 64 33 65 34 66 43 67 35 68
REMARK SMILES IDX 36 69 42 70 44 71 37 72 38 73 39 74 40 75 41 76 67 77 68 78
REMARK SMILES IDX 77 79 69 80 70 81 76 82 78 83 71 84 72 85 73 86 74 87 75 88
REMARK SMILES IDX 51 89 52 90 61 91 53 92 54 93 60 94 62 95 55 96 56 97 57 98
REMARK SMILES IDX 58 99 59 100
REMARK H PARENT 14 7 10 12 21 31 83 50 49 61
REMARK Flexibility Score: inf
ROOT
ATOM      1  C   UNL A   1      36.699  23.607  25.183  1.00  0.00     0.002 C 
ENDROOT
BRANCH   1   2
ATOM      2  C   UNL A   1      36.386  22.112  25.078  1.00  0.00     0.021 C 
BRANCH   2   3
ATOM      3  C   UNL A   1      35.141  21.689  25.843  1.00  0.00     0.116 C 
BRANCH   3   4
ATOM      4  N   UNL A   1      34.015  21.405  24.979  1.00  0.00    -0.355 N 
ATOM      5  C   UNL A   1      32.948  22.153  24.602  1.00  0.00     0.239 C 
ATOM      6  O   UNL A   1      32.215  21.665  23.731  1.00  0.00    -0.273 OA
ATOM      7  H   UNL A   1      34.025  20.499  24.592  1.00  0.00     0.163 HD
BRANCH   5   8
ATOM      8  C   UNL A   1      32.685  23.597  25.074  1.00  0.00     0.216 C 
BRANCH   8   9
ATOM      9  N   UNL A   1      31.584  23.908  25.970  1.00  0.00    -0.343 N 
ATOM     10  C   UNL A   1      30.589  24.852  26.055  1.00  0.00     0.252 C 
ATOM     11  O   UNL A   1      29.723  24.553  26.876  1.00  0.00    -0.269 OA
ATOM     12  H   UNL A   1      31.540  23.271  26.719  1.00  0.00     0.164 HD
BRANCH  10  13
ATOM     13  C   UNL A   1      30.530  26.162  25.287  1.00  0.00     0.047 A 
ATOM     14  C   UNL A   1      30.358  28.559  23.797  1.00  0.00     0.127 A 
ATOM     15  C   UNL A   1      29.810  27.389  23.304  1.00  0.00     0.048 A 
ATOM     16  C   UNL A   1      31.113  28.551  24.983  1.00  0.00     0.025 A 
ATOM     17  C   UNL A   1      29.875  26.221  24.049  1.00  0.00     0.018 A 
ATOM     18  C   UNL A   1      31.226  27.344  25.745  1.00  0.00    -0.002 A 
ATOM     19  C   UNL A   1      31.789  29.721  25.400  1.00  0.00     0.012 A 
ATOM     20  C   UNL A   1      32.075  27.416  26.886  1.00  0.00     0.010 A 
ATOM     21  C   UNL A   1      32.605  29.735  26.526  1.00  0.00     0.001 A 
ATOM     22  C   UNL A   1      32.755  28.578  27.266  1.00  0.00     0.001 A 
BRANCH  14  23
ATOM     23  O   UNL A   1      30.269  29.688  23.020  1.00  0.00    -0.493 OA
BRANCH  23  24
ATOM     24  C   UNL A   1      28.937  29.927  22.537  1.00  0.00     0.226 C 
ATOM     25  C   UNL A   1      28.139  30.823  23.475  1.00  0.00     0.049 C 
ENDBRANCH  23  24
ENDBRANCH  14  23
ENDBRANCH  10  13
ENDBRANCH   8   9
ENDBRANCH   5   8
ENDBRANCH   3   4
ENDBRANCH   2   3
ENDBRANCH   1   2
BRANCH   1  26
ATOM     26  C   UNL A   1      37.845  23.967  26.136  1.00  0.00     0.002 C 
BRANCH  26  27
ATOM     27  C   UNL A   1      38.868  22.854  26.388  1.00  0.00     0.021 C 
BRANCH  27  28
ATOM     28  C   UNL A   1      40.157  23.310  27.062  1.00  0.00     0.116 C 
BRANCH  28  29
ATOM     29  N   UNL A   1      41.066  23.947  26.126  1.00  0.00    -0.352 N 
ATOM     30  C   UNL A   1      41.508  25.246  26.082  1.00  0.00     0.251 C 
ATOM     31  H   UNL A   1      41.417  23.362  25.417  1.00  0.00     0.163 HD
ATOM     32  O   UNL A   1      42.120  25.641  25.094  1.00  0.00    -0.269 OA
BRANCH  30  33
ATOM     33  C   UNL A   1      41.245  26.167  27.211  1.00  0.00     0.039 A 
ATOM     34  C   UNL A   1      42.057  27.294  27.360  1.00  0.00     0.014 A 
ATOM     35  C   UNL A   1      40.241  25.901  28.147  1.00  0.00     0.014 A 
ATOM     36  C   UNL A   1      41.847  28.164  28.431  1.00  0.00     0.010 A 
ATOM     37  C   UNL A   1      39.983  26.811  29.169  1.00  0.00     0.010 A 
ATOM     38  C   UNL A   1      40.800  27.937  29.339  1.00  0.00    -0.014 A 
BRANCH  38  39
ATOM     39  C   UNL A   1      40.586  28.842  30.499  1.00  0.00     0.031 A 
ATOM     40  C   UNL A   1      41.425  28.686  31.740  1.00  0.00     0.074 A 
ATOM     41  C   UNL A   1      39.622  29.782  30.446  1.00  0.00     0.049 A 
ATOM     42  N   UNL A   1      41.382  29.364  32.858  1.00  0.00    -0.248 NA
ATOM     43  C   UNL A   1      42.427  27.607  31.734  1.00  0.00     0.031 C 
ATOM     44  C   UNL A   1      38.710  29.996  29.321  1.00  0.00     0.029 A 
ATOM     45  N   UNL A   1      39.247  30.732  31.362  1.00  0.00    -0.354 N 
ATOM     46  C   UNL A   1      42.337  28.788  33.689  1.00  0.00     0.074 A 
ATOM     47  C   UNL A   1      42.899  27.666  32.971  1.00  0.00     0.031 C 
ATOM     48  C   UNL A   1      37.902  31.032  29.601  1.00  0.00     0.029 A 
ATOM     49  C   UNL A   1      38.217  31.536  30.935  1.00  0.00     0.049 A 
ATOM     50  H   UNL A   1      39.677  30.830  32.243  1.00  0.00     0.167 HD
ATOM     51  C   UNL A   1      42.731  29.174  34.926  1.00  0.00     0.037 A 
ATOM     52  C   UNL A   1      37.601  32.565  31.547  1.00  0.00     0.037 A 
ATOM     53  C   UNL A   1      42.187  30.311  35.624  1.00  0.00     0.049 A 
ATOM     54  C   UNL A   1      38.073  32.993  32.910  1.00  0.00     0.074 A 
ATOM     55  C   UNL A   1      42.548  30.818  36.860  1.00  0.00     0.029 A 
ATOM     56  N   UNL A   1      41.168  31.120  35.144  1.00  0.00    -0.354 N 
ATOM     57  N   UNL A   1      39.017  32.473  33.659  1.00  0.00    -0.248 NA
ATOM     58  C   UNL A   1      37.409  34.160  33.506  1.00  0.00     0.031 C 
ATOM     59  C   UNL A   1      41.721  31.910  37.145  1.00  0.00     0.029 A 
ATOM     60  C   UNL A   1      40.881  32.117  36.063  1.00  0.00     0.049 A 
ATOM     61  H   UNL A   1      40.714  31.003  34.277  1.00  0.00     0.167 HD
ATOM     62  C   UNL A   1      39.085  33.270  34.796  1.00  0.00     0.074 A 
ATOM     63  C   UNL A   1      38.093  34.313  34.631  1.00  0.00     0.031 C 
ATOM     64  C   UNL A   1      39.896  33.154  35.878  1.00  0.00     0.037 A 
BRANCH  51  65
ATOM     65  C   UNL A   1      43.809  28.366  35.599  1.00  0.00     0.058 A 
ATOM     66  C   UNL A   1      43.503  27.304  36.466  1.00  0.00     0.135 A 
ATOM     67  C   UNL A   1      45.165  28.641  35.358  1.00  0.00     0.135 A 
ATOM     68  F   UNL A   1      42.224  27.006  36.746  1.00  0.00    -0.206 F 
ATOM     69  C   UNL A   1      44.500  26.566  37.096  1.00  0.00     0.059 A 
ATOM     70  C   UNL A   1      46.179  27.895  35.952  1.00  0.00     0.059 A 
ATOM     71  F   UNL A   1      45.517  29.643  34.538  1.00  0.00    -0.206 F 
ATOM     72  C   UNL A   1      45.836  26.871  36.833  1.00  0.00     0.060 A 
BRANCH  72  73
ATOM     73  S   UNL A   1      47.118  25.902  37.657  1.00  0.00     0.124 S 
ATOM     74  O   UNL A   1      46.769  24.545  37.243  1.00  0.00    -0.237 OA
ATOM     75  O   UNL A   1      48.341  26.445  37.079  1.00  0.00    -0.237 OA
ATOM     76  O   UNL A   1      46.911  26.197  39.072  1.00  0.00    -0.744 OA
ENDBRANCH  72  73
ENDBRANCH  51  65
BRANCH  52  77
ATOM     77  C   UNL A   1      36.501  33.290  30.857  1.00  0.00     0.058 A 
ATOM     78  C   UNL A   1      35.164  33.117  31.246  1.00  0.00     0.135 A 
ATOM     79  C   UNL A   1      36.763  34.177  29.800  1.00  0.00     0.135 A 
ATOM     80  F   UNL A   1      34.862  32.277  32.248  1.00  0.00    -0.206 F 
ATOM     81  C   UNL A   1      34.124  33.777  30.601  1.00  0.00     0.059 A 
ATOM     82  C   UNL A   1      35.741  34.870  29.157  1.00  0.00     0.059 A 
ATOM     83  F   UNL A   1      38.026  34.394  29.401  1.00  0.00    -0.206 F 
ATOM     84  C   UNL A   1      34.423  34.654  29.556  1.00  0.00     0.060 A 
BRANCH  84  85
ATOM     85  S   UNL A   1      33.069  35.538  28.753  1.00  0.00     0.124 S 
ATOM     86  O   UNL A   1      33.791  36.554  27.996  1.00  0.00    -0.237 OA
ATOM     87  O   UNL A   1      32.437  34.483  27.967  1.00  0.00    -0.237 OA
ATOM     88  O   UNL A   1      32.278  36.031  29.877  1.00  0.00    -0.744 OA
ENDBRANCH  84  85
ENDBRANCH  52  77
BRANCH  64  89
ATOM     89  C   UNL A   1      39.782  34.212  36.941  1.00  0.00     0.058 A 
ATOM     90  C   UNL A   1      40.455  35.441  36.844  1.00  0.00     0.135 A 
ATOM     91  C   UNL A   1      38.969  33.997  38.066  1.00  0.00     0.135 A 
ATOM     92  F   UNL A   1      41.246  35.696  35.789  1.00  0.00    -0.206 F 
ATOM     93  C   UNL A   1      40.361  36.401  37.845  1.00  0.00     0.059 A 
ATOM     94  C   UNL A   1      38.836  34.957  39.065  1.00  0.00     0.059 A 
ATOM     95  F   UNL A   1      38.292  32.848  38.202  1.00  0.00    -0.206 F 
ATOM     96  C   UNL A   1      39.552  36.147  38.954  1.00  0.00     0.060 A 
BRANCH  96  97
ATOM     97  S   UNL A   1      39.439  37.400  40.250  1.00  0.00     0.124 S 
ATOM     98  O   UNL A   1      38.529  38.367  39.643  1.00  0.00    -0.237 OA
ATOM     99  O   UNL A   1      38.901  36.642  41.374  1.00  0.00    -0.237 OA
ATOM    100  O   UNL A   1      40.819  37.850  40.409  1.00  0.00    -0.744 OA
ENDBRANCH  96  97
ENDBRANCH  64  89
ENDBRANCH  38  39
ENDBRANCH  30  33
ENDBRANCH  28  29
ENDBRANCH  27  28
ENDBRANCH  26  27
ENDBRANCH   1  26
TORSDOF 20
ENDMDL
MODEL 3
REMARK VINA RESULT:     -10.5      0.816      8.149
REMARK SMILES CCOc1ccc(C(=O)NCC(=O)NCCCCCCNC(=O)c2ccc(-c3c4nc(c(-c5c(F)cc(S(=O)(=O)[O-])cc5F)c5ccc([nH]5)c(-c5c(F)cc(S(=O)(=O)[O-])cc5F)c5nc(c(-c6c(F)cc(S(=O)(=O)[O-])cc6F)c6ccc3[nH]6)C=C5)C=C4)cc2)c2ccccc12
REMARK SMILES IDX 17 1 16 2 15 3 14 4 12 5 13 6 11 8 10 9 8 10 9 11 7 13 4 14
REMARK SMILES IDX 5 15 95 16 6 17 90 18 94 19 91 20 93 21 92 22 3 23 2 24 1 25
REMARK SMILES IDX 18 26 19 27 20 28 21 29 22 30 23 32 24 33 25 34 89 35 26 36
REMARK SMILES IDX 88 37 27 38 28 39 29 40 82 41 30 42 87 43 81 44 83 45 31 46
REMARK SMILES IDX 86 47 80 48 79 49 32 51 66 52 45 53 65 54 46 55 49 56 64 57
REMARK SMILES IDX 84 58 47 59 48 60 63 62 85 63 50 64 33 65 34 66 43 67 35 68
REMARK SMILES IDX 36 69 42 70 44 71 37 72 38 73 39 74 40 75 41 76 67 77 68 78
REMARK SMILES IDX 77 79 69 80 70 81 76 82 78 83 71 84 72 85 73 86 74 87 75 88
REMARK SMILES IDX 51 89 52 90 61 91 53 92 54 93 60 94 62 95 55 96 56 97 57 98
REMARK SMILES IDX 58 99 59 100
REMARK H PARENT 14 7 10 12 21 31 83 50 49 61
REMARK Flexibility Score: inf
ROOT
ATOM      1  C   UNL A   1      32.349  27.614  23.901  1.00  0.00     0.002 C 
ENDROOT
BRANCH   1   2
ATOM      2  C   UNL A   1      33.004  26.847  22.751  1.00  0.00     0.021 C 
BRANCH   2   3
ATOM      3  C   UNL A   1      32.013  26.122  21.851  1.00  0.00     0.116 C 
BRANCH   3   4
ATOM      4  N   UNL A   1      32.000  24.690  22.061  1.00  0.00    -0.355 N 
ATOM      5  C   UNL A   1      31.355  23.911  22.965  1.00  0.00     0.239 C 
ATOM      6  O   UNL A   1      31.445  22.687  22.798  1.00  0.00    -0.273 OA
ATOM      7  H   UNL A   1      32.565  24.188  21.430  1.00  0.00     0.163 HD
BRANCH   5   8
ATOM      8  C   UNL A   1      30.422  24.446  24.069  1.00  0.00     0.216 C 
BRANCH   8   9
ATOM      9  N   UNL A   1      30.551  23.999  25.446  1.00  0.00    -0.343 N 
ATOM     10  C   UNL A   1      31.570  23.726  26.326  1.00  0.00     0.252 C 
ATOM     11  O   UNL A   1      31.176  23.615  27.487  1.00  0.00    -0.269 OA
ATOM     12  H   UNL A   1      29.670  23.853  25.860  1.00  0.00     0.164 HD
BRANCH  10  13
ATOM     13  C   UNL A   1      33.033  23.522  25.966  1.00  0.00     0.047 A 
ATOM     14  C   UNL A   1      35.770  23.235  25.318  1.00  0.00     0.127 A 
ATOM     15  C   UNL A   1      35.230  24.490  25.533  1.00  0.00     0.048 A 
ATOM     16  C   UNL A   1      34.945  22.096  25.297  1.00  0.00     0.025 A 
ATOM     17  C   UNL A   1      33.893  24.624  25.874  1.00  0.00     0.018 A 
ATOM     18  C   UNL A   1      33.554  22.222  25.607  1.00  0.00    -0.002 A 
ATOM     19  C   UNL A   1      35.482  20.840  24.933  1.00  0.00     0.012 A 
ATOM     20  C   UNL A   1      32.787  21.027  25.482  1.00  0.00     0.010 A 
ATOM     21  C   UNL A   1      34.687  19.704  24.829  1.00  0.00     0.001 A 
ATOM     22  C   UNL A   1      33.335  19.800  25.096  1.00  0.00     0.001 A 
BRANCH  14  23
ATOM     23  O   UNL A   1      37.099  23.156  24.980  1.00  0.00    -0.493 OA
BRANCH  23  24
ATOM     24  C   UNL A   1      37.956  23.792  25.942  1.00  0.00     0.226 C 
ATOM     25  C   UNL A   1      38.975  22.825  26.529  1.00  0.00     0.049 C 
ENDBRANCH  23  24
ENDBRANCH  14  23
ENDBRANCH  10  13
ENDBRANCH   8   9
ENDBRANCH   5   8
ENDBRANCH   3   4
ENDBRANCH   2   3
ENDBRANCH   1   2
BRANCH   1  26
ATOM     26  C   UNL A   1      33.209  28.721  24.520  1.00  0.00     0.002 C 
BRANCH  26  27
ATOM     27  C   UNL A   1      34.415  28.241  25.335  1.00  0.00     0.021 C 
BRANCH  27  28
ATOM     28  C   UNL A   1      34.185  28.175  26.841  1.00  0.00     0.116 C 
BRANCH  28  29
ATOM     29  N   UNL A   1      33.909  29.482  27.408  1.00  0.00    -0.352 N 
ATOM     30  C   UNL A   1      34.704  30.285  28.187  1.00  0.00     0.251 C 
ATOM     31  H   UNL A   1      33.018  29.849  27.204  1.00  0.00     0.163 HD
ATOM     32  O   UNL A   1      34.216  31.270  28.733  1.00  0.00    -0.269 OA
BRANCH  30  33
ATOM     33  C   UNL A   1      36.136  29.964  28.377  1.00  0.00     0.039 A 
ATOM     34  C   UNL A   1      36.568  29.541  29.636  1.00  0.00     0.014 A 
ATOM     35  C   UNL A   1      37.061  30.125  27.341  1.00  0.00     0.014 A 
ATOM     36  C   UNL A   1      37.918  29.258  29.849  1.00  0.00     0.010 A 
ATOM     37  C   UNL A   1      38.393  29.768  27.533  1.00  0.00     0.010 A 
ATOM     38  C   UNL A   1      38.842  29.357  28.796  1.00  0.00    -0.014 A 
BRANCH  38  39
ATOM     39  C   UNL A   1      40.286  29.085  29.019  1.00  0.00     0.031 A 
ATOM     40  C   UNL A   1      40.863  27.742  28.657  1.00  0.00     0.074 A 
ATOM     41  C   UNL A   1      41.068  30.033  29.571  1.00  0.00     0.049 A 
ATOM     42  N   UNL A   1      42.090  27.307  28.788  1.00  0.00    -0.248 NA
ATOM     43  C   UNL A   1      39.933  26.746  28.100  1.00  0.00     0.031 C 
ATOM     44  C   UNL A   1      40.615  31.353  30.013  1.00  0.00     0.029 A 
ATOM     45  N   UNL A   1      42.410  30.031  29.857  1.00  0.00    -0.354 N 
ATOM     46  C   UNL A   1      42.076  25.989  28.344  1.00  0.00     0.074 A 
ATOM     47  C   UNL A   1      40.707  25.676  27.999  1.00  0.00     0.031 C 
ATOM     48  C   UNL A   1      41.666  32.044  30.486  1.00  0.00     0.029 A 
ATOM     49  C   UNL A   1      42.860  31.207  30.409  1.00  0.00     0.049 A 
ATOM     50  H   UNL A   1      42.997  29.259  29.683  1.00  0.00     0.167 HD
ATOM     51  C   UNL A   1      43.111  25.126  28.207  1.00  0.00     0.037 A 
ATOM     52  C   UNL A   1      44.095  31.571  30.802  1.00  0.00     0.037 A 
ATOM     53  C   UNL A   1      44.477  25.455  28.524  1.00  0.00     0.049 A 
ATOM     54  C   UNL A   1      45.235  30.606  30.617  1.00  0.00     0.074 A 
ATOM     55  C   UNL A   1      45.609  24.672  28.378  1.00  0.00     0.029 A 
ATOM     56  N   UNL A   1      44.897  26.668  29.050  1.00  0.00    -0.354 N 
ATOM     57  N   UNL A   1      45.213  29.383  30.141  1.00  0.00    -0.248 NA
ATOM     58  C   UNL A   1      46.572  31.075  31.006  1.00  0.00     0.031 C 
ATOM     59  C   UNL A   1      46.708  25.398  28.851  1.00  0.00     0.029 A 
ATOM     60  C   UNL A   1      46.269  26.653  29.242  1.00  0.00     0.049 A 
ATOM     61  H   UNL A   1      44.307  27.430  29.256  1.00  0.00     0.167 HD
ATOM     62  C   UNL A   1      46.536  28.952  30.138  1.00  0.00     0.074 A 
ATOM     63  C   UNL A   1      47.331  30.049  30.650  1.00  0.00     0.031 C 
ATOM     64  C   UNL A   1      47.047  27.758  29.744  1.00  0.00     0.037 A 
BRANCH  51  65
ATOM     65  C   UNL A   1      42.806  23.748  27.682  1.00  0.00     0.058 A 
ATOM     66  C   UNL A   1      42.434  22.698  28.537  1.00  0.00     0.135 A 
ATOM     67  C   UNL A   1      42.865  23.478  26.305  1.00  0.00     0.135 A 
ATOM     68  F   UNL A   1      42.378  22.894  29.865  1.00  0.00    -0.206 F 
ATOM     69  C   UNL A   1      42.165  21.422  28.052  1.00  0.00     0.059 A 
ATOM     70  C   UNL A   1      42.568  22.217  25.794  1.00  0.00     0.059 A 
ATOM     71  F   UNL A   1      43.214  24.443  25.440  1.00  0.00    -0.206 F 
ATOM     72  C   UNL A   1      42.236  21.191  26.678  1.00  0.00     0.060 A 
BRANCH  72  73
ATOM     73  S   UNL A   1      41.882  19.531  26.064  1.00  0.00     0.124 S 
ATOM     74  O   UNL A   1      42.312  18.706  27.191  1.00  0.00    -0.237 OA
ATOM     75  O   UNL A   1      40.443  19.584  25.832  1.00  0.00    -0.237 OA
ATOM     76  O   UNL A   1      42.705  19.429  24.863  1.00  0.00    -0.744 OA
ENDBRANCH  72  73
ENDBRANCH  51  65
BRANCH  52  77
ATOM     77  C   UNL A   1      44.326  32.927  31.369  1.00  0.00     0.058 A 
ATOM     78  C   UNL A   1      44.561  34.029  30.535  1.00  0.00     0.135 A 
ATOM     79  C   UNL A   1      44.310  33.149  32.755  1.00  0.00     0.135 A 
ATOM     80  F   UNL A   1      44.591  33.867  29.202  1.00  0.00    -0.206 F 
ATOM     81  C   UNL A   1      44.793  35.299  31.050  1.00  0.00     0.059 A 
ATOM     82  C   UNL A   1      44.512  34.417  33.295  1.00  0.00     0.059 A 
ATOM     83  F   UNL A   1      44.071  32.132  33.598  1.00  0.00    -0.206 F 
ATOM     84  C   UNL A   1      44.765  35.484  32.434  1.00  0.00     0.060 A 
BRANCH  84  85
ATOM     85  S   UNL A   1      45.026  37.145  33.093  1.00  0.00     0.124 S 
ATOM     86  O   UNL A   1      45.544  36.854  34.424  1.00  0.00    -0.237 OA
ATOM     87  O   UNL A   1      45.981  37.706  32.143  1.00  0.00    -0.237 OA
ATOM     88  O   UNL A   1      43.691  37.735  33.049  1.00  0.00    -0.744 OA
ENDBRANCH  84  85
ENDBRANCH  52  77
BRANCH  64  89
ATOM     89  C   UNL A   1      48.542  27.597  29.800  1.00  0.00     0.058 A 
ATOM     90  C   UNL A   1      49.199  27.145  30.956  1.00  0.00     0.135 A 
ATOM     91  C   UNL A   1      49.325  27.882  28.670  1.00  0.00     0.135 A 
ATOM     92  F   UNL A   1      48.497  26.860  32.065  1.00  0.00    -0.206 F 
ATOM     93  C   UNL A   1      50.584  27.023  31.003  1.00  0.00     0.059 A 
ATOM     94  C   UNL A   1      50.709  27.737  28.685  1.00  0.00     0.059 A 
ATOM     95  F   UNL A   1      48.748  28.302  27.534  1.00  0.00    -0.206 F 
ATOM     96  C   UNL A   1      51.330  27.327  29.863  1.00  0.00     0.060 A 
BRANCH  96  97
ATOM     97  S   UNL A   1      53.127  27.167  29.936  1.00  0.00     0.124 S 
ATOM     98  O   UNL A   1      53.466  27.025  28.523  1.00  0.00    -0.237 OA
ATOM     99  O   UNL A   1      53.529  28.423  30.560  1.00  0.00    -0.237 OA
ATOM    100  O   UNL A   1      53.330  25.975  30.754  1.00  0.00    -0.744 OA
ENDBRANCH  96  97
ENDBRANCH  64  89
ENDBRANCH  38  39
ENDBRANCH  30  33
ENDBRANCH  28  29
ENDBRANCH  27  28
ENDBRANCH  26  27
ENDBRANCH   1  26
TORSDOF 20
ENDMDL
