MODEL 1
REMARK VINA RESULT:     -12.0      0.000      0.000
REMARK SMILES CC1=C(C)C[C@@H](C(=O)NCCCCCCNC(=O)c2ccc(-c3c4nc(c(-c5c(F)cc(S(=O)(=O)[O-])cc5F)c5ccc([nH]5)c(-c5c(F)cc(S(=O)(=O)[O-])cc5F)c5nc(c(-c6c(F)cc(S(=O)(=O)[O-])cc6F)c6ccc3[nH]6)C=C5)C=C4)cc2)[C@@H](C(=O)NCC[NH+]2CCOCC2)C1
REMARK SMILES IDX 12 1 11 2 10 3 9 4 7 5 8 6 6 8 1 9 2 10 3 11 97 12 4 13 5 14
REMARK SMILES IDX 85 15 86 16 87 17 88 18 89 20 90 21 91 22 92 23 96 24 93 26
REMARK SMILES IDX 95 27 94 28 13 29 14 30 15 31 16 32 17 33 18 35 19 36 20 37
REMARK SMILES IDX 84 38 21 39 83 40 22 41 23 42 24 43 77 44 25 45 82 46 76 47
REMARK SMILES IDX 78 48 26 49 81 50 75 51 74 52 27 54 61 55 40 56 60 57 41 58
REMARK SMILES IDX 44 59 59 60 79 61 42 62 43 63 58 65 80 66 45 67 28 68 29 69
REMARK SMILES IDX 38 70 30 71 31 72 37 73 39 74 32 75 33 76 34 77 35 78 36 79
REMARK SMILES IDX 62 80 63 81 72 82 64 83 65 84 71 85 73 86 66 87 67 88 68 89
REMARK SMILES IDX 69 90 70 91 46 92 47 93 56 94 48 95 49 96 55 97 57 98 50 99
REMARK SMILES IDX 51 100 52 101 53 102 54 103
REMARK H PARENT 9 7 88 19 91 25 16 34 78 53 44 64
REMARK Flexibility Score: inf
ROOT
ATOM      1  C   UNL A   1      33.051  28.430  26.284  1.00  0.00     0.002 C 
ENDROOT
BRANCH   1   2
ATOM      2  C   UNL A   1      33.895  27.161  26.185  1.00  0.00     0.021 C 
BRANCH   2   3
ATOM      3  C   UNL A   1      33.177  25.889  25.743  1.00  0.00     0.116 C 
BRANCH   3   4
ATOM      4  N   UNL A   1      33.996  24.713  25.574  1.00  0.00    -0.356 N 
ATOM      5  C   UNL A   1      34.233  23.992  24.449  1.00  0.00     0.224 C 
ATOM      6  O   UNL A   1      35.405  23.646  24.250  1.00  0.00    -0.275 OA
ATOM      7  H   UNL A   1      34.445  24.387  26.388  1.00  0.00     0.163 HD
BRANCH   5   8
ATOM      8  C   UNL A   1      33.162  23.513  23.480  1.00  0.00     0.095 C 
ATOM      9  C   UNL A   1      30.323  26.786  23.530  1.00  0.00     0.039 C 
ATOM     10  C   UNL A   1      31.170  25.578  23.202  1.00  0.00    -0.074 C 
ATOM     11  C   UNL A   1      32.307  25.647  22.478  1.00  0.00    -0.074 C 
ATOM     12  C   UNL A   1      30.747  24.287  23.905  1.00  0.00     0.045 C 
ATOM     13  C   UNL A   1      32.965  26.903  21.972  1.00  0.00     0.039 C 
ATOM     14  C   UNL A   1      33.104  24.401  22.241  1.00  0.00     0.045 C 
ATOM     15  C   UNL A   1      31.788  23.114  24.004  1.00  0.00     0.095 C 
BRANCH  15  16
ATOM     16  C   UNL A   1      31.711  22.394  25.370  1.00  0.00     0.224 C 
ATOM     17  O   UNL A   1      31.126  22.939  26.317  1.00  0.00    -0.275 OA
ATOM     18  N   UNL A   1      32.105  21.122  25.639  1.00  0.00    -0.350 N 
ATOM     19  H   UNL A   1      31.936  20.883  26.578  1.00  0.00     0.163 HD
BRANCH  18  20
ATOM     20  C   UNL A   1      32.714  20.010  24.903  1.00  0.00     0.177 C 
BRANCH  20  21
ATOM     21  C   UNL A   1      32.522  18.617  25.566  1.00  0.00     0.283 C 
BRANCH  21  22
ATOM     22  N   UNL A   1      32.201  17.390  24.809  1.00  0.00    -0.330 N 
ATOM     23  C   UNL A   1      32.552  16.101  25.416  1.00  0.00     0.291 C 
ATOM     24  C   UNL A   1      32.804  17.449  23.445  1.00  0.00     0.291 C 
ATOM     25  H   UNL A   1      31.181  17.399  24.794  1.00  0.00     0.348 HD
ATOM     26  C   UNL A   1      34.037  15.719  25.328  1.00  0.00     0.221 C 
ATOM     27  C   UNL A   1      34.292  17.057  23.416  1.00  0.00     0.221 C 
ATOM     28  O   UNL A   1      34.504  15.758  23.976  1.00  0.00    -0.370 OA
ENDBRANCH  21  22
ENDBRANCH  20  21
ENDBRANCH  18  20
ENDBRANCH  15  16
ENDBRANCH   5   8
ENDBRANCH   3   4
ENDBRANCH   2   3
ENDBRANCH   1   2
BRANCH   1  29
ATOM     29  C   UNL A   1      33.631  29.539  27.162  1.00  0.00     0.002 C 
BRANCH  29  30
ATOM     30  C   UNL A   1      35.151  29.503  27.306  1.00  0.00     0.021 C 
BRANCH  30  31
ATOM     31  C   UNL A   1      35.727  30.696  28.047  1.00  0.00     0.116 C 
BRANCH  31  32
ATOM     32  N   UNL A   1      35.518  30.597  29.480  1.00  0.00    -0.352 N 
ATOM     33  C   UNL A   1      36.412  30.170  30.436  1.00  0.00     0.251 C 
ATOM     34  H   UNL A   1      34.631  30.869  29.809  1.00  0.00     0.163 HD
ATOM     35  O   UNL A   1      36.059  29.965  31.580  1.00  0.00    -0.269 OA
BRANCH  33  36
ATOM     36  C   UNL A   1      37.810  29.938  30.015  1.00  0.00     0.039 A 
ATOM     37  C   UNL A   1      38.780  29.710  30.990  1.00  0.00     0.014 A 
ATOM     38  C   UNL A   1      38.130  29.882  28.655  1.00  0.00     0.014 A 
ATOM     39  C   UNL A   1      40.075  29.375  30.596  1.00  0.00     0.010 A 
ATOM     40  C   UNL A   1      39.399  29.470  28.267  1.00  0.00     0.010 A 
ATOM     41  C   UNL A   1      40.385  29.223  29.233  1.00  0.00    -0.014 A 
BRANCH  41  42
ATOM     42  C   UNL A   1      41.745  28.827  28.798  1.00  0.00     0.031 A 
ATOM     43  C   UNL A   1      42.836  29.860  28.730  1.00  0.00     0.074 A 
ATOM     44  C   UNL A   1      41.978  27.557  28.416  1.00  0.00     0.049 A 
ATOM     45  N   UNL A   1      44.074  29.727  28.328  1.00  0.00    -0.248 NA
ATOM     46  C   UNL A   1      42.482  31.230  29.137  1.00  0.00     0.031 C 
ATOM     47  C   UNL A   1      40.982  26.483  28.391  1.00  0.00     0.029 A 
ATOM     48  N   UNL A   1      43.126  26.952  27.969  1.00  0.00    -0.354 N 
ATOM     49  C   UNL A   1      44.640  30.993  28.428  1.00  0.00     0.074 A 
ATOM     50  C   UNL A   1      43.595  31.892  28.863  1.00  0.00     0.031 C 
ATOM     51  C   UNL A   1      41.568  25.347  27.979  1.00  0.00     0.029 A 
ATOM     52  C   UNL A   1      42.970  25.618  27.675  1.00  0.00     0.049 A 
ATOM     53  H   UNL A   1      43.981  27.430  27.866  1.00  0.00     0.167 HD
ATOM     54  C   UNL A   1      45.922  31.365  28.203  1.00  0.00     0.037 A 
ATOM     55  C   UNL A   1      43.858  24.718  27.211  1.00  0.00     0.037 A 
ATOM     56  C   UNL A   1      46.959  30.455  27.792  1.00  0.00     0.049 A 
ATOM     57  C   UNL A   1      45.276  25.157  26.965  1.00  0.00     0.074 A 
ATOM     58  C   UNL A   1      48.301  30.715  27.591  1.00  0.00     0.029 A 
ATOM     59  N   UNL A   1      46.766  29.107  27.520  1.00  0.00    -0.354 N 
ATOM     60  N   UNL A   1      45.813  26.343  27.127  1.00  0.00    -0.248 NA
ATOM     61  C   UNL A   1      46.213  24.135  26.478  1.00  0.00     0.031 C 
ATOM     62  C   UNL A   1      48.913  29.536  27.152  1.00  0.00     0.029 A 
ATOM     63  C   UNL A   1      47.962  28.528  27.131  1.00  0.00     0.049 A 
ATOM     64  H   UNL A   1      45.906  28.633  27.594  1.00  0.00     0.167 HD
ATOM     65  C   UNL A   1      47.154  26.204  26.790  1.00  0.00     0.074 A 
ATOM     66  C   UNL A   1      47.350  24.815  26.428  1.00  0.00     0.031 C 
ATOM     67  C   UNL A   1      48.136  27.140  26.781  1.00  0.00     0.037 A 
BRANCH  54  68
ATOM     68  C   UNL A   1      46.273  32.812  28.406  1.00  0.00     0.058 A 
ATOM     69  C   UNL A   1      46.188  33.745  27.360  1.00  0.00     0.135 A 
ATOM     70  C   UNL A   1      46.672  33.282  29.669  1.00  0.00     0.135 A 
ATOM     71  F   UNL A   1      45.830  33.349  26.129  1.00  0.00    -0.206 F 
ATOM     72  C   UNL A   1      46.513  35.085  27.549  1.00  0.00     0.059 A 
ATOM     73  C   UNL A   1      46.973  34.623  29.888  1.00  0.00     0.059 A 
ATOM     74  F   UNL A   1      46.775  32.434  30.704  1.00  0.00    -0.206 F 
ATOM     75  C   UNL A   1      46.904  35.514  28.819  1.00  0.00     0.060 A 
BRANCH  75  76
ATOM     76  S   UNL A   1      47.312  37.257  29.048  1.00  0.00     0.124 S 
ATOM     77  O   UNL A   1      46.622  37.556  30.299  1.00  0.00    -0.237 OA
ATOM     78  O   UNL A   1      48.769  37.230  29.118  1.00  0.00    -0.237 OA
ATOM     79  O   UNL A   1      46.756  37.896  27.858  1.00  0.00    -0.744 OA
ENDBRANCH  75  76
ENDBRANCH  54  68
BRANCH  55  80
ATOM     80  C   UNL A   1      43.438  23.310  26.972  1.00  0.00     0.058 A 
ATOM     81  C   UNL A   1      43.242  22.425  28.042  1.00  0.00     0.135 A 
ATOM     82  C   UNL A   1      43.219  22.824  25.673  1.00  0.00     0.135 A 
ATOM     83  F   UNL A   1      43.442  22.839  29.301  1.00  0.00    -0.206 F 
ATOM     84  C   UNL A   1      42.863  21.102  27.834  1.00  0.00     0.059 A 
ATOM     85  C   UNL A   1      42.814  21.514  25.441  1.00  0.00     0.059 A 
ATOM     86  F   UNL A   1      43.375  23.636  24.616  1.00  0.00    -0.206 F 
ATOM     87  C   UNL A   1      42.650  20.656  26.528  1.00  0.00     0.060 A 
BRANCH  87  88
ATOM     88  S   UNL A   1      42.121  18.948  26.272  1.00  0.00     0.124 S 
ATOM     89  O   UNL A   1      42.286  18.387  27.607  1.00  0.00    -0.237 OA
ATOM     90  O   UNL A   1      40.745  19.119  25.815  1.00  0.00    -0.237 OA
ATOM     91  O   UNL A   1      43.052  18.457  25.261  1.00  0.00    -0.744 OA
ENDBRANCH  87  88
ENDBRANCH  55  80
BRANCH  67  92
ATOM     92  C   UNL A   1      49.517  26.688  26.396  1.00  0.00     0.058 A 
ATOM     93  C   UNL A   1      50.392  26.111  27.329  1.00  0.00     0.135 A 
ATOM     94  C   UNL A   1      49.950  26.785  25.063  1.00  0.00     0.135 A 
ATOM     95  F   UNL A   1      50.030  26.000  28.617  1.00  0.00    -0.206 F 
ATOM     96  C   UNL A   1      51.658  25.667  26.959  1.00  0.00     0.059 A 
ATOM     97  C   UNL A   1      51.198  26.320  24.665  1.00  0.00     0.059 A 
ATOM     98  F   UNL A   1      49.147  27.320  24.129  1.00  0.00    -0.206 F 
ATOM     99  C   UNL A   1      52.050  25.774  25.624  1.00  0.00     0.060 A 
BRANCH  99 100
ATOM    100  S   UNL A   1      53.681  25.161  25.151  1.00  0.00     0.124 S 
ATOM    101  O   UNL A   1      53.478  23.717  25.199  1.00  0.00    -0.237 OA
ATOM    102  O   UNL A   1      53.855  25.733  23.819  1.00  0.00    -0.237 OA
ATOM    103  O   UNL A   1      54.561  25.707  26.180  1.00  0.00    -0.744 OA
ENDBRANCH  99 100
ENDBRANCH  67  92
ENDBRANCH  41  42
ENDBRANCH  33  36
ENDBRANCH  31  32
ENDBRANCH  30  31
ENDBRANCH  29  30
ENDBRANCH   1  29
TORSDOF 20
ENDMDL
MODEL 2
REMARK VINA RESULT:     -11.8      5.989      8.049
REMARK SMILES CC1=C(C)C[C@@H](C(=O)NCCCCCCNC(=O)c2ccc(-c3c4nc(c(-c5c(F)cc(S(=O)(=O)[O-])cc5F)c5ccc([nH]5)c(-c5c(F)cc(S(=O)(=O)[O-])cc5F)c5nc(c(-c6c(F)cc(S(=O)(=O)[O-])cc6F)c6ccc3[nH]6)C=C5)C=C4)cc2)[C@@H](C(=O)NCC[NH+]2CCOCC2)C1
REMARK SMILES IDX 12 1 11 2 10 3 9 4 7 5 8 6 6 8 1 9 2 10 3 11 97 12 4 13 5 14
REMARK SMILES IDX 85 15 86 16 87 17 88 18 89 20 90 21 91 22 92 23 96 24 93 26
REMARK SMILES IDX 95 27 94 28 13 29 14 30 15 31 16 32 17 33 18 35 19 36 20 37
REMARK SMILES IDX 84 38 21 39 83 40 22 41 23 42 24 43 77 44 25 45 82 46 76 47
REMARK SMILES IDX 78 48 26 49 81 50 75 51 74 52 27 54 61 55 40 56 60 57 41 58
REMARK SMILES IDX 44 59 59 60 79 61 42 62 43 63 58 65 80 66 45 67 28 68 29 69
REMARK SMILES IDX 38 70 30 71 31 72 37 73 39 74 32 75 33 76 34 77 35 78 36 79
REMARK SMILES IDX 62 80 63 81 72 82 64 83 65 84 71 85 73 86 66 87 67 88 68 89
REMARK SMILES IDX 69 90 70 91 46 92 47 93 56 94 48 95 49 96 55 97 57 98 50 99
REMARK SMILES IDX 51 100 52 101 53 102 54 103
REMARK H PARENT 9 7 88 19 91 25 16 34 78 53 44 64
REMARK Flexibility Score: inf
ROOT
ATOM      1  C   UNL A   1      32.212  29.891  27.150  1.00  0.00     0.002 C 
ENDROOT
BRANCH   1   2
ATOM      2  C   UNL A   1      32.293  28.494  26.539  1.00  0.00     0.021 C 
BRANCH   2   3
ATOM      3  C   UNL A   1      31.510  27.388  27.241  1.00  0.00     0.116 C 
BRANCH   3   4
ATOM      4  N   UNL A   1      31.161  26.239  26.442  1.00  0.00    -0.356 N 
ATOM      5  C   UNL A   1      31.853  25.085  26.258  1.00  0.00     0.224 C 
ATOM      6  O   UNL A   1      31.199  24.035  26.303  1.00  0.00    -0.275 OA
ATOM      7  H   UNL A   1      30.302  26.298  25.964  1.00  0.00     0.163 HD
BRANCH   5   8
ATOM      8  C   UNL A   1      33.333  25.003  25.917  1.00  0.00     0.095 C 
ATOM      9  C   UNL A   1      33.283  23.312  21.928  1.00  0.00     0.039 C 
ATOM     10  C   UNL A   1      33.613  24.020  23.222  1.00  0.00    -0.074 C 
ATOM     11  C   UNL A   1      33.362  25.330  23.431  1.00  0.00    -0.074 C 
ATOM     12  C   UNL A   1      34.086  23.106  24.353  1.00  0.00     0.045 C 
ATOM     13  C   UNL A   1      32.646  26.261  22.489  1.00  0.00     0.039 C 
ATOM     14  C   UNL A   1      33.685  25.936  24.763  1.00  0.00     0.045 C 
ATOM     15  C   UNL A   1      34.017  23.644  25.827  1.00  0.00     0.095 C 
BRANCH  15  16
ATOM     16  C   UNL A   1      33.580  22.542  26.819  1.00  0.00     0.224 C 
ATOM     17  O   UNL A   1      33.712  22.727  28.038  1.00  0.00    -0.275 OA
ATOM     18  N   UNL A   1      32.914  21.397  26.516  1.00  0.00    -0.350 N 
ATOM     19  H   UNL A   1      32.730  20.863  27.321  1.00  0.00     0.163 HD
BRANCH  18  20
ATOM     20  C   UNL A   1      32.398  20.745  25.309  1.00  0.00     0.177 C 
BRANCH  20  21
ATOM     21  C   UNL A   1      33.100  19.405  24.950  1.00  0.00     0.283 C 
BRANCH  21  22
ATOM     22  N   UNL A   1      32.371  18.166  24.612  1.00  0.00    -0.330 N 
ATOM     23  C   UNL A   1      32.528  17.014  25.507  1.00  0.00     0.291 C 
ATOM     24  C   UNL A   1      32.701  17.732  23.222  1.00  0.00     0.291 C 
ATOM     25  H   UNL A   1      31.396  18.446  24.720  1.00  0.00     0.348 HD
ATOM     26  C   UNL A   1      33.842  16.237  25.349  1.00  0.00     0.221 C 
ATOM     27  C   UNL A   1      34.028  16.958  23.122  1.00  0.00     0.221 C 
ATOM     28  O   UNL A   1      34.041  15.823  23.993  1.00  0.00    -0.370 OA
ENDBRANCH  21  22
ENDBRANCH  20  21
ENDBRANCH  18  20
ENDBRANCH  15  16
ENDBRANCH   5   8
ENDBRANCH   3   4
ENDBRANCH   2   3
ENDBRANCH   1   2
BRANCH   1  29
ATOM     29  C   UNL A   1      31.685  30.986  26.222  1.00  0.00     0.002 C 
BRANCH  29  30
ATOM     30  C   UNL A   1      31.599  32.371  26.861  1.00  0.00     0.021 C 
BRANCH  30  31
ATOM     31  C   UNL A   1      32.894  32.833  27.504  1.00  0.00     0.116 C 
BRANCH  31  32
ATOM     32  N   UNL A   1      32.820  34.215  27.942  1.00  0.00    -0.352 N 
ATOM     33  C   UNL A   1      33.551  34.825  28.937  1.00  0.00     0.251 C 
ATOM     34  H   UNL A   1      32.171  34.785  27.472  1.00  0.00     0.163 HD
ATOM     35  O   UNL A   1      33.271  35.940  29.329  1.00  0.00    -0.269 OA
BRANCH  33  36
ATOM     36  C   UNL A   1      34.668  34.063  29.535  1.00  0.00     0.039 A 
ATOM     37  C   UNL A   1      35.974  34.368  29.153  1.00  0.00     0.014 A 
ATOM     38  C   UNL A   1      34.412  33.103  30.518  1.00  0.00     0.014 A 
ATOM     39  C   UNL A   1      37.036  33.736  29.799  1.00  0.00     0.010 A 
ATOM     40  C   UNL A   1      35.472  32.535  31.213  1.00  0.00     0.010 A 
ATOM     41  C   UNL A   1      36.793  32.838  30.852  1.00  0.00    -0.014 A 
BRANCH  41  42
ATOM     42  C   UNL A   1      37.911  32.189  31.577  1.00  0.00     0.031 A 
ATOM     43  C   UNL A   1      38.345  32.727  32.913  1.00  0.00     0.074 A 
ATOM     44  C   UNL A   1      38.564  31.158  31.008  1.00  0.00     0.049 A 
ATOM     45  N   UNL A   1      39.328  32.334  33.681  1.00  0.00    -0.248 NA
ATOM     46  C   UNL A   1      37.593  33.877  33.444  1.00  0.00     0.031 C 
ATOM     47  C   UNL A   1      38.264  30.588  29.693  1.00  0.00     0.029 A 
ATOM     48  N   UNL A   1      39.620  30.407  31.461  1.00  0.00    -0.354 N 
ATOM     49  C   UNL A   1      39.317  33.191  34.775  1.00  0.00     0.074 A 
ATOM     50  C   UNL A   1      38.274  34.164  34.542  1.00  0.00     0.031 C 
ATOM     51  C   UNL A   1      39.097  29.560  29.457  1.00  0.00     0.029 A 
ATOM     52  C   UNL A   1      40.013  29.421  30.585  1.00  0.00     0.049 A 
ATOM     53  H   UNL A   1      40.056  30.560  32.330  1.00  0.00     0.167 HD
ATOM     54  C   UNL A   1      40.089  33.151  35.887  1.00  0.00     0.037 A 
ATOM     55  C   UNL A   1      41.002  28.513  30.683  1.00  0.00     0.037 A 
ATOM     56  C   UNL A   1      41.109  32.162  36.117  1.00  0.00     0.049 A 
ATOM     57  C   UNL A   1      41.850  28.492  31.927  1.00  0.00     0.074 A 
ATOM     58  C   UNL A   1      41.910  31.997  37.232  1.00  0.00     0.029 A 
ATOM     59  N   UNL A   1      41.468  31.170  35.215  1.00  0.00    -0.354 N 
ATOM     60  N   UNL A   1      41.783  29.267  32.983  1.00  0.00    -0.248 NA
ATOM     61  C   UNL A   1      42.902  27.470  31.996  1.00  0.00     0.031 C 
ATOM     62  C   UNL A   1      42.786  30.935  36.986  1.00  0.00     0.029 A 
ATOM     63  C   UNL A   1      42.494  30.403  35.739  1.00  0.00     0.049 A 
ATOM     64  H   UNL A   1      41.053  31.032  34.333  1.00  0.00     0.167 HD
ATOM     65  C   UNL A   1      42.765  28.809  33.853  1.00  0.00     0.074 A 
ATOM     66  C   UNL A   1      43.402  27.681  33.205  1.00  0.00     0.031 C 
ATOM     67  C   UNL A   1      43.110  29.279  35.079  1.00  0.00     0.037 A 
BRANCH  54  68
ATOM     68  C   UNL A   1      39.852  34.200  36.937  1.00  0.00     0.058 A 
ATOM     69  C   UNL A   1      40.414  35.483  36.838  1.00  0.00     0.135 A 
ATOM     70  C   UNL A   1      39.028  33.932  38.043  1.00  0.00     0.135 A 
ATOM     71  F   UNL A   1      41.224  35.788  35.812  1.00  0.00    -0.206 F 
ATOM     72  C   UNL A   1      40.195  36.452  37.811  1.00  0.00     0.059 A 
ATOM     73  C   UNL A   1      38.769  34.897  39.013  1.00  0.00     0.059 A 
ATOM     74  F   UNL A   1      38.466  32.722  38.191  1.00  0.00    -0.206 F 
ATOM     75  C   UNL A   1      39.368  36.150  38.895  1.00  0.00     0.060 A 
BRANCH  75  76
ATOM     76  S   UNL A   1      39.086  37.424  40.141  1.00  0.00     0.124 S 
ATOM     77  O   UNL A   1      38.153  38.307  39.449  1.00  0.00    -0.237 OA
ATOM     78  O   UNL A   1      38.527  36.657  41.250  1.00  0.00    -0.237 OA
ATOM     79  O   UNL A   1      40.418  37.975  40.373  1.00  0.00    -0.744 OA
ENDBRANCH  75  76
ENDBRANCH  54  68
BRANCH  55  80
ATOM     80  C   UNL A   1      41.228  27.535  29.584  1.00  0.00     0.058 A 
ATOM     81  C   UNL A   1      40.300  26.517  29.321  1.00  0.00     0.135 A 
ATOM     82  C   UNL A   1      42.371  27.603  28.771  1.00  0.00     0.135 A 
ATOM     83  F   UNL A   1      39.195  26.407  30.073  1.00  0.00    -0.206 F 
ATOM     84  C   UNL A   1      40.505  25.587  28.307  1.00  0.00     0.059 A 
ATOM     85  C   UNL A   1      42.585  26.701  27.733  1.00  0.00     0.059 A 
ATOM     86  F   UNL A   1      43.281  28.570  28.968  1.00  0.00    -0.206 F 
ATOM     87  C   UNL A   1      41.651  25.689  27.516  1.00  0.00     0.060 A 
BRANCH  87  88
ATOM     88  S   UNL A   1      41.887  24.501  26.177  1.00  0.00     0.124 S 
ATOM     89  O   UNL A   1      40.945  23.451  26.546  1.00  0.00    -0.237 OA
ATOM     90  O   UNL A   1      41.537  25.291  25.001  1.00  0.00    -0.237 OA
ATOM     91  O   UNL A   1      43.300  24.148  26.287  1.00  0.00    -0.744 OA
ENDBRANCH  87  88
ENDBRANCH  55  80
BRANCH  67  92
ATOM     92  C   UNL A   1      44.205  28.556  35.813  1.00  0.00     0.058 A 
ATOM     93  C   UNL A   1      43.932  27.478  36.669  1.00  0.00     0.135 A 
ATOM     94  C   UNL A   1      45.549  28.912  35.612  1.00  0.00     0.135 A 
ATOM     95  F   UNL A   1      42.665  27.101  36.900  1.00  0.00    -0.206 F 
ATOM     96  C   UNL A   1      44.953  26.794  37.322  1.00  0.00     0.059 A 
ATOM     97  C   UNL A   1      46.586  28.223  36.230  1.00  0.00     0.059 A 
ATOM     98  F   UNL A   1      45.864  29.929  34.794  1.00  0.00    -0.206 F 
ATOM     99  C   UNL A   1      46.277  27.172  37.093  1.00  0.00     0.060 A 
BRANCH  99 100
ATOM    100  S   UNL A   1      47.593  26.253  37.918  1.00  0.00     0.124 S 
ATOM    101  O   UNL A   1      48.432  27.334  38.427  1.00  0.00    -0.237 OA
ATOM    102  O   UNL A   1      46.859  25.493  38.925  1.00  0.00    -0.237 OA
ATOM    103  O   UNL A   1      48.178  25.456  36.844  1.00  0.00    -0.744 OA
ENDBRANCH  99 100
ENDBRANCH  67  92
ENDBRANCH  41  42
ENDBRANCH  33  36
ENDBRANCH  31  32
ENDBRANCH  30  31
ENDBRANCH  29  30
ENDBRANCH   1  29
TORSDOF 20
ENDMDL
MODEL 3
REMARK VINA RESULT:     -11.7      6.083     10.670
REMARK SMILES CC1=C(C)C[C@@H](C(=O)NCCCCCCNC(=O)c2ccc(-c3c4nc(c(-c5c(F)cc(S(=O)(=O)[O-])cc5F)c5ccc([nH]5)c(-c5c(F)cc(S(=O)(=O)[O-])cc5F)c5nc(c(-c6c(F)cc(S(=O)(=O)[O-])cc6F)c6ccc3[nH]6)C=C5)C=C4)cc2)[C@@H](C(=O)NCC[NH+]2CCOCC2)C1
REMARK SMILES IDX 12 1 11 2 10 3 9 4 7 5 8 6 6 8 1 9 2 10 3 11 97 12 4 13 5 14
REMARK SMILES IDX 85 15 86 16 87 17 88 18 89 20 90 21 91 22 92 23 96 24 93 26
REMARK SMILES IDX 95 27 94 28 13 29 14 30 15 31 16 32 17 33 18 35 19 36 20 37
REMARK SMILES IDX 84 38 21 39 83 40 22 41 23 42 24 43 77 44 25 45 82 46 76 47
REMARK SMILES IDX 78 48 26 49 81 50 75 51 74 52 27 54 61 55 40 56 60 57 41 58
REMARK SMILES IDX 44 59 59 60 79 61 42 62 43 63 58 65 80 66 45 67 28 68 29 69
REMARK SMILES IDX 38 70 30 71 31 72 37 73 39 74 32 75 33 76 34 77 35 78 36 79
REMARK SMILES IDX 62 80 63 81 72 82 64 83 65 84 71 85 73 86 66 87 67 88 68 89
REMARK SMILES IDX 69 90 70 91 46 92 47 93 56 94 48 95 49 96 55 97 57 98 50 99
REMARK SMILES IDX 51 100 52 101 53 102 54 103
REMARK H PARENT 9 7 88 19 91 25 16 34 78 53 44 64
REMARK Flexibility Score: inf
ROOT
ATOM      1  C   UNL A   1      31.779  29.805  27.187  1.00  0.00     0.002 C 
ENDROOT
BRANCH   1   2
ATOM      2  C   UNL A   1      31.800  28.503  26.389  1.00  0.00     0.021 C 
BRANCH   2   3
ATOM      3  C   UNL A   1      31.818  27.205  27.190  1.00  0.00     0.116 C 
BRANCH   3   4
ATOM      4  N   UNL A   1      31.438  26.005  26.484  1.00  0.00    -0.356 N 
ATOM      5  C   UNL A   1      32.125  24.843  26.345  1.00  0.00     0.224 C 
ATOM      6  O   UNL A   1      31.476  23.797  26.487  1.00  0.00    -0.275 OA
ATOM      7  H   UNL A   1      30.560  26.034  26.040  1.00  0.00     0.163 HD
BRANCH   5   8
ATOM      8  C   UNL A   1      33.589  24.738  25.947  1.00  0.00     0.095 C 
ATOM      9  C   UNL A   1      33.351  23.258  21.882  1.00  0.00     0.039 C 
ATOM     10  C   UNL A   1      33.746  23.889  23.197  1.00  0.00    -0.074 C 
ATOM     11  C   UNL A   1      33.541  25.193  23.482  1.00  0.00    -0.074 C 
ATOM     12  C   UNL A   1      34.232  22.905  24.262  1.00  0.00     0.045 C 
ATOM     13  C   UNL A   1      32.819  26.191  22.615  1.00  0.00     0.039 C 
ATOM     14  C   UNL A   1      33.927  25.720  24.830  1.00  0.00     0.045 C 
ATOM     15  C   UNL A   1      34.230  23.368  25.763  1.00  0.00     0.095 C 
BRANCH  15  16
ATOM     16  C   UNL A   1      33.796  22.228  26.713  1.00  0.00     0.224 C 
ATOM     17  O   UNL A   1      34.062  22.302  27.921  1.00  0.00    -0.275 OA
ATOM     18  N   UNL A   1      33.005  21.168  26.399  1.00  0.00    -0.350 N 
ATOM     19  H   UNL A   1      32.853  20.587  27.178  1.00  0.00     0.163 HD
BRANCH  18  20
ATOM     20  C   UNL A   1      32.317  20.660  25.208  1.00  0.00     0.177 C 
BRANCH  20  21
ATOM     21  C   UNL A   1      33.010  19.442  24.535  1.00  0.00     0.283 C 
BRANCH  21  22
ATOM     22  N   UNL A   1      32.347  18.138  24.327  1.00  0.00    -0.330 N 
ATOM     23  C   UNL A   1      32.486  17.126  25.380  1.00  0.00     0.291 C 
ATOM     24  C   UNL A   1      32.782  17.536  23.033  1.00  0.00     0.291 C 
ATOM     25  H   UNL A   1      31.358  18.388  24.338  1.00  0.00     0.348 HD
ATOM     26  C   UNL A   1      33.834  16.391  25.408  1.00  0.00     0.221 C 
ATOM     27  C   UNL A   1      34.138  16.814  23.119  1.00  0.00     0.221 C 
ATOM     28  O   UNL A   1      34.134  15.808  24.136  1.00  0.00    -0.370 OA
ENDBRANCH  21  22
ENDBRANCH  20  21
ENDBRANCH  18  20
ENDBRANCH  15  16
ENDBRANCH   5   8
ENDBRANCH   3   4
ENDBRANCH   2   3
ENDBRANCH   1   2
BRANCH   1  29
ATOM     29  C   UNL A   1      32.026  31.077  26.376  1.00  0.00     0.002 C 
BRANCH  29  30
ATOM     30  C   UNL A   1      31.738  32.375  27.129  1.00  0.00     0.021 C 
BRANCH  30  31
ATOM     31  C   UNL A   1      32.966  33.234  27.368  1.00  0.00     0.116 C 
BRANCH  31  32
ATOM     32  N   UNL A   1      32.636  34.482  28.032  1.00  0.00    -0.352 N 
ATOM     33  C   UNL A   1      33.146  34.969  29.215  1.00  0.00     0.251 C 
ATOM     34  H   UNL A   1      31.968  35.048  27.584  1.00  0.00     0.163 HD
ATOM     35  O   UNL A   1      32.659  35.941  29.756  1.00  0.00    -0.269 OA
BRANCH  33  36
ATOM     36  C   UNL A   1      34.287  34.250  29.819  1.00  0.00     0.039 A 
ATOM     37  C   UNL A   1      35.578  34.532  29.373  1.00  0.00     0.014 A 
ATOM     38  C   UNL A   1      34.071  33.353  30.870  1.00  0.00     0.014 A 
ATOM     39  C   UNL A   1      36.665  33.946  30.019  1.00  0.00     0.010 A 
ATOM     40  C   UNL A   1      35.157  32.833  31.562  1.00  0.00     0.010 A 
ATOM     41  C   UNL A   1      36.464  33.116  31.135  1.00  0.00    -0.014 A 
BRANCH  41  42
ATOM     42  C   UNL A   1      37.609  32.517  31.860  1.00  0.00     0.031 A 
ATOM     43  C   UNL A   1      38.331  31.338  31.268  1.00  0.00     0.074 A 
ATOM     44  C   UNL A   1      37.960  33.000  33.067  1.00  0.00     0.049 A 
ATOM     45  N   UNL A   1      39.320  30.642  31.764  1.00  0.00    -0.248 NA
ATOM     46  C   UNL A   1      37.859  30.858  29.958  1.00  0.00     0.031 C 
ATOM     47  C   UNL A   1      37.297  34.106  33.762  1.00  0.00     0.029 A 
ATOM     48  N   UNL A   1      38.958  32.619  33.929  1.00  0.00    -0.354 N 
ATOM     49  C   UNL A   1      39.581  29.642  30.835  1.00  0.00     0.074 A 
ATOM     50  C   UNL A   1      38.606  29.780  29.778  1.00  0.00     0.031 C 
ATOM     51  C   UNL A   1      37.924  34.333  34.929  1.00  0.00     0.029 A 
ATOM     52  C   UNL A   1      39.007  33.366  35.083  1.00  0.00     0.049 A 
ATOM     53  H   UNL A   1      39.580  31.880  33.740  1.00  0.00     0.167 HD
ATOM     54  C   UNL A   1      40.564  28.711  30.849  1.00  0.00     0.037 A 
ATOM     55  C   UNL A   1      39.831  33.277  36.144  1.00  0.00     0.037 A 
ATOM     56  C   UNL A   1      41.544  28.599  31.897  1.00  0.00     0.049 A 
ATOM     57  C   UNL A   1      40.913  32.231  36.138  1.00  0.00     0.074 A 
ATOM     58  C   UNL A   1      42.616  27.729  31.983  1.00  0.00     0.029 A 
ATOM     59  N   UNL A   1      41.572  29.383  33.042  1.00  0.00    -0.354 N 
ATOM     60  N   UNL A   1      41.189  31.335  35.220  1.00  0.00    -0.248 NA
ATOM     61  C   UNL A   1      41.800  32.187  37.309  1.00  0.00     0.031 C 
ATOM     62  C   UNL A   1      43.264  27.955  33.202  1.00  0.00     0.029 A 
ATOM     63  C   UNL A   1      42.629  29.002  33.851  1.00  0.00     0.049 A 
ATOM     64  H   UNL A   1      40.934  30.104  33.248  1.00  0.00     0.167 HD
ATOM     65  C   UNL A   1      42.297  30.639  35.689  1.00  0.00     0.074 A 
ATOM     66  C   UNL A   1      42.649  31.228  36.966  1.00  0.00     0.031 C 
ATOM     67  C   UNL A   1      42.965  29.607  35.116  1.00  0.00     0.037 A 
BRANCH  54  68
ATOM     68  C   UNL A   1      40.631  27.750  29.695  1.00  0.00     0.058 A 
ATOM     69  C   UNL A   1      41.618  27.860  28.701  1.00  0.00     0.135 A 
ATOM     70  C   UNL A   1      39.717  26.688  29.593  1.00  0.00     0.135 A 
ATOM     71  F   UNL A   1      42.505  28.866  28.737  1.00  0.00    -0.206 F 
ATOM     72  C   UNL A   1      41.678  26.970  27.633  1.00  0.00     0.059 A 
ATOM     73  C   UNL A   1      39.778  25.769  28.550  1.00  0.00     0.059 A 
ATOM     74  F   UNL A   1      38.751  26.537  30.513  1.00  0.00    -0.206 F 
ATOM     75  C   UNL A   1      40.754  25.926  27.567  1.00  0.00     0.060 A 
BRANCH  75  76
ATOM     76  S   UNL A   1      40.855  24.776  26.181  1.00  0.00     0.124 S 
ATOM     77  O   UNL A   1      41.838  23.815  26.670  1.00  0.00    -0.237 OA
ATOM     78  O   UNL A   1      39.484  24.285  26.082  1.00  0.00    -0.237 OA
ATOM     79  O   UNL A   1      41.297  25.617  25.072  1.00  0.00    -0.744 OA
ENDBRANCH  75  76
ENDBRANCH  54  68
BRANCH  55  80
ATOM     80  C   UNL A   1      39.680  34.219  37.287  1.00  0.00     0.058 A 
ATOM     81  C   UNL A   1      40.251  35.499  37.247  1.00  0.00     0.135 A 
ATOM     82  C   UNL A   1      38.958  33.862  38.437  1.00  0.00     0.135 A 
ATOM     83  F   UNL A   1      40.954  35.887  36.172  1.00  0.00    -0.206 F 
ATOM     84  C   UNL A   1      40.132  36.385  38.312  1.00  0.00     0.059 A 
ATOM     85  C   UNL A   1      38.801  34.740  39.504  1.00  0.00     0.059 A 
ATOM     86  F   UNL A   1      38.376  32.655  38.518  1.00  0.00    -0.206 F 
ATOM     87  C   UNL A   1      39.402  35.997  39.437  1.00  0.00     0.060 A 
BRANCH  87  88
ATOM     88  S   UNL A   1      39.219  37.169  40.799  1.00  0.00     0.124 S 
ATOM     89  O   UNL A   1      38.446  38.232  40.168  1.00  0.00    -0.237 OA
ATOM     90  O   UNL A   1      38.515  36.372  41.798  1.00  0.00    -0.237 OA
ATOM     91  O   UNL A   1      40.599  37.507  41.137  1.00  0.00    -0.744 OA
ENDBRANCH  87  88
ENDBRANCH  55  80
BRANCH  67  92
ATOM     92  C   UNL A   1      44.161  29.066  35.849  1.00  0.00     0.058 A 
ATOM     93  C   UNL A   1      45.443  29.609  35.671  1.00  0.00     0.135 A 
ATOM     94  C   UNL A   1      44.012  28.028  36.783  1.00  0.00     0.135 A 
ATOM     95  F   UNL A   1      45.642  30.599  34.786  1.00  0.00    -0.206 F 
ATOM     96  C   UNL A   1      46.541  29.124  36.375  1.00  0.00     0.059 A 
ATOM     97  C   UNL A   1      45.089  27.548  37.519  1.00  0.00     0.059 A 
ATOM     98  F   UNL A   1      42.804  27.480  36.998  1.00  0.00    -0.206 F 
ATOM     99  C   UNL A   1      46.352  28.095  37.299  1.00  0.00     0.060 A 
BRANCH  99 100
ATOM    100  S   UNL A   1      47.778  27.500  38.231  1.00  0.00     0.124 S 
ATOM    101  O   UNL A   1      47.509  26.067  38.298  1.00  0.00    -0.237 OA
ATOM    102  O   UNL A   1      48.896  27.896  37.380  1.00  0.00    -0.237 OA
ATOM    103  O   UNL A   1      47.681  28.217  39.500  1.00  0.00    -0.744 OA
ENDBRANCH  99 100
ENDBRANCH  67  92
ENDBRANCH  41  42
ENDBRANCH  33  36
ENDBRANCH  31  32
ENDBRANCH  30  31
ENDBRANCH  29  30
ENDBRANCH   1  29
TORSDOF 20
ENDMDL
