MODEL 1
REMARK VINA RESULT:     -14.1      0.000      0.000
REMARK SMILES Cc1ccccc1NC(=S)NN1C(=O)CS[C@H]1c1ccccc1C(=O)NCCCCCCNC(=O)c1ccc(-c2c3nc(c(-c4c(F)cc(S(=O)(=O)[O-])cc4F)c4ccc([nH]4)c(-c4c(F)cc(S(=O)(=O)[O-])cc4F)c4nc(c(-c5c(F)cc(S(=O)(=O)[O-])cc5F)c5ccc2[nH]5)C=C4)C=C3)cc1
REMARK SMILES IDX 28 1 27 2 26 3 24 4 25 5 23 7 18 8 19 9 20 10 22 11 21 12
REMARK SMILES IDX 17 13 12 14 13 15 14 16 15 17 16 18 11 19 9 21 10 22 8 23
REMARK SMILES IDX 7 25 1 26 2 27 3 28 4 29 6 30 5 31 29 32 30 33 31 34 32 35
REMARK SMILES IDX 33 36 34 37 35 39 36 40 37 41 101 42 38 43 100 44 39 45
REMARK SMILES IDX 40 46 41 47 94 48 42 49 99 50 93 51 95 52 43 53 98 54 92 55
REMARK SMILES IDX 91 56 44 58 78 59 57 60 77 61 58 62 61 63 76 64 96 65 59 66
REMARK SMILES IDX 60 67 75 69 97 70 62 71 45 72 46 73 55 74 47 75 48 76 54 77
REMARK SMILES IDX 56 78 49 79 50 80 51 81 52 82 53 83 79 84 80 85 89 86 81 87
REMARK SMILES IDX 82 88 88 89 90 90 83 91 84 92 85 93 86 94 87 95 63 96 64 97
REMARK SMILES IDX 73 98 65 99 66 100 72 101 74 102 67 103 68 104 69 105 70 106
REMARK SMILES IDX 71 107
REMARK H PARENT 26 6 11 20 8 24 33 38 95 57 61 68
REMARK Flexibility Score: inf
ROOT
ATOM      1  C   UNL A   1      32.570  29.485  25.234  1.00  0.00     0.021 C 
ENDROOT
BRANCH   1   2
ATOM      2  C   UNL A   1      31.271  28.845  24.613  1.00  0.00     0.116 C 
BRANCH   2   3
ATOM      3  N   UNL A   1      31.250  27.455  24.019  1.00  0.00    -0.352 N 
ATOM      4  C   UNL A   1      30.245  26.507  24.366  1.00  0.00     0.251 C 
ATOM      5  O   UNL A   1      29.097  26.721  23.967  1.00  0.00    -0.269 OA
ATOM      6  H   UNL A   1      31.950  27.197  23.376  1.00  0.00     0.163 HD
BRANCH   4   7
ATOM      7  C   UNL A   1      30.519  25.104  24.997  1.00  0.00     0.046 A 
ATOM      8  C   UNL A   1      31.334  24.046  24.536  1.00  0.00    -0.001 A 
ATOM      9  C   UNL A   1      31.305  22.765  25.173  1.00  0.00     0.007 A 
ATOM     10  C   UNL A   1      30.560  22.523  26.309  1.00  0.00     0.000 A 
ATOM     11  C   UNL A   1      29.844  24.842  26.214  1.00  0.00     0.014 A 
ATOM     12  C   UNL A   1      29.856  23.580  26.853  1.00  0.00     0.001 A 
BRANCH   8  13
ATOM     13  C   UNL A   1      31.997  24.069  23.222  1.00  0.00     0.197 C 
ATOM     14  N   UNL A   1      33.115  24.929  22.985  1.00  0.00    -0.236 N 
ATOM     15  C   UNL A   1      32.944  24.961  21.557  1.00  0.00     0.252 C 
ATOM     16  O   UNL A   1      32.212  25.761  20.969  1.00  0.00    -0.272 OA
ATOM     17  C   UNL A   1      33.148  23.576  20.974  1.00  0.00     0.174 C 
ATOM     18  S   UNL A   1      32.505  22.538  22.333  1.00  0.00    -0.120 SA
BRANCH  14  19
ATOM     19  N   UNL A   1      34.468  24.467  23.728  1.00  0.00    -0.270 N 
ATOM     20  H   UNL A   1      35.161  24.047  23.168  1.00  0.00     0.191 HD
BRANCH  19  21
ATOM     21  C   UNL A   1      34.755  24.605  25.096  1.00  0.00     0.189 C 
ATOM     22  S   UNL A   1      34.144  25.956  25.897  1.00  0.00    -0.039 S 
BRANCH  21  23
ATOM     23  N   UNL A   1      35.426  23.681  25.885  1.00  0.00    -0.331 N 
ATOM     24  H   UNL A   1      35.254  23.770  26.850  1.00  0.00     0.169 HD
BRANCH  23  25
ATOM     25  C   UNL A   1      36.309  22.637  25.543  1.00  0.00     0.043 A 
ATOM     26  C   UNL A   1      34.457  20.489  24.751  1.00  0.00     0.046 C 
ATOM     27  C   UNL A   1      35.852  20.989  24.958  1.00  0.00    -0.028 A 
ATOM     28  C   UNL A   1      37.103  19.671  24.924  1.00  0.00     0.005 A 
ATOM     29  C   UNL A   1      38.811  20.021  25.384  1.00  0.00     0.000 A 
ATOM     30  C   UNL A   1      38.008  22.951  25.927  1.00  0.00     0.026 A 
ATOM     31  C   UNL A   1      39.243  21.659  25.955  1.00  0.00     0.002 A 
ENDBRANCH  23  25
ENDBRANCH  21  23
ENDBRANCH  19  21
ENDBRANCH  14  19
ENDBRANCH   8  13
ENDBRANCH   4   7
ENDBRANCH   2   3
ENDBRANCH   1   2
BRANCH   1  32
ATOM     32  C   UNL A   1      32.473  30.508  26.681  1.00  0.00     0.002 C 
BRANCH  32  33
ATOM     33  C   UNL A   1      33.621  32.073  27.733  1.00  0.00     0.002 C 
BRANCH  33  34
ATOM     34  C   UNL A   1      34.494  32.261  29.266  1.00  0.00     0.021 C 
BRANCH  34  35
ATOM     35  C   UNL A   1      35.779  31.574  29.757  1.00  0.00     0.116 C 
BRANCH  35  36
ATOM     36  N   UNL A   1      35.842  30.125  29.832  1.00  0.00    -0.352 N 
ATOM     37  C   UNL A   1      36.332  29.406  28.736  1.00  0.00     0.251 C 
ATOM     38  H   UNL A   1      35.542  29.654  30.643  1.00  0.00     0.163 HD
ATOM     39  O   UNL A   1      35.732  29.168  27.697  1.00  0.00    -0.269 OA
BRANCH  37  40
ATOM     40  C   UNL A   1      37.801  29.293  28.769  1.00  0.00     0.039 A 
ATOM     41  C   UNL A   1      38.643  29.538  27.684  1.00  0.00     0.014 A 
ATOM     42  C   UNL A   1      38.246  28.644  29.917  1.00  0.00     0.014 A 
ATOM     43  C   UNL A   1      39.916  28.981  27.718  1.00  0.00     0.010 A 
ATOM     44  C   UNL A   1      39.368  27.888  29.839  1.00  0.00     0.010 A 
ATOM     45  C   UNL A   1      40.210  28.088  28.750  1.00  0.00    -0.014 A 
BRANCH  45  46
ATOM     46  C   UNL A   1      41.511  27.523  29.014  1.00  0.00     0.031 A 
ATOM     47  C   UNL A   1      41.591  26.102  28.612  1.00  0.00     0.074 A 
ATOM     48  C   UNL A   1      42.479  28.406  29.345  1.00  0.00     0.049 A 
ATOM     49  N   UNL A   1      42.222  25.177  29.233  1.00  0.00    -0.248 NA
ATOM     50  C   UNL A   1      40.792  25.549  27.497  1.00  0.00     0.031 C 
ATOM     51  C   UNL A   1      43.926  28.265  29.423  1.00  0.00     0.029 A 
ATOM     52  N   UNL A   1      42.248  29.678  29.903  1.00  0.00    -0.354 N 
ATOM     53  C   UNL A   1      42.321  24.128  28.331  1.00  0.00     0.074 A 
ATOM     54  C   UNL A   1      41.217  24.287  27.434  1.00  0.00     0.031 C 
ATOM     55  C   UNL A   1      44.390  29.160  30.322  1.00  0.00     0.029 A 
ATOM     56  C   UNL A   1      43.232  29.836  30.897  1.00  0.00     0.049 A 
ATOM     57  H   UNL A   1      41.545  30.321  29.653  1.00  0.00     0.167 HD
ATOM     58  C   UNL A   1      43.506  23.461  28.245  1.00  0.00     0.037 A 
ATOM     59  C   UNL A   1      42.844  29.755  32.204  1.00  0.00     0.037 A 
ATOM     60  C   UNL A   1      44.442  24.088  29.180  1.00  0.00     0.049 A 
ATOM     61  C   UNL A   1      43.362  28.488  32.841  1.00  0.00     0.074 A 
ATOM     62  C   UNL A   1      45.438  25.034  29.005  1.00  0.00     0.029 A 
ATOM     63  N   UNL A   1      44.116  24.112  30.527  1.00  0.00    -0.354 N 
ATOM     64  N   UNL A   1      43.576  27.368  32.202  1.00  0.00    -0.248 NA
ATOM     65  C   UNL A   1      43.812  28.449  34.225  1.00  0.00     0.031 C 
ATOM     66  C   UNL A   1      45.696  25.635  30.270  1.00  0.00     0.029 A 
ATOM     67  C   UNL A   1      44.833  25.077  31.200  1.00  0.00     0.049 A 
ATOM     68  H   UNL A   1      43.455  23.516  30.949  1.00  0.00     0.167 HD
ATOM     69  C   UNL A   1      44.229  26.489  33.032  1.00  0.00     0.074 A 
ATOM     70  C   UNL A   1      44.368  27.229  34.275  1.00  0.00     0.031 C 
ATOM     71  C   UNL A   1      44.642  25.244  32.635  1.00  0.00     0.037 A 
BRANCH  58  72
ATOM     72  C   UNL A   1      43.941  22.504  27.150  1.00  0.00     0.058 A 
ATOM     73  C   UNL A   1      43.180  21.339  26.900  1.00  0.00     0.135 A 
ATOM     74  C   UNL A   1      45.051  22.667  26.292  1.00  0.00     0.135 A 
ATOM     75  F   UNL A   1      42.069  21.062  27.596  1.00  0.00    -0.206 F 
ATOM     76  C   UNL A   1      43.505  20.404  25.919  1.00  0.00     0.059 A 
ATOM     77  C   UNL A   1      45.413  21.726  25.316  1.00  0.00     0.059 A 
ATOM     78  F   UNL A   1      45.811  23.768  26.320  1.00  0.00    -0.206 F 
ATOM     79  C   UNL A   1      44.626  20.599  25.131  1.00  0.00     0.060 A 
BRANCH  79  80
ATOM     80  S   UNL A   1      44.989  19.390  23.845  1.00  0.00     0.124 S 
ATOM     81  O   UNL A   1      44.227  18.229  24.296  1.00  0.00    -0.237 OA
ATOM     82  O   UNL A   1      44.483  20.055  22.650  1.00  0.00    -0.237 OA
ATOM     83  O   UNL A   1      46.440  19.242  23.913  1.00  0.00    -0.744 OA
ENDBRANCH  79  80
ENDBRANCH  58  72
BRANCH  59  84
ATOM     84  C   UNL A   1      41.508  30.388  32.435  1.00  0.00     0.058 A 
ATOM     85  C   UNL A   1      40.448  29.550  32.843  1.00  0.00     0.135 A 
ATOM     86  C   UNL A   1      41.363  31.758  32.683  1.00  0.00     0.135 A 
ATOM     87  F   UNL A   1      40.520  28.225  32.632  1.00  0.00    -0.206 F 
ATOM     88  C   UNL A   1      39.369  30.028  33.580  1.00  0.00     0.059 A 
ATOM     89  C   UNL A   1      40.300  32.252  33.446  1.00  0.00     0.059 A 
ATOM     90  F   UNL A   1      42.314  32.621  32.297  1.00  0.00    -0.206 F 
ATOM     91  C   UNL A   1      39.345  31.371  33.947  1.00  0.00     0.060 A 
BRANCH  91  92
ATOM     92  S   UNL A   1      38.108  31.952  35.130  1.00  0.00     0.124 S 
ATOM     93  O   UNL A   1      36.898  32.020  34.316  1.00  0.00    -0.237 OA
ATOM     94  O   UNL A   1      38.137  30.886  36.125  1.00  0.00    -0.237 OA
ATOM     95  O   UNL A   1      38.644  33.231  35.576  1.00  0.00    -0.744 OA
ENDBRANCH  91  92
ENDBRANCH  59  84
BRANCH  71  96
ATOM     96  C   UNL A   1      44.975  24.063  33.542  1.00  0.00     0.058 A 
ATOM     97  C   UNL A   1      44.093  23.015  33.846  1.00  0.00     0.135 A 
ATOM     98  C   UNL A   1      46.295  23.879  34.048  1.00  0.00     0.135 A 
ATOM     99  F   UNL A   1      42.865  22.933  33.325  1.00  0.00    -0.206 F 
ATOM    100  C   UNL A   1      44.447  21.946  34.665  1.00  0.00     0.059 A 
ATOM    101  C   UNL A   1      46.697  22.766  34.775  1.00  0.00     0.059 A 
ATOM    102  F   UNL A   1      47.280  24.765  33.853  1.00  0.00    -0.206 F 
ATOM    103  C   UNL A   1      45.753  21.824  35.119  1.00  0.00     0.060 A 
BRANCH 103 104
ATOM    104  S   UNL A   1      46.192  20.417  36.135  1.00  0.00     0.124 S 
ATOM    105  O   UNL A   1      45.644  20.815  37.428  1.00  0.00    -0.237 OA
ATOM    106  O   UNL A   1      45.496  19.324  35.462  1.00  0.00    -0.237 OA
ATOM    107  O   UNL A   1      47.647  20.371  36.053  1.00  0.00    -0.744 OA
ENDBRANCH 103 104
ENDBRANCH  71  96
ENDBRANCH  45  46
ENDBRANCH  37  40
ENDBRANCH  35  36
ENDBRANCH  34  35
ENDBRANCH  33  34
ENDBRANCH  32  33
ENDBRANCH   1  32
TORSDOF 21
ENDMDL
MODEL 2
REMARK VINA RESULT:     -12.5      2.561      3.756
REMARK SMILES Cc1ccccc1NC(=S)NN1C(=O)CS[C@H]1c1ccccc1C(=O)NCCCCCCNC(=O)c1ccc(-c2c3nc(c(-c4c(F)cc(S(=O)(=O)[O-])cc4F)c4ccc([nH]4)c(-c4c(F)cc(S(=O)(=O)[O-])cc4F)c4nc(c(-c5c(F)cc(S(=O)(=O)[O-])cc5F)c5ccc2[nH]5)C=C4)C=C3)cc1
REMARK SMILES IDX 28 1 27 2 26 3 24 4 25 5 23 7 18 8 19 9 20 10 22 11 21 12
REMARK SMILES IDX 17 13 12 14 13 15 14 16 15 17 16 18 11 19 9 21 10 22 8 23
REMARK SMILES IDX 7 25 1 26 2 27 3 28 4 29 6 30 5 31 29 32 30 33 31 34 32 35
REMARK SMILES IDX 33 36 34 37 35 39 36 40 37 41 101 42 38 43 100 44 39 45
REMARK SMILES IDX 40 46 41 47 94 48 42 49 99 50 93 51 95 52 43 53 98 54 92 55
REMARK SMILES IDX 91 56 44 58 78 59 57 60 77 61 58 62 61 63 76 64 96 65 59 66
REMARK SMILES IDX 60 67 75 69 97 70 62 71 45 72 46 73 55 74 47 75 48 76 54 77
REMARK SMILES IDX 56 78 49 79 50 80 51 81 52 82 53 83 79 84 80 85 89 86 81 87
REMARK SMILES IDX 82 88 88 89 90 90 83 91 84 92 85 93 86 94 87 95 63 96 64 97
REMARK SMILES IDX 73 98 65 99 66 100 72 101 74 102 67 103 68 104 69 105 70 106
REMARK SMILES IDX 71 107
REMARK H PARENT 26 6 11 20 8 24 33 38 95 57 61 68
REMARK Flexibility Score: inf
ROOT
ATOM      1  C   UNL A   1      31.907  29.312  26.144  1.00  0.00     0.021 C 
ENDROOT
BRANCH   1   2
ATOM      2  C   UNL A   1      32.276  28.878  24.674  1.00  0.00     0.116 C 
BRANCH   2   3
ATOM      3  N   UNL A   1      32.000  27.491  24.140  1.00  0.00    -0.352 N 
ATOM      4  C   UNL A   1      30.800  26.793  24.455  1.00  0.00     0.251 C 
ATOM      5  O   UNL A   1      29.748  27.216  23.968  1.00  0.00    -0.269 OA
ATOM      6  H   UNL A   1      32.667  27.060  23.558  1.00  0.00     0.163 HD
BRANCH   4   7
ATOM      7  C   UNL A   1      30.736  25.401  25.162  1.00  0.00     0.046 A 
ATOM      8  C   UNL A   1      31.412  24.198  24.858  1.00  0.00    -0.001 A 
ATOM      9  C   UNL A   1      31.073  22.976  25.523  1.00  0.00     0.007 A 
ATOM     10  C   UNL A   1      30.146  22.925  26.544  1.00  0.00     0.000 A 
ATOM     11  C   UNL A   1      29.862  25.322  26.274  1.00  0.00     0.014 A 
ATOM     12  C   UNL A   1      29.567  24.113  26.946  1.00  0.00     0.001 A 
BRANCH   8  13
ATOM     13  C   UNL A   1      32.245  24.036  23.656  1.00  0.00     0.197 C 
ATOM     14  N   UNL A   1      33.647  24.315  23.699  1.00  0.00    -0.236 N 
ATOM     15  C   UNL A   1      33.770  24.550  22.285  1.00  0.00     0.252 C 
ATOM     16  O   UNL A   1      33.576  25.644  21.750  1.00  0.00    -0.272 OA
ATOM     17  C   UNL A   1      33.457  23.283  21.514  1.00  0.00     0.174 C 
ATOM     18  S   UNL A   1      32.193  22.529  22.599  1.00  0.00    -0.120 SA
BRANCH  14  19
ATOM     19  N   UNL A   1      34.509  23.225  24.516  1.00  0.00    -0.270 N 
ATOM     20  H   UNL A   1      34.586  22.329  24.116  1.00  0.00     0.191 HD
BRANCH  19  21
ATOM     21  C   UNL A   1      35.160  23.430  25.744  1.00  0.00     0.189 C 
ATOM     22  S   UNL A   1      34.466  22.760  27.126  1.00  0.00    -0.039 S 
BRANCH  21  23
ATOM     23  N   UNL A   1      36.382  24.063  25.923  1.00  0.00    -0.331 N 
ATOM     24  H   UNL A   1      36.331  25.046  25.952  1.00  0.00     0.169 HD
BRANCH  23  25
ATOM     25  C   UNL A   1      37.684  23.541  26.071  1.00  0.00     0.043 A 
ATOM     26  C   UNL A   1      37.390  20.818  24.990  1.00  0.00     0.046 C 
ATOM     27  C   UNL A   1      38.238  21.885  25.605  1.00  0.00    -0.028 A 
ATOM     28  C   UNL A   1      39.840  21.275  26.208  1.00  0.00     0.005 A 
ATOM     29  C   UNL A   1      40.913  22.340  27.191  1.00  0.00     0.000 A 
ATOM     30  C   UNL A   1      38.793  24.573  26.985  1.00  0.00     0.026 A 
ATOM     31  C   UNL A   1      40.347  23.977  27.636  1.00  0.00     0.002 A 
ENDBRANCH  23  25
ENDBRANCH  21  23
ENDBRANCH  19  21
ENDBRANCH  14  19
ENDBRANCH   8  13
ENDBRANCH   4   7
ENDBRANCH   2   3
ENDBRANCH   1   2
BRANCH   1  32
ATOM     32  C   UNL A   1      31.356  30.963  26.490  1.00  0.00     0.002 C 
BRANCH  32  33
ATOM     33  C   UNL A   1      32.172  32.961  26.960  1.00  0.00     0.002 C 
BRANCH  33  34
ATOM     34  C   UNL A   1      33.266  33.689  28.151  1.00  0.00     0.021 C 
BRANCH  34  35
ATOM     35  C   UNL A   1      34.559  33.132  28.770  1.00  0.00     0.116 C 
BRANCH  35  36
ATOM     36  N   UNL A   1      34.606  31.754  29.227  1.00  0.00    -0.352 N 
ATOM     37  C   UNL A   1      35.573  30.893  28.695  1.00  0.00     0.251 C 
ATOM     38  H   UNL A   1      33.966  31.430  29.900  1.00  0.00     0.163 HD
ATOM     39  O   UNL A   1      35.545  30.361  27.594  1.00  0.00    -0.269 OA
BRANCH  37  40
ATOM     40  C   UNL A   1      36.851  30.991  29.421  1.00  0.00     0.039 A 
ATOM     41  C   UNL A   1      37.619  32.150  29.532  1.00  0.00     0.014 A 
ATOM     42  C   UNL A   1      37.357  29.737  29.753  1.00  0.00     0.014 A 
ATOM     43  C   UNL A   1      38.966  32.006  29.843  1.00  0.00     0.010 A 
ATOM     44  C   UNL A   1      38.702  29.572  29.792  1.00  0.00     0.010 A 
ATOM     45  C   UNL A   1      39.494  30.713  29.867  1.00  0.00    -0.014 A 
BRANCH  45  46
ATOM     46  C   UNL A   1      40.827  30.368  30.298  1.00  0.00     0.031 A 
ATOM     47  C   UNL A   1      41.455  29.368  29.409  1.00  0.00     0.074 A 
ATOM     48  C   UNL A   1      41.356  31.158  31.258  1.00  0.00     0.049 A 
ATOM     49  N   UNL A   1      42.220  28.408  29.776  1.00  0.00    -0.248 NA
ATOM     50  C   UNL A   1      41.130  29.273  27.970  1.00  0.00     0.031 C 
ATOM     51  C   UNL A   1      42.720  31.294  31.751  1.00  0.00     0.029 A 
ATOM     52  N   UNL A   1      40.606  31.925  32.170  1.00  0.00    -0.354 N 
ATOM     53  C   UNL A   1      42.843  27.970  28.617  1.00  0.00     0.074 A 
ATOM     54  C   UNL A   1      41.955  28.313  27.549  1.00  0.00     0.031 C 
ATOM     55  C   UNL A   1      42.667  31.716  33.032  1.00  0.00     0.029 A 
ATOM     56  C   UNL A   1      41.259  31.780  33.409  1.00  0.00     0.049 A 
ATOM     57  H   UNL A   1      39.795  32.451  31.982  1.00  0.00     0.167 HD
ATOM     58  C   UNL A   1      44.174  27.683  28.670  1.00  0.00     0.037 A 
ATOM     59  C   UNL A   1      40.664  31.002  34.362  1.00  0.00     0.037 A 
ATOM     60  C   UNL A   1      44.638  27.957  30.031  1.00  0.00     0.049 A 
ATOM     61  C   UNL A   1      41.436  29.720  34.566  1.00  0.00     0.074 A 
ATOM     62  C   UNL A   1      45.275  29.050  30.595  1.00  0.00     0.029 A 
ATOM     63  N   UNL A   1      44.058  27.261  31.080  1.00  0.00    -0.354 N 
ATOM     64  N   UNL A   1      42.136  29.117  33.640  1.00  0.00    -0.248 NA
ATOM     65  C   UNL A   1      41.584  29.111  35.880  1.00  0.00     0.031 C 
ATOM     66  C   UNL A   1      45.056  29.003  32.001  1.00  0.00     0.029 A 
ATOM     67  C   UNL A   1      44.260  27.904  32.281  1.00  0.00     0.049 A 
ATOM     68  H   UNL A   1      43.563  26.415  30.979  1.00  0.00     0.167 HD
ATOM     69  C   UNL A   1      42.862  28.101  34.212  1.00  0.00     0.074 A 
ATOM     70  C   UNL A   1      42.493  28.160  35.615  1.00  0.00     0.031 C 
ATOM     71  C   UNL A   1      43.739  27.315  33.508  1.00  0.00     0.037 A 
BRANCH  58  72
ATOM     72  C   UNL A   1      45.115  27.484  27.496  1.00  0.00     0.058 A 
ATOM     73  C   UNL A   1      45.504  28.600  26.718  1.00  0.00     0.135 A 
ATOM     74  C   UNL A   1      45.700  26.264  27.091  1.00  0.00     0.135 A 
ATOM     75  F   UNL A   1      45.074  29.838  27.000  1.00  0.00    -0.206 F 
ATOM     76  C   UNL A   1      46.360  28.513  25.622  1.00  0.00     0.059 A 
ATOM     77  C   UNL A   1      46.543  26.148  25.975  1.00  0.00     0.059 A 
ATOM     78  F   UNL A   1      45.527  25.133  27.784  1.00  0.00    -0.206 F 
ATOM     79  C   UNL A   1      46.876  27.283  25.251  1.00  0.00     0.060 A 
BRANCH  79  80
ATOM     80  S   UNL A   1      48.012  27.218  23.854  1.00  0.00     0.124 S 
ATOM     81  O   UNL A   1      49.222  27.808  24.419  1.00  0.00    -0.237 OA
ATOM     82  O   UNL A   1      48.074  25.787  23.579  1.00  0.00    -0.237 OA
ATOM     83  O   UNL A   1      47.348  28.023  22.834  1.00  0.00    -0.744 OA
ENDBRANCH  79  80
ENDBRANCH  58  72
BRANCH  59  84
ATOM     84  C   UNL A   1      39.177  31.158  34.368  1.00  0.00     0.058 A 
ATOM     85  C   UNL A   1      38.644  32.331  34.946  1.00  0.00     0.135 A 
ATOM     86  C   UNL A   1      38.347  30.454  33.487  1.00  0.00     0.135 A 
ATOM     87  F   UNL A   1      39.385  33.053  35.804  1.00  0.00    -0.206 F 
ATOM     88  C   UNL A   1      37.410  32.849  34.564  1.00  0.00     0.059 A 
ATOM     89  C   UNL A   1      37.117  30.974  33.071  1.00  0.00     0.059 A 
ATOM     90  F   UNL A   1      38.772  29.314  32.923  1.00  0.00    -0.206 F 
ATOM     91  C   UNL A   1      36.689  32.204  33.564  1.00  0.00     0.060 A 
BRANCH  91  92
ATOM     92  S   UNL A   1      35.228  33.003  32.858  1.00  0.00     0.124 S 
ATOM     93  O   UNL A   1      34.465  33.372  34.046  1.00  0.00    -0.237 OA
ATOM     94  O   UNL A   1      35.831  34.112  32.128  1.00  0.00    -0.237 OA
ATOM     95  O   UNL A   1      34.643  31.960  32.027  1.00  0.00    -0.744 OA
ENDBRANCH  91  92
ENDBRANCH  59  84
BRANCH  71  96
ATOM     96  C   UNL A   1      44.256  25.939  33.916  1.00  0.00     0.058 A 
ATOM     97  C   UNL A   1      45.606  25.558  33.908  1.00  0.00     0.135 A 
ATOM     98  C   UNL A   1      43.379  24.964  34.476  1.00  0.00     0.135 A 
ATOM     99  F   UNL A   1      46.589  26.398  33.571  1.00  0.00    -0.206 F 
ATOM    100  C   UNL A   1      46.035  24.295  34.308  1.00  0.00     0.059 A 
ATOM    101  C   UNL A   1      43.801  23.742  34.982  1.00  0.00     0.059 A 
ATOM    102  F   UNL A   1      42.057  25.149  34.582  1.00  0.00    -0.206 F 
ATOM    103  C   UNL A   1      45.128  23.396  34.851  1.00  0.00     0.060 A 
BRANCH 103 104
ATOM    104  S   UNL A   1      45.714  21.794  35.398  1.00  0.00     0.124 S 
ATOM    105  O   UNL A   1      44.696  20.910  34.840  1.00  0.00    -0.237 OA
ATOM    106  O   UNL A   1      47.030  21.719  34.770  1.00  0.00    -0.237 OA
ATOM    107  O   UNL A   1      45.724  21.908  36.852  1.00  0.00    -0.744 OA
ENDBRANCH 103 104
ENDBRANCH  71  96
ENDBRANCH  45  46
ENDBRANCH  37  40
ENDBRANCH  35  36
ENDBRANCH  34  35
ENDBRANCH  33  34
ENDBRANCH  32  33
ENDBRANCH   1  32
TORSDOF 21
ENDMDL
MODEL 3
REMARK VINA RESULT:     -11.7      4.576     11.026
REMARK SMILES Cc1ccccc1NC(=S)NN1C(=O)CS[C@H]1c1ccccc1C(=O)NCCCCCCNC(=O)c1ccc(-c2c3nc(c(-c4c(F)cc(S(=O)(=O)[O-])cc4F)c4ccc([nH]4)c(-c4c(F)cc(S(=O)(=O)[O-])cc4F)c4nc(c(-c5c(F)cc(S(=O)(=O)[O-])cc5F)c5ccc2[nH]5)C=C4)C=C3)cc1
REMARK SMILES IDX 28 1 27 2 26 3 24 4 25 5 23 7 18 8 19 9 20 10 22 11 21 12
REMARK SMILES IDX 17 13 12 14 13 15 14 16 15 17 16 18 11 19 9 21 10 22 8 23
REMARK SMILES IDX 7 25 1 26 2 27 3 28 4 29 6 30 5 31 29 32 30 33 31 34 32 35
REMARK SMILES IDX 33 36 34 37 35 39 36 40 37 41 101 42 38 43 100 44 39 45
REMARK SMILES IDX 40 46 41 47 94 48 42 49 99 50 93 51 95 52 43 53 98 54 92 55
REMARK SMILES IDX 91 56 44 58 78 59 57 60 77 61 58 62 61 63 76 64 96 65 59 66
REMARK SMILES IDX 60 67 75 69 97 70 62 71 45 72 46 73 55 74 47 75 48 76 54 77
REMARK SMILES IDX 56 78 49 79 50 80 51 81 52 82 53 83 79 84 80 85 89 86 81 87
REMARK SMILES IDX 82 88 88 89 90 90 83 91 84 92 85 93 86 94 87 95 63 96 64 97
REMARK SMILES IDX 73 98 65 99 66 100 72 101 74 102 67 103 68 104 69 105 70 106
REMARK SMILES IDX 71 107
REMARK H PARENT 26 6 11 20 8 24 33 38 95 57 61 68
REMARK Flexibility Score: inf
ROOT
ATOM      1  C   UNL A   1      36.530  22.160  24.345  1.00  0.00     0.021 C 
ENDROOT
BRANCH   1   2
ATOM      2  C   UNL A   1      35.581  21.075  24.981  1.00  0.00     0.116 C 
BRANCH   2   3
ATOM      3  N   UNL A   1      34.097  21.020  24.695  1.00  0.00    -0.352 N 
ATOM      4  C   UNL A   1      33.395  22.140  24.167  1.00  0.00     0.251 C 
ATOM      5  O   UNL A   1      33.634  22.465  23.000  1.00  0.00    -0.269 OA
ATOM      6  H   UNL A   1      33.604  20.188  24.879  1.00  0.00     0.163 HD
BRANCH   4   7
ATOM      7  C   UNL A   1      32.179  22.838  24.855  1.00  0.00     0.046 A 
ATOM      8  C   UNL A   1      31.587  24.094  24.594  1.00  0.00    -0.001 A 
ATOM      9  C   UNL A   1      30.587  24.632  25.466  1.00  0.00     0.007 A 
ATOM     10  C   UNL A   1      30.089  23.924  26.540  1.00  0.00     0.000 A 
ATOM     11  C   UNL A   1      31.575  22.110  25.910  1.00  0.00     0.014 A 
ATOM     12  C   UNL A   1      30.560  22.641  26.739  1.00  0.00     0.001 A 
BRANCH   8  13
ATOM     13  C   UNL A   1      32.160  25.059  23.641  1.00  0.00     0.197 C 
ATOM     14  N   UNL A   1      31.378  26.153  23.153  1.00  0.00    -0.236 N 
ATOM     15  C   UNL A   1      32.158  26.339  21.959  1.00  0.00     0.252 C 
ATOM     16  O   UNL A   1      31.956  25.733  20.904  1.00  0.00    -0.272 OA
ATOM     17  C   UNL A   1      33.571  26.755  22.317  1.00  0.00     0.174 C 
ATOM     18  S   UNL A   1      33.803  25.853  23.889  1.00  0.00    -0.120 SA
BRANCH  14  19
ATOM     19  N   UNL A   1      31.103  27.304  24.248  1.00  0.00    -0.270 N 
ATOM     20  H   UNL A   1      30.880  27.005  25.160  1.00  0.00     0.191 HD
BRANCH  19  21
ATOM     21  C   UNL A   1      31.151  28.690  24.027  1.00  0.00     0.189 C 
ATOM     22  S   UNL A   1      29.767  29.442  23.431  1.00  0.00    -0.039 S 
BRANCH  21  23
ATOM     23  N   UNL A   1      32.212  29.529  24.341  1.00  0.00    -0.331 N 
ATOM     24  H   UNL A   1      32.604  29.996  23.569  1.00  0.00     0.169 HD
BRANCH  23  25
ATOM     25  C   UNL A   1      32.824  29.827  25.576  1.00  0.00     0.043 A 
ATOM     26  C   UNL A   1      31.315  32.196  26.462  1.00  0.00     0.046 C 
ATOM     27  C   UNL A   1      32.393  31.184  26.690  1.00  0.00    -0.028 A 
ATOM     28  C   UNL A   1      33.525  31.628  28.041  1.00  0.00     0.005 A 
ATOM     29  C   UNL A   1      35.027  30.671  28.327  1.00  0.00     0.000 A 
ATOM     30  C   UNL A   1      34.275  28.878  25.930  1.00  0.00     0.026 A 
ATOM     31  C   UNL A   1      35.432  29.330  27.215  1.00  0.00     0.002 A 
ENDBRANCH  23  25
ENDBRANCH  21  23
ENDBRANCH  19  21
ENDBRANCH  14  19
ENDBRANCH   8  13
ENDBRANCH   4   7
ENDBRANCH   2   3
ENDBRANCH   1   2
BRANCH   1  32
ATOM     32  C   UNL A   1      36.835  23.697  25.177  1.00  0.00     0.002 C 
BRANCH  32  33
ATOM     33  C   UNL A   1      38.344  24.655  26.474  1.00  0.00     0.002 C 
BRANCH  33  34
ATOM     34  C   UNL A   1      39.613  24.157  27.608  1.00  0.00     0.021 C 
BRANCH  34  35
ATOM     35  C   UNL A   1      40.789  23.188  27.405  1.00  0.00     0.116 C 
BRANCH  35  36
ATOM     36  N   UNL A   1      41.950  23.609  26.640  1.00  0.00    -0.352 N 
ATOM     37  C   UNL A   1      42.004  24.920  26.152  1.00  0.00     0.251 C 
ATOM     38  H   UNL A   1      42.688  22.982  26.467  1.00  0.00     0.163 HD
ATOM     39  O   UNL A   1      41.402  25.358  25.181  1.00  0.00    -0.269 OA
BRANCH  37  40
ATOM     40  C   UNL A   1      42.546  25.855  27.152  1.00  0.00     0.039 A 
ATOM     41  C   UNL A   1      42.617  25.603  28.523  1.00  0.00     0.014 A 
ATOM     42  C   UNL A   1      42.726  27.132  26.627  1.00  0.00     0.014 A 
ATOM     43  C   UNL A   1      42.725  26.696  29.375  1.00  0.00     0.010 A 
ATOM     44  C   UNL A   1      42.564  28.198  27.447  1.00  0.00     0.010 A 
ATOM     45  C   UNL A   1      42.596  27.971  28.819  1.00  0.00    -0.014 A 
BRANCH  45  46
ATOM     46  C   UNL A   1      42.811  29.210  29.526  1.00  0.00     0.031 A 
ATOM     47  C   UNL A   1      41.573  30.012  29.629  1.00  0.00     0.074 A 
ATOM     48  C   UNL A   1      43.997  29.324  30.163  1.00  0.00     0.049 A 
ATOM     49  N   UNL A   1      41.492  31.288  29.551  1.00  0.00    -0.248 NA
ATOM     50  C   UNL A   1      40.231  29.393  29.680  1.00  0.00     0.031 C 
ATOM     51  C   UNL A   1      44.466  30.273  31.164  1.00  0.00     0.029 A 
ATOM     52  N   UNL A   1      45.163  28.613  29.822  1.00  0.00    -0.354 N 
ATOM     53  C   UNL A   1      40.240  31.609  30.052  1.00  0.00     0.074 A 
ATOM     54  C   UNL A   1      39.431  30.447  29.843  1.00  0.00     0.031 C 
ATOM     55  C   UNL A   1      45.809  30.370  31.059  1.00  0.00     0.029 A 
ATOM     56  C   UNL A   1      46.215  29.543  29.928  1.00  0.00     0.049 A 
ATOM     57  H   UNL A   1      45.229  27.665  29.563  1.00  0.00     0.167 HD
ATOM     58  C   UNL A   1      40.135  32.683  30.885  1.00  0.00     0.037 A 
ATOM     59  C   UNL A   1      46.778  30.010  28.774  1.00  0.00     0.037 A 
ATOM     60  C   UNL A   1      41.476  33.243  31.065  1.00  0.00     0.049 A 
ATOM     61  C   UNL A   1      46.417  31.459  28.549  1.00  0.00     0.074 A 
ATOM     62  C   UNL A   1      42.422  33.086  32.064  1.00  0.00     0.029 A 
ATOM     63  N   UNL A   1      42.160  33.694  29.948  1.00  0.00    -0.354 N 
ATOM     64  N   UNL A   1      45.307  32.020  28.953  1.00  0.00    -0.248 NA
ATOM     65  C   UNL A   1      47.358  32.408  27.973  1.00  0.00     0.031 C 
ATOM     66  C   UNL A   1      43.690  33.441  31.521  1.00  0.00     0.029 A 
ATOM     67  C   UNL A   1      43.514  33.778  30.189  1.00  0.00     0.049 A 
ATOM     68  H   UNL A   1      41.733  33.925  29.091  1.00  0.00     0.167 HD
ATOM     69  C   UNL A   1      45.390  33.378  28.761  1.00  0.00     0.074 A 
ATOM     70  C   UNL A   1      46.702  33.562  28.167  1.00  0.00     0.031 C 
ATOM     71  C   UNL A   1      44.402  34.252  29.136  1.00  0.00     0.037 A 
BRANCH  58  72
ATOM     72  C   UNL A   1      38.959  33.039  31.776  1.00  0.00     0.058 A 
ATOM     73  C   UNL A   1      37.794  33.600  31.202  1.00  0.00     0.135 A 
ATOM     74  C   UNL A   1      38.877  32.837  33.172  1.00  0.00     0.135 A 
ATOM     75  F   UNL A   1      37.693  33.812  29.883  1.00  0.00    -0.206 F 
ATOM     76  C   UNL A   1      36.669  33.961  31.942  1.00  0.00     0.059 A 
ATOM     77  C   UNL A   1      37.766  33.217  33.940  1.00  0.00     0.059 A 
ATOM     78  F   UNL A   1      39.846  32.216  33.854  1.00  0.00    -0.206 F 
ATOM     79  C   UNL A   1      36.661  33.771  33.313  1.00  0.00     0.060 A 
BRANCH  79  80
ATOM     80  S   UNL A   1      35.172  34.211  34.228  1.00  0.00     0.124 S 
ATOM     81  O   UNL A   1      35.007  35.619  33.881  1.00  0.00    -0.237 OA
ATOM     82  O   UNL A   1      34.186  33.298  33.660  1.00  0.00    -0.237 OA
ATOM     83  O   UNL A   1      35.535  33.953  35.618  1.00  0.00    -0.744 OA
ENDBRANCH  79  80
ENDBRANCH  58  72
BRANCH  59  84
ATOM     84  C   UNL A   1      46.887  28.945  27.729  1.00  0.00     0.058 A 
ATOM     85  C   UNL A   1      46.063  29.058  26.589  1.00  0.00     0.135 A 
ATOM     86  C   UNL A   1      48.015  28.123  27.615  1.00  0.00     0.135 A 
ATOM     87  F   UNL A   1      44.961  29.827  26.631  1.00  0.00    -0.206 F 
ATOM     88  C   UNL A   1      46.413  28.498  25.364  1.00  0.00     0.059 A 
ATOM     89  C   UNL A   1      48.397  27.576  26.386  1.00  0.00     0.059 A 
ATOM     90  F   UNL A   1      48.829  27.942  28.665  1.00  0.00    -0.206 F 
ATOM     91  C   UNL A   1      47.626  27.826  25.253  1.00  0.00     0.060 A 
BRANCH  91  92
ATOM     92  S   UNL A   1      48.230  27.336  23.621  1.00  0.00     0.124 S 
ATOM     93  O   UNL A   1      47.345  28.070  22.722  1.00  0.00    -0.237 OA
ATOM     94  O   UNL A   1      49.609  27.806  23.670  1.00  0.00    -0.237 OA
ATOM     95  O   UNL A   1      48.069  25.887  23.624  1.00  0.00    -0.744 OA
ENDBRANCH  91  92
ENDBRANCH  59  84
BRANCH  71  96
ATOM     96  C   UNL A   1      44.194  35.669  28.610  1.00  0.00     0.058 A 
ATOM     97  C   UNL A   1      44.903  36.797  29.048  1.00  0.00     0.135 A 
ATOM     98  C   UNL A   1      43.327  35.920  27.506  1.00  0.00     0.135 A 
ATOM     99  F   UNL A   1      45.877  36.725  29.962  1.00  0.00    -0.206 F 
ATOM    100  C   UNL A   1      44.693  38.071  28.525  1.00  0.00     0.059 A 
ATOM    101  C   UNL A   1      43.185  37.160  26.899  1.00  0.00     0.059 A 
ATOM    102  F   UNL A   1      42.575  34.967  26.940  1.00  0.00    -0.206 F 
ATOM    103  C   UNL A   1      43.839  38.242  27.446  1.00  0.00     0.060 A 
BRANCH 103 104
ATOM    104  S   UNL A   1      43.620  39.884  26.764  1.00  0.00     0.124 S 
ATOM    105  O   UNL A   1      43.795  40.713  27.953  1.00  0.00    -0.237 OA
ATOM    106  O   UNL A   1      44.696  39.953  25.780  1.00  0.00    -0.237 OA
ATOM    107  O   UNL A   1      42.271  39.852  26.211  1.00  0.00    -0.744 OA
ENDBRANCH 103 104
ENDBRANCH  71  96
ENDBRANCH  45  46
ENDBRANCH  37  40
ENDBRANCH  35  36
ENDBRANCH  34  35
ENDBRANCH  33  34
ENDBRANCH  32  33
ENDBRANCH   1  32
TORSDOF 21
ENDMDL
