MODEL 1
REMARK VINA RESULT:     -10.9      0.000      0.000
REMARK SMILES Cc1[nH]c2ccc(Br)cc2c(=O)c1CCC(=O)NCCCCCCNC(=O)c1ccc(-c2c3nc(c(-c4c(F)cc(S(=O)(=O)[O-])cc4F)c4ccc([nH]4)c(-c4c(F)cc(S(=O)(=O)[O-])cc4F)c4nc(c(-c5c(F)cc(S(=O)(=O)[O-])cc5F)c5ccc2[nH]5)C=C4)C=C3)cc1
REMARK SMILES IDX 22 1 21 2 20 3 19 4 18 5 16 6 17 7 15 9 14 10 13 11 1 12
REMARK SMILES IDX 2 13 3 14 4 15 11 17 5 18 10 19 12 20 6 21 9 22 7 23 8 24
REMARK SMILES IDX 23 25 24 26 25 27 26 28 27 30 28 31 29 32 93 33 30 34 92 35
REMARK SMILES IDX 31 36 32 37 33 38 86 39 34 40 91 41 85 42 87 43 35 44 90 45
REMARK SMILES IDX 84 46 83 47 36 49 70 50 49 51 69 52 50 53 53 54 68 55 88 56
REMARK SMILES IDX 51 57 52 58 67 60 89 61 54 62 37 63 38 64 47 65 39 66 40 67
REMARK SMILES IDX 46 68 48 69 41 70 42 71 43 72 44 73 45 74 71 75 72 76 81 77
REMARK SMILES IDX 73 78 74 79 80 80 82 81 75 82 76 83 77 84 78 85 79 86 55 87
REMARK SMILES IDX 56 88 65 89 57 90 58 91 64 92 66 93 59 94 60 95 61 96 62 97
REMARK SMILES IDX 63 98
REMARK H PARENT 18 8 3 16 25 29 87 48 53 59
REMARK Flexibility Score: inf
ROOT
ATOM      1  C   UNL A   1      32.355  27.302  26.126  1.00  0.00     0.002 C 
ENDROOT
BRANCH   1   2
ATOM      2  C   UNL A   1      31.025  27.582  25.419  1.00  0.00     0.002 C 
BRANCH   2   3
ATOM      3  C   UNL A   1      31.080  28.505  24.199  1.00  0.00     0.021 C 
BRANCH   3   4
ATOM      4  C   UNL A   1      30.775  27.873  22.839  1.00  0.00     0.116 C 
BRANCH   4   5
ATOM      5  N   UNL A   1      31.997  27.446  22.171  1.00  0.00    -0.356 N 
ATOM      6  C   UNL A   1      32.542  26.206  22.011  1.00  0.00     0.220 C 
ATOM      7  O   UNL A   1      33.653  26.121  21.482  1.00  0.00    -0.275 OA
ATOM      8  H   UNL A   1      32.517  28.176  21.765  1.00  0.00     0.163 HD
BRANCH   6   9
ATOM      9  C   UNL A   1      31.783  24.952  22.406  1.00  0.00     0.105 C 
BRANCH   9  10
ATOM     10  C   UNL A   1      32.032  24.518  23.856  1.00  0.00     0.051 C 
BRANCH  10  11
ATOM     11  C   UNL A   1      33.120  23.476  23.968  1.00  0.00     0.020 A 
ATOM     12  C   UNL A   1      31.774  21.552  23.050  1.00  0.00     0.064 C 
ATOM     13  C   UNL A   1      33.014  22.163  23.657  1.00  0.00     0.019 A 
ATOM     14  N   UNL A   1      34.039  21.264  23.887  1.00  0.00    -0.358 N 
ATOM     15  C   UNL A   1      35.254  21.636  24.462  1.00  0.00     0.050 A 
ATOM     16  H   UNL A   1      33.904  20.322  23.634  1.00  0.00     0.166 HD
ATOM     17  C   UNL A   1      34.458  23.976  24.425  1.00  0.00     0.192 A 
ATOM     18  C   UNL A   1      36.217  20.684  24.801  1.00  0.00     0.028 A 
ATOM     19  C   UNL A   1      35.510  22.983  24.737  1.00  0.00     0.047 A 
ATOM     20  O   UNL A   1      34.681  25.173  24.573  1.00  0.00    -0.289 OA
ATOM     21  C   UNL A   1      37.423  21.083  25.386  1.00  0.00     0.018 A 
ATOM     22  C   UNL A   1      36.706  23.390  25.338  1.00  0.00     0.030 A 
ATOM     23  C   UNL A   1      37.659  22.431  25.659  1.00  0.00     0.018 A 
ATOM     24  Br  UNL A   1      39.265  22.957  26.503  1.00  0.00    -0.051 Br
ENDBRANCH  10  11
ENDBRANCH   9  10
ENDBRANCH   6   9
ENDBRANCH   4   5
ENDBRANCH   3   4
ENDBRANCH   2   3
ENDBRANCH   1   2
BRANCH   1  25
ATOM     25  C   UNL A   1      32.719  28.208  27.308  1.00  0.00     0.021 C 
BRANCH  25  26
ATOM     26  C   UNL A   1      34.053  28.955  27.223  1.00  0.00     0.116 C 
BRANCH  26  27
ATOM     27  N   UNL A   1      34.098  30.183  28.004  1.00  0.00    -0.352 N 
ATOM     28  C   UNL A   1      35.133  30.754  28.719  1.00  0.00     0.251 C 
ATOM     29  H   UNL A   1      33.254  30.689  28.025  1.00  0.00     0.163 HD
ATOM     30  O   UNL A   1      34.930  31.775  29.363  1.00  0.00    -0.269 OA
BRANCH  28  31
ATOM     31  C   UNL A   1      36.479  30.122  28.754  1.00  0.00     0.039 A 
ATOM     32  C   UNL A   1      36.950  29.474  29.894  1.00  0.00     0.014 A 
ATOM     33  C   UNL A   1      37.291  30.173  27.617  1.00  0.00     0.014 A 
ATOM     34  C   UNL A   1      38.281  29.054  29.969  1.00  0.00     0.010 A 
ATOM     35  C   UNL A   1      38.606  29.686  27.667  1.00  0.00     0.010 A 
ATOM     36  C   UNL A   1      39.139  29.189  28.867  1.00  0.00    -0.014 A 
BRANCH  36  37
ATOM     37  C   UNL A   1      40.600  28.905  29.019  1.00  0.00     0.031 A 
ATOM     38  C   UNL A   1      41.152  27.554  28.621  1.00  0.00     0.074 A 
ATOM     39  C   UNL A   1      41.454  29.863  29.437  1.00  0.00     0.049 A 
ATOM     40  N   UNL A   1      42.388  27.120  28.661  1.00  0.00    -0.248 NA
ATOM     41  C   UNL A   1      40.191  26.561  28.113  1.00  0.00     0.031 C 
ATOM     42  C   UNL A   1      41.075  31.219  29.835  1.00  0.00     0.029 A 
ATOM     43  N   UNL A   1      42.823  29.848  29.576  1.00  0.00    -0.354 N 
ATOM     44  C   UNL A   1      42.347  25.805  28.207  1.00  0.00     0.074 A 
ATOM     45  C   UNL A   1      40.962  25.499  27.931  1.00  0.00     0.031 C 
ATOM     46  C   UNL A   1      42.184  31.917  30.129  1.00  0.00     0.029 A 
ATOM     47  C   UNL A   1      43.352  31.049  29.993  1.00  0.00     0.049 A 
ATOM     48  H   UNL A   1      43.373  29.052  29.395  1.00  0.00     0.167 HD
ATOM     49  C   UNL A   1      43.368  24.935  28.012  1.00  0.00     0.037 A 
ATOM     50  C   UNL A   1      44.626  31.411  30.249  1.00  0.00     0.037 A 
ATOM     51  C   UNL A   1      44.755  25.239  28.245  1.00  0.00     0.049 A 
ATOM     52  C   UNL A   1      45.739  30.410  30.081  1.00  0.00     0.074 A 
ATOM     53  C   UNL A   1      45.856  24.426  28.039  1.00  0.00     0.029 A 
ATOM     54  N   UNL A   1      45.234  26.445  28.729  1.00  0.00    -0.354 N 
ATOM     55  N   UNL A   1      45.677  29.178  29.637  1.00  0.00    -0.248 NA
ATOM     56  C   UNL A   1      47.092  30.843  30.464  1.00  0.00     0.031 C 
ATOM     57  C   UNL A   1      46.998  25.126  28.438  1.00  0.00     0.029 A 
ATOM     58  C   UNL A   1      46.612  26.390  28.852  1.00  0.00     0.049 A 
ATOM     59  H   UNL A   1      44.677  27.226  28.953  1.00  0.00     0.167 HD
ATOM     60  C   UNL A   1      46.981  28.693  29.678  1.00  0.00     0.074 A 
ATOM     61  C   UNL A   1      47.814  29.768  30.172  1.00  0.00     0.031 C 
ATOM     62  C   UNL A   1      47.440  27.464  29.340  1.00  0.00     0.037 A 
BRANCH  49  63
ATOM     63  C   UNL A   1      43.028  23.557  27.512  1.00  0.00     0.058 A 
ATOM     64  C   UNL A   1      43.136  23.223  26.154  1.00  0.00     0.135 A 
ATOM     65  C   UNL A   1      42.646  22.546  28.410  1.00  0.00     0.135 A 
ATOM     66  F   UNL A   1      43.483  24.156  25.253  1.00  0.00    -0.206 F 
ATOM     67  C   UNL A   1      42.856  21.939  25.699  1.00  0.00     0.059 A 
ATOM     68  C   UNL A   1      42.385  21.248  27.979  1.00  0.00     0.059 A 
ATOM     69  F   UNL A   1      42.531  22.813  29.721  1.00  0.00    -0.206 F 
ATOM     70  C   UNL A   1      42.482  20.959  26.619  1.00  0.00     0.060 A 
BRANCH  70  71
ATOM     71  S   UNL A   1      42.129  19.297  26.006  1.00  0.00     0.124 S 
ATOM     72  O   UNL A   1      42.976  19.242  24.818  1.00  0.00    -0.237 OA
ATOM     73  O   UNL A   1      42.551  18.459  27.123  1.00  0.00    -0.237 OA
ATOM     74  O   UNL A   1      40.692  19.326  25.751  1.00  0.00    -0.744 OA
ENDBRANCH  70  71
ENDBRANCH  49  63
BRANCH  50  75
ATOM     75  C   UNL A   1      44.923  32.799  30.696  1.00  0.00     0.058 A 
ATOM     76  C   UNL A   1      44.908  33.135  32.057  1.00  0.00     0.135 A 
ATOM     77  C   UNL A   1      45.242  33.809  29.776  1.00  0.00     0.135 A 
ATOM     78  F   UNL A   1      44.593  32.207  32.974  1.00  0.00    -0.206 F 
ATOM     79  C   UNL A   1      45.199  34.424  32.492  1.00  0.00     0.059 A 
ATOM     80  C   UNL A   1      45.561  35.100  30.187  1.00  0.00     0.059 A 
ATOM     81  F   UNL A   1      45.275  33.536  28.462  1.00  0.00    -0.206 F 
ATOM     82  C   UNL A   1      45.532  35.399  31.549  1.00  0.00     0.060 A 
BRANCH  82  83
ATOM     83  S   UNL A   1      45.974  37.050  32.132  1.00  0.00     0.124 S 
ATOM     84  O   UNL A   1      47.351  37.166  31.666  1.00  0.00    -0.237 OA
ATOM     85  O   UNL A   1      44.994  37.886  31.445  1.00  0.00    -0.237 OA
ATOM     86  O   UNL A   1      45.801  36.953  33.578  1.00  0.00    -0.744 OA
ENDBRANCH  82  83
ENDBRANCH  50  75
BRANCH  62  87
ATOM     87  C   UNL A   1      48.912  27.191  29.484  1.00  0.00     0.058 A 
ATOM     88  C   UNL A   1      49.822  27.560  28.482  1.00  0.00     0.135 A 
ATOM     89  C   UNL A   1      49.429  26.665  30.679  1.00  0.00     0.135 A 
ATOM     90  F   UNL A   1      49.378  28.059  27.317  1.00  0.00    -0.206 F 
ATOM     91  C   UNL A   1      51.195  27.425  28.663  1.00  0.00     0.059 A 
ATOM     92  C   UNL A   1      50.799  26.541  30.890  1.00  0.00     0.059 A 
ATOM     93  F   UNL A   1      48.600  26.302  31.672  1.00  0.00    -0.206 F 
ATOM     94  C   UNL A   1      51.674  26.926  29.875  1.00  0.00     0.060 A 
BRANCH  94  95
ATOM     95  S   UNL A   1      53.461  26.840  30.125  1.00  0.00     0.124 S 
ATOM     96  O   UNL A   1      53.561  25.872  31.212  1.00  0.00    -0.237 OA
ATOM     97  O   UNL A   1      53.934  26.383  28.822  1.00  0.00    -0.237 OA
ATOM     98  O   UNL A   1      53.824  28.211  30.471  1.00  0.00    -0.744 OA
ENDBRANCH  94  95
ENDBRANCH  62  87
ENDBRANCH  36  37
ENDBRANCH  28  31
ENDBRANCH  26  27
ENDBRANCH  25  26
ENDBRANCH   1  25
TORSDOF 18
ENDMDL
MODEL 2
REMARK VINA RESULT:     -10.8      3.577      8.592
REMARK SMILES Cc1[nH]c2ccc(Br)cc2c(=O)c1CCC(=O)NCCCCCCNC(=O)c1ccc(-c2c3nc(c(-c4c(F)cc(S(=O)(=O)[O-])cc4F)c4ccc([nH]4)c(-c4c(F)cc(S(=O)(=O)[O-])cc4F)c4nc(c(-c5c(F)cc(S(=O)(=O)[O-])cc5F)c5ccc2[nH]5)C=C4)C=C3)cc1
REMARK SMILES IDX 22 1 21 2 20 3 19 4 18 5 16 6 17 7 15 9 14 10 13 11 1 12
REMARK SMILES IDX 2 13 3 14 4 15 11 17 5 18 10 19 12 20 6 21 9 22 7 23 8 24
REMARK SMILES IDX 23 25 24 26 25 27 26 28 27 30 28 31 29 32 93 33 30 34 92 35
REMARK SMILES IDX 31 36 32 37 33 38 86 39 34 40 91 41 85 42 87 43 35 44 90 45
REMARK SMILES IDX 84 46 83 47 36 49 70 50 49 51 69 52 50 53 53 54 68 55 88 56
REMARK SMILES IDX 51 57 52 58 67 60 89 61 54 62 37 63 38 64 47 65 39 66 40 67
REMARK SMILES IDX 46 68 48 69 41 70 42 71 43 72 44 73 45 74 71 75 72 76 81 77
REMARK SMILES IDX 73 78 74 79 80 80 82 81 75 82 76 83 77 84 78 85 79 86 55 87
REMARK SMILES IDX 56 88 65 89 57 90 58 91 64 92 66 93 59 94 60 95 61 96 62 97
REMARK SMILES IDX 63 98
REMARK H PARENT 18 8 3 16 25 29 87 48 53 59
REMARK Flexibility Score: inf
ROOT
ATOM      1  C   UNL A   1      35.894  22.879  23.625  1.00  0.00     0.002 C 
ENDROOT
BRANCH   1   2
ATOM      2  C   UNL A   1      34.618  23.522  23.074  1.00  0.00     0.002 C 
BRANCH   2   3
ATOM      3  C   UNL A   1      34.392  24.997  23.416  1.00  0.00     0.021 C 
BRANCH   3   4
ATOM      4  C   UNL A   1      33.651  25.842  22.378  1.00  0.00     0.116 C 
BRANCH   4   5
ATOM      5  N   UNL A   1      33.364  27.175  22.892  1.00  0.00    -0.356 N 
ATOM      6  C   UNL A   1      32.189  27.860  22.992  1.00  0.00     0.220 C 
ATOM      7  O   UNL A   1      32.229  29.031  23.379  1.00  0.00    -0.275 OA
ATOM      8  H   UNL A   1      34.152  27.664  23.223  1.00  0.00     0.163 HD
BRANCH   6   9
ATOM      9  C   UNL A   1      30.857  27.192  22.706  1.00  0.00     0.105 C 
BRANCH   9  10
ATOM     10  C   UNL A   1      30.068  26.836  23.973  1.00  0.00     0.051 C 
BRANCH  10  11
ATOM     11  C   UNL A   1      30.797  25.842  24.847  1.00  0.00     0.020 A 
ATOM     12  C   UNL A   1      31.402  27.461  26.683  1.00  0.00     0.064 C 
ATOM     13  C   UNL A   1      31.423  26.106  26.018  1.00  0.00     0.019 A 
ATOM     14  N   UNL A   1      32.149  25.147  26.700  1.00  0.00    -0.358 N 
ATOM     15  C   UNL A   1      32.302  23.842  26.232  1.00  0.00     0.050 A 
ATOM     16  H   UNL A   1      32.577  25.398  27.550  1.00  0.00     0.166 HD
ATOM     17  C   UNL A   1      30.773  24.418  24.378  1.00  0.00     0.192 A 
ATOM     18  C   UNL A   1      33.148  22.936  26.874  1.00  0.00     0.028 A 
ATOM     19  C   UNL A   1      31.622  23.431  25.080  1.00  0.00     0.047 A 
ATOM     20  O   UNL A   1      30.096  24.070  23.415  1.00  0.00    -0.289 OA
ATOM     21  C   UNL A   1      33.290  21.636  26.378  1.00  0.00     0.018 A 
ATOM     22  C   UNL A   1      31.772  22.139  24.567  1.00  0.00     0.030 A 
ATOM     23  C   UNL A   1      32.610  21.246  25.224  1.00  0.00     0.018 A 
ATOM     24  Br  UNL A   1      32.852  19.507  24.526  1.00  0.00    -0.051 Br
ENDBRANCH  10  11
ENDBRANCH   9  10
ENDBRANCH   6   9
ENDBRANCH   4   5
ENDBRANCH   3   4
ENDBRANCH   2   3
ENDBRANCH   1   2
BRANCH   1  25
ATOM     25  C   UNL A   1      36.679  23.677  24.674  1.00  0.00     0.021 C 
BRANCH  25  26
ATOM     26  C   UNL A   1      37.214  22.897  25.878  1.00  0.00     0.116 C 
BRANCH  26  27
ATOM     27  N   UNL A   1      38.587  22.435  25.724  1.00  0.00    -0.352 N 
ATOM     28  C   UNL A   1      39.778  23.011  26.123  1.00  0.00     0.251 C 
ATOM     29  H   UNL A   1      38.682  21.572  25.260  1.00  0.00     0.163 HD
ATOM     30  O   UNL A   1      40.837  22.471  25.832  1.00  0.00    -0.269 OA
BRANCH  28  31
ATOM     31  C   UNL A   1      39.794  24.300  26.865  1.00  0.00     0.039 A 
ATOM     32  C   UNL A   1      40.424  25.430  26.347  1.00  0.00     0.014 A 
ATOM     33  C   UNL A   1      39.158  24.385  28.107  1.00  0.00     0.014 A 
ATOM     34  C   UNL A   1      40.589  26.571  27.137  1.00  0.00     0.010 A 
ATOM     35  C   UNL A   1      39.261  25.557  28.873  1.00  0.00     0.010 A 
ATOM     36  C   UNL A   1      40.042  26.636  28.427  1.00  0.00    -0.014 A 
BRANCH  36  37
ATOM     37  C   UNL A   1      40.379  27.784  29.325  1.00  0.00     0.031 A 
ATOM     38  C   UNL A   1      41.720  27.828  30.023  1.00  0.00     0.074 A 
ATOM     39  C   UNL A   1      39.533  28.826  29.468  1.00  0.00     0.049 A 
ATOM     40  N   UNL A   1      42.206  28.743  30.827  1.00  0.00    -0.248 NA
ATOM     41  C   UNL A   1      42.635  26.699  29.789  1.00  0.00     0.031 C 
ATOM     42  C   UNL A   1      38.215  28.936  28.843  1.00  0.00     0.029 A 
ATOM     43  N   UNL A   1      39.666  30.001  30.170  1.00  0.00    -0.354 N 
ATOM     44  C   UNL A   1      43.466  28.289  31.207  1.00  0.00     0.074 A 
ATOM     45  C   UNL A   1      43.656  27.002  30.577  1.00  0.00     0.031 C 
ATOM     46  C   UNL A   1      37.681  30.130  29.150  1.00  0.00     0.029 A 
ATOM     47  C   UNL A   1      38.591  30.852  30.037  1.00  0.00     0.049 A 
ATOM     48  H   UNL A   1      40.456  30.215  30.716  1.00  0.00     0.167 HD
ATOM     49  C   UNL A   1      44.393  28.893  31.989  1.00  0.00     0.037 A 
ATOM     50  C   UNL A   1      38.356  32.067  30.574  1.00  0.00     0.037 A 
ATOM     51  C   UNL A   1      44.232  30.191  32.590  1.00  0.00     0.049 A 
ATOM     52  C   UNL A   1      39.376  32.695  31.487  1.00  0.00     0.074 A 
ATOM     53  C   UNL A   1      45.138  30.892  33.368  1.00  0.00     0.029 A 
ATOM     54  N   UNL A   1      43.102  30.983  32.481  1.00  0.00    -0.354 N 
ATOM     55  N   UNL A   1      40.564  32.253  31.820  1.00  0.00    -0.248 NA
ATOM     56  C   UNL A   1      39.016  33.979  32.110  1.00  0.00     0.031 C 
ATOM     57  C   UNL A   1      44.538  32.091  33.764  1.00  0.00     0.029 A 
ATOM     58  C   UNL A   1      43.276  32.156  33.197  1.00  0.00     0.049 A 
ATOM     59  H   UNL A   1      42.293  30.748  31.970  1.00  0.00     0.167 HD
ATOM     60  C   UNL A   1      41.097  33.207  32.682  1.00  0.00     0.074 A 
ATOM     61  C   UNL A   1      40.111  34.260  32.805  1.00  0.00     0.031 C 
ATOM     62  C   UNL A   1      42.294  33.204  33.315  1.00  0.00     0.037 A 
BRANCH  49  63
ATOM     63  C   UNL A   1      45.681  28.160  32.241  1.00  0.00     0.058 A 
ATOM     64  C   UNL A   1      45.822  27.275  33.322  1.00  0.00     0.135 A 
ATOM     65  C   UNL A   1      46.766  28.298  31.359  1.00  0.00     0.135 A 
ATOM     66  F   UNL A   1      44.821  27.118  34.202  1.00  0.00    -0.206 F 
ATOM     67  C   UNL A   1      47.002  26.571  33.533  1.00  0.00     0.059 A 
ATOM     68  C   UNL A   1      47.948  27.583  31.538  1.00  0.00     0.059 A 
ATOM     69  F   UNL A   1      46.682  29.129  30.308  1.00  0.00    -0.206 F 
ATOM     70  C   UNL A   1      48.059  26.731  32.635  1.00  0.00     0.060 A 
BRANCH  70  71
ATOM     71  S   UNL A   1      49.579  25.801  32.926  1.00  0.00     0.124 S 
ATOM     72  O   UNL A   1      49.906  25.352  31.576  1.00  0.00    -0.237 OA
ATOM     73  O   UNL A   1      50.462  26.818  33.486  1.00  0.00    -0.237 OA
ATOM     74  O   UNL A   1      49.165  24.752  33.853  1.00  0.00    -0.744 OA
ENDBRANCH  70  71
ENDBRANCH  49  63
BRANCH  50  75
ATOM     75  C   UNL A   1      37.087  32.779  30.260  1.00  0.00     0.058 A 
ATOM     76  C   UNL A   1      35.949  32.611  31.061  1.00  0.00     0.135 A 
ATOM     77  C   UNL A   1      36.991  33.650  29.163  1.00  0.00     0.135 A 
ATOM     78  F   UNL A   1      35.986  31.776  32.112  1.00  0.00    -0.206 F 
ATOM     79  C   UNL A   1      34.761  33.281  30.790  1.00  0.00     0.059 A 
ATOM     80  C   UNL A   1      35.822  34.352  28.885  1.00  0.00     0.059 A 
ATOM     81  F   UNL A   1      38.055  33.849  28.368  1.00  0.00    -0.206 F 
ATOM     82  C   UNL A   1      34.710  34.156  29.703  1.00  0.00     0.060 A 
BRANCH  82  83
ATOM     83  S   UNL A   1      33.183  35.072  29.402  1.00  0.00     0.124 S 
ATOM     84  O   UNL A   1      32.547  35.020  30.713  1.00  0.00    -0.237 OA
ATOM     85  O   UNL A   1      33.689  36.378  28.988  1.00  0.00    -0.237 OA
ATOM     86  O   UNL A   1      32.529  34.299  28.351  1.00  0.00    -0.744 OA
ENDBRANCH  82  83
ENDBRANCH  50  75
BRANCH  62  87
ATOM     87  C   UNL A   1      42.630  34.367  34.206  1.00  0.00     0.058 A 
ATOM     88  C   UNL A   1      42.373  34.327  35.585  1.00  0.00     0.135 A 
ATOM     89  C   UNL A   1      43.321  35.481  33.700  1.00  0.00     0.135 A 
ATOM     90  F   UNL A   1      41.708  33.289  36.117  1.00  0.00    -0.206 F 
ATOM     91  C   UNL A   1      42.795  35.346  36.433  1.00  0.00     0.059 A 
ATOM     92  C   UNL A   1      43.771  36.501  34.533  1.00  0.00     0.059 A 
ATOM     93  F   UNL A   1      43.598  35.565  32.389  1.00  0.00    -0.206 F 
ATOM     94  C   UNL A   1      43.505  36.423  35.899  1.00  0.00     0.060 A 
BRANCH  94  95
ATOM     95  S   UNL A   1      44.121  37.692  37.027  1.00  0.00     0.124 S 
ATOM     96  O   UNL A   1      44.160  38.864  36.160  1.00  0.00    -0.237 OA
ATOM     97  O   UNL A   1      43.098  37.705  38.067  1.00  0.00    -0.237 OA
ATOM     98  O   UNL A   1      45.423  37.176  37.443  1.00  0.00    -0.744 OA
ENDBRANCH  94  95
ENDBRANCH  62  87
ENDBRANCH  36  37
ENDBRANCH  28  31
ENDBRANCH  26  27
ENDBRANCH  25  26
ENDBRANCH   1  25
TORSDOF 18
ENDMDL
MODEL 3
REMARK VINA RESULT:     -10.7      3.668      9.585
REMARK SMILES Cc1[nH]c2ccc(Br)cc2c(=O)c1CCC(=O)NCCCCCCNC(=O)c1ccc(-c2c3nc(c(-c4c(F)cc(S(=O)(=O)[O-])cc4F)c4ccc([nH]4)c(-c4c(F)cc(S(=O)(=O)[O-])cc4F)c4nc(c(-c5c(F)cc(S(=O)(=O)[O-])cc5F)c5ccc2[nH]5)C=C4)C=C3)cc1
REMARK SMILES IDX 22 1 21 2 20 3 19 4 18 5 16 6 17 7 15 9 14 10 13 11 1 12
REMARK SMILES IDX 2 13 3 14 4 15 11 17 5 18 10 19 12 20 6 21 9 22 7 23 8 24
REMARK SMILES IDX 23 25 24 26 25 27 26 28 27 30 28 31 29 32 93 33 30 34 92 35
REMARK SMILES IDX 31 36 32 37 33 38 86 39 34 40 91 41 85 42 87 43 35 44 90 45
REMARK SMILES IDX 84 46 83 47 36 49 70 50 49 51 69 52 50 53 53 54 68 55 88 56
REMARK SMILES IDX 51 57 52 58 67 60 89 61 54 62 37 63 38 64 47 65 39 66 40 67
REMARK SMILES IDX 46 68 48 69 41 70 42 71 43 72 44 73 45 74 71 75 72 76 81 77
REMARK SMILES IDX 73 78 74 79 80 80 82 81 75 82 76 83 77 84 78 85 79 86 55 87
REMARK SMILES IDX 56 88 65 89 57 90 58 91 64 92 66 93 59 94 60 95 61 96 62 97
REMARK SMILES IDX 63 98
REMARK H PARENT 18 8 3 16 25 29 87 48 53 59
REMARK Flexibility Score: inf
ROOT
ATOM      1  C   UNL A   1      35.397  22.066  26.079  1.00  0.00     0.002 C 
ENDROOT
BRANCH   1   2
ATOM      2  C   UNL A   1      34.788  21.435  24.823  1.00  0.00     0.002 C 
BRANCH   2   3
ATOM      3  C   UNL A   1      33.801  20.287  25.045  1.00  0.00     0.021 C 
BRANCH   3   4
ATOM      4  C   UNL A   1      32.312  20.635  24.990  1.00  0.00     0.116 C 
BRANCH   4   5
ATOM      5  N   UNL A   1      31.914  21.434  26.142  1.00  0.00    -0.356 N 
ATOM      6  C   UNL A   1      31.307  22.653  26.217  1.00  0.00     0.220 C 
ATOM      7  O   UNL A   1      31.166  23.166  27.330  1.00  0.00    -0.275 OA
ATOM      8  H   UNL A   1      32.119  21.025  27.013  1.00  0.00     0.163 HD
BRANCH   6   9
ATOM      9  C   UNL A   1      30.753  23.338  24.981  1.00  0.00     0.105 C 
BRANCH   9  10
ATOM     10  C   UNL A   1      31.758  24.276  24.300  1.00  0.00     0.051 C 
BRANCH  10  11
ATOM     11  C   UNL A   1      31.540  25.724  24.672  1.00  0.00     0.020 A 
ATOM     12  C   UNL A   1      29.326  25.995  23.494  1.00  0.00     0.064 C 
ATOM     13  C   UNL A   1      30.500  26.505  24.295  1.00  0.00     0.019 A 
ATOM     14  N   UNL A   1      30.437  27.851  24.605  1.00  0.00    -0.358 N 
ATOM     15  C   UNL A   1      31.439  28.508  25.320  1.00  0.00     0.050 A 
ATOM     16  H   UNL A   1      29.653  28.366  24.308  1.00  0.00     0.166 HD
ATOM     17  C   UNL A   1      32.562  26.324  25.591  1.00  0.00     0.192 A 
ATOM     18  C   UNL A   1      31.410  29.892  25.503  1.00  0.00     0.028 A 
ATOM     19  C   UNL A   1      32.514  27.781  25.841  1.00  0.00     0.047 A 
ATOM     20  O   UNL A   1      33.444  25.642  26.104  1.00  0.00    -0.289 OA
ATOM     21  C   UNL A   1      32.432  30.527  26.215  1.00  0.00     0.018 A 
ATOM     22  C   UNL A   1      33.550  28.411  26.539  1.00  0.00     0.030 A 
ATOM     23  C   UNL A   1      33.500  29.787  26.722  1.00  0.00     0.018 A 
ATOM     24  Br  UNL A   1      34.908  30.659  27.632  1.00  0.00    -0.051 Br
ENDBRANCH  10  11
ENDBRANCH   9  10
ENDBRANCH   6   9
ENDBRANCH   4   5
ENDBRANCH   3   4
ENDBRANCH   2   3
ENDBRANCH   1   2
BRANCH   1  25
ATOM     25  C   UNL A   1      35.942  23.494  25.947  1.00  0.00     0.021 C 
BRANCH  25  26
ATOM     26  C   UNL A   1      37.154  23.690  25.032  1.00  0.00     0.116 C 
BRANCH  26  27
ATOM     27  N   UNL A   1      38.279  22.819  25.340  1.00  0.00    -0.352 N 
ATOM     28  C   UNL A   1      39.394  23.038  26.127  1.00  0.00     0.251 C 
ATOM     29  H   UNL A   1      38.239  21.929  24.921  1.00  0.00     0.163 HD
ATOM     30  O   UNL A   1      40.260  22.175  26.199  1.00  0.00    -0.269 OA
BRANCH  28  31
ATOM     31  C   UNL A   1      39.580  24.323  26.852  1.00  0.00     0.039 A 
ATOM     32  C   UNL A   1      40.399  25.331  26.348  1.00  0.00     0.014 A 
ATOM     33  C   UNL A   1      38.913  24.529  28.063  1.00  0.00     0.014 A 
ATOM     34  C   UNL A   1      40.706  26.447  27.131  1.00  0.00     0.010 A 
ATOM     35  C   UNL A   1      39.165  25.685  28.818  1.00  0.00     0.010 A 
ATOM     36  C   UNL A   1      40.122  26.621  28.394  1.00  0.00    -0.014 A 
BRANCH  36  37
ATOM     37  C   UNL A   1      40.595  27.720  29.292  1.00  0.00     0.031 A 
ATOM     38  C   UNL A   1      39.729  28.940  29.514  1.00  0.00     0.074 A 
ATOM     39  C   UNL A   1      41.757  27.611  29.971  1.00  0.00     0.049 A 
ATOM     40  N   UNL A   1      39.953  29.990  30.266  1.00  0.00    -0.248 NA
ATOM     41  C   UNL A   1      38.443  28.987  28.800  1.00  0.00     0.031 C 
ATOM     42  C   UNL A   1      42.689  26.487  29.876  1.00  0.00     0.029 A 
ATOM     43  N   UNL A   1      42.341  28.450  30.892  1.00  0.00    -0.354 N 
ATOM     44  C   UNL A   1      38.853  30.826  30.097  1.00  0.00     0.074 A 
ATOM     45  C   UNL A   1      37.978  30.180  29.145  1.00  0.00     0.031 C 
ATOM     46  C   UNL A   1      43.701  26.683  30.736  1.00  0.00     0.029 A 
ATOM     47  C   UNL A   1      43.524  27.969  31.407  1.00  0.00     0.049 A 
ATOM     48  H   UNL A   1      41.951  29.313  31.157  1.00  0.00     0.167 HD
ATOM     49  C   UNL A   1      38.578  32.011  30.694  1.00  0.00     0.037 A 
ATOM     50  C   UNL A   1      44.376  28.503  32.307  1.00  0.00     0.037 A 
ATOM     51  C   UNL A   1      39.421  32.646  31.673  1.00  0.00     0.049 A 
ATOM     52  C   UNL A   1      44.080  29.848  32.914  1.00  0.00     0.074 A 
ATOM     53  C   UNL A   1      39.200  33.831  32.353  1.00  0.00     0.029 A 
ATOM     54  N   UNL A   1      40.639  32.154  32.113  1.00  0.00    -0.354 N 
ATOM     55  N   UNL A   1      43.027  30.612  32.750  1.00  0.00    -0.248 NA
ATOM     56  C   UNL A   1      45.096  30.413  33.819  1.00  0.00     0.031 C 
ATOM     57  C   UNL A   1      40.304  34.076  33.175  1.00  0.00     0.029 A 
ATOM     58  C   UNL A   1      41.193  33.023  33.038  1.00  0.00     0.049 A 
ATOM     59  H   UNL A   1      41.050  31.311  31.812  1.00  0.00     0.167 HD
ATOM     60  C   UNL A   1      43.249  31.740  33.535  1.00  0.00     0.074 A 
ATOM     61  C   UNL A   1      44.526  31.552  34.189  1.00  0.00     0.031 C 
ATOM     62  C   UNL A   1      42.463  32.832  33.692  1.00  0.00     0.037 A 
BRANCH  49  63
ATOM     63  C   UNL A   1      37.302  32.708  30.312  1.00  0.00     0.058 A 
ATOM     64  C   UNL A   1      37.272  33.681  29.302  1.00  0.00     0.135 A 
ATOM     65  C   UNL A   1      36.086  32.356  30.922  1.00  0.00     0.135 A 
ATOM     66  F   UNL A   1      38.407  34.064  28.698  1.00  0.00    -0.206 F 
ATOM     67  C   UNL A   1      36.084  34.299  28.925  1.00  0.00     0.059 A 
ATOM     68  C   UNL A   1      34.882  32.944  30.543  1.00  0.00     0.059 A 
ATOM     69  F   UNL A   1      36.060  31.427  31.891  1.00  0.00    -0.206 F 
ATOM     70  C   UNL A   1      34.895  33.923  29.551  1.00  0.00     0.060 A 
BRANCH  70  71
ATOM     71  S   UNL A   1      33.364  34.734  29.041  1.00  0.00     0.124 S 
ATOM     72  O   UNL A   1      33.876  35.946  28.408  1.00  0.00    -0.237 OA
ATOM     73  O   UNL A   1      32.777  33.749  28.139  1.00  0.00    -0.237 OA
ATOM     74  O   UNL A   1      32.650  34.937  30.298  1.00  0.00    -0.744 OA
ENDBRANCH  70  71
ENDBRANCH  49  63
BRANCH  50  75
ATOM     75  C   UNL A   1      45.605  27.757  32.692  1.00  0.00     0.058 A 
ATOM     76  C   UNL A   1      46.801  27.922  31.978  1.00  0.00     0.135 A 
ATOM     77  C   UNL A   1      45.613  26.878  33.786  1.00  0.00     0.135 A 
ATOM     78  F   UNL A   1      46.840  28.738  30.914  1.00  0.00    -0.206 F 
ATOM     79  C   UNL A   1      47.962  27.244  32.335  1.00  0.00     0.059 A 
ATOM     80  C   UNL A   1      46.767  26.207  34.179  1.00  0.00     0.059 A 
ATOM     81  F   UNL A   1      44.495  26.690  34.505  1.00  0.00    -0.206 F 
ATOM     82  C   UNL A   1      47.937  26.394  33.443  1.00  0.00     0.060 A 
BRANCH  82  83
ATOM     83  S   UNL A   1      49.467  25.573  33.937  1.00  0.00     0.124 S 
ATOM     84  O   UNL A   1      49.603  26.013  35.320  1.00  0.00    -0.237 OA
ATOM     85  O   UNL A   1      49.132  24.165  33.744  1.00  0.00    -0.237 OA
ATOM     86  O   UNL A   1      50.453  26.109  33.003  1.00  0.00    -0.744 OA
ENDBRANCH  82  83
ENDBRANCH  50  75
BRANCH  62  87
ATOM     87  C   UNL A   1      42.940  33.926  34.605  1.00  0.00     0.058 A 
ATOM     88  C   UNL A   1      43.565  35.076  34.099  1.00  0.00     0.135 A 
ATOM     89  C   UNL A   1      42.665  33.881  35.982  1.00  0.00     0.135 A 
ATOM     90  F   UNL A   1      43.858  35.165  32.792  1.00  0.00    -0.206 F 
ATOM     91  C   UNL A   1      43.895  36.146  34.925  1.00  0.00     0.059 A 
ATOM     92  C   UNL A   1      42.967  34.948  36.822  1.00  0.00     0.059 A 
ATOM     93  F   UNL A   1      42.063  32.806  36.515  1.00  0.00    -0.206 F 
ATOM     94  C   UNL A   1      43.580  36.078  36.283  1.00  0.00     0.060 A 
BRANCH  94  95
ATOM     95  S   UNL A   1      43.936  37.512  37.322  1.00  0.00     0.124 S 
ATOM     96  O   UNL A   1      44.159  38.552  36.325  1.00  0.00    -0.237 OA
ATOM     97  O   UNL A   1      42.712  37.637  38.107  1.00  0.00    -0.237 OA
ATOM     98  O   UNL A   1      45.118  37.102  38.076  1.00  0.00    -0.744 OA
ENDBRANCH  94  95
ENDBRANCH  62  87
ENDBRANCH  36  37
ENDBRANCH  28  31
ENDBRANCH  26  27
ENDBRANCH  25  26
ENDBRANCH   1  25
TORSDOF 18
ENDMDL
