MODEL 1
REMARK VINA RESULT:     -10.9      0.000      0.000
REMARK SMILES C[C@H]1CN([C@@H](C(=O)NCCCCCCNC(=O)c2ccc(-c3c4nc(c(-c5c(F)cc(S(=O)(=O)[O-])cc5F)c5ccc([nH]5)c(-c5c(F)cc(S(=O)(=O)[O-])cc5F)c5nc(c(-c6c(F)cc(S(=O)(=O)[O-])cc6F)c6ccc3[nH]6)C=C5)C=C4)cc2)C(C)(C)C)S(=O)(=O)C1
REMARK SMILES IDX 12 1 11 2 10 3 9 4 8 5 6 6 7 7 5 9 4 10 1 11 2 12 3 13 91 14
REMARK SMILES IDX 88 15 89 16 90 17 84 18 85 19 86 20 87 21 13 22 14 23 15 24
REMARK SMILES IDX 16 25 17 27 18 28 19 29 83 30 20 31 82 32 21 33 22 34 23 35
REMARK SMILES IDX 76 36 24 37 81 38 75 39 77 40 25 41 80 42 74 43 73 44 26 46
REMARK SMILES IDX 60 47 39 48 59 49 40 50 43 51 58 52 78 53 41 54 42 55 57 57
REMARK SMILES IDX 79 58 44 59 27 60 28 61 37 62 29 63 30 64 36 65 38 66 31 67
REMARK SMILES IDX 32 68 33 69 34 70 35 71 61 72 62 73 71 74 63 75 64 76 70 77
REMARK SMILES IDX 72 78 65 79 66 80 67 81 68 82 69 83 45 84 46 85 55 86 47 87
REMARK SMILES IDX 48 88 54 89 56 90 49 91 50 92 51 93 52 94 53 95
REMARK H PARENT 8 8 15 26 77 45 43 56
REMARK Flexibility Score: inf
ROOT
ATOM      1  C   UNL A   1      33.727  29.133  27.264  1.00  0.00     0.002 C 
ENDROOT
BRANCH   1   2
ATOM      2  C   UNL A   1      33.416  29.124  25.769  1.00  0.00     0.002 C 
BRANCH   2   3
ATOM      3  C   UNL A   1      34.148  28.028  24.991  1.00  0.00     0.021 C 
BRANCH   3   4
ATOM      4  C   UNL A   1      33.379  26.711  24.835  1.00  0.00     0.116 C 
BRANCH   4   5
ATOM      5  N   UNL A   1      33.510  26.151  23.497  1.00  0.00    -0.355 N 
ATOM      6  C   UNL A   1      33.477  24.880  22.988  1.00  0.00     0.238 C 
ATOM      7  O   UNL A   1      33.594  24.812  21.762  1.00  0.00    -0.273 OA
ATOM      8  H   UNL A   1      33.654  26.837  22.807  1.00  0.00     0.163 HD
BRANCH   6   9
ATOM      9  C   UNL A   1      33.272  23.635  23.883  1.00  0.00     0.167 C 
BRANCH   9  10
ATOM     10  N   UNL A   1      34.399  22.643  23.847  1.00  0.00    -0.189 NA
ATOM     11  C   UNL A   1      35.185  21.839  26.799  1.00  0.00     0.010 C 
ATOM     12  C   UNL A   1      35.305  21.074  25.474  1.00  0.00     0.017 C 
ATOM     13  C   UNL A   1      34.178  21.311  24.448  1.00  0.00     0.107 C 
ATOM     14  C   UNL A   1      36.548  21.529  24.722  1.00  0.00     0.159 C 
ATOM     15  S   UNL A   1      36.046  23.046  23.926  1.00  0.00     0.215 S 
ATOM     16  O   UNL A   1      36.586  23.049  22.588  1.00  0.00    -0.212 OA
ATOM     17  O   UNL A   1      36.247  24.130  24.861  1.00  0.00    -0.212 OA
ENDBRANCH   9  10
BRANCH   9  18
ATOM     18  C   UNL A   1      31.833  22.987  23.729  1.00  0.00    -0.013 C 
ATOM     19  C   UNL A   1      31.387  22.384  25.081  1.00  0.00     0.013 C 
ATOM     20  C   UNL A   1      30.799  24.087  23.371  1.00  0.00     0.013 C 
ATOM     21  C   UNL A   1      31.691  21.894  22.649  1.00  0.00     0.013 C 
ENDBRANCH   9  18
ENDBRANCH   6   9
ENDBRANCH   4   5
ENDBRANCH   3   4
ENDBRANCH   2   3
ENDBRANCH   1   2
BRANCH   1  22
ATOM     22  C   UNL A   1      35.212  29.286  27.611  1.00  0.00     0.021 C 
BRANCH  22  23
ATOM     23  C   UNL A   1      35.641  30.708  27.966  1.00  0.00     0.116 C 
BRANCH  23  24
ATOM     24  N   UNL A   1      35.500  30.962  29.391  1.00  0.00    -0.352 N 
ATOM     25  C   UNL A   1      36.385  30.651  30.394  1.00  0.00     0.251 C 
ATOM     26  H   UNL A   1      34.669  31.411  29.671  1.00  0.00     0.163 HD
ATOM     27  O   UNL A   1      36.027  30.644  31.566  1.00  0.00    -0.269 OA
BRANCH  25  28
ATOM     28  C   UNL A   1      37.779  30.319  30.031  1.00  0.00     0.039 A 
ATOM     29  C   UNL A   1      38.633  29.778  30.992  1.00  0.00     0.014 A 
ATOM     30  C   UNL A   1      38.220  30.520  28.719  1.00  0.00     0.014 A 
ATOM     31  C   UNL A   1      39.922  29.390  30.622  1.00  0.00     0.010 A 
ATOM     32  C   UNL A   1      39.476  30.062  28.337  1.00  0.00     0.010 A 
ATOM     33  C   UNL A   1      40.345  29.501  29.286  1.00  0.00    -0.014 A 
BRANCH  33  34
ATOM     34  C   UNL A   1      41.699  29.057  28.862  1.00  0.00     0.031 A 
ATOM     35  C   UNL A   1      42.821  30.059  28.778  1.00  0.00     0.074 A 
ATOM     36  C   UNL A   1      41.902  27.777  28.493  1.00  0.00     0.049 A 
ATOM     37  N   UNL A   1      44.046  29.892  28.352  1.00  0.00    -0.248 NA
ATOM     38  C   UNL A   1      42.519  31.436  29.205  1.00  0.00     0.031 C 
ATOM     39  C   UNL A   1      40.883  26.724  28.489  1.00  0.00     0.029 A 
ATOM     40  N   UNL A   1      43.030  27.142  28.036  1.00  0.00    -0.354 N 
ATOM     41  C   UNL A   1      44.653  31.138  28.443  1.00  0.00     0.074 A 
ATOM     42  C   UNL A   1      43.649  32.065  28.915  1.00  0.00     0.031 C 
ATOM     43  C   UNL A   1      41.437  25.575  28.069  1.00  0.00     0.029 A 
ATOM     44  C   UNL A   1      42.837  25.815  27.732  1.00  0.00     0.049 A 
ATOM     45  H   UNL A   1      43.899  27.596  27.936  1.00  0.00     0.167 HD
ATOM     46  C   UNL A   1      45.938  31.475  28.181  1.00  0.00     0.037 A 
ATOM     47  C   UNL A   1      43.686  24.898  27.225  1.00  0.00     0.037 A 
ATOM     48  C   UNL A   1      46.940  30.539  27.745  1.00  0.00     0.049 A 
ATOM     49  C   UNL A   1      45.108  25.303  26.934  1.00  0.00     0.074 A 
ATOM     50  C   UNL A   1      48.285  30.769  27.513  1.00  0.00     0.029 A 
ATOM     51  N   UNL A   1      46.710  29.199  27.473  1.00  0.00    -0.354 N 
ATOM     52  N   UNL A   1      45.682  26.472  27.093  1.00  0.00    -0.248 NA
ATOM     53  C   UNL A   1      46.002  24.265  26.401  1.00  0.00     0.031 C 
ATOM     54  C   UNL A   1      48.856  29.581  27.047  1.00  0.00     0.029 A 
ATOM     55  C   UNL A   1      47.883  28.595  27.050  1.00  0.00     0.049 A 
ATOM     56  H   UNL A   1      45.842  28.743  27.565  1.00  0.00     0.167 HD
ATOM     57  C   UNL A   1      47.010  26.298  26.716  1.00  0.00     0.074 A 
ATOM     58  C   UNL A   1      47.157  24.911  26.332  1.00  0.00     0.031 C 
ATOM     59  C   UNL A   1      48.018  27.205  26.693  1.00  0.00     0.037 A 
BRANCH  46  60
ATOM     60  C   UNL A   1      46.347  32.912  28.363  1.00  0.00     0.058 A 
ATOM     61  C   UNL A   1      46.213  33.854  27.330  1.00  0.00     0.135 A 
ATOM     62  C   UNL A   1      46.805  33.368  29.609  1.00  0.00     0.135 A 
ATOM     63  F   UNL A   1      45.799  33.469  26.112  1.00  0.00    -0.206 F 
ATOM     64  C   UNL A   1      46.531  35.194  27.523  1.00  0.00     0.059 A 
ATOM     65  C   UNL A   1      47.098  34.710  29.835  1.00  0.00     0.059 A 
ATOM     66  F   UNL A   1      46.955  32.509  30.630  1.00  0.00    -0.206 F 
ATOM     67  C   UNL A   1      46.965  35.614  28.782  1.00  0.00     0.060 A 
BRANCH  67  68
ATOM     68  S   UNL A   1      47.329  37.365  29.026  1.00  0.00     0.124 S 
ATOM     69  O   UNL A   1      47.493  37.428  30.476  1.00  0.00    -0.237 OA
ATOM     70  O   UNL A   1      48.548  37.539  28.242  1.00  0.00    -0.237 OA
ATOM     71  O   UNL A   1      46.146  38.036  28.499  1.00  0.00    -0.744 OA
ENDBRANCH  67  68
ENDBRANCH  46  60
BRANCH  47  72
ATOM     72  C   UNL A   1      43.224  23.508  26.957  1.00  0.00     0.058 A 
ATOM     73  C   UNL A   1      43.043  22.589  28.003  1.00  0.00     0.135 A 
ATOM     74  C   UNL A   1      42.981  23.060  25.649  1.00  0.00     0.135 A 
ATOM     75  F   UNL A   1      43.266  22.964  29.271  1.00  0.00    -0.206 F 
ATOM     76  C   UNL A   1      42.674  21.269  27.760  1.00  0.00     0.059 A 
ATOM     77  C   UNL A   1      42.579  21.755  25.384  1.00  0.00     0.059 A 
ATOM     78  F   UNL A   1      43.119  23.902  24.613  1.00  0.00    -0.206 F 
ATOM     79  C   UNL A   1      42.448  20.861  26.444  1.00  0.00     0.060 A 
BRANCH  79  80
ATOM     80  S   UNL A   1      41.958  19.150  26.138  1.00  0.00     0.124 S 
ATOM     81  O   UNL A   1      42.779  18.814  24.982  1.00  0.00    -0.237 OA
ATOM     82  O   UNL A   1      42.322  18.499  27.392  1.00  0.00    -0.237 OA
ATOM     83  O   UNL A   1      40.524  19.253  25.888  1.00  0.00    -0.744 OA
ENDBRANCH  79  80
ENDBRANCH  47  72
BRANCH  59  84
ATOM     84  C   UNL A   1      49.385  26.722  26.292  1.00  0.00     0.058 A 
ATOM     85  C   UNL A   1      49.876  26.881  24.987  1.00  0.00     0.135 A 
ATOM     86  C   UNL A   1      50.240  26.153  27.250  1.00  0.00     0.135 A 
ATOM     87  F   UNL A   1      49.099  27.413  24.031  1.00  0.00    -0.206 F 
ATOM     88  C   UNL A   1      51.160  26.472  24.642  1.00  0.00     0.059 A 
ATOM     89  C   UNL A   1      51.539  25.767  26.934  1.00  0.00     0.059 A 
ATOM     90  F   UNL A   1      49.825  25.989  28.517  1.00  0.00    -0.206 F 
ATOM     91  C   UNL A   1      51.986  25.922  25.624  1.00  0.00     0.060 A 
BRANCH  91  92
ATOM     92  S   UNL A   1      53.665  25.439  25.170  1.00  0.00     0.124 S 
ATOM     93  O   UNL A   1      54.458  26.178  26.147  1.00  0.00    -0.237 OA
ATOM     94  O   UNL A   1      53.631  23.991  25.348  1.00  0.00    -0.237 OA
ATOM     95  O   UNL A   1      53.789  25.894  23.789  1.00  0.00    -0.744 OA
ENDBRANCH  91  92
ENDBRANCH  59  84
ENDBRANCH  33  34
ENDBRANCH  25  28
ENDBRANCH  23  24
ENDBRANCH  22  23
ENDBRANCH   1  22
TORSDOF 18
ENDMDL
MODEL 2
REMARK VINA RESULT:     -10.8      1.072      1.931
REMARK SMILES C[C@H]1CN([C@@H](C(=O)NCCCCCCNC(=O)c2ccc(-c3c4nc(c(-c5c(F)cc(S(=O)(=O)[O-])cc5F)c5ccc([nH]5)c(-c5c(F)cc(S(=O)(=O)[O-])cc5F)c5nc(c(-c6c(F)cc(S(=O)(=O)[O-])cc6F)c6ccc3[nH]6)C=C5)C=C4)cc2)C(C)(C)C)S(=O)(=O)C1
REMARK SMILES IDX 12 1 11 2 10 3 9 4 8 5 6 6 7 7 5 9 4 10 1 11 2 12 3 13 91 14
REMARK SMILES IDX 88 15 89 16 90 17 84 18 85 19 86 20 87 21 13 22 14 23 15 24
REMARK SMILES IDX 16 25 17 27 18 28 19 29 83 30 20 31 82 32 21 33 22 34 23 35
REMARK SMILES IDX 76 36 24 37 81 38 75 39 77 40 25 41 80 42 74 43 73 44 26 46
REMARK SMILES IDX 60 47 39 48 59 49 40 50 43 51 58 52 78 53 41 54 42 55 57 57
REMARK SMILES IDX 79 58 44 59 27 60 28 61 37 62 29 63 30 64 36 65 38 66 31 67
REMARK SMILES IDX 32 68 33 69 34 70 35 71 61 72 62 73 71 74 63 75 64 76 70 77
REMARK SMILES IDX 72 78 65 79 66 80 67 81 68 82 69 83 45 84 46 85 55 86 47 87
REMARK SMILES IDX 48 88 54 89 56 90 49 91 50 92 51 93 52 94 53 95
REMARK H PARENT 8 8 15 26 77 45 43 56
REMARK Flexibility Score: inf
ROOT
ATOM      1  C   UNL A   1      33.572  29.079  26.794  1.00  0.00     0.002 C 
ENDROOT
BRANCH   1   2
ATOM      2  C   UNL A   1      33.848  28.712  25.338  1.00  0.00     0.002 C 
BRANCH   2   3
ATOM      3  C   UNL A   1      33.234  27.377  24.908  1.00  0.00     0.021 C 
BRANCH   3   4
ATOM      4  C   UNL A   1      33.717  26.152  25.692  1.00  0.00     0.116 C 
BRANCH   4   5
ATOM      5  N   UNL A   1      32.643  25.523  26.448  1.00  0.00    -0.355 N 
ATOM      6  C   UNL A   1      31.943  24.353  26.319  1.00  0.00     0.238 C 
ATOM      7  O   UNL A   1      31.109  24.149  27.204  1.00  0.00    -0.273 OA
ATOM      8  H   UNL A   1      32.357  26.057  27.223  1.00  0.00     0.163 HD
BRANCH   6   9
ATOM      9  C   UNL A   1      32.210  23.353  25.168  1.00  0.00     0.167 C 
BRANCH   9  10
ATOM     10  N   UNL A   1      33.608  22.807  25.122  1.00  0.00    -0.189 NA
ATOM     11  C   UNL A   1      33.502  19.650  25.138  1.00  0.00     0.010 C 
ATOM     12  C   UNL A   1      34.539  20.627  24.565  1.00  0.00     0.017 C 
ATOM     13  C   UNL A   1      33.984  21.943  23.983  1.00  0.00     0.107 C 
ATOM     14  C   UNL A   1      35.464  21.111  25.674  1.00  0.00     0.159 C 
ATOM     15  S   UNL A   1      34.534  22.401  26.485  1.00  0.00     0.215 S 
ATOM     16  O   UNL A   1      35.437  23.490  26.771  1.00  0.00    -0.212 OA
ATOM     17  O   UNL A   1      33.697  21.787  27.489  1.00  0.00    -0.212 OA
ENDBRANCH   9  10
BRANCH   9  18
ATOM     18  C   UNL A   1      31.664  23.857  23.767  1.00  0.00    -0.013 C 
ATOM     19  C   UNL A   1      31.033  22.672  22.999  1.00  0.00     0.013 C 
ATOM     20  C   UNL A   1      30.532  24.894  23.988  1.00  0.00     0.013 C 
ATOM     21  C   UNL A   1      32.693  24.534  22.838  1.00  0.00     0.013 C 
ENDBRANCH   9  18
ENDBRANCH   6   9
ENDBRANCH   4   5
ENDBRANCH   3   4
ENDBRANCH   2   3
ENDBRANCH   1   2
BRANCH   1  22
ATOM     22  C   UNL A   1      34.444  30.209  27.350  1.00  0.00     0.021 C 
BRANCH  22  23
ATOM     23  C   UNL A   1      35.515  29.760  28.341  1.00  0.00     0.116 C 
BRANCH  23  24
ATOM     24  N   UNL A   1      35.438  30.515  29.581  1.00  0.00    -0.352 N 
ATOM     25  C   UNL A   1      36.416  30.678  30.532  1.00  0.00     0.251 C 
ATOM     26  H   UNL A   1      34.580  30.963  29.763  1.00  0.00     0.163 HD
ATOM     27  O   UNL A   1      36.138  31.078  31.656  1.00  0.00    -0.269 OA
BRANCH  25  28
ATOM     28  C   UNL A   1      37.813  30.355  30.173  1.00  0.00     0.039 A 
ATOM     29  C   UNL A   1      38.681  29.864  31.148  1.00  0.00     0.014 A 
ATOM     30  C   UNL A   1      38.244  30.514  28.852  1.00  0.00     0.014 A 
ATOM     31  C   UNL A   1      39.975  29.483  30.784  1.00  0.00     0.010 A 
ATOM     32  C   UNL A   1      39.505  30.063  28.479  1.00  0.00     0.010 A 
ATOM     33  C   UNL A   1      40.388  29.551  29.442  1.00  0.00    -0.014 A 
BRANCH  33  34
ATOM     34  C   UNL A   1      41.746  29.114  29.026  1.00  0.00     0.031 A 
ATOM     35  C   UNL A   1      42.870  30.116  28.971  1.00  0.00     0.074 A 
ATOM     36  C   UNL A   1      41.954  27.839  28.641  1.00  0.00     0.049 A 
ATOM     37  N   UNL A   1      44.099  29.955  28.555  1.00  0.00    -0.248 NA
ATOM     38  C   UNL A   1      42.563  31.487  29.415  1.00  0.00     0.031 C 
ATOM     39  C   UNL A   1      40.935  26.787  28.608  1.00  0.00     0.029 A 
ATOM     40  N   UNL A   1      43.087  27.211  28.186  1.00  0.00    -0.354 N 
ATOM     41  C   UNL A   1      44.706  31.200  28.673  1.00  0.00     0.074 A 
ATOM     42  C   UNL A   1      43.696  32.120  29.147  1.00  0.00     0.031 C 
ATOM     43  C   UNL A   1      41.493  25.644  28.178  1.00  0.00     0.029 A 
ATOM     44  C   UNL A   1      42.897  25.888  27.860  1.00  0.00     0.049 A 
ATOM     45  H   UNL A   1      43.957  27.666  28.103  1.00  0.00     0.167 HD
ATOM     46  C   UNL A   1      45.993  31.541  28.430  1.00  0.00     0.037 A 
ATOM     47  C   UNL A   1      43.752  24.980  27.348  1.00  0.00     0.037 A 
ATOM     48  C   UNL A   1      47.000  30.611  27.991  1.00  0.00     0.049 A 
ATOM     49  C   UNL A   1      45.177  25.389  27.079  1.00  0.00     0.074 A 
ATOM     50  C   UNL A   1      48.348  30.844  27.778  1.00  0.00     0.029 A 
ATOM     51  N   UNL A   1      46.773  29.276  27.695  1.00  0.00    -0.354 N 
ATOM     52  N   UNL A   1      45.749  26.555  27.262  1.00  0.00    -0.248 NA
ATOM     53  C   UNL A   1      46.076  24.359  26.540  1.00  0.00     0.031 C 
ATOM     54  C   UNL A   1      48.924  29.664  27.300  1.00  0.00     0.029 A 
ATOM     55  C   UNL A   1      47.950  28.678  27.277  1.00  0.00     0.049 A 
ATOM     56  H   UNL A   1      45.904  28.819  27.772  1.00  0.00     0.167 HD
ATOM     57  C   UNL A   1      47.081  26.387  26.898  1.00  0.00     0.074 A 
ATOM     58  C   UNL A   1      47.232  25.005  26.494  1.00  0.00     0.031 C 
ATOM     59  C   UNL A   1      48.089  27.294  26.900  1.00  0.00     0.037 A 
BRANCH  46  60
ATOM     60  C   UNL A   1      46.400  32.974  28.638  1.00  0.00     0.058 A 
ATOM     61  C   UNL A   1      46.894  33.430  29.871  1.00  0.00     0.135 A 
ATOM     62  C   UNL A   1      46.367  33.885  27.570  1.00  0.00     0.135 A 
ATOM     63  F   UNL A   1      46.930  32.608  30.932  1.00  0.00    -0.206 F 
ATOM     64  C   UNL A   1      47.331  34.740  30.040  1.00  0.00     0.059 A 
ATOM     65  C   UNL A   1      46.827  35.191  27.707  1.00  0.00     0.059 A 
ATOM     66  F   UNL A   1      45.899  33.503  26.371  1.00  0.00    -0.206 F 
ATOM     67  C   UNL A   1      47.300  35.611  28.949  1.00  0.00     0.060 A 
BRANCH  67  68
ATOM     68  S   UNL A   1      47.912  37.294  29.176  1.00  0.00     0.124 S 
ATOM     69  O   UNL A   1      49.351  37.105  29.011  1.00  0.00    -0.237 OA
ATOM     70  O   UNL A   1      47.240  38.015  28.099  1.00  0.00    -0.237 OA
ATOM     71  O   UNL A   1      47.476  37.637  30.525  1.00  0.00    -0.744 OA
ENDBRANCH  67  68
ENDBRANCH  46  60
BRANCH  47  72
ATOM     72  C   UNL A   1      43.293  23.594  27.054  1.00  0.00     0.058 A 
ATOM     73  C   UNL A   1      43.158  22.641  28.077  1.00  0.00     0.135 A 
ATOM     74  C   UNL A   1      43.005  23.185  25.742  1.00  0.00     0.135 A 
ATOM     75  F   UNL A   1      43.424  22.979  29.347  1.00  0.00    -0.206 F 
ATOM     76  C   UNL A   1      42.793  21.326  27.806  1.00  0.00     0.059 A 
ATOM     77  C   UNL A   1      42.606  21.884  25.451  1.00  0.00     0.059 A 
ATOM     78  F   UNL A   1      43.098  24.060  24.728  1.00  0.00    -0.206 F 
ATOM     79  C   UNL A   1      42.522  20.957  26.487  1.00  0.00     0.060 A 
BRANCH  79  80
ATOM     80  S   UNL A   1      42.036  19.251  26.146  1.00  0.00     0.124 S 
ATOM     81  O   UNL A   1      42.432  18.582  27.380  1.00  0.00    -0.237 OA
ATOM     82  O   UNL A   1      40.600  19.381  25.921  1.00  0.00    -0.237 OA
ATOM     83  O   UNL A   1      42.820  18.911  24.963  1.00  0.00    -0.744 OA
ENDBRANCH  79  80
ENDBRANCH  47  72
BRANCH  59  84
ATOM     84  C   UNL A   1      49.461  26.817  26.507  1.00  0.00     0.058 A 
ATOM     85  C   UNL A   1      50.315  26.178  27.418  1.00  0.00     0.135 A 
ATOM     86  C   UNL A   1      49.896  26.942  25.177  1.00  0.00     0.135 A 
ATOM     87  F   UNL A   1      49.951  26.037  28.702  1.00  0.00    -0.206 F 
ATOM     88  C   UNL A   1      51.562  25.699  27.030  1.00  0.00     0.059 A 
ATOM     89  C   UNL A   1      51.125  26.442  24.759  1.00  0.00     0.059 A 
ATOM     90  F   UNL A   1      49.113  27.535  24.261  1.00  0.00    -0.206 F 
ATOM     91  C   UNL A   1      51.956  25.831  25.696  1.00  0.00     0.060 A 
BRANCH  91  92
ATOM     92  S   UNL A   1      53.557  25.164  25.198  1.00  0.00     0.124 S 
ATOM     93  O   UNL A   1      53.321  23.728  25.299  1.00  0.00    -0.237 OA
ATOM     94  O   UNL A   1      53.705  25.687  23.844  1.00  0.00    -0.237 OA
ATOM     95  O   UNL A   1      54.479  25.719  26.184  1.00  0.00    -0.744 OA
ENDBRANCH  91  92
ENDBRANCH  59  84
ENDBRANCH  33  34
ENDBRANCH  25  28
ENDBRANCH  23  24
ENDBRANCH  22  23
ENDBRANCH   1  22
TORSDOF 18
ENDMDL
MODEL 3
REMARK VINA RESULT:     -10.4      1.245      8.488
REMARK SMILES C[C@H]1CN([C@@H](C(=O)NCCCCCCNC(=O)c2ccc(-c3c4nc(c(-c5c(F)cc(S(=O)(=O)[O-])cc5F)c5ccc([nH]5)c(-c5c(F)cc(S(=O)(=O)[O-])cc5F)c5nc(c(-c6c(F)cc(S(=O)(=O)[O-])cc6F)c6ccc3[nH]6)C=C5)C=C4)cc2)C(C)(C)C)S(=O)(=O)C1
REMARK SMILES IDX 12 1 11 2 10 3 9 4 8 5 6 6 7 7 5 9 4 10 1 11 2 12 3 13 91 14
REMARK SMILES IDX 88 15 89 16 90 17 84 18 85 19 86 20 87 21 13 22 14 23 15 24
REMARK SMILES IDX 16 25 17 27 18 28 19 29 83 30 20 31 82 32 21 33 22 34 23 35
REMARK SMILES IDX 76 36 24 37 81 38 75 39 77 40 25 41 80 42 74 43 73 44 26 46
REMARK SMILES IDX 60 47 39 48 59 49 40 50 43 51 58 52 78 53 41 54 42 55 57 57
REMARK SMILES IDX 79 58 44 59 27 60 28 61 37 62 29 63 30 64 36 65 38 66 31 67
REMARK SMILES IDX 32 68 33 69 34 70 35 71 61 72 62 73 71 74 63 75 64 76 70 77
REMARK SMILES IDX 72 78 65 79 66 80 67 81 68 82 69 83 45 84 46 85 55 86 47 87
REMARK SMILES IDX 48 88 54 89 56 90 49 91 50 92 51 93 52 94 53 95
REMARK H PARENT 8 8 15 26 77 45 43 56
REMARK Flexibility Score: inf
ROOT
ATOM      1  C   UNL A   1      34.336  28.954  26.253  1.00  0.00     0.002 C 
ENDROOT
BRANCH   1   2
ATOM      2  C   UNL A   1      32.980  29.431  25.736  1.00  0.00     0.002 C 
BRANCH   2   3
ATOM      3  C   UNL A   1      31.786  28.749  26.410  1.00  0.00     0.021 C 
BRANCH   3   4
ATOM      4  C   UNL A   1      32.088  27.392  27.058  1.00  0.00     0.116 C 
BRANCH   4   5
ATOM      5  N   UNL A   1      31.305  26.314  26.470  1.00  0.00    -0.355 N 
ATOM      6  C   UNL A   1      31.609  25.229  25.692  1.00  0.00     0.238 C 
ATOM      7  O   UNL A   1      30.649  24.505  25.416  1.00  0.00    -0.273 OA
ATOM      8  H   UNL A   1      30.346  26.380  26.677  1.00  0.00     0.163 HD
BRANCH   6   9
ATOM      9  C   UNL A   1      33.053  24.922  25.229  1.00  0.00     0.167 C 
BRANCH   9  10
ATOM     10  N   UNL A   1      33.352  25.306  23.808  1.00  0.00    -0.189 NA
ATOM     11  C   UNL A   1      31.190  27.379  22.804  1.00  0.00     0.010 C 
ATOM     12  C   UNL A   1      32.651  27.156  22.387  1.00  0.00     0.017 C 
ATOM     13  C   UNL A   1      33.620  26.729  23.509  1.00  0.00     0.107 C 
ATOM     14  C   UNL A   1      32.739  25.996  21.405  1.00  0.00     0.159 C 
ATOM     15  S   UNL A   1      32.698  24.542  22.441  1.00  0.00     0.215 S 
ATOM     16  O   UNL A   1      33.665  23.601  21.929  1.00  0.00    -0.212 OA
ATOM     17  O   UNL A   1      31.314  24.201  22.678  1.00  0.00    -0.212 OA
ENDBRANCH   9  10
BRANCH   9  18
ATOM     18  C   UNL A   1      33.537  23.464  25.622  1.00  0.00    -0.013 C 
ATOM     19  C   UNL A   1      35.020  23.283  25.224  1.00  0.00     0.013 C 
ATOM     20  C   UNL A   1      33.466  23.286  27.161  1.00  0.00     0.013 C 
ATOM     21  C   UNL A   1      32.734  22.294  25.015  1.00  0.00     0.013 C 
ENDBRANCH   9  18
ENDBRANCH   6   9
ENDBRANCH   4   5
ENDBRANCH   3   4
ENDBRANCH   2   3
ENDBRANCH   1   2
BRANCH   1  22
ATOM     22  C   UNL A   1      34.558  29.154  27.756  1.00  0.00     0.021 C 
BRANCH  22  23
ATOM     23  C   UNL A   1      35.472  30.322  28.116  1.00  0.00     0.116 C 
BRANCH  23  24
ATOM     24  N   UNL A   1      35.520  30.533  29.554  1.00  0.00    -0.352 N 
ATOM     25  C   UNL A   1      36.492  30.125  30.434  1.00  0.00     0.251 C 
ATOM     26  H   UNL A   1      34.763  31.027  29.945  1.00  0.00     0.163 HD
ATOM     27  O   UNL A   1      36.276  30.099  31.640  1.00  0.00    -0.269 OA
BRANCH  25  28
ATOM     28  C   UNL A   1      37.805  29.711  29.896  1.00  0.00     0.039 A 
ATOM     29  C   UNL A   1      38.113  29.960  28.559  1.00  0.00     0.014 A 
ATOM     30  C   UNL A   1      38.740  29.103  30.740  1.00  0.00     0.014 A 
ATOM     31  C   UNL A   1      39.386  29.641  28.078  1.00  0.00     0.010 A 
ATOM     32  C   UNL A   1      40.028  28.858  30.279  1.00  0.00     0.010 A 
ATOM     33  C   UNL A   1      40.363  29.115  28.940  1.00  0.00    -0.014 A 
BRANCH  33  34
ATOM     34  C   UNL A   1      41.735  28.806  28.460  1.00  0.00     0.031 A 
ATOM     35  C   UNL A   1      42.079  27.402  28.033  1.00  0.00     0.074 A 
ATOM     36  C   UNL A   1      42.683  29.765  28.468  1.00  0.00     0.049 A 
ATOM     37  N   UNL A   1      43.234  26.912  27.666  1.00  0.00    -0.248 NA
ATOM     38  C   UNL A   1      40.986  26.415  28.047  1.00  0.00     0.031 C 
ATOM     39  C   UNL A   1      42.483  31.150  28.901  1.00  0.00     0.029 A 
ATOM     40  N   UNL A   1      44.008  29.720  28.115  1.00  0.00    -0.354 N 
ATOM     41  C   UNL A   1      43.012  25.562  27.421  1.00  0.00     0.074 A 
ATOM     42  C   UNL A   1      41.625  25.297  27.733  1.00  0.00     0.031 C 
ATOM     43  C   UNL A   1      43.637  31.825  28.770  1.00  0.00     0.029 A 
ATOM     44  C   UNL A   1      44.670  30.914  28.288  1.00  0.00     0.049 A 
ATOM     45  H   UNL A   1      44.446  28.908  27.769  1.00  0.00     0.167 HD
ATOM     46  C   UNL A   1      43.879  24.632  26.956  1.00  0.00     0.037 A 
ATOM     47  C   UNL A   1      45.966  31.235  28.094  1.00  0.00     0.037 A 
ATOM     48  C   UNL A   1      45.250  24.912  26.616  1.00  0.00     0.049 A 
ATOM     49  C   UNL A   1      46.911  30.177  27.584  1.00  0.00     0.074 A 
ATOM     50  C   UNL A   1      46.192  24.053  26.077  1.00  0.00     0.029 A 
ATOM     51  N   UNL A   1      45.874  26.139  26.781  1.00  0.00    -0.354 N 
ATOM     52  N   UNL A   1      46.665  28.922  27.293  1.00  0.00    -0.248 NA
ATOM     53  C   UNL A   1      48.308  30.579  27.370  1.00  0.00     0.031 C 
ATOM     54  C   UNL A   1      47.401  24.745  25.969  1.00  0.00     0.029 A 
ATOM     55  C   UNL A   1      47.197  26.052  26.379  1.00  0.00     0.049 A 
ATOM     56  H   UNL A   1      45.443  26.951  27.133  1.00  0.00     0.167 HD
ATOM     57  C   UNL A   1      47.866  28.398  26.825  1.00  0.00     0.074 A 
ATOM     58  C   UNL A   1      48.834  29.474  26.863  1.00  0.00     0.031 C 
ATOM     59  C   UNL A   1      48.142  27.140  26.402  1.00  0.00     0.037 A 
BRANCH  46  60
ATOM     60  C   UNL A   1      43.382  23.224  26.777  1.00  0.00     0.058 A 
ATOM     61  C   UNL A   1      43.208  22.659  25.503  1.00  0.00     0.135 A 
ATOM     62  C   UNL A   1      43.150  22.404  27.893  1.00  0.00     0.135 A 
ATOM     63  F   UNL A   1      43.396  23.402  24.401  1.00  0.00    -0.206 F 
ATOM     64  C   UNL A   1      42.810  21.335  25.343  1.00  0.00     0.059 A 
ATOM     65  C   UNL A   1      42.782  21.069  27.757  1.00  0.00     0.059 A 
ATOM     66  F   UNL A   1      43.297  22.895  29.134  1.00  0.00    -0.206 F 
ATOM     67  C   UNL A   1      42.608  20.546  26.477  1.00  0.00     0.060 A 
BRANCH  67  68
ATOM     68  S   UNL A   1      42.136  18.819  26.249  1.00  0.00     0.124 S 
ATOM     69  O   UNL A   1      43.118  18.377  25.262  1.00  0.00    -0.237 OA
ATOM     70  O   UNL A   1      42.299  18.273  27.593  1.00  0.00    -0.237 OA
ATOM     71  O   UNL A   1      40.761  18.901  25.770  1.00  0.00    -0.744 OA
ENDBRANCH  67  68
ENDBRANCH  46  60
BRANCH  47  72
ATOM     72  C   UNL A   1      46.453  32.613  28.380  1.00  0.00     0.058 A 
ATOM     73  C   UNL A   1      46.910  32.971  29.657  1.00  0.00     0.135 A 
ATOM     74  C   UNL A   1      46.445  33.608  27.389  1.00  0.00     0.135 A 
ATOM     75  F   UNL A   1      46.934  32.059  30.640  1.00  0.00    -0.206 F 
ATOM     76  C   UNL A   1      47.307  34.272  29.953  1.00  0.00     0.059 A 
ATOM     77  C   UNL A   1      46.868  34.907  27.652  1.00  0.00     0.059 A 
ATOM     78  F   UNL A   1      46.037  33.316  26.144  1.00  0.00    -0.206 F 
ATOM     79  C   UNL A   1      47.279  35.234  28.943  1.00  0.00     0.060 A 
BRANCH  79  80
ATOM     80  S   UNL A   1      47.806  36.917  29.332  1.00  0.00     0.124 S 
ATOM     81  O   UNL A   1      48.815  36.677  30.356  1.00  0.00    -0.237 OA
ATOM     82  O   UNL A   1      48.303  37.388  28.043  1.00  0.00    -0.237 OA
ATOM     83  O   UNL A   1      46.577  37.555  29.792  1.00  0.00    -0.744 OA
ENDBRANCH  79  80
ENDBRANCH  47  72
BRANCH  59  84
ATOM     84  C   UNL A   1      49.529  26.863  25.889  1.00  0.00     0.058 A 
ATOM     85  C   UNL A   1      49.895  27.117  24.558  1.00  0.00     0.135 A 
ATOM     86  C   UNL A   1      50.525  26.400  26.766  1.00  0.00     0.135 A 
ATOM     87  F   UNL A   1      48.982  27.555  23.678  1.00  0.00    -0.206 F 
ATOM     88  C   UNL A   1      51.194  26.901  24.110  1.00  0.00     0.059 A 
ATOM     89  C   UNL A   1      51.837  26.208  26.346  1.00  0.00     0.059 A 
ATOM     90  F   UNL A   1      50.232  26.151  28.053  1.00  0.00    -0.206 F 
ATOM     91  C   UNL A   1      52.160  26.451  25.013  1.00  0.00     0.060 A 
BRANCH  91  92
ATOM     92  S   UNL A   1      53.850  26.220  24.426  1.00  0.00     0.124 S 
ATOM     93  O   UNL A   1      54.546  27.314  25.094  1.00  0.00    -0.237 OA
ATOM     94  O   UNL A   1      54.167  24.879  24.909  1.00  0.00    -0.237 OA
ATOM     95  O   UNL A   1      53.729  26.347  22.977  1.00  0.00    -0.744 OA
ENDBRANCH  91  92
ENDBRANCH  59  84
ENDBRANCH  33  34
ENDBRANCH  25  28
ENDBRANCH  23  24
ENDBRANCH  22  23
ENDBRANCH   1  22
TORSDOF 18
ENDMDL
