MODEL 1
REMARK VINA RESULT:     -12.2      0.000      0.000
REMARK SMILES O=C(NCCCCCCNC(=O)c1cn(Cc2ccc(N3CCCC3=O)cc2)c2cc(F)c(F)cc2c1=O)c1ccc(-c2c3nc(c(-c4c(F)cc(S(=O)(=O)[O-])cc4F)c4ccc([nH]4)c(-c4c(F)cc(S(=O)(=O)[O-])cc4F)c4nc(c(-c5c(F)cc(S(=O)(=O)[O-])cc5F)c5ccc2[nH]5)C=C4)C=C3)cc1
REMARK SMILES IDX 6 1 5 2 4 3 3 4 1 5 2 6 39 8 40 9 104 10 41 11 103 12 42 13
REMARK SMILES IDX 43 14 44 15 97 16 45 17 102 18 96 19 98 20 46 21 101 22
REMARK SMILES IDX 95 23 94 24 47 26 81 27 60 28 80 29 61 30 64 31 79 32 99 33
REMARK SMILES IDX 62 34 63 35 78 37 100 38 65 39 48 40 49 41 58 42 50 43 51 44
REMARK SMILES IDX 57 45 59 46 52 47 53 48 54 49 55 50 56 51 82 52 83 53 92 54
REMARK SMILES IDX 84 55 85 56 91 57 93 58 86 59 87 60 88 61 89 62 90 63 66 64
REMARK SMILES IDX 67 65 76 66 68 67 69 68 75 69 77 70 70 71 71 72 72 73 73 74
REMARK SMILES IDX 74 75 7 76 8 77 9 78 10 79 11 80 12 82 13 83 14 84 37 85
REMARK SMILES IDX 15 86 36 87 38 88 29 89 35 90 30 91 33 92 31 93 34 94 32 95
REMARK SMILES IDX 16 96 17 97 18 98 28 99 19 100 27 101 20 102 21 103 22 104
REMARK SMILES IDX 25 105 23 106 24 107 26 108
REMARK H PARENT 3 7 98 25 64 36 10 81
REMARK Flexibility Score: inf
ROOT
ATOM      1  C   UNL A   1      34.613  32.799  29.098  1.00  0.00     0.002 C 
ENDROOT
BRANCH   1   2
ATOM      2  C   UNL A   1      35.912  33.548  28.797  1.00  0.00     0.021 C 
BRANCH   2   3
ATOM      3  C   UNL A   1      37.028  33.326  29.808  1.00  0.00     0.116 C 
BRANCH   3   4
ATOM      4  N   UNL A   1      36.599  32.502  30.922  1.00  0.00    -0.352 N 
ATOM      5  O   UNL A   1      36.353  30.633  32.139  1.00  0.00    -0.269 OA
ATOM      6  C   UNL A   1      36.997  31.242  31.287  1.00  0.00     0.251 C 
ATOM      7  H   UNL A   1      35.918  32.910  31.505  1.00  0.00     0.163 HD
BRANCH   6   8
ATOM      8  C   UNL A   1      38.185  30.612  30.668  1.00  0.00     0.039 A 
ATOM      9  C   UNL A   1      39.228  30.189  31.496  1.00  0.00     0.014 A 
ATOM     10  C   UNL A   1      38.314  30.501  29.280  1.00  0.00     0.014 A 
ATOM     11  C   UNL A   1      40.395  29.665  30.934  1.00  0.00     0.010 A 
ATOM     12  C   UNL A   1      39.432  29.882  28.726  1.00  0.00     0.010 A 
ATOM     13  C   UNL A   1      40.508  29.513  29.543  1.00  0.00    -0.014 A 
BRANCH  13  14
ATOM     14  C   UNL A   1      41.794  29.097  28.925  1.00  0.00     0.031 A 
ATOM     15  C   UNL A   1      42.924  30.092  28.826  1.00  0.00     0.074 A 
ATOM     16  C   UNL A   1      41.957  27.841  28.466  1.00  0.00     0.049 A 
ATOM     17  N   UNL A   1      44.124  29.933  28.331  1.00  0.00    -0.248 NA
ATOM     18  C   UNL A   1      42.660  31.454  29.321  1.00  0.00     0.031 C 
ATOM     19  C   UNL A   1      40.932  26.797  28.481  1.00  0.00     0.029 A 
ATOM     20  N   UNL A   1      43.051  27.226  27.909  1.00  0.00    -0.354 N 
ATOM     21  C   UNL A   1      44.748  31.171  28.451  1.00  0.00     0.074 A 
ATOM     22  C   UNL A   1      43.769  32.089  28.983  1.00  0.00     0.031 C 
ATOM     23  C   UNL A   1      41.459  25.659  28.003  1.00  0.00     0.029 A 
ATOM     24  C   UNL A   1      42.847  25.901  27.612  1.00  0.00     0.049 A 
ATOM     25  H   UNL A   1      43.901  27.693  27.738  1.00  0.00     0.167 HD
ATOM     26  C   UNL A   1      46.033  31.505  28.185  1.00  0.00     0.037 A 
ATOM     27  C   UNL A   1      43.685  24.982  27.091  1.00  0.00     0.037 A 
ATOM     28  C   UNL A   1      47.014  30.577  27.694  1.00  0.00     0.049 A 
ATOM     29  C   UNL A   1      45.100  25.379  26.768  1.00  0.00     0.074 A 
ATOM     30  C   UNL A   1      48.356  30.796  27.448  1.00  0.00     0.029 A 
ATOM     31  N   UNL A   1      46.756  29.251  27.374  1.00  0.00    -0.354 N 
ATOM     32  N   UNL A   1      45.692  26.536  26.949  1.00  0.00    -0.248 NA
ATOM     33  C   UNL A   1      45.961  24.352  26.165  1.00  0.00     0.031 C 
ATOM     34  C   UNL A   1      48.898  29.619  26.925  1.00  0.00     0.029 A 
ATOM     35  C   UNL A   1      47.906  28.651  26.893  1.00  0.00     0.049 A 
ATOM     36  H   UNL A   1      45.884  28.805  27.473  1.00  0.00     0.167 HD
ATOM     37  C   UNL A   1      46.995  26.375  26.491  1.00  0.00     0.074 A 
ATOM     38  C   UNL A   1      47.112  25.003  26.043  1.00  0.00     0.031 C 
ATOM     39  C   UNL A   1      48.001  27.284  26.441  1.00  0.00     0.037 A 
BRANCH  26  40
ATOM     40  C   UNL A   1      46.444  32.931  28.431  1.00  0.00     0.058 A 
ATOM     41  C   UNL A   1      46.407  33.897  27.411  1.00  0.00     0.135 A 
ATOM     42  C   UNL A   1      46.875  33.342  29.703  1.00  0.00     0.135 A 
ATOM     43  F   UNL A   1      46.018  33.557  26.172  1.00  0.00    -0.206 F 
ATOM     44  C   UNL A   1      46.825  35.204  27.630  1.00  0.00     0.059 A 
ATOM     45  C   UNL A   1      47.266  34.654  29.953  1.00  0.00     0.059 A 
ATOM     46  F   UNL A   1      46.931  32.462  30.715  1.00  0.00    -0.206 F 
ATOM     47  C   UNL A   1      47.257  35.573  28.905  1.00  0.00     0.060 A 
BRANCH  47  48
ATOM     48  S   UNL A   1      47.818  37.269  29.164  1.00  0.00     0.124 S 
ATOM     49  O   UNL A   1      46.557  38.003  29.104  1.00  0.00    -0.237 OA
ATOM     50  O   UNL A   1      48.444  37.190  30.480  1.00  0.00    -0.237 OA
ATOM     51  O   UNL A   1      48.731  37.500  28.049  1.00  0.00    -0.744 OA
ENDBRANCH  47  48
ENDBRANCH  26  40
BRANCH  27  52
ATOM     52  C   UNL A   1      43.205  23.590  26.884  1.00  0.00     0.058 A 
ATOM     53  C   UNL A   1      42.950  23.101  25.595  1.00  0.00     0.135 A 
ATOM     54  C   UNL A   1      43.056  22.701  27.962  1.00  0.00     0.135 A 
ATOM     55  F   UNL A   1      43.066  23.914  24.535  1.00  0.00    -0.206 F 
ATOM     56  C   UNL A   1      42.576  21.778  25.378  1.00  0.00     0.059 A 
ATOM     57  C   UNL A   1      42.706  21.368  27.768  1.00  0.00     0.059 A 
ATOM     58  F   UNL A   1      43.299  23.116  29.215  1.00  0.00    -0.206 F 
ATOM     59  C   UNL A   1      42.471  20.915  26.470  1.00  0.00     0.060 A 
BRANCH  59  60
ATOM     60  S   UNL A   1      42.078  19.179  26.163  1.00  0.00     0.124 S 
ATOM     61  O   UNL A   1      40.639  19.235  25.943  1.00  0.00    -0.237 OA
ATOM     62  O   UNL A   1      42.895  18.888  24.989  1.00  0.00    -0.237 OA
ATOM     63  O   UNL A   1      42.503  18.515  27.392  1.00  0.00    -0.744 OA
ENDBRANCH  59  60
ENDBRANCH  27  52
BRANCH  39  64
ATOM     64  C   UNL A   1      49.318  26.846  25.862  1.00  0.00     0.058 A 
ATOM     65  C   UNL A   1      49.641  27.104  24.521  1.00  0.00     0.135 A 
ATOM     66  C   UNL A   1      50.310  26.282  26.681  1.00  0.00     0.135 A 
ATOM     67  F   UNL A   1      48.725  27.636  23.695  1.00  0.00    -0.206 F 
ATOM     68  C   UNL A   1      50.903  26.823  24.013  1.00  0.00     0.059 A 
ATOM     69  C   UNL A   1      51.588  26.017  26.200  1.00  0.00     0.059 A 
ATOM     70  F   UNL A   1      50.055  26.025  27.973  1.00  0.00    -0.206 F 
ATOM     71  C   UNL A   1      51.875  26.293  24.864  1.00  0.00     0.060 A 
BRANCH  71  72
ATOM     72  S   UNL A   1      53.532  26.012  24.204  1.00  0.00     0.124 S 
ATOM     73  O   UNL A   1      53.280  25.994  22.768  1.00  0.00    -0.237 OA
ATOM     74  O   UNL A   1      54.263  27.172  24.704  1.00  0.00    -0.237 OA
ATOM     75  O   UNL A   1      53.921  24.733  24.789  1.00  0.00    -0.744 OA
ENDBRANCH  71  72
ENDBRANCH  39  64
ENDBRANCH  13  14
ENDBRANCH   6   8
ENDBRANCH   3   4
ENDBRANCH   2   3
ENDBRANCH   1   2
BRANCH   1  76
ATOM     76  C   UNL A   1      34.049  31.965  27.944  1.00  0.00     0.002 C 
BRANCH  76  77
ATOM     77  C   UNL A   1      34.966  30.858  27.419  1.00  0.00     0.021 C 
BRANCH  77  78
ATOM     78  C   UNL A   1      34.265  29.744  26.649  1.00  0.00     0.116 C 
BRANCH  78  79
ATOM     79  N   UNL A   1      33.470  28.875  27.502  1.00  0.00    -0.352 N 
ATOM     80  C   UNL A   1      32.214  28.365  27.309  1.00  0.00     0.256 C 
ATOM     81  H   UNL A   1      33.902  28.613  28.347  1.00  0.00     0.163 HD
ATOM     82  O   UNL A   1      31.716  27.638  28.163  1.00  0.00    -0.269 OA
BRANCH  80  83
ATOM     83  C   UNL A   1      31.494  28.709  26.065  1.00  0.00     0.104 A 
ATOM     84  C   UNL A   1      31.227  27.766  25.148  1.00  0.00     0.104 A 
ATOM     85  C   UNL A   1      31.022  30.081  25.791  1.00  0.00     0.202 A 
ATOM     86  N   UNL A   1      30.689  27.971  23.883  1.00  0.00    -0.342 N 
ATOM     87  C   UNL A   1      30.344  30.317  24.493  1.00  0.00     0.050 A 
ATOM     88  O   UNL A   1      31.223  31.020  26.553  1.00  0.00    -0.288 OA
ATOM     89  C   UNL A   1      30.325  29.289  23.522  1.00  0.00     0.055 A 
ATOM     90  C   UNL A   1      29.786  31.582  24.249  1.00  0.00     0.056 A 
ATOM     91  C   UNL A   1      29.922  29.662  22.234  1.00  0.00     0.069 A 
ATOM     92  C   UNL A   1      29.245  31.848  23.004  1.00  0.00     0.159 A 
ATOM     93  C   UNL A   1      29.346  30.908  21.992  1.00  0.00     0.160 A 
ATOM     94  F   UNL A   1      28.650  33.026  22.775  1.00  0.00    -0.204 F 
ATOM     95  F   UNL A   1      28.868  31.176  20.769  1.00  0.00    -0.204 F 
BRANCH  86  96
ATOM     96  C   UNL A   1      30.416  26.828  22.971  1.00  0.00     0.157 C 
BRANCH  96  97
ATOM     97  C   UNL A   1      31.301  25.625  23.247  1.00  0.00    -0.028 A 
ATOM     98  C   UNL A   1      30.813  24.507  23.932  1.00  0.00     0.008 A 
ATOM     99  C   UNL A   1      32.639  25.593  22.836  1.00  0.00     0.008 A 
ATOM    100  C   UNL A   1      31.638  23.435  24.271  1.00  0.00     0.027 A 
ATOM    101  C   UNL A   1      33.468  24.510  23.173  1.00  0.00     0.027 A 
ATOM    102  C   UNL A   1      32.987  23.430  23.924  1.00  0.00     0.044 A 
BRANCH 102 103
ATOM    103  N   UNL A   1      33.829  22.377  24.355  1.00  0.00    -0.312 N 
ATOM    104  C   UNL A   1      33.496  20.980  24.197  1.00  0.00     0.126 C 
ATOM    105  C   UNL A   1      35.085  22.532  24.950  1.00  0.00     0.227 C 
ATOM    106  C   UNL A   1      34.384  20.270  25.194  1.00  0.00     0.032 C 
ATOM    107  C   UNL A   1      35.614  21.155  25.273  1.00  0.00     0.102 C 
ATOM    108  O   UNL A   1      35.700  23.560  25.200  1.00  0.00    -0.275 OA
ENDBRANCH 102 103
ENDBRANCH  96  97
ENDBRANCH  86  96
ENDBRANCH  80  83
ENDBRANCH  78  79
ENDBRANCH  77  78
ENDBRANCH  76  77
ENDBRANCH   1  76
TORSDOF 19
ENDMDL
MODEL 2
REMARK VINA RESULT:     -11.8      0.842      7.852
REMARK SMILES O=C(NCCCCCCNC(=O)c1cn(Cc2ccc(N3CCCC3=O)cc2)c2cc(F)c(F)cc2c1=O)c1ccc(-c2c3nc(c(-c4c(F)cc(S(=O)(=O)[O-])cc4F)c4ccc([nH]4)c(-c4c(F)cc(S(=O)(=O)[O-])cc4F)c4nc(c(-c5c(F)cc(S(=O)(=O)[O-])cc5F)c5ccc2[nH]5)C=C4)C=C3)cc1
REMARK SMILES IDX 6 1 5 2 4 3 3 4 1 5 2 6 39 8 40 9 104 10 41 11 103 12 42 13
REMARK SMILES IDX 43 14 44 15 97 16 45 17 102 18 96 19 98 20 46 21 101 22
REMARK SMILES IDX 95 23 94 24 47 26 81 27 60 28 80 29 61 30 64 31 79 32 99 33
REMARK SMILES IDX 62 34 63 35 78 37 100 38 65 39 48 40 49 41 58 42 50 43 51 44
REMARK SMILES IDX 57 45 59 46 52 47 53 48 54 49 55 50 56 51 82 52 83 53 92 54
REMARK SMILES IDX 84 55 85 56 91 57 93 58 86 59 87 60 88 61 89 62 90 63 66 64
REMARK SMILES IDX 67 65 76 66 68 67 69 68 75 69 77 70 70 71 71 72 72 73 73 74
REMARK SMILES IDX 74 75 7 76 8 77 9 78 10 79 11 80 12 82 13 83 14 84 37 85
REMARK SMILES IDX 15 86 36 87 38 88 29 89 35 90 30 91 33 92 31 93 34 94 32 95
REMARK SMILES IDX 16 96 17 97 18 98 28 99 19 100 27 101 20 102 21 103 22 104
REMARK SMILES IDX 25 105 23 106 24 107 26 108
REMARK H PARENT 3 7 98 25 64 36 10 81
REMARK Flexibility Score: inf
ROOT
ATOM      1  C   UNL A   1      34.964  32.014  29.157  1.00  0.00     0.002 C 
ENDROOT
BRANCH   1   2
ATOM      2  C   UNL A   1      35.921  33.107  29.637  1.00  0.00     0.021 C 
BRANCH   2   3
ATOM      3  C   UNL A   1      36.648  32.796  30.936  1.00  0.00     0.116 C 
BRANCH   3   4
ATOM      4  N   UNL A   1      36.253  31.515  31.490  1.00  0.00    -0.352 N 
ATOM      5  O   UNL A   1      36.260  29.286  31.759  1.00  0.00    -0.269 OA
ATOM      6  C   UNL A   1      36.870  30.292  31.403  1.00  0.00     0.251 C 
ATOM      7  H   UNL A   1      35.415  31.523  32.006  1.00  0.00     0.163 HD
BRANCH   6   8
ATOM      8  C   UNL A   1      38.253  30.175  30.887  1.00  0.00     0.039 A 
ATOM      9  C   UNL A   1      38.452  30.147  29.504  1.00  0.00     0.014 A 
ATOM     10  C   UNL A   1      39.344  30.018  31.747  1.00  0.00     0.014 A 
ATOM     11  C   UNL A   1      39.737  29.957  28.990  1.00  0.00     0.010 A 
ATOM     12  C   UNL A   1      40.636  29.935  31.235  1.00  0.00     0.010 A 
ATOM     13  C   UNL A   1      40.839  29.843  29.852  1.00  0.00    -0.014 A 
BRANCH  13  14
ATOM     14  C   UNL A   1      42.184  29.494  29.326  1.00  0.00     0.031 A 
ATOM     15  C   UNL A   1      42.433  28.105  28.792  1.00  0.00     0.074 A 
ATOM     16  C   UNL A   1      43.172  30.409  29.314  1.00  0.00     0.049 A 
ATOM     17  N   UNL A   1      43.526  27.598  28.283  1.00  0.00    -0.248 NA
ATOM     18  C   UNL A   1      41.313  27.150  28.865  1.00  0.00     0.031 C 
ATOM     19  C   UNL A   1      43.063  31.775  29.826  1.00  0.00     0.029 A 
ATOM     20  N   UNL A   1      44.459  30.331  28.843  1.00  0.00    -0.354 N 
ATOM     21  C   UNL A   1      43.224  26.272  27.987  1.00  0.00     0.074 A 
ATOM     22  C   UNL A   1      41.879  26.030  28.450  1.00  0.00     0.031 C 
ATOM     23  C   UNL A   1      44.218  32.422  29.598  1.00  0.00     0.029 A 
ATOM     24  C   UNL A   1      45.161  31.507  28.958  1.00  0.00     0.049 A 
ATOM     25  H   UNL A   1      44.842  29.510  28.458  1.00  0.00     0.167 HD
ATOM     26  C   UNL A   1      43.981  25.351  27.346  1.00  0.00     0.037 A 
ATOM     27  C   UNL A   1      46.418  31.814  28.583  1.00  0.00     0.037 A 
ATOM     28  C   UNL A   1      45.304  25.610  26.851  1.00  0.00     0.049 A 
ATOM     29  C   UNL A   1      47.260  30.767  27.904  1.00  0.00     0.074 A 
ATOM     30  C   UNL A   1      46.135  24.766  26.137  1.00  0.00     0.029 A 
ATOM     31  N   UNL A   1      45.991  26.804  27.020  1.00  0.00    -0.354 N 
ATOM     32  N   UNL A   1      46.936  29.540  27.573  1.00  0.00    -0.248 NA
ATOM     33  C   UNL A   1      48.637  31.141  27.554  1.00  0.00     0.031 C 
ATOM     34  C   UNL A   1      47.346  25.430  25.923  1.00  0.00     0.029 A 
ATOM     35  C   UNL A   1      47.252  26.705  26.459  1.00  0.00     0.049 A 
ATOM     36  H   UNL A   1      45.635  27.602  27.473  1.00  0.00     0.167 HD
ATOM     37  C   UNL A   1      48.064  28.997  26.968  1.00  0.00     0.074 A 
ATOM     38  C   UNL A   1      49.073  30.037  26.960  1.00  0.00     0.031 C 
ATOM     39  C   UNL A   1      48.249  27.749  26.469  1.00  0.00     0.037 A 
BRANCH  26  40
ATOM     40  C   UNL A   1      43.385  23.984  27.141  1.00  0.00     0.058 A 
ATOM     41  C   UNL A   1      43.349  23.032  28.174  1.00  0.00     0.135 A 
ATOM     42  C   UNL A   1      42.837  23.622  25.900  1.00  0.00     0.135 A 
ATOM     43  F   UNL A   1      43.873  23.318  29.377  1.00  0.00    -0.206 F 
ATOM     44  C   UNL A   1      42.834  21.757  27.971  1.00  0.00     0.059 A 
ATOM     45  C   UNL A   1      42.286  22.362  25.685  1.00  0.00     0.059 A 
ATOM     46  F   UNL A   1      42.844  24.492  24.878  1.00  0.00    -0.206 F 
ATOM     47  C   UNL A   1      42.307  21.430  26.721  1.00  0.00     0.060 A 
BRANCH  47  48
ATOM     48  S   UNL A   1      41.665  19.762  26.470  1.00  0.00     0.124 S 
ATOM     49  O   UNL A   1      42.113  19.093  27.689  1.00  0.00    -0.237 OA
ATOM     50  O   UNL A   1      40.228  19.996  26.366  1.00  0.00    -0.237 OA
ATOM     51  O   UNL A   1      42.319  19.325  25.240  1.00  0.00    -0.744 OA
ENDBRANCH  47  48
ENDBRANCH  26  40
BRANCH  27  52
ATOM     52  C   UNL A   1      46.933  33.191  28.814  1.00  0.00     0.058 A 
ATOM     53  C   UNL A   1      46.788  34.186  27.837  1.00  0.00     0.135 A 
ATOM     54  C   UNL A   1      47.519  33.556  30.037  1.00  0.00     0.135 A 
ATOM     55  F   UNL A   1      46.247  33.885  26.648  1.00  0.00    -0.206 F 
ATOM     56  C   UNL A   1      47.194  35.498  28.067  1.00  0.00     0.059 A 
ATOM     57  C   UNL A   1      47.911  34.866  30.299  1.00  0.00     0.059 A 
ATOM     58  F   UNL A   1      47.670  32.643  31.010  1.00  0.00    -0.206 F 
ATOM     59  C   UNL A   1      47.741  35.831  29.308  1.00  0.00     0.060 A 
BRANCH  59  60
ATOM     60  S   UNL A   1      48.174  37.555  29.624  1.00  0.00     0.124 S 
ATOM     61  O   UNL A   1      48.081  38.135  28.290  1.00  0.00    -0.237 OA
ATOM     62  O   UNL A   1      47.138  37.958  30.570  1.00  0.00    -0.237 OA
ATOM     63  O   UNL A   1      49.521  37.467  30.182  1.00  0.00    -0.744 OA
ENDBRANCH  59  60
ENDBRANCH  27  52
BRANCH  39  64
ATOM     64  C   UNL A   1      49.596  27.413  25.891  1.00  0.00     0.058 A 
ATOM     65  C   UNL A   1      50.650  26.986  26.711  1.00  0.00     0.135 A 
ATOM     66  C   UNL A   1      49.795  27.396  24.501  1.00  0.00     0.135 A 
ATOM     67  F   UNL A   1      50.512  26.989  28.047  1.00  0.00    -0.206 F 
ATOM     68  C   UNL A   1      51.854  26.547  26.174  1.00  0.00     0.059 A 
ATOM     69  C   UNL A   1      50.983  26.937  23.940  1.00  0.00     0.059 A 
ATOM     70  F   UNL A   1      48.814  27.786  23.671  1.00  0.00    -0.206 F 
ATOM     71  C   UNL A   1      52.006  26.513  24.786  1.00  0.00     0.060 A 
BRANCH  71  72
ATOM     72  S   UNL A   1      53.547  25.863  24.108  1.00  0.00     0.124 S 
ATOM     73  O   UNL A   1      53.501  24.472  24.545  1.00  0.00    -0.237 OA
ATOM     74  O   UNL A   1      53.371  26.082  22.676  1.00  0.00    -0.237 OA
ATOM     75  O   UNL A   1      54.574  26.686  24.741  1.00  0.00    -0.744 OA
ENDBRANCH  71  72
ENDBRANCH  39  64
ENDBRANCH  13  14
ENDBRANCH   6   8
ENDBRANCH   3   4
ENDBRANCH   2   3
ENDBRANCH   1   2
BRANCH   1  76
ATOM     76  C   UNL A   1      35.026  31.691  27.662  1.00  0.00     0.002 C 
BRANCH  76  77
ATOM     77  C   UNL A   1      35.478  30.271  27.311  1.00  0.00     0.021 C 
BRANCH  77  78
ATOM     78  C   UNL A   1      34.419  29.397  26.648  1.00  0.00     0.116 C 
BRANCH  78  79
ATOM     79  N   UNL A   1      33.551  28.729  27.604  1.00  0.00    -0.352 N 
ATOM     80  C   UNL A   1      32.249  28.327  27.476  1.00  0.00     0.256 C 
ATOM     81  H   UNL A   1      33.963  28.535  28.476  1.00  0.00     0.163 HD
ATOM     82  O   UNL A   1      31.690  27.769  28.415  1.00  0.00    -0.269 OA
BRANCH  80  83
ATOM     83  C   UNL A   1      31.553  28.578  26.196  1.00  0.00     0.104 A 
ATOM     84  C   UNL A   1      31.306  27.571  25.344  1.00  0.00     0.104 A 
ATOM     85  C   UNL A   1      31.083  29.925  25.814  1.00  0.00     0.202 A 
ATOM     86  N   UNL A   1      30.793  27.683  24.056  1.00  0.00    -0.342 N 
ATOM     87  C   UNL A   1      30.432  30.065  24.490  1.00  0.00     0.050 A 
ATOM     88  O   UNL A   1      31.268  30.917  26.511  1.00  0.00    -0.288 OA
ATOM     89  C   UNL A   1      30.434  28.971  23.595  1.00  0.00     0.055 A 
ATOM     90  C   UNL A   1      29.876  31.307  24.145  1.00  0.00     0.056 A 
ATOM     91  C   UNL A   1      30.057  29.249  22.276  1.00  0.00     0.069 A 
ATOM     92  C   UNL A   1      29.359  31.482  22.873  1.00  0.00     0.159 A 
ATOM     93  C   UNL A   1      29.483  30.472  21.934  1.00  0.00     0.160 A 
ATOM     94  F   UNL A   1      28.768  32.639  22.548  1.00  0.00    -0.204 F 
ATOM     95  F   UNL A   1      29.029  30.650  20.685  1.00  0.00    -0.204 F 
BRANCH  86  96
ATOM     96  C   UNL A   1      30.541  26.477  23.224  1.00  0.00     0.157 C 
BRANCH  96  97
ATOM     97  C   UNL A   1      31.398  25.288  23.626  1.00  0.00    -0.028 A 
ATOM     98  C   UNL A   1      32.325  24.730  22.740  1.00  0.00     0.008 A 
ATOM     99  C   UNL A   1      31.286  24.703  24.893  1.00  0.00     0.008 A 
ATOM    100  C   UNL A   1      33.052  23.585  23.063  1.00  0.00     0.027 A 
ATOM    101  C   UNL A   1      32.023  23.552  25.220  1.00  0.00     0.027 A 
ATOM    102  C   UNL A   1      32.893  22.958  24.297  1.00  0.00     0.044 A 
BRANCH 102 103
ATOM    103  N   UNL A   1      33.571  21.746  24.572  1.00  0.00    -0.312 N 
ATOM    104  C   UNL A   1      34.764  21.671  25.382  1.00  0.00     0.126 C 
ATOM    105  C   UNL A   1      33.175  20.476  24.139  1.00  0.00     0.227 C 
ATOM    106  C   UNL A   1      35.387  20.345  25.006  1.00  0.00     0.032 C 
ATOM    107  C   UNL A   1      34.197  19.482  24.634  1.00  0.00     0.102 C 
ATOM    108  O   UNL A   1      32.198  20.157  23.475  1.00  0.00    -0.275 OA
ENDBRANCH 102 103
ENDBRANCH  96  97
ENDBRANCH  86  96
ENDBRANCH  80  83
ENDBRANCH  78  79
ENDBRANCH  77  78
ENDBRANCH  76  77
ENDBRANCH   1  76
TORSDOF 19
ENDMDL
MODEL 3
REMARK VINA RESULT:     -11.7      6.110      8.890
REMARK SMILES O=C(NCCCCCCNC(=O)c1cn(Cc2ccc(N3CCCC3=O)cc2)c2cc(F)c(F)cc2c1=O)c1ccc(-c2c3nc(c(-c4c(F)cc(S(=O)(=O)[O-])cc4F)c4ccc([nH]4)c(-c4c(F)cc(S(=O)(=O)[O-])cc4F)c4nc(c(-c5c(F)cc(S(=O)(=O)[O-])cc5F)c5ccc2[nH]5)C=C4)C=C3)cc1
REMARK SMILES IDX 6 1 5 2 4 3 3 4 1 5 2 6 39 8 40 9 104 10 41 11 103 12 42 13
REMARK SMILES IDX 43 14 44 15 97 16 45 17 102 18 96 19 98 20 46 21 101 22
REMARK SMILES IDX 95 23 94 24 47 26 81 27 60 28 80 29 61 30 64 31 79 32 99 33
REMARK SMILES IDX 62 34 63 35 78 37 100 38 65 39 48 40 49 41 58 42 50 43 51 44
REMARK SMILES IDX 57 45 59 46 52 47 53 48 54 49 55 50 56 51 82 52 83 53 92 54
REMARK SMILES IDX 84 55 85 56 91 57 93 58 86 59 87 60 88 61 89 62 90 63 66 64
REMARK SMILES IDX 67 65 76 66 68 67 69 68 75 69 77 70 70 71 71 72 72 73 73 74
REMARK SMILES IDX 74 75 7 76 8 77 9 78 10 79 11 80 12 82 13 83 14 84 37 85
REMARK SMILES IDX 15 86 36 87 38 88 29 89 35 90 30 91 33 92 31 93 34 94 32 95
REMARK SMILES IDX 16 96 17 97 18 98 28 99 19 100 27 101 20 102 21 103 22 104
REMARK SMILES IDX 25 105 23 106 24 107 26 108
REMARK H PARENT 3 7 98 25 64 36 10 81
REMARK Flexibility Score: inf
ROOT
ATOM      1  C   UNL A   1      35.368  31.469  28.582  1.00  0.00     0.002 C 
ENDROOT
BRANCH   1   2
ATOM      2  C   UNL A   1      33.980  32.104  28.667  1.00  0.00     0.021 C 
BRANCH   2   3
ATOM      3  C   UNL A   1      33.906  33.548  28.194  1.00  0.00     0.116 C 
BRANCH   3   4
ATOM      4  N   UNL A   1      33.166  34.388  29.118  1.00  0.00    -0.352 N 
ATOM      5  O   UNL A   1      32.497  35.187  31.105  1.00  0.00    -0.269 OA
ATOM      6  C   UNL A   1      33.366  34.610  30.456  1.00  0.00     0.251 C 
ATOM      7  H   UNL A   1      32.405  34.872  28.724  1.00  0.00     0.163 HD
BRANCH   6   8
ATOM      8  C   UNL A   1      34.611  34.161  31.122  1.00  0.00     0.039 A 
ATOM      9  C   UNL A   1      35.787  34.883  30.901  1.00  0.00     0.014 A 
ATOM     10  C   UNL A   1      34.646  33.000  31.899  1.00  0.00     0.014 A 
ATOM     11  C   UNL A   1      36.991  34.437  31.451  1.00  0.00     0.010 A 
ATOM     12  C   UNL A   1      35.825  32.616  32.533  1.00  0.00     0.010 A 
ATOM     13  C   UNL A   1      37.021  33.295  32.267  1.00  0.00    -0.014 A 
BRANCH  13  14
ATOM     14  C   UNL A   1      38.312  32.728  32.736  1.00  0.00     0.031 A 
ATOM     15  C   UNL A   1      38.769  32.994  34.148  1.00  0.00     0.074 A 
ATOM     16  C   UNL A   1      39.065  31.973  31.913  1.00  0.00     0.049 A 
ATOM     17  N   UNL A   1      39.853  32.590  34.757  1.00  0.00    -0.248 NA
ATOM     18  C   UNL A   1      37.906  33.853  34.979  1.00  0.00     0.031 C 
ATOM     19  C   UNL A   1      38.744  31.667  30.519  1.00  0.00     0.029 A 
ATOM     20  N   UNL A   1      40.249  31.316  32.134  1.00  0.00    -0.354 N 
ATOM     21  C   UNL A   1      39.803  33.150  36.030  1.00  0.00     0.074 A 
ATOM     22  C   UNL A   1      38.630  33.989  36.077  1.00  0.00     0.031 C 
ATOM     23  C   UNL A   1      39.682  30.843  30.024  1.00  0.00     0.029 A 
ATOM     24  C   UNL A   1      40.690  30.593  31.053  1.00  0.00     0.049 A 
ATOM     25  H   UNL A   1      40.737  31.359  32.989  1.00  0.00     0.167 HD
ATOM     26  C   UNL A   1      40.633  32.949  37.080  1.00  0.00     0.037 A 
ATOM     27  C   UNL A   1      41.778  29.811  30.908  1.00  0.00     0.037 A 
ATOM     28  C   UNL A   1      41.776  32.080  37.040  1.00  0.00     0.049 A 
ATOM     29  C   UNL A   1      42.711  29.627  32.075  1.00  0.00     0.074 A 
ATOM     30  C   UNL A   1      42.649  31.760  38.063  1.00  0.00     0.029 A 
ATOM     31  N   UNL A   1      42.207  31.394  35.913  1.00  0.00    -0.354 N 
ATOM     32  N   UNL A   1      42.612  30.111  33.291  1.00  0.00    -0.248 NA
ATOM     33  C   UNL A   1      43.904  28.798  31.854  1.00  0.00     0.031 C 
ATOM     34  C   UNL A   1      43.640  30.924  37.542  1.00  0.00     0.029 A 
ATOM     35  C   UNL A   1      43.357  30.682  36.206  1.00  0.00     0.049 A 
ATOM     36  H   UNL A   1      41.761  31.411  35.035  1.00  0.00     0.167 HD
ATOM     37  C   UNL A   1      43.723  29.639  33.981  1.00  0.00     0.074 A 
ATOM     38  C   UNL A   1      44.471  28.815  33.054  1.00  0.00     0.031 C 
ATOM     39  C   UNL A   1      44.094  29.873  35.265  1.00  0.00     0.037 A 
BRANCH  26  40
ATOM     40  C   UNL A   1      40.322  33.677  38.359  1.00  0.00     0.058 A 
ATOM     41  C   UNL A   1      39.314  33.237  39.233  1.00  0.00     0.135 A 
ATOM     42  C   UNL A   1      41.044  34.826  38.722  1.00  0.00     0.135 A 
ATOM     43  F   UNL A   1      38.581  32.153  38.930  1.00  0.00    -0.206 F 
ATOM     44  C   UNL A   1      39.001  33.933  40.395  1.00  0.00     0.059 A 
ATOM     45  C   UNL A   1      40.770  35.520  39.898  1.00  0.00     0.059 A 
ATOM     46  F   UNL A   1      42.018  35.292  37.926  1.00  0.00    -0.206 F 
ATOM     47  C   UNL A   1      39.733  35.076  40.718  1.00  0.00     0.060 A 
BRANCH  47  48
ATOM     48  S   UNL A   1      39.296  35.980  42.218  1.00  0.00     0.124 S 
ATOM     49  O   UNL A   1      39.399  37.364  41.763  1.00  0.00    -0.237 OA
ATOM     50  O   UNL A   1      37.944  35.500  42.486  1.00  0.00    -0.237 OA
ATOM     51  O   UNL A   1      40.312  35.559  43.178  1.00  0.00    -0.744 OA
ENDBRANCH  47  48
ENDBRANCH  26  40
BRANCH  27  52
ATOM     52  C   UNL A   1      42.013  29.117  29.614  1.00  0.00     0.058 A 
ATOM     53  C   UNL A   1      41.521  27.823  29.391  1.00  0.00     0.135 A 
ATOM     54  C   UNL A   1      42.674  29.757  28.552  1.00  0.00     0.135 A 
ATOM     55  F   UNL A   1      40.894  27.166  30.377  1.00  0.00    -0.206 F 
ATOM     56  C   UNL A   1      41.664  27.191  28.159  1.00  0.00     0.059 A 
ATOM     57  C   UNL A   1      42.809  29.155  27.304  1.00  0.00     0.059 A 
ATOM     58  F   UNL A   1      43.154  31.001  28.710  1.00  0.00    -0.206 F 
ATOM     59  C   UNL A   1      42.297  27.871  27.117  1.00  0.00     0.060 A 
BRANCH  59  60
ATOM     60  S   UNL A   1      42.390  27.075  25.499  1.00  0.00     0.124 S 
ATOM     61  O   UNL A   1      41.131  26.343  25.455  1.00  0.00    -0.237 OA
ATOM     62  O   UNL A   1      42.495  28.223  24.603  1.00  0.00    -0.237 OA
ATOM     63  O   UNL A   1      43.594  26.254  25.596  1.00  0.00    -0.744 OA
ENDBRANCH  59  60
ENDBRANCH  27  52
BRANCH  39  64
ATOM     64  C   UNL A   1      45.376  29.256  35.753  1.00  0.00     0.058 A 
ATOM     65  C   UNL A   1      46.582  29.971  35.721  1.00  0.00     0.135 A 
ATOM     66  C   UNL A   1      45.375  27.995  36.370  1.00  0.00     0.135 A 
ATOM     67  F   UNL A   1      46.637  31.179  35.136  1.00  0.00    -0.206 F 
ATOM     68  C   UNL A   1      47.743  29.461  36.289  1.00  0.00     0.059 A 
ATOM     69  C   UNL A   1      46.518  27.475  36.969  1.00  0.00     0.059 A 
ATOM     70  F   UNL A   1      44.244  27.274  36.436  1.00  0.00    -0.206 F 
ATOM     71  C   UNL A   1      47.698  28.217  36.924  1.00  0.00     0.060 A 
BRANCH  71  72
ATOM     72  S   UNL A   1      49.195  27.610  37.727  1.00  0.00     0.124 S 
ATOM     73  O   UNL A   1      49.034  26.165  37.602  1.00  0.00    -0.237 OA
ATOM     74  O   UNL A   1      50.247  28.203  36.907  1.00  0.00    -0.237 OA
ATOM     75  O   UNL A   1      49.094  28.137  39.085  1.00  0.00    -0.744 OA
ENDBRANCH  71  72
ENDBRANCH  39  64
ENDBRANCH  13  14
ENDBRANCH   6   8
ENDBRANCH   3   4
ENDBRANCH   2   3
ENDBRANCH   1   2
BRANCH   1  76
ATOM     76  C   UNL A   1      35.521  30.349  27.550  1.00  0.00     0.002 C 
BRANCH  76  77
ATOM     77  C   UNL A   1      34.218  29.842  26.926  1.00  0.00     0.021 C 
BRANCH  77  78
ATOM     78  C   UNL A   1      34.365  28.642  25.998  1.00  0.00     0.116 C 
BRANCH  78  79
ATOM     79  N   UNL A   1      33.938  28.919  24.637  1.00  0.00    -0.352 N 
ATOM     80  C   UNL A   1      33.376  28.087  23.706  1.00  0.00     0.256 C 
ATOM     81  H   UNL A   1      34.073  29.847  24.338  1.00  0.00     0.163 HD
ATOM     82  O   UNL A   1      33.081  28.525  22.598  1.00  0.00    -0.269 OA
BRANCH  80  83
ATOM     83  C   UNL A   1      33.138  26.675  24.071  1.00  0.00     0.104 A 
ATOM     84  C   UNL A   1      33.927  25.702  23.588  1.00  0.00     0.104 A 
ATOM     85  C   UNL A   1      32.052  26.279  24.991  1.00  0.00     0.202 A 
ATOM     86  N   UNL A   1      33.735  24.333  23.733  1.00  0.00    -0.342 N 
ATOM     87  C   UNL A   1      31.884  24.830  25.256  1.00  0.00     0.050 A 
ATOM     88  O   UNL A   1      31.266  27.083  25.479  1.00  0.00    -0.288 OA
ATOM     89  C   UNL A   1      32.638  23.894  24.510  1.00  0.00     0.055 A 
ATOM     90  C   UNL A   1      30.935  24.429  26.210  1.00  0.00     0.056 A 
ATOM     91  C   UNL A   1      32.237  22.557  24.609  1.00  0.00     0.069 A 
ATOM     92  C   UNL A   1      30.693  23.078  26.391  1.00  0.00     0.159 A 
ATOM     93  C   UNL A   1      31.312  22.151  25.570  1.00  0.00     0.160 A 
ATOM     94  F   UNL A   1      29.839  22.677  27.341  1.00  0.00    -0.204 F 
ATOM     95  F   UNL A   1      31.048  20.844  25.705  1.00  0.00    -0.204 F 
BRANCH  86  96
ATOM     96  C   UNL A   1      34.706  23.359  23.167  1.00  0.00     0.157 C 
BRANCH  96  97
ATOM     97  C   UNL A   1      35.866  23.065  24.103  1.00  0.00    -0.028 A 
ATOM     98  C   UNL A   1      36.271  23.992  25.069  1.00  0.00     0.008 A 
ATOM     99  C   UNL A   1      36.577  21.862  24.028  1.00  0.00     0.008 A 
ATOM    100  C   UNL A   1      37.389  23.774  25.874  1.00  0.00     0.027 A 
ATOM    101  C   UNL A   1      37.701  21.640  24.843  1.00  0.00     0.027 A 
ATOM    102  C   UNL A   1      38.142  22.608  25.754  1.00  0.00     0.044 A 
BRANCH 102 103
ATOM    103  N   UNL A   1      39.325  22.444  26.514  1.00  0.00    -0.312 N 
ATOM    104  C   UNL A   1      40.152  21.262  26.450  1.00  0.00     0.126 C 
ATOM    105  C   UNL A   1      39.869  23.393  27.386  1.00  0.00     0.227 C 
ATOM    106  C   UNL A   1      40.970  21.309  27.721  1.00  0.00     0.032 C 
ATOM    107  C   UNL A   1      41.111  22.793  28.002  1.00  0.00     0.102 C 
ATOM    108  O   UNL A   1      39.465  24.516  27.655  1.00  0.00    -0.275 OA
ENDBRANCH 102 103
ENDBRANCH  96  97
ENDBRANCH  86  96
ENDBRANCH  80  83
ENDBRANCH  78  79
ENDBRANCH  77  78
ENDBRANCH  76  77
ENDBRANCH   1  76
TORSDOF 19
ENDMDL
