MODEL 1
REMARK VINA RESULT:     -13.3      0.000      0.000
REMARK SMILES Cc1ccc(C(c2ccccc2)(c2ccccc2)n2cnc(C[C@H]([NH3+])C(=O)NCCCCCCNC(=O)c3ccc(-c4c5nc(c(-c6c(F)cc(S(=O)(=O)[O-])cc6F)c6ccc([nH]6)c(-c6c(F)cc(S(=O)(=O)[O-])cc6F)c6nc(c(-c7c(F)cc(S(=O)(=O)[O-])cc7F)c7ccc4[nH]7)C=C6)C=C5)cc3)c2)cc1
REMARK SMILES IDX 31 1 30 2 29 3 28 4 26 5 27 6 24 8 23 9 22 10 19 11 20 12
REMARK SMILES IDX 104 13 21 14 6 15 5 16 1 17 2 18 3 19 106 20 4 21 105 22
REMARK SMILES IDX 7 23 8 24 12 25 9 26 11 27 10 28 13 29 14 30 18 31 15 32
REMARK SMILES IDX 17 33 16 34 25 35 32 39 33 40 34 41 35 42 36 43 37 45 38 46
REMARK SMILES IDX 39 47 103 48 40 49 102 50 41 51 42 52 43 53 96 54 44 55
REMARK SMILES IDX 101 56 95 57 97 58 45 59 100 60 94 61 93 62 46 64 80 65
REMARK SMILES IDX 59 66 79 67 60 68 63 69 78 70 98 71 61 72 62 73 77 75 99 76
REMARK SMILES IDX 64 77 47 78 48 79 57 80 49 81 50 82 56 83 58 84 51 85 52 86
REMARK SMILES IDX 53 87 54 88 55 89 81 90 82 91 91 92 83 93 84 94 90 95 92 96
REMARK SMILES IDX 85 97 86 98 87 99 88 100 89 101 65 102 66 103 75 104 67 105
REMARK SMILES IDX 68 106 74 107 76 108 69 109 70 110 71 111 72 112 73 113
REMARK H PARENT 28 7 25 36 25 37 25 38 35 44 97 63 63 74
REMARK Flexibility Score: inf
ROOT
ATOM      1  C   UNL A   1      35.487  23.212  23.892  1.00  0.00     0.002 C 
ENDROOT
BRANCH   1   2
ATOM      2  C   UNL A   1      34.571  21.998  24.083  1.00  0.00     0.021 C 
BRANCH   2   3
ATOM      3  C   UNL A   1      34.882  21.111  25.285  1.00  0.00     0.116 C 
BRANCH   3   4
ATOM      4  N   UNL A   1      34.384  21.662  26.530  1.00  0.00    -0.351 N 
ATOM      5  C   UNL A   1      33.121  21.991  26.930  1.00  0.00     0.278 C 
ATOM      6  O   UNL A   1      32.991  22.440  28.075  1.00  0.00    -0.268 OA
ATOM      7  H   UNL A   1      35.081  21.829  27.205  1.00  0.00     0.163 HD
BRANCH   5   8
ATOM      8  C   UNL A   1      31.907  21.898  25.973  1.00  0.00     0.276 C 
BRANCH   8   9
ATOM      9  C   UNL A   1      30.601  22.494  26.523  1.00  0.00     0.133 C 
BRANCH   9  10
ATOM     10  C   UNL A   1      30.353  23.893  26.072  1.00  0.00     0.065 A 
ATOM     11  N   UNL A   1      30.441  25.845  25.065  1.00  0.00    -0.319 N 
ATOM     12  C   UNL A   1      29.590  25.887  26.149  1.00  0.00     0.201 A 
ATOM     13  C   UNL A   1      30.881  24.544  24.980  1.00  0.00     0.112 A 
ATOM     14  N   UNL A   1      29.508  24.724  26.751  1.00  0.00    -0.241 NA
BRANCH  11  15
ATOM     15  C   UNL A   1      30.836  27.024  24.221  1.00  0.00     0.121 C 
BRANCH  15  16
ATOM     16  C   UNL A   1      31.663  28.050  25.104  1.00  0.00    -0.013 A 
ATOM     17  C   UNL A   1      33.827  30.838  27.649  1.00  0.00     0.044 C 
ATOM     18  C   UNL A   1      33.092  29.856  26.785  1.00  0.00    -0.051 A 
ATOM     19  C   UNL A   1      33.183  29.947  25.394  1.00  0.00     0.004 A 
ATOM     20  C   UNL A   1      32.314  28.842  27.343  1.00  0.00     0.004 A 
ATOM     21  C   UNL A   1      32.485  29.058  24.568  1.00  0.00     0.007 A 
ATOM     22  C   UNL A   1      31.624  27.948  26.517  1.00  0.00     0.007 A 
ENDBRANCH  15  16
BRANCH  15  23
ATOM     23  C   UNL A   1      31.719  26.450  23.024  1.00  0.00    -0.013 A 
ATOM     24  C   UNL A   1      31.169  26.287  21.728  1.00  0.00     0.007 A 
ATOM     25  C   UNL A   1      33.040  25.982  23.185  1.00  0.00     0.007 A 
ATOM     26  C   UNL A   1      31.913  25.780  20.657  1.00  0.00     0.000 A 
ATOM     27  C   UNL A   1      33.785  25.465  22.117  1.00  0.00     0.000 A 
ATOM     28  C   UNL A   1      33.228  25.379  20.849  1.00  0.00     0.000 A 
ENDBRANCH  15  23
BRANCH  15  29
ATOM     29  C   UNL A   1      29.493  27.727  23.719  1.00  0.00    -0.013 A 
ATOM     30  C   UNL A   1      29.488  29.087  23.320  1.00  0.00     0.007 A 
ATOM     31  C   UNL A   1      28.228  27.111  23.815  1.00  0.00     0.007 A 
ATOM     32  C   UNL A   1      28.306  29.771  23.014  1.00  0.00     0.000 A 
ATOM     33  C   UNL A   1      27.041  27.805  23.541  1.00  0.00     0.000 A 
ATOM     34  C   UNL A   1      27.080  29.132  23.136  1.00  0.00     0.000 A 
ENDBRANCH  15  29
ENDBRANCH  11  15
ENDBRANCH   9  10
ENDBRANCH   8   9
BRANCH   8  35
ATOM     35  N   UNL A   1      31.760  20.499  25.493  1.00  0.00    -0.347 N 
ATOM     36  H   UNL A   1      32.364  19.887  26.039  1.00  0.00     0.345 HD
ATOM     37  H   UNL A   1      32.023  20.447  24.509  1.00  0.00     0.345 HD
ATOM     38  H   UNL A   1      30.789  20.203  25.601  1.00  0.00     0.345 HD
ENDBRANCH   8  35
ENDBRANCH   5   8
ENDBRANCH   3   4
ENDBRANCH   2   3
ENDBRANCH   1   2
BRANCH   1  39
ATOM     39  C   UNL A   1      37.001  22.955  23.936  1.00  0.00     0.002 C 
BRANCH  39  40
ATOM     40  C   UNL A   1      37.575  22.445  25.262  1.00  0.00     0.021 C 
BRANCH  40  41
ATOM     41  C   UNL A   1      38.117  23.539  26.174  1.00  0.00     0.116 C 
BRANCH  41  42
ATOM     42  N   UNL A   1      39.176  23.094  27.062  1.00  0.00    -0.352 N 
ATOM     43  C   UNL A   1      40.117  23.895  27.687  1.00  0.00     0.251 C 
ATOM     44  H   UNL A   1      39.231  22.127  27.237  1.00  0.00     0.163 HD
ATOM     45  O   UNL A   1      41.174  23.464  28.115  1.00  0.00    -0.269 OA
BRANCH  43  46
ATOM     46  C   UNL A   1      39.708  25.290  27.961  1.00  0.00     0.039 A 
ATOM     47  C   UNL A   1      40.184  26.270  27.083  1.00  0.00     0.014 A 
ATOM     48  C   UNL A   1      39.119  25.635  29.174  1.00  0.00     0.014 A 
ATOM     49  C   UNL A   1      40.215  27.601  27.490  1.00  0.00     0.010 A 
ATOM     50  C   UNL A   1      39.210  26.948  29.603  1.00  0.00     0.010 A 
ATOM     51  C   UNL A   1      39.804  27.921  28.781  1.00  0.00    -0.014 A 
BRANCH  51  52
ATOM     52  C   UNL A   1      40.035  29.223  29.398  1.00  0.00     0.031 A 
ATOM     53  C   UNL A   1      39.051  30.319  29.230  1.00  0.00     0.074 A 
ATOM     54  C   UNL A   1      41.111  29.411  30.194  1.00  0.00     0.049 A 
ATOM     55  N   UNL A   1      39.277  31.550  29.546  1.00  0.00    -0.248 NA
ATOM     56  C   UNL A   1      37.743  30.126  28.601  1.00  0.00     0.031 C 
ATOM     57  C   UNL A   1      41.301  30.468  31.185  1.00  0.00     0.029 A 
ATOM     58  N   UNL A   1      42.363  28.801  30.094  1.00  0.00    -0.354 N 
ATOM     59  C   UNL A   1      38.081  32.222  29.474  1.00  0.00     0.074 A 
ATOM     60  C   UNL A   1      37.206  31.343  28.743  1.00  0.00     0.031 C 
ATOM     61  C   UNL A   1      42.612  30.601  31.436  1.00  0.00     0.029 A 
ATOM     62  C   UNL A   1      43.322  29.752  30.496  1.00  0.00     0.049 A 
ATOM     63  H   UNL A   1      42.543  27.879  29.799  1.00  0.00     0.167 HD
ATOM     64  C   UNL A   1      37.927  33.373  30.184  1.00  0.00     0.037 A 
ATOM     65  C   UNL A   1      44.290  30.195  29.639  1.00  0.00     0.037 A 
ATOM     66  C   UNL A   1      39.222  33.921  30.589  1.00  0.00     0.049 A 
ATOM     67  C   UNL A   1      44.245  31.680  29.352  1.00  0.00     0.074 A 
ATOM     68  C   UNL A   1      39.884  34.028  31.798  1.00  0.00     0.029 A 
ATOM     69  N   UNL A   1      40.147  34.260  29.602  1.00  0.00    -0.354 N 
ATOM     70  N   UNL A   1      43.248  32.459  29.673  1.00  0.00    -0.248 NA
ATOM     71  C   UNL A   1      45.306  32.400  28.652  1.00  0.00     0.031 C 
ATOM     72  C   UNL A   1      41.251  34.312  31.519  1.00  0.00     0.029 A 
ATOM     73  C   UNL A   1      41.403  34.433  30.147  1.00  0.00     0.049 A 
ATOM     74  H   UNL A   1      39.932  34.364  28.648  1.00  0.00     0.167 HD
ATOM     75  C   UNL A   1      43.476  33.720  29.188  1.00  0.00     0.074 A 
ATOM     76  C   UNL A   1      44.798  33.644  28.595  1.00  0.00     0.031 C 
ATOM     77  C   UNL A   1      42.547  34.717  29.287  1.00  0.00     0.037 A 
BRANCH  64  78
ATOM     78  C   UNL A   1      36.593  33.898  30.692  1.00  0.00     0.058 A 
ATOM     79  C   UNL A   1      35.596  34.320  29.784  1.00  0.00     0.135 A 
ATOM     80  C   UNL A   1      36.292  34.160  32.049  1.00  0.00     0.135 A 
ATOM     81  F   UNL A   1      35.754  34.157  28.461  1.00  0.00    -0.206 F 
ATOM     82  C   UNL A   1      34.415  34.960  30.188  1.00  0.00     0.059 A 
ATOM     83  C   UNL A   1      35.100  34.746  32.478  1.00  0.00     0.059 A 
ATOM     84  F   UNL A   1      37.168  33.939  33.035  1.00  0.00    -0.206 F 
ATOM     85  C   UNL A   1      34.177  35.172  31.540  1.00  0.00     0.060 A 
BRANCH  85  86
ATOM     86  S   UNL A   1      32.687  36.034  32.076  1.00  0.00     0.124 S 
ATOM     87  O   UNL A   1      33.207  36.904  33.127  1.00  0.00    -0.237 OA
ATOM     88  O   UNL A   1      32.247  36.700  30.855  1.00  0.00    -0.237 OA
ATOM     89  O   UNL A   1      31.819  34.952  32.537  1.00  0.00    -0.744 OA
ENDBRANCH  85  86
ENDBRANCH  64  78
BRANCH  65  90
ATOM     90  C   UNL A   1      44.756  29.142  28.697  1.00  0.00     0.058 A 
ATOM     91  C   UNL A   1      44.252  29.181  27.383  1.00  0.00     0.135 A 
ATOM     92  C   UNL A   1      45.962  28.460  28.911  1.00  0.00     0.135 A 
ATOM     93  F   UNL A   1      43.086  29.800  27.131  1.00  0.00    -0.206 F 
ATOM     94  C   UNL A   1      45.000  28.733  26.301  1.00  0.00     0.059 A 
ATOM     95  C   UNL A   1      46.724  27.990  27.839  1.00  0.00     0.059 A 
ATOM     96  F   UNL A   1      46.485  28.381  30.143  1.00  0.00    -0.206 F 
ATOM     97  C   UNL A   1      46.269  28.209  26.537  1.00  0.00     0.060 A 
BRANCH  97  98
ATOM     98  S   UNL A   1      47.371  27.994  25.119  1.00  0.00     0.124 S 
ATOM     99  O   UNL A   1      46.640  28.674  24.055  1.00  0.00    -0.237 OA
ATOM    100  O   UNL A   1      48.584  28.667  25.580  1.00  0.00    -0.237 OA
ATOM    101  O   UNL A   1      47.470  26.545  24.990  1.00  0.00    -0.744 OA
ENDBRANCH  97  98
ENDBRANCH  65  90
BRANCH  77 102
ATOM    102  C   UNL A   1      42.657  36.071  28.626  1.00  0.00     0.058 A 
ATOM    103  C   UNL A   1      42.218  36.345  27.319  1.00  0.00     0.135 A 
ATOM    104  C   UNL A   1      43.108  37.188  29.366  1.00  0.00     0.135 A 
ATOM    105  F   UNL A   1      41.665  35.389  26.557  1.00  0.00    -0.206 F 
ATOM    106  C   UNL A   1      42.289  37.622  26.756  1.00  0.00     0.059 A 
ATOM    107  C   UNL A   1      43.141  38.480  28.843  1.00  0.00     0.059 A 
ATOM    108  F   UNL A   1      43.529  37.057  30.633  1.00  0.00    -0.206 F 
ATOM    109  C   UNL A   1      42.756  38.684  27.524  1.00  0.00     0.060 A 
BRANCH 109 110
ATOM    110  S   UNL A   1      42.811  40.348  26.831  1.00  0.00     0.124 S 
ATOM    111  O   UNL A   1      43.200  41.137  27.996  1.00  0.00    -0.237 OA
ATOM    112  O   UNL A   1      43.821  40.235  25.783  1.00  0.00    -0.237 OA
ATOM    113  O   UNL A   1      41.446  40.552  26.355  1.00  0.00    -0.744 OA
ENDBRANCH 109 110
ENDBRANCH  77 102
ENDBRANCH  51  52
ENDBRANCH  43  46
ENDBRANCH  41  42
ENDBRANCH  40  41
ENDBRANCH  39  40
ENDBRANCH   1  39
TORSDOF 23
ENDMDL
MODEL 2
REMARK VINA RESULT:     -12.6      0.621      2.310
REMARK SMILES Cc1ccc(C(c2ccccc2)(c2ccccc2)n2cnc(C[C@H]([NH3+])C(=O)NCCCCCCNC(=O)c3ccc(-c4c5nc(c(-c6c(F)cc(S(=O)(=O)[O-])cc6F)c6ccc([nH]6)c(-c6c(F)cc(S(=O)(=O)[O-])cc6F)c6nc(c(-c7c(F)cc(S(=O)(=O)[O-])cc7F)c7ccc4[nH]7)C=C6)C=C5)cc3)c2)cc1
REMARK SMILES IDX 31 1 30 2 29 3 28 4 26 5 27 6 24 8 23 9 22 10 19 11 20 12
REMARK SMILES IDX 104 13 21 14 6 15 5 16 1 17 2 18 3 19 106 20 4 21 105 22
REMARK SMILES IDX 7 23 8 24 12 25 9 26 11 27 10 28 13 29 14 30 18 31 15 32
REMARK SMILES IDX 17 33 16 34 25 35 32 39 33 40 34 41 35 42 36 43 37 45 38 46
REMARK SMILES IDX 39 47 103 48 40 49 102 50 41 51 42 52 43 53 96 54 44 55
REMARK SMILES IDX 101 56 95 57 97 58 45 59 100 60 94 61 93 62 46 64 80 65
REMARK SMILES IDX 59 66 79 67 60 68 63 69 78 70 98 71 61 72 62 73 77 75 99 76
REMARK SMILES IDX 64 77 47 78 48 79 57 80 49 81 50 82 56 83 58 84 51 85 52 86
REMARK SMILES IDX 53 87 54 88 55 89 81 90 82 91 91 92 83 93 84 94 90 95 92 96
REMARK SMILES IDX 85 97 86 98 87 99 88 100 89 101 65 102 66 103 75 104 67 105
REMARK SMILES IDX 68 106 74 107 76 108 69 109 70 110 71 111 72 112 73 113
REMARK H PARENT 28 7 25 36 25 37 25 38 35 44 97 63 63 74
REMARK Flexibility Score: inf
ROOT
ATOM      1  C   UNL A   1      35.611  23.035  23.980  1.00  0.00     0.002 C 
ENDROOT
BRANCH   1   2
ATOM      2  C   UNL A   1      34.624  21.889  24.228  1.00  0.00     0.021 C 
BRANCH   2   3
ATOM      3  C   UNL A   1      34.902  21.025  25.455  1.00  0.00     0.116 C 
BRANCH   3   4
ATOM      4  N   UNL A   1      34.302  21.557  26.661  1.00  0.00    -0.351 N 
ATOM      5  C   UNL A   1      33.004  21.848  26.972  1.00  0.00     0.278 C 
ATOM      6  O   UNL A   1      32.780  22.290  28.105  1.00  0.00    -0.268 OA
ATOM      7  H   UNL A   1      34.944  21.742  27.385  1.00  0.00     0.163 HD
BRANCH   5   8
ATOM      8  C   UNL A   1      31.865  21.723  25.930  1.00  0.00     0.276 C 
BRANCH   8   9
ATOM      9  C   UNL A   1      30.559  22.443  26.309  1.00  0.00     0.133 C 
BRANCH   9  10
ATOM     10  C   UNL A   1      30.536  23.877  25.904  1.00  0.00     0.065 A 
ATOM     11  N   UNL A   1      30.948  25.828  24.977  1.00  0.00    -0.319 N 
ATOM     12  C   UNL A   1      30.069  25.957  26.031  1.00  0.00     0.201 A 
ATOM     13  C   UNL A   1      31.197  24.480  24.858  1.00  0.00     0.112 A 
ATOM     14  N   UNL A   1      29.794  24.800  26.585  1.00  0.00    -0.241 NA
BRANCH  11  15
ATOM     15  C   UNL A   1      31.544  26.963  24.195  1.00  0.00     0.121 C 
BRANCH  15  16
ATOM     16  C   UNL A   1      30.405  28.005  23.829  1.00  0.00    -0.013 A 
ATOM     17  C   UNL A   1      27.215  30.751  22.726  1.00  0.00     0.044 C 
ATOM     18  C   UNL A   1      28.297  29.790  23.122  1.00  0.00    -0.051 A 
ATOM     19  C   UNL A   1      29.516  30.275  23.603  1.00  0.00     0.004 A 
ATOM     20  C   UNL A   1      28.114  28.412  23.024  1.00  0.00     0.004 A 
ATOM     21  C   UNL A   1      30.550  29.399  23.956  1.00  0.00     0.007 A 
ATOM     22  C   UNL A   1      29.144  27.537  23.383  1.00  0.00     0.007 A 
ENDBRANCH  15  16
BRANCH  15  23
ATOM     23  C   UNL A   1      32.654  27.626  25.129  1.00  0.00    -0.013 A 
ATOM     24  C   UNL A   1      33.871  28.104  24.584  1.00  0.00     0.007 A 
ATOM     25  C   UNL A   1      32.552  27.688  26.535  1.00  0.00     0.007 A 
ATOM     26  C   UNL A   1      34.868  28.685  25.375  1.00  0.00     0.000 A 
ATOM     27  C   UNL A   1      33.554  28.260  27.331  1.00  0.00     0.000 A 
ATOM     28  C   UNL A   1      34.705  28.773  26.750  1.00  0.00     0.000 A 
ENDBRANCH  15  23
BRANCH  15  29
ATOM     29  C   UNL A   1      32.150  26.354  22.850  1.00  0.00    -0.013 A 
ATOM     30  C   UNL A   1      31.626  26.718  21.584  1.00  0.00     0.007 A 
ATOM     31  C   UNL A   1      33.093  25.304  22.844  1.00  0.00     0.007 A 
ATOM     32  C   UNL A   1      32.035  26.095  20.399  1.00  0.00     0.000 A 
ATOM     33  C   UNL A   1      33.478  24.658  21.662  1.00  0.00     0.000 A 
ATOM     34  C   UNL A   1      32.954  25.056  20.439  1.00  0.00     0.000 A 
ENDBRANCH  15  29
ENDBRANCH  11  15
ENDBRANCH   9  10
ENDBRANCH   8   9
BRANCH   8  35
ATOM     35  N   UNL A   1      31.668  20.292  25.579  1.00  0.00    -0.347 N 
ATOM     36  H   UNL A   1      30.750  19.986  25.900  1.00  0.00     0.345 HD
ATOM     37  H   UNL A   1      32.390  19.730  26.029  1.00  0.00     0.345 HD
ATOM     38  H   UNL A   1      31.730  20.179  24.567  1.00  0.00     0.345 HD
ENDBRANCH   8  35
ENDBRANCH   5   8
ENDBRANCH   3   4
ENDBRANCH   2   3
ENDBRANCH   1   2
BRANCH   1  39
ATOM     39  C   UNL A   1      37.105  22.715  24.139  1.00  0.00     0.002 C 
BRANCH  39  40
ATOM     40  C   UNL A   1      37.589  22.371  25.551  1.00  0.00     0.021 C 
BRANCH  40  41
ATOM     41  C   UNL A   1      38.228  23.537  26.298  1.00  0.00     0.116 C 
BRANCH  41  42
ATOM     42  N   UNL A   1      39.328  23.150  27.162  1.00  0.00    -0.352 N 
ATOM     43  C   UNL A   1      40.257  23.998  27.742  1.00  0.00     0.251 C 
ATOM     44  H   UNL A   1      39.425  22.189  27.355  1.00  0.00     0.163 HD
ATOM     45  O   UNL A   1      41.341  23.615  28.147  1.00  0.00    -0.269 OA
BRANCH  43  46
ATOM     46  C   UNL A   1      39.805  25.382  28.000  1.00  0.00     0.039 A 
ATOM     47  C   UNL A   1      40.281  26.372  27.131  1.00  0.00     0.014 A 
ATOM     48  C   UNL A   1      39.173  25.716  29.194  1.00  0.00     0.014 A 
ATOM     49  C   UNL A   1      40.265  27.704  27.535  1.00  0.00     0.010 A 
ATOM     50  C   UNL A   1      39.218  27.032  29.621  1.00  0.00     0.010 A 
ATOM     51  C   UNL A   1      39.810  28.017  28.813  1.00  0.00    -0.014 A 
BRANCH  51  52
ATOM     52  C   UNL A   1      39.990  29.327  29.431  1.00  0.00     0.031 A 
ATOM     53  C   UNL A   1      38.998  30.405  29.208  1.00  0.00     0.074 A 
ATOM     54  C   UNL A   1      41.024  29.537  30.277  1.00  0.00     0.049 A 
ATOM     55  N   UNL A   1      39.189  31.642  29.526  1.00  0.00    -0.248 NA
ATOM     56  C   UNL A   1      37.726  30.188  28.518  1.00  0.00     0.031 C 
ATOM     57  C   UNL A   1      41.149  30.603  31.269  1.00  0.00     0.029 A 
ATOM     58  N   UNL A   1      42.288  28.946  30.242  1.00  0.00    -0.354 N 
ATOM     59  C   UNL A   1      37.988  32.294  29.392  1.00  0.00     0.074 A 
ATOM     60  C   UNL A   1      37.163  31.396  28.625  1.00  0.00     0.031 C 
ATOM     61  C   UNL A   1      42.443  30.759  31.583  1.00  0.00     0.029 A 
ATOM     62  C   UNL A   1      43.211  29.916  30.684  1.00  0.00     0.049 A 
ATOM     63  H   UNL A   1      42.497  28.026  29.962  1.00  0.00     0.167 HD
ATOM     64  C   UNL A   1      37.781  33.447  30.086  1.00  0.00     0.037 A 
ATOM     65  C   UNL A   1      44.212  30.368  29.872  1.00  0.00     0.037 A 
ATOM     66  C   UNL A   1      39.046  34.018  30.550  1.00  0.00     0.049 A 
ATOM     67  C   UNL A   1      44.158  31.851  29.573  1.00  0.00     0.074 A 
ATOM     68  C   UNL A   1      39.647  34.143  31.789  1.00  0.00     0.029 A 
ATOM     69  N   UNL A   1      40.013  34.366  29.607  1.00  0.00    -0.354 N 
ATOM     70  N   UNL A   1      43.135  32.616  29.840  1.00  0.00    -0.248 NA
ATOM     71  C   UNL A   1      45.241  32.584  28.920  1.00  0.00     0.031 C 
ATOM     72  C   UNL A   1      41.021  34.447  31.575  1.00  0.00     0.029 A 
ATOM     73  C   UNL A   1      41.238  34.563  30.211  1.00  0.00     0.049 A 
ATOM     74  H   UNL A   1      39.843  34.461  28.642  1.00  0.00     0.167 HD
ATOM     75  C   UNL A   1      43.366  33.878  29.358  1.00  0.00     0.074 A 
ATOM     76  C   UNL A   1      44.716  33.819  28.831  1.00  0.00     0.031 C 
ATOM     77  C   UNL A   1      42.417  34.859  29.405  1.00  0.00     0.037 A 
BRANCH  64  78
ATOM     78  C   UNL A   1      36.416  33.953  30.525  1.00  0.00     0.058 A 
ATOM     79  C   UNL A   1      35.510  34.486  29.580  1.00  0.00     0.135 A 
ATOM     80  C   UNL A   1      36.000  34.090  31.870  1.00  0.00     0.135 A 
ATOM     81  F   UNL A   1      35.783  34.447  28.266  1.00  0.00    -0.206 F 
ATOM     82  C   UNL A   1      34.309  35.112  29.940  1.00  0.00     0.059 A 
ATOM     83  C   UNL A   1      34.783  34.661  32.249  1.00  0.00     0.059 A 
ATOM     84  F   UNL A   1      36.781  33.753  32.902  1.00  0.00    -0.206 F 
ATOM     85  C   UNL A   1      33.955  35.199  31.281  1.00  0.00     0.060 A 
BRANCH  85  86
ATOM     86  S   UNL A   1      32.437  36.042  31.768  1.00  0.00     0.124 S 
ATOM     87  O   UNL A   1      32.949  37.115  32.613  1.00  0.00    -0.237 OA
ATOM     88  O   UNL A   1      31.874  36.451  30.486  1.00  0.00    -0.237 OA
ATOM     89  O   UNL A   1      31.685  35.002  32.469  1.00  0.00    -0.744 OA
ENDBRANCH  85  86
ENDBRANCH  64  78
BRANCH  65  90
ATOM     90  C   UNL A   1      44.741  29.318  28.961  1.00  0.00     0.058 A 
ATOM     91  C   UNL A   1      44.432  29.435  27.592  1.00  0.00     0.135 A 
ATOM     92  C   UNL A   1      45.858  28.548  29.312  1.00  0.00     0.135 A 
ATOM     93  F   UNL A   1      43.354  30.139  27.206  1.00  0.00    -0.206 F 
ATOM     94  C   UNL A   1      45.296  28.972  26.607  1.00  0.00     0.059 A 
ATOM     95  C   UNL A   1      46.734  28.063  28.338  1.00  0.00     0.059 A 
ATOM     96  F   UNL A   1      46.196  28.394  30.600  1.00  0.00    -0.206 F 
ATOM     97  C   UNL A   1      46.483  28.355  26.996  1.00  0.00     0.060 A 
BRANCH  97  98
ATOM     98  S   UNL A   1      47.760  28.112  25.737  1.00  0.00     0.124 S 
ATOM     99  O   UNL A   1      48.611  29.281  25.933  1.00  0.00    -0.237 OA
ATOM    100  O   UNL A   1      48.341  26.834  26.146  1.00  0.00    -0.237 OA
ATOM    101  O   UNL A   1      47.001  28.086  24.492  1.00  0.00    -0.744 OA
ENDBRANCH  97  98
ENDBRANCH  65  90
BRANCH  77 102
ATOM    102  C   UNL A   1      42.537  36.211  28.741  1.00  0.00     0.058 A 
ATOM    103  C   UNL A   1      42.071  36.494  27.446  1.00  0.00     0.135 A 
ATOM    104  C   UNL A   1      43.030  37.319  29.469  1.00  0.00     0.135 A 
ATOM    105  F   UNL A   1      41.480  35.550  26.698  1.00  0.00    -0.206 F 
ATOM    106  C   UNL A   1      42.154  37.770  26.881  1.00  0.00     0.059 A 
ATOM    107  C   UNL A   1      43.076  38.610  28.945  1.00  0.00     0.059 A 
ATOM    108  F   UNL A   1      43.481  37.179  30.725  1.00  0.00    -0.206 F 
ATOM    109  C   UNL A   1      42.661  38.822  27.637  1.00  0.00     0.060 A 
BRANCH 109 110
ATOM    110  S   UNL A   1      42.733  40.485  26.941  1.00  0.00     0.124 S 
ATOM    111  O   UNL A   1      43.571  41.174  27.918  1.00  0.00    -0.237 OA
ATOM    112  O   UNL A   1      43.341  40.269  25.632  1.00  0.00    -0.237 OA
ATOM    113  O   UNL A   1      41.331  40.890  26.913  1.00  0.00    -0.744 OA
ENDBRANCH 109 110
ENDBRANCH  77 102
ENDBRANCH  51  52
ENDBRANCH  43  46
ENDBRANCH  41  42
ENDBRANCH  40  41
ENDBRANCH  39  40
ENDBRANCH   1  39
TORSDOF 23
ENDMDL
MODEL 3
REMARK VINA RESULT:     -12.0      1.722      2.345
REMARK SMILES Cc1ccc(C(c2ccccc2)(c2ccccc2)n2cnc(C[C@H]([NH3+])C(=O)NCCCCCCNC(=O)c3ccc(-c4c5nc(c(-c6c(F)cc(S(=O)(=O)[O-])cc6F)c6ccc([nH]6)c(-c6c(F)cc(S(=O)(=O)[O-])cc6F)c6nc(c(-c7c(F)cc(S(=O)(=O)[O-])cc7F)c7ccc4[nH]7)C=C6)C=C5)cc3)c2)cc1
REMARK SMILES IDX 31 1 30 2 29 3 28 4 26 5 27 6 24 8 23 9 22 10 19 11 20 12
REMARK SMILES IDX 104 13 21 14 6 15 5 16 1 17 2 18 3 19 106 20 4 21 105 22
REMARK SMILES IDX 7 23 8 24 12 25 9 26 11 27 10 28 13 29 14 30 18 31 15 32
REMARK SMILES IDX 17 33 16 34 25 35 32 39 33 40 34 41 35 42 36 43 37 45 38 46
REMARK SMILES IDX 39 47 103 48 40 49 102 50 41 51 42 52 43 53 96 54 44 55
REMARK SMILES IDX 101 56 95 57 97 58 45 59 100 60 94 61 93 62 46 64 80 65
REMARK SMILES IDX 59 66 79 67 60 68 63 69 78 70 98 71 61 72 62 73 77 75 99 76
REMARK SMILES IDX 64 77 47 78 48 79 57 80 49 81 50 82 56 83 58 84 51 85 52 86
REMARK SMILES IDX 53 87 54 88 55 89 81 90 82 91 91 92 83 93 84 94 90 95 92 96
REMARK SMILES IDX 85 97 86 98 87 99 88 100 89 101 65 102 66 103 75 104 67 105
REMARK SMILES IDX 68 106 74 107 76 108 69 109 70 110 71 111 72 112 73 113
REMARK H PARENT 28 7 25 36 25 37 25 38 35 44 97 63 63 74
REMARK Flexibility Score: inf
ROOT
ATOM      1  C   UNL A   1      34.974  20.403  24.985  1.00  0.00     0.002 C 
ENDROOT
BRANCH   1   2
ATOM      2  C   UNL A   1      33.760  20.209  24.069  1.00  0.00     0.021 C 
BRANCH   2   3
ATOM      3  C   UNL A   1      32.949  21.465  23.762  1.00  0.00     0.116 C 
BRANCH   3   4
ATOM      4  N   UNL A   1      33.357  22.603  24.561  1.00  0.00    -0.351 N 
ATOM      5  C   UNL A   1      32.953  23.032  25.793  1.00  0.00     0.278 C 
ATOM      6  O   UNL A   1      33.494  24.051  26.241  1.00  0.00    -0.268 OA
ATOM      7  H   UNL A   1      34.047  23.166  24.141  1.00  0.00     0.163 HD
BRANCH   5   8
ATOM      8  C   UNL A   1      31.805  22.339  26.567  1.00  0.00     0.276 C 
BRANCH   8   9
ATOM      9  C   UNL A   1      30.392  22.818  26.193  1.00  0.00     0.133 C 
BRANCH   9  10
ATOM     10  C   UNL A   1      30.310  24.286  25.948  1.00  0.00     0.065 A 
ATOM     11  N   UNL A   1      30.554  26.322  25.155  1.00  0.00    -0.319 N 
ATOM     12  C   UNL A   1      29.922  26.342  26.380  1.00  0.00     0.201 A 
ATOM     13  C   UNL A   1      30.746  24.994  24.850  1.00  0.00     0.112 A 
ATOM     14  N   UNL A   1      29.749  25.133  26.861  1.00  0.00    -0.241 NA
BRANCH  11  15
ATOM     15  C   UNL A   1      30.992  27.533  24.381  1.00  0.00     0.121 C 
BRANCH  15  16
ATOM     16  C   UNL A   1      31.887  28.456  25.309  1.00  0.00    -0.013 A 
ATOM     17  C   UNL A   1      34.297  31.117  27.768  1.00  0.00     0.044 C 
ATOM     18  C   UNL A   1      33.444  30.208  26.933  1.00  0.00    -0.051 A 
ATOM     19  C   UNL A   1      33.746  28.847  26.854  1.00  0.00     0.004 A 
ATOM     20  C   UNL A   1      32.343  30.694  26.228  1.00  0.00     0.004 A 
ATOM     21  C   UNL A   1      32.979  27.984  26.061  1.00  0.00     0.007 A 
ATOM     22  C   UNL A   1      31.573  29.832  25.442  1.00  0.00     0.007 A 
ENDBRANCH  15  16
BRANCH  15  23
ATOM     23  C   UNL A   1      31.821  26.996  23.128  1.00  0.00    -0.013 A 
ATOM     24  C   UNL A   1      31.162  26.421  22.014  1.00  0.00     0.007 A 
ATOM     25  C   UNL A   1      33.230  26.962  23.084  1.00  0.00     0.007 A 
ATOM     26  C   UNL A   1      31.859  25.934  20.902  1.00  0.00     0.000 A 
ATOM     27  C   UNL A   1      33.931  26.466  21.977  1.00  0.00     0.000 A 
ATOM     28  C   UNL A   1      33.246  25.967  20.878  1.00  0.00     0.000 A 
ENDBRANCH  15  23
BRANCH  15  29
ATOM     29  C   UNL A   1      29.677  28.333  23.957  1.00  0.00    -0.013 A 
ATOM     30  C   UNL A   1      28.454  27.656  23.726  1.00  0.00     0.007 A 
ATOM     31  C   UNL A   1      29.694  29.702  23.613  1.00  0.00     0.007 A 
ATOM     32  C   UNL A   1      27.325  28.306  23.214  1.00  0.00     0.000 A 
ATOM     33  C   UNL A   1      28.575  30.346  23.070  1.00  0.00     0.000 A 
ATOM     34  C   UNL A   1      27.389  29.650  22.875  1.00  0.00     0.000 A 
ENDBRANCH  15  29
ENDBRANCH  11  15
ENDBRANCH   9  10
ENDBRANCH   8   9
BRANCH   8  35
ATOM     35  N   UNL A   1      32.081  22.400  28.026  1.00  0.00    -0.347 N 
ATOM     36  H   UNL A   1      31.934  21.480  28.438  1.00  0.00     0.345 HD
ATOM     37  H   UNL A   1      31.452  23.074  28.463  1.00  0.00     0.345 HD
ATOM     38  H   UNL A   1      33.048  22.691  28.177  1.00  0.00     0.345 HD
ENDBRANCH   8  35
ENDBRANCH   5   8
ENDBRANCH   3   4
ENDBRANCH   2   3
ENDBRANCH   1   2
BRANCH   1  39
ATOM     39  C   UNL A   1      35.959  21.520  24.608  1.00  0.00     0.002 C 
BRANCH  39  40
ATOM     40  C   UNL A   1      37.446  21.233  24.839  1.00  0.00     0.021 C 
BRANCH  40  41
ATOM     41  C   UNL A   1      38.161  22.271  25.698  1.00  0.00     0.116 C 
BRANCH  41  42
ATOM     42  N   UNL A   1      39.487  21.867  26.127  1.00  0.00    -0.352 N 
ATOM     43  C   UNL A   1      40.561  22.705  26.381  1.00  0.00     0.251 C 
ATOM     44  H   UNL A   1      39.640  20.902  26.250  1.00  0.00     0.163 HD
ATOM     45  O   UNL A   1      41.716  22.317  26.384  1.00  0.00    -0.269 OA
BRANCH  43  46
ATOM     46  C   UNL A   1      40.228  24.079  26.814  1.00  0.00     0.039 A 
ATOM     47  C   UNL A   1      40.808  25.126  26.089  1.00  0.00     0.014 A 
ATOM     48  C   UNL A   1      39.602  24.310  28.036  1.00  0.00     0.014 A 
ATOM     49  C   UNL A   1      40.902  26.390  26.663  1.00  0.00     0.010 A 
ATOM     50  C   UNL A   1      39.755  25.550  28.633  1.00  0.00     0.010 A 
ATOM     51  C   UNL A   1      40.449  26.574  27.968  1.00  0.00    -0.014 A 
BRANCH  51  52
ATOM     52  C   UNL A   1      40.731  27.770  28.755  1.00  0.00     0.031 A 
ATOM     53  C   UNL A   1      39.789  28.914  28.745  1.00  0.00     0.074 A 
ATOM     54  C   UNL A   1      41.816  27.807  29.560  1.00  0.00     0.049 A 
ATOM     55  N   UNL A   1      40.063  30.082  29.225  1.00  0.00    -0.248 NA
ATOM     56  C   UNL A   1      38.474  28.859  28.106  1.00  0.00     0.031 C 
ATOM     57  C   UNL A   1      42.049  28.710  30.684  1.00  0.00     0.029 A 
ATOM     58  N   UNL A   1      43.043  27.169  29.368  1.00  0.00    -0.354 N 
ATOM     59  C   UNL A   1      38.894  30.801  29.255  1.00  0.00     0.074 A 
ATOM     60  C   UNL A   1      37.983  30.064  28.417  1.00  0.00     0.031 C 
ATOM     61  C   UNL A   1      43.364  28.759  30.942  1.00  0.00     0.029 A 
ATOM     62  C   UNL A   1      44.039  28.020  29.889  1.00  0.00     0.049 A 
ATOM     63  H   UNL A   1      43.187  26.291  28.948  1.00  0.00     0.167 HD
ATOM     64  C   UNL A   1      38.785  31.849  30.117  1.00  0.00     0.037 A 
ATOM     65  C   UNL A   1      45.021  28.539  29.093  1.00  0.00     0.037 A 
ATOM     66  C   UNL A   1      40.101  32.287  30.583  1.00  0.00     0.049 A 
ATOM     67  C   UNL A   1      45.032  30.050  29.012  1.00  0.00     0.074 A 
ATOM     68  C   UNL A   1      40.771  32.203  31.790  1.00  0.00     0.029 A 
ATOM     69  N   UNL A   1      41.036  32.724  29.644  1.00  0.00    -0.354 N 
ATOM     70  N   UNL A   1      44.067  30.815  29.444  1.00  0.00    -0.248 NA
ATOM     71  C   UNL A   1      46.118  30.819  28.408  1.00  0.00     0.031 C 
ATOM     72  C   UNL A   1      42.146  32.471  31.542  1.00  0.00     0.029 A 
ATOM     73  C   UNL A   1      42.300  32.774  30.198  1.00  0.00     0.049 A 
ATOM     74  H   UNL A   1      40.823  32.965  28.715  1.00  0.00     0.167 HD
ATOM     75  C   UNL A   1      44.341  32.121  29.134  1.00  0.00     0.074 A 
ATOM     76  C   UNL A   1      45.658  32.078  28.526  1.00  0.00     0.031 C 
ATOM     77  C   UNL A   1      43.451  33.129  29.376  1.00  0.00     0.037 A 
BRANCH  64  78
ATOM     78  C   UNL A   1      37.474  32.350  30.702  1.00  0.00     0.058 A 
ATOM     79  C   UNL A   1      36.672  33.267  29.985  1.00  0.00     0.135 A 
ATOM     80  C   UNL A   1      37.028  32.093  32.020  1.00  0.00     0.135 A 
ATOM     81  F   UNL A   1      36.987  33.623  28.730  1.00  0.00    -0.206 F 
ATOM     82  C   UNL A   1      35.540  33.885  30.535  1.00  0.00     0.059 A 
ATOM     83  C   UNL A   1      35.874  32.655  32.569  1.00  0.00     0.059 A 
ATOM     84  F   UNL A   1      37.726  31.347  32.883  1.00  0.00    -0.206 F 
ATOM     85  C   UNL A   1      35.150  33.575  31.832  1.00  0.00     0.060 A 
BRANCH  85  86
ATOM     86  S   UNL A   1      33.724  34.394  32.573  1.00  0.00     0.124 S 
ATOM     87  O   UNL A   1      33.054  34.946  31.400  1.00  0.00    -0.237 OA
ATOM     88  O   UNL A   1      33.038  33.295  33.243  1.00  0.00    -0.237 OA
ATOM     89  O   UNL A   1      34.330  35.380  33.466  1.00  0.00    -0.744 OA
ENDBRANCH  85  86
ENDBRANCH  64  78
BRANCH  65  90
ATOM     90  C   UNL A   1      45.444  27.609  28.012  1.00  0.00     0.058 A 
ATOM     91  C   UNL A   1      46.391  26.621  28.343  1.00  0.00     0.135 A 
ATOM     92  C   UNL A   1      44.633  27.383  26.891  1.00  0.00     0.135 A 
ATOM     93  F   UNL A   1      47.210  26.804  29.393  1.00  0.00    -0.206 F 
ATOM     94  C   UNL A   1      46.406  25.384  27.712  1.00  0.00     0.059 A 
ATOM     95  C   UNL A   1      44.640  26.151  26.233  1.00  0.00     0.059 A 
ATOM     96  F   UNL A   1      43.720  28.292  26.522  1.00  0.00    -0.206 F 
ATOM     97  C   UNL A   1      45.472  25.134  26.709  1.00  0.00     0.060 A 
BRANCH  97  98
ATOM     98  S   UNL A   1      45.244  23.421  26.173  1.00  0.00     0.124 S 
ATOM     99  O   UNL A   1      44.659  22.803  27.357  1.00  0.00    -0.237 OA
ATOM    100  O   UNL A   1      44.342  23.583  25.034  1.00  0.00    -0.237 OA
ATOM    101  O   UNL A   1      46.599  22.992  25.842  1.00  0.00    -0.744 OA
ENDBRANCH  97  98
ENDBRANCH  65  90
BRANCH  77 102
ATOM    102  C   UNL A   1      43.611  34.556  28.905  1.00  0.00     0.058 A 
ATOM    103  C   UNL A   1      43.507  34.956  27.562  1.00  0.00     0.135 A 
ATOM    104  C   UNL A   1      43.753  35.602  29.846  1.00  0.00     0.135 A 
ATOM    105  F   UNL A   1      43.259  34.067  26.589  1.00  0.00    -0.206 F 
ATOM    106  C   UNL A   1      43.610  36.293  27.167  1.00  0.00     0.059 A 
ATOM    107  C   UNL A   1      43.808  36.946  29.480  1.00  0.00     0.059 A 
ATOM    108  F   UNL A   1      43.838  35.347  31.160  1.00  0.00    -0.206 F 
ATOM    109  C   UNL A   1      43.765  37.282  28.133  1.00  0.00     0.060 A 
BRANCH 109 110
ATOM    110  S   UNL A   1      43.854  39.017  27.647  1.00  0.00     0.124 S 
ATOM    111  O   UNL A   1      42.888  39.064  26.554  1.00  0.00    -0.237 OA
ATOM    112  O   UNL A   1      43.460  39.721  28.864  1.00  0.00    -0.237 OA
ATOM    113  O   UNL A   1      45.253  39.180  27.264  1.00  0.00    -0.744 OA
ENDBRANCH 109 110
ENDBRANCH  77 102
ENDBRANCH  51  52
ENDBRANCH  43  46
ENDBRANCH  41  42
ENDBRANCH  40  41
ENDBRANCH  39  40
ENDBRANCH   1  39
TORSDOF 23
ENDMDL
