MODEL 1
REMARK VINA RESULT:     -10.6      0.000      0.000
REMARK SMILES C[C@H]1CC[C@H]([N@@H+](CC(=O)NCCCCCCNC(=O)c2ccc(-c3c4nc(c(-c5c(F)cc(S(=O)(=O)[O-])cc5F)c5ccc([nH]5)c(-c5c(F)cc(S(=O)(=O)[O-])cc5F)c5nc(c(-c6c(F)cc(S(=O)(=O)[O-])cc6F)c6ccc3[nH]6)C=C5)C=C4)cc2)C(C)(C)C)C[C@@H]1C
REMARK SMILES IDX 14 1 13 2 12 3 11 4 10 5 8 6 9 7 7 9 6 10 5 12 1 13 2 14
REMARK SMILES IDX 3 15 91 16 4 17 90 18 92 19 86 20 87 21 88 22 89 23 15 24
REMARK SMILES IDX 16 25 17 26 18 27 19 29 20 30 21 31 85 32 22 33 84 34 23 35
REMARK SMILES IDX 24 36 25 37 78 38 26 39 83 40 77 41 79 42 27 43 82 44 76 45
REMARK SMILES IDX 75 46 28 48 62 49 41 50 61 51 42 52 45 53 60 54 80 55 43 56
REMARK SMILES IDX 44 57 59 59 81 60 46 61 29 62 30 63 39 64 31 65 32 66 38 67
REMARK SMILES IDX 40 68 33 69 34 70 35 71 36 72 37 73 63 74 64 75 73 76 65 77
REMARK SMILES IDX 66 78 72 79 74 80 67 81 68 82 69 83 70 84 71 85 47 86 48 87
REMARK SMILES IDX 57 88 49 89 50 90 56 91 58 92 51 93 52 94 53 95 54 96 55 97
REMARK H PARENT 10 8 6 11 17 28 79 47 45 58
REMARK Flexibility Score: inf
ROOT
ATOM      1  C   UNL A   1      32.190  27.937  25.370  1.00  0.00     0.002 C 
ENDROOT
BRANCH   1   2
ATOM      2  C   UNL A   1      30.768  27.925  24.808  1.00  0.00     0.002 C 
BRANCH   2   3
ATOM      3  C   UNL A   1      30.620  27.539  23.324  1.00  0.00     0.021 C 
BRANCH   3   4
ATOM      4  C   UNL A   1      30.929  26.076  22.957  1.00  0.00     0.116 C 
BRANCH   4   5
ATOM      5  N   UNL A   1      32.329  25.782  22.677  1.00  0.00    -0.351 N 
ATOM      6  C   UNL A   1      33.086  24.650  22.793  1.00  0.00     0.275 C 
ATOM      7  O   UNL A   1      34.174  24.665  22.210  1.00  0.00    -0.269 OA
ATOM      8  H   UNL A   1      32.832  26.557  22.336  1.00  0.00     0.163 HD
BRANCH   6   9
ATOM      9  C   UNL A   1      32.623  23.430  23.612  1.00  0.00     0.364 C 
BRANCH   9  10
ATOM     10  N   UNL A   1      33.012  23.455  25.056  1.00  0.00    -0.321 N 
ATOM     11  H   UNL A   1      33.171  24.424  25.334  1.00  0.00     0.349 HD
BRANCH  10  12
ATOM     12  C   UNL A   1      34.339  22.839  25.252  1.00  0.00     0.185 C 
ATOM     13  C   UNL A   1      38.351  21.154  25.529  1.00  0.00     0.008 C 
ATOM     14  C   UNL A   1      37.159  21.927  24.955  1.00  0.00    -0.011 C 
ATOM     15  C   UNL A   1      35.968  20.957  24.779  1.00  0.00     0.010 C 
ATOM     16  C   UNL A   1      36.759  23.114  25.852  1.00  0.00    -0.006 C 
ATOM     17  C   UNL A   1      34.672  21.650  24.331  1.00  0.00     0.065 C 
ATOM     18  C   UNL A   1      35.520  23.815  25.299  1.00  0.00     0.068 C 
ATOM     19  C   UNL A   1      37.858  24.141  26.114  1.00  0.00     0.008 C 
ENDBRANCH  10  12
BRANCH  10  20
ATOM     20  C   UNL A   1      31.936  23.351  26.082  1.00  0.00     0.090 C 
ATOM     21  C   UNL A   1      31.179  24.656  26.410  1.00  0.00     0.078 C 
ATOM     22  C   UNL A   1      30.876  22.291  25.693  1.00  0.00     0.078 C 
ATOM     23  C   UNL A   1      32.526  22.843  27.426  1.00  0.00     0.078 C 
ENDBRANCH  10  20
ENDBRANCH   9  10
ENDBRANCH   6   9
ENDBRANCH   4   5
ENDBRANCH   3   4
ENDBRANCH   2   3
ENDBRANCH   1   2
BRANCH   1  24
ATOM     24  C   UNL A   1      32.317  28.417  26.820  1.00  0.00     0.021 C 
BRANCH  24  25
ATOM     25  C   UNL A   1      33.709  28.861  27.274  1.00  0.00     0.116 C 
BRANCH  25  26
ATOM     26  N   UNL A   1      33.750  30.199  27.850  1.00  0.00    -0.352 N 
ATOM     27  C   UNL A   1      34.825  30.827  28.449  1.00  0.00     0.251 C 
ATOM     28  H   UNL A   1      32.913  30.718  27.806  1.00  0.00     0.163 HD
ATOM     29  O   UNL A   1      34.733  31.945  28.926  1.00  0.00    -0.269 OA
BRANCH  27  30
ATOM     30  C   UNL A   1      36.094  30.073  28.533  1.00  0.00     0.039 A 
ATOM     31  C   UNL A   1      36.967  30.106  27.444  1.00  0.00     0.014 A 
ATOM     32  C   UNL A   1      36.476  29.499  29.749  1.00  0.00     0.014 A 
ATOM     33  C   UNL A   1      38.274  29.646  27.607  1.00  0.00     0.010 A 
ATOM     34  C   UNL A   1      37.795  29.087  29.920  1.00  0.00     0.010 A 
ATOM     35  C   UNL A   1      38.713  29.186  28.860  1.00  0.00    -0.014 A 
BRANCH  35  36
ATOM     36  C   UNL A   1      40.145  28.870  29.098  1.00  0.00     0.031 A 
ATOM     37  C   UNL A   1      41.069  29.917  29.647  1.00  0.00     0.074 A 
ATOM     38  C   UNL A   1      40.626  27.659  28.748  1.00  0.00     0.049 A 
ATOM     39  N   UNL A   1      42.357  29.849  29.862  1.00  0.00    -0.248 NA
ATOM     40  C   UNL A   1      40.472  31.221  29.975  1.00  0.00     0.031 C 
ATOM     41  C   UNL A   1      39.838  26.574  28.155  1.00  0.00     0.029 A 
ATOM     42  N   UNL A   1      41.894  27.139  28.826  1.00  0.00    -0.354 N 
ATOM     43  C   UNL A   1      42.728  31.097  30.344  1.00  0.00     0.074 A 
ATOM     44  C   UNL A   1      41.535  31.920  30.345  1.00  0.00     0.031 C 
ATOM     45  C   UNL A   1      40.637  25.516  27.939  1.00  0.00     0.029 A 
ATOM     46  C   UNL A   1      41.997  25.853  28.346  1.00  0.00     0.049 A 
ATOM     47  H   UNL A   1      42.659  27.640  29.191  1.00  0.00     0.167 HD
ATOM     48  C   UNL A   1      43.944  31.513  30.769  1.00  0.00     0.037 A 
ATOM     49  C   UNL A   1      43.068  25.042  28.238  1.00  0.00     0.037 A 
ATOM     50  C   UNL A   1      45.122  30.686  30.786  1.00  0.00     0.049 A 
ATOM     51  C   UNL A   1      44.412  25.532  28.703  1.00  0.00     0.074 A 
ATOM     52  C   UNL A   1      46.383  30.994  31.265  1.00  0.00     0.029 A 
ATOM     53  N   UNL A   1      45.186  29.390  30.296  1.00  0.00    -0.354 N 
ATOM     54  N   UNL A   1      44.727  26.692  29.229  1.00  0.00    -0.248 NA
ATOM     55  C   UNL A   1      45.546  24.608  28.559  1.00  0.00     0.031 C 
ATOM     56  C   UNL A   1      47.220  29.898  31.028  1.00  0.00     0.029 A 
ATOM     57  C   UNL A   1      46.472  28.894  30.435  1.00  0.00     0.049 A 
ATOM     58  H   UNL A   1      44.429  28.896  29.906  1.00  0.00     0.167 HD
ATOM     59  C   UNL A   1      46.092  26.633  29.488  1.00  0.00     0.074 A 
ATOM     60  C   UNL A   1      46.539  25.317  29.080  1.00  0.00     0.031 C 
ATOM     61  C   UNL A   1      46.901  27.584  30.015  1.00  0.00     0.037 A 
BRANCH  48  62
ATOM     62  C   UNL A   1      44.057  32.930  31.259  1.00  0.00     0.058 A 
ATOM     63  C   UNL A   1      43.864  33.254  32.610  1.00  0.00     0.135 A 
ATOM     64  C   UNL A   1      44.385  33.969  30.373  1.00  0.00     0.135 A 
ATOM     65  F   UNL A   1      43.535  32.299  33.495  1.00  0.00    -0.206 F 
ATOM     66  C   UNL A   1      43.961  34.565  33.064  1.00  0.00     0.059 A 
ATOM     67  C   UNL A   1      44.511  35.285  30.810  1.00  0.00     0.059 A 
ATOM     68  F   UNL A   1      44.578  33.712  29.071  1.00  0.00    -0.206 F 
ATOM     69  C   UNL A   1      44.282  35.575  32.154  1.00  0.00     0.060 A 
BRANCH  69  70
ATOM     70  S   UNL A   1      44.400  37.271  32.758  1.00  0.00     0.124 S 
ATOM     71  O   UNL A   1      44.411  38.024  31.507  1.00  0.00    -0.237 OA
ATOM     72  O   UNL A   1      43.191  37.403  33.564  1.00  0.00    -0.237 OA
ATOM     73  O   UNL A   1      45.653  37.279  33.506  1.00  0.00    -0.744 OA
ENDBRANCH  69  70
ENDBRANCH  48  62
BRANCH  49  74
ATOM     74  C   UNL A   1      42.913  23.675  27.670  1.00  0.00     0.058 A 
ATOM     75  C   UNL A   1      43.110  23.438  26.301  1.00  0.00     0.135 A 
ATOM     76  C   UNL A   1      42.572  22.583  28.482  1.00  0.00     0.135 A 
ATOM     77  F   UNL A   1      43.429  24.453  25.485  1.00  0.00    -0.206 F 
ATOM     78  C   UNL A   1      42.965  22.167  25.754  1.00  0.00     0.059 A 
ATOM     79  C   UNL A   1      42.441  21.299  27.961  1.00  0.00     0.059 A 
ATOM     80  F   UNL A   1      42.386  22.756  29.800  1.00  0.00    -0.206 F 
ATOM     81  C   UNL A   1      42.630  21.103  26.593  1.00  0.00     0.060 A 
BRANCH  81  82
ATOM     82  S   UNL A   1      42.498  19.446  25.885  1.00  0.00     0.124 S 
ATOM     83  O   UNL A   1      43.037  18.623  26.960  1.00  0.00    -0.237 OA
ATOM     84  O   UNL A   1      41.063  19.327  25.647  1.00  0.00    -0.237 OA
ATOM     85  O   UNL A   1      43.318  19.532  24.680  1.00  0.00    -0.744 OA
ENDBRANCH  81  82
ENDBRANCH  49  74
BRANCH  61  86
ATOM     86  C   UNL A   1      48.356  27.242  30.178  1.00  0.00     0.058 A 
ATOM     87  C   UNL A   1      49.305  27.615  29.215  1.00  0.00     0.135 A 
ATOM     88  C   UNL A   1      48.812  26.591  31.335  1.00  0.00     0.135 A 
ATOM     89  F   UNL A   1      48.916  28.230  28.087  1.00  0.00    -0.206 F 
ATOM     90  C   UNL A   1      50.658  27.347  29.388  1.00  0.00     0.059 A 
ATOM     91  C   UNL A   1      50.165  26.333  31.540  1.00  0.00     0.059 A 
ATOM     92  F   UNL A   1      47.945  26.220  32.290  1.00  0.00    -0.206 F 
ATOM     93  C   UNL A   1      51.079  26.708  30.557  1.00  0.00     0.060 A 
BRANCH  93  94
ATOM     94  S   UNL A   1      52.844  26.411  30.792  1.00  0.00     0.124 S 
ATOM     95  O   UNL A   1      53.269  27.649  31.435  1.00  0.00    -0.237 OA
ATOM     96  O   UNL A   1      52.852  25.222  31.640  1.00  0.00    -0.237 OA
ATOM     97  O   UNL A   1      53.338  26.207  29.433  1.00  0.00    -0.744 OA
ENDBRANCH  93  94
ENDBRANCH  61  86
ENDBRANCH  35  36
ENDBRANCH  27  30
ENDBRANCH  25  26
ENDBRANCH  24  25
ENDBRANCH   1  24
TORSDOF 19
ENDMDL
MODEL 2
REMARK VINA RESULT:     -10.5      1.291      2.471
REMARK SMILES C[C@H]1CC[C@H]([N@@H+](CC(=O)NCCCCCCNC(=O)c2ccc(-c3c4nc(c(-c5c(F)cc(S(=O)(=O)[O-])cc5F)c5ccc([nH]5)c(-c5c(F)cc(S(=O)(=O)[O-])cc5F)c5nc(c(-c6c(F)cc(S(=O)(=O)[O-])cc6F)c6ccc3[nH]6)C=C5)C=C4)cc2)C(C)(C)C)C[C@@H]1C
REMARK SMILES IDX 14 1 13 2 12 3 11 4 10 5 8 6 9 7 7 9 6 10 5 12 1 13 2 14
REMARK SMILES IDX 3 15 91 16 4 17 90 18 92 19 86 20 87 21 88 22 89 23 15 24
REMARK SMILES IDX 16 25 17 26 18 27 19 29 20 30 21 31 85 32 22 33 84 34 23 35
REMARK SMILES IDX 24 36 25 37 78 38 26 39 83 40 77 41 79 42 27 43 82 44 76 45
REMARK SMILES IDX 75 46 28 48 62 49 41 50 61 51 42 52 45 53 60 54 80 55 43 56
REMARK SMILES IDX 44 57 59 59 81 60 46 61 29 62 30 63 39 64 31 65 32 66 38 67
REMARK SMILES IDX 40 68 33 69 34 70 35 71 36 72 37 73 63 74 64 75 73 76 65 77
REMARK SMILES IDX 66 78 72 79 74 80 67 81 68 82 69 83 70 84 71 85 47 86 48 87
REMARK SMILES IDX 57 88 49 89 50 90 56 91 58 92 51 93 52 94 53 95 54 96 55 97
REMARK H PARENT 10 8 6 11 17 28 79 47 45 58
REMARK Flexibility Score: inf
ROOT
ATOM      1  C   UNL A   1      31.955  29.511  25.236  1.00  0.00     0.002 C 
ENDROOT
BRANCH   1   2
ATOM      2  C   UNL A   1      31.039  28.427  24.669  1.00  0.00     0.002 C 
BRANCH   2   3
ATOM      3  C   UNL A   1      30.869  27.157  25.523  1.00  0.00     0.021 C 
BRANCH   3   4
ATOM      4  C   UNL A   1      30.166  25.962  24.852  1.00  0.00     0.116 C 
BRANCH   4   5
ATOM      5  N   UNL A   1      29.884  24.829  25.725  1.00  0.00    -0.351 N 
ATOM      6  C   UNL A   1      30.682  24.002  26.465  1.00  0.00     0.275 C 
ATOM      7  O   UNL A   1      30.105  23.313  27.313  1.00  0.00    -0.269 OA
ATOM      8  H   UNL A   1      28.925  24.618  25.795  1.00  0.00     0.163 HD
BRANCH   6   9
ATOM      9  C   UNL A   1      32.204  23.914  26.250  1.00  0.00     0.364 C 
BRANCH   9  10
ATOM     10  N   UNL A   1      32.634  23.784  24.823  1.00  0.00    -0.321 N 
ATOM     11  H   UNL A   1      32.013  24.348  24.243  1.00  0.00     0.349 HD
BRANCH  10  12
ATOM     12  C   UNL A   1      32.388  22.416  24.326  1.00  0.00     0.185 C 
ATOM     13  C   UNL A   1      32.000  18.345  22.811  1.00  0.00     0.008 C 
ATOM     14  C   UNL A   1      32.667  19.658  23.234  1.00  0.00    -0.011 C 
ATOM     15  C   UNL A   1      32.087  20.814  22.386  1.00  0.00     0.010 C 
ATOM     16  C   UNL A   1      32.473  19.942  24.736  1.00  0.00    -0.006 C 
ATOM     17  C   UNL A   1      32.589  22.201  22.814  1.00  0.00     0.065 C 
ATOM     18  C   UNL A   1      33.076  21.294  25.113  1.00  0.00     0.068 C 
ATOM     19  C   UNL A   1      32.994  18.864  25.684  1.00  0.00     0.008 C 
ENDBRANCH  10  12
BRANCH  10  20
ATOM     20  C   UNL A   1      33.790  24.597  24.353  1.00  0.00     0.090 C 
ATOM     21  C   UNL A   1      35.032  23.808  23.886  1.00  0.00     0.078 C 
ATOM     22  C   UNL A   1      33.389  25.547  23.197  1.00  0.00     0.078 C 
ATOM     23  C   UNL A   1      34.277  25.541  25.487  1.00  0.00     0.078 C 
ENDBRANCH  10  20
ENDBRANCH   9  10
ENDBRANCH   6   9
ENDBRANCH   4   5
ENDBRANCH   3   4
ENDBRANCH   2   3
ENDBRANCH   1   2
BRANCH   1  24
ATOM     24  C   UNL A   1      33.334  29.028  25.698  1.00  0.00     0.021 C 
BRANCH  24  25
ATOM     25  C   UNL A   1      33.575  28.989  27.208  1.00  0.00     0.116 C 
BRANCH  25  26
ATOM     26  N   UNL A   1      33.566  30.299  27.848  1.00  0.00    -0.352 N 
ATOM     27  C   UNL A   1      34.603  30.915  28.522  1.00  0.00     0.251 C 
ATOM     28  H   UNL A   1      32.723  30.805  27.792  1.00  0.00     0.163 HD
ATOM     29  O   UNL A   1      34.470  32.007  29.047  1.00  0.00    -0.269 OA
BRANCH  27  30
ATOM     30  C   UNL A   1      35.880  30.179  28.626  1.00  0.00     0.039 A 
ATOM     31  C   UNL A   1      36.745  30.178  27.529  1.00  0.00     0.014 A 
ATOM     32  C   UNL A   1      36.279  29.657  29.860  1.00  0.00     0.014 A 
ATOM     33  C   UNL A   1      38.058  29.738  27.699  1.00  0.00     0.010 A 
ATOM     34  C   UNL A   1      37.603  29.267  30.037  1.00  0.00     0.010 A 
ATOM     35  C   UNL A   1      38.512  29.333  28.966  1.00  0.00    -0.014 A 
BRANCH  35  36
ATOM     36  C   UNL A   1      39.949  29.043  29.205  1.00  0.00     0.031 A 
ATOM     37  C   UNL A   1      40.851  30.101  29.771  1.00  0.00     0.074 A 
ATOM     38  C   UNL A   1      40.455  27.847  28.841  1.00  0.00     0.049 A 
ATOM     39  N   UNL A   1      42.139  30.055  29.990  1.00  0.00    -0.248 NA
ATOM     40  C   UNL A   1      40.227  31.388  30.114  1.00  0.00     0.031 C 
ATOM     41  C   UNL A   1      39.691  26.754  28.231  1.00  0.00     0.029 A 
ATOM     42  N   UNL A   1      41.733  27.350  28.916  1.00  0.00    -0.354 N 
ATOM     43  C   UNL A   1      42.483  31.304  30.489  1.00  0.00     0.074 A 
ATOM     44  C   UNL A   1      41.275  32.102  30.497  1.00  0.00     0.031 C 
ATOM     45  C   UNL A   1      40.510  25.715  28.004  1.00  0.00     0.029 A 
ATOM     46  C   UNL A   1      41.863  26.073  28.420  1.00  0.00     0.049 A 
ATOM     47  H   UNL A   1      42.486  27.861  29.291  1.00  0.00     0.167 HD
ATOM     48  C   UNL A   1      43.690  31.738  30.923  1.00  0.00     0.037 A 
ATOM     49  C   UNL A   1      42.950  25.284  28.305  1.00  0.00     0.037 A 
ATOM     50  C   UNL A   1      44.884  30.934  30.933  1.00  0.00     0.049 A 
ATOM     51  C   UNL A   1      44.282  25.795  28.781  1.00  0.00     0.074 A 
ATOM     52  C   UNL A   1      46.136  31.261  31.421  1.00  0.00     0.029 A 
ATOM     53  N   UNL A   1      44.975  29.646  30.427  1.00  0.00    -0.354 N 
ATOM     54  N   UNL A   1      44.573  26.953  29.323  1.00  0.00    -0.248 NA
ATOM     55  C   UNL A   1      45.434  24.896  28.628  1.00  0.00     0.031 C 
ATOM     56  C   UNL A   1      46.996  30.185  31.173  1.00  0.00     0.029 A 
ATOM     57  C   UNL A   1      46.270  29.174  30.563  1.00  0.00     0.049 A 
ATOM     58  H   UNL A   1      44.229  29.143  30.028  1.00  0.00     0.167 HD
ATOM     59  C   UNL A   1      45.937  26.918  29.586  1.00  0.00     0.074 A 
ATOM     60  C   UNL A   1      46.412  25.617  29.162  1.00  0.00     0.031 C 
ATOM     61  C   UNL A   1      46.727  27.878  30.128  1.00  0.00     0.037 A 
BRANCH  48  62
ATOM     62  C   UNL A   1      43.774  33.150  31.432  1.00  0.00     0.058 A 
ATOM     63  C   UNL A   1      43.637  33.445  32.797  1.00  0.00     0.135 A 
ATOM     64  C   UNL A   1      44.015  34.215  30.550  1.00  0.00     0.135 A 
ATOM     65  F   UNL A   1      43.391  32.463  33.680  1.00  0.00    -0.206 F 
ATOM     66  C   UNL A   1      43.707  34.751  33.269  1.00  0.00     0.059 A 
ATOM     67  C   UNL A   1      44.113  35.528  31.003  1.00  0.00     0.059 A 
ATOM     68  F   UNL A   1      44.151  33.987  29.235  1.00  0.00    -0.206 F 
ATOM     69  C   UNL A   1      43.942  35.787  32.363  1.00  0.00     0.060 A 
BRANCH  69  70
ATOM     70  S   UNL A   1      44.026  37.477  32.989  1.00  0.00     0.124 S 
ATOM     71  O   UNL A   1      45.340  37.486  33.626  1.00  0.00    -0.237 OA
ATOM     72  O   UNL A   1      43.909  38.270  31.770  1.00  0.00    -0.237 OA
ATOM     73  O   UNL A   1      42.887  37.560  33.898  1.00  0.00    -0.744 OA
ENDBRANCH  69  70
ENDBRANCH  48  62
BRANCH  49  74
ATOM     74  C   UNL A   1      42.823  23.923  27.719  1.00  0.00     0.058 A 
ATOM     75  C   UNL A   1      42.631  22.801  28.539  1.00  0.00     0.135 A 
ATOM     76  C   UNL A   1      42.886  23.717  26.332  1.00  0.00     0.135 A 
ATOM     77  F   UNL A   1      42.573  22.947  29.871  1.00  0.00    -0.206 F 
ATOM     78  C   UNL A   1      42.515  21.521  28.008  1.00  0.00     0.059 A 
ATOM     79  C   UNL A   1      42.753  22.449  25.775  1.00  0.00     0.059 A 
ATOM     80  F   UNL A   1      43.056  24.759  25.504  1.00  0.00    -0.206 F 
ATOM     81  C   UNL A   1      42.577  21.355  26.622  1.00  0.00     0.060 A 
BRANCH  81  82
ATOM     82  S   UNL A   1      42.371  19.697  25.936  1.00  0.00     0.124 S 
ATOM     83  O   UNL A   1      40.975  19.724  25.516  1.00  0.00    -0.237 OA
ATOM     84  O   UNL A   1      43.361  19.682  24.863  1.00  0.00    -0.237 OA
ATOM     85  O   UNL A   1      42.676  18.827  27.069  1.00  0.00    -0.744 OA
ENDBRANCH  81  82
ENDBRANCH  49  74
BRANCH  61  86
ATOM     86  C   UNL A   1      48.187  27.562  30.292  1.00  0.00     0.058 A 
ATOM     87  C   UNL A   1      48.675  26.959  31.460  1.00  0.00     0.135 A 
ATOM     88  C   UNL A   1      49.093  27.808  29.249  1.00  0.00     0.135 A 
ATOM     89  F   UNL A   1      47.850  26.712  32.489  1.00  0.00    -0.206 F 
ATOM     90  C   UNL A   1      50.016  26.617  31.593  1.00  0.00     0.059 A 
ATOM     91  C   UNL A   1      50.436  27.454  29.351  1.00  0.00     0.059 A 
ATOM     92  F   UNL A   1      48.674  28.378  28.108  1.00  0.00    -0.206 F 
ATOM     93  C   UNL A   1      50.889  26.865  30.531  1.00  0.00     0.060 A 
BRANCH  93  94
ATOM     94  S   UNL A   1      52.617  26.371  30.697  1.00  0.00     0.124 S 
ATOM     95  O   UNL A   1      53.210  27.566  31.289  1.00  0.00    -0.237 OA
ATOM     96  O   UNL A   1      52.528  25.208  31.574  1.00  0.00    -0.237 OA
ATOM     97  O   UNL A   1      53.022  26.084  29.324  1.00  0.00    -0.744 OA
ENDBRANCH  93  94
ENDBRANCH  61  86
ENDBRANCH  35  36
ENDBRANCH  27  30
ENDBRANCH  25  26
ENDBRANCH  24  25
ENDBRANCH   1  24
TORSDOF 19
ENDMDL
MODEL 3
REMARK VINA RESULT:     -10.5      2.951      9.401
REMARK SMILES C[C@H]1CC[C@H]([N@@H+](CC(=O)NCCCCCCNC(=O)c2ccc(-c3c4nc(c(-c5c(F)cc(S(=O)(=O)[O-])cc5F)c5ccc([nH]5)c(-c5c(F)cc(S(=O)(=O)[O-])cc5F)c5nc(c(-c6c(F)cc(S(=O)(=O)[O-])cc6F)c6ccc3[nH]6)C=C5)C=C4)cc2)C(C)(C)C)C[C@@H]1C
REMARK SMILES IDX 14 1 13 2 12 3 11 4 10 5 8 6 9 7 7 9 6 10 5 12 1 13 2 14
REMARK SMILES IDX 3 15 91 16 4 17 90 18 92 19 86 20 87 21 88 22 89 23 15 24
REMARK SMILES IDX 16 25 17 26 18 27 19 29 20 30 21 31 85 32 22 33 84 34 23 35
REMARK SMILES IDX 24 36 25 37 78 38 26 39 83 40 77 41 79 42 27 43 82 44 76 45
REMARK SMILES IDX 75 46 28 48 62 49 41 50 61 51 42 52 45 53 60 54 80 55 43 56
REMARK SMILES IDX 44 57 59 59 81 60 46 61 29 62 30 63 39 64 31 65 32 66 38 67
REMARK SMILES IDX 40 68 33 69 34 70 35 71 36 72 37 73 63 74 64 75 73 76 65 77
REMARK SMILES IDX 66 78 72 79 74 80 67 81 68 82 69 83 70 84 71 85 47 86 48 87
REMARK SMILES IDX 57 88 49 89 50 90 56 91 58 92 51 93 52 94 53 95 54 96 55 97
REMARK H PARENT 10 8 6 11 17 28 79 47 45 58
REMARK Flexibility Score: inf
ROOT
ATOM      1  C   UNL A   1      35.568  22.531  23.619  1.00  0.00     0.002 C 
ENDROOT
BRANCH   1   2
ATOM      2  C   UNL A   1      34.339  23.176  22.979  1.00  0.00     0.002 C 
BRANCH   2   3
ATOM      3  C   UNL A   1      34.092  24.660  23.310  1.00  0.00     0.021 C 
BRANCH   3   4
ATOM      4  C   UNL A   1      33.298  25.476  22.272  1.00  0.00     0.116 C 
BRANCH   4   5
ATOM      5  N   UNL A   1      33.616  26.897  22.217  1.00  0.00    -0.351 N 
ATOM      6  C   UNL A   1      33.240  27.967  22.980  1.00  0.00     0.275 C 
ATOM      7  O   UNL A   1      33.907  28.996  22.834  1.00  0.00    -0.269 OA
ATOM      8  H   UNL A   1      34.226  27.134  21.481  1.00  0.00     0.163 HD
BRANCH   6   9
ATOM      9  C   UNL A   1      32.047  27.907  23.952  1.00  0.00     0.364 C 
BRANCH   9  10
ATOM     10  N   UNL A   1      32.410  27.654  25.381  1.00  0.00    -0.321 N 
ATOM     11  H   UNL A   1      33.398  27.404  25.427  1.00  0.00     0.349 HD
BRANCH  10  12
ATOM     12  C   UNL A   1      31.743  26.437  25.882  1.00  0.00     0.185 C 
ATOM     13  C   UNL A   1      29.847  22.691  27.062  1.00  0.00     0.008 C 
ATOM     14  C   UNL A   1      30.592  23.706  26.189  1.00  0.00    -0.011 C 
ATOM     15  C   UNL A   1      29.695  24.948  25.982  1.00  0.00     0.010 C 
ATOM     16  C   UNL A   1      31.943  24.114  26.809  1.00  0.00    -0.006 C 
ATOM     17  C   UNL A   1      30.392  26.091  25.228  1.00  0.00     0.065 C 
ATOM     18  C   UNL A   1      32.625  25.185  25.961  1.00  0.00     0.068 C 
ATOM     19  C   UNL A   1      32.918  22.970  27.076  1.00  0.00     0.008 C 
ENDBRANCH  10  12
BRANCH  10  20
ATOM     20  C   UNL A   1      32.679  28.825  26.263  1.00  0.00     0.090 C 
ATOM     21  C   UNL A   1      32.195  30.195  25.742  1.00  0.00     0.078 C 
ATOM     22  C   UNL A   1      32.070  28.629  27.674  1.00  0.00     0.078 C 
ATOM     23  C   UNL A   1      34.205  28.970  26.511  1.00  0.00     0.078 C 
ENDBRANCH  10  20
ENDBRANCH   9  10
ENDBRANCH   6   9
ENDBRANCH   4   5
ENDBRANCH   3   4
ENDBRANCH   2   3
ENDBRANCH   1   2
BRANCH   1  24
ATOM     24  C   UNL A   1      36.657  23.508  24.078  1.00  0.00     0.021 C 
BRANCH  24  25
ATOM     25  C   UNL A   1      37.147  23.357  25.520  1.00  0.00     0.116 C 
BRANCH  25  26
ATOM     26  N   UNL A   1      38.391  22.609  25.651  1.00  0.00    -0.352 N 
ATOM     27  C   UNL A   1      39.557  23.013  26.274  1.00  0.00     0.251 C 
ATOM     28  H   UNL A   1      38.402  21.709  25.250  1.00  0.00     0.163 HD
ATOM     29  O   UNL A   1      40.552  22.308  26.295  1.00  0.00    -0.269 OA
BRANCH  27  30
ATOM     30  C   UNL A   1      39.572  24.359  26.883  1.00  0.00     0.039 A 
ATOM     31  C   UNL A   1      39.061  24.518  28.172  1.00  0.00     0.014 A 
ATOM     32  C   UNL A   1      40.251  25.399  26.241  1.00  0.00     0.014 A 
ATOM     33  C   UNL A   1      39.321  25.701  28.865  1.00  0.00     0.010 A 
ATOM     34  C   UNL A   1      40.550  26.557  26.955  1.00  0.00     0.010 A 
ATOM     35  C   UNL A   1      40.114  26.705  28.283  1.00  0.00    -0.014 A 
BRANCH  35  36
ATOM     36  C   UNL A   1      40.555  27.883  29.073  1.00  0.00     0.031 A 
ATOM     37  C   UNL A   1      41.888  27.875  29.763  1.00  0.00     0.074 A 
ATOM     38  C   UNL A   1      39.719  28.930  29.228  1.00  0.00     0.049 A 
ATOM     39  N   UNL A   1      42.417  28.781  30.545  1.00  0.00    -0.248 NA
ATOM     40  C   UNL A   1      42.727  26.683  29.568  1.00  0.00     0.031 C 
ATOM     41  C   UNL A   1      38.375  29.034  28.650  1.00  0.00     0.029 A 
ATOM     42  N   UNL A   1      39.867  30.103  29.926  1.00  0.00    -0.354 N 
ATOM     43  C   UNL A   1      43.645  28.268  30.940  1.00  0.00     0.074 A 
ATOM     44  C   UNL A   1      43.763  26.951  30.350  1.00  0.00     0.031 C 
ATOM     45  C   UNL A   1      37.832  30.210  29.005  1.00  0.00     0.029 A 
ATOM     46  C   UNL A   1      38.770  30.931  29.860  1.00  0.00     0.049 A 
ATOM     47  H   UNL A   1      40.682  30.330  30.428  1.00  0.00     0.167 HD
ATOM     48  C   UNL A   1      44.597  28.851  31.706  1.00  0.00     0.037 A 
ATOM     49  C   UNL A   1      38.542  32.131  30.430  1.00  0.00     0.037 A 
ATOM     50  C   UNL A   1      44.485  30.169  32.274  1.00  0.00     0.049 A 
ATOM     51  C   UNL A   1      39.610  32.751  31.288  1.00  0.00     0.074 A 
ATOM     52  C   UNL A   1      45.426  30.875  33.003  1.00  0.00     0.029 A 
ATOM     53  N   UNL A   1      43.362  30.977  32.182  1.00  0.00    -0.354 N 
ATOM     54  N   UNL A   1      40.798  32.284  31.588  1.00  0.00    -0.248 NA
ATOM     55  C   UNL A   1      39.307  34.058  31.889  1.00  0.00     0.031 C 
ATOM     56  C   UNL A   1      44.856  32.094  33.386  1.00  0.00     0.029 A 
ATOM     57  C   UNL A   1      43.574  32.163  32.865  1.00  0.00     0.049 A 
ATOM     58  H   UNL A   1      42.535  30.742  31.702  1.00  0.00     0.167 HD
ATOM     59  C   UNL A   1      41.389  33.244  32.403  1.00  0.00     0.074 A 
ATOM     60  C   UNL A   1      40.436  34.327  32.533  1.00  0.00     0.031 C 
ATOM     61  C   UNL A   1      42.610  33.228  32.991  1.00  0.00     0.037 A 
BRANCH  48  62
ATOM     62  C   UNL A   1      45.851  28.064  31.967  1.00  0.00     0.058 A 
ATOM     63  C   UNL A   1      46.952  28.131  31.099  1.00  0.00     0.135 A 
ATOM     64  C   UNL A   1      45.962  27.253  33.108  1.00  0.00     0.135 A 
ATOM     65  F   UNL A   1      46.890  28.882  29.987  1.00  0.00    -0.206 F 
ATOM     66  C   UNL A   1      48.109  27.398  31.335  1.00  0.00     0.059 A 
ATOM     67  C   UNL A   1      47.121  26.529  33.376  1.00  0.00     0.059 A 
ATOM     68  F   UNL A   1      44.938  27.152  33.969  1.00  0.00    -0.206 F 
ATOM     69  C   UNL A   1      48.183  26.597  32.476  1.00  0.00     0.060 A 
BRANCH  69  70
ATOM     70  S   UNL A   1      49.690  25.648  32.766  1.00  0.00     0.124 S 
ATOM     71  O   UNL A   1      49.191  24.558  33.599  1.00  0.00    -0.237 OA
ATOM     72  O   UNL A   1      50.093  25.277  31.413  1.00  0.00    -0.237 OA
ATOM     73  O   UNL A   1      50.567  26.601  33.438  1.00  0.00    -0.744 OA
ENDBRANCH  69  70
ENDBRANCH  48  62
BRANCH  49  74
ATOM     74  C   UNL A   1      37.249  32.830  30.202  1.00  0.00     0.058 A 
ATOM     75  C   UNL A   1      36.157  32.624  31.059  1.00  0.00     0.135 A 
ATOM     76  C   UNL A   1      37.080  33.721  29.131  1.00  0.00     0.135 A 
ATOM     77  F   UNL A   1      36.269  31.775  32.092  1.00  0.00    -0.206 F 
ATOM     78  C   UNL A   1      34.941  33.266  30.859  1.00  0.00     0.059 A 
ATOM     79  C   UNL A   1      35.879  34.391  28.920  1.00  0.00     0.059 A 
ATOM     80  F   UNL A   1      38.098  33.962  28.290  1.00  0.00    -0.206 F 
ATOM     81  C   UNL A   1      34.811  34.150  29.785  1.00  0.00     0.060 A 
BRANCH  81  82
ATOM     82  S   UNL A   1      33.245  35.023  29.562  1.00  0.00     0.124 S 
ATOM     83  O   UNL A   1      33.690  36.275  28.963  1.00  0.00    -0.237 OA
ATOM     84  O   UNL A   1      32.511  34.119  28.683  1.00  0.00    -0.237 OA
ATOM     85  O   UNL A   1      32.722  35.122  30.922  1.00  0.00    -0.744 OA
ENDBRANCH  81  82
ENDBRANCH  49  74
BRANCH  61  86
ATOM     86  C   UNL A   1      42.988  34.414  33.833  1.00  0.00     0.058 A 
ATOM     87  C   UNL A   1      42.724  34.444  35.210  1.00  0.00     0.135 A 
ATOM     88  C   UNL A   1      43.675  35.501  33.271  1.00  0.00     0.135 A 
ATOM     89  F   UNL A   1      42.060  33.433  35.793  1.00  0.00    -0.206 F 
ATOM     90  C   UNL A   1      43.119  35.516  36.002  1.00  0.00     0.059 A 
ATOM     91  C   UNL A   1      44.101  36.575  34.048  1.00  0.00     0.059 A 
ATOM     92  F   UNL A   1      43.959  35.517  31.959  1.00  0.00    -0.206 F 
ATOM     93  C   UNL A   1      43.811  36.576  35.411  1.00  0.00     0.060 A 
BRANCH  93  94
ATOM     94  S   UNL A   1      44.364  37.939  36.459  1.00  0.00     0.124 S 
ATOM     95  O   UNL A   1      43.491  37.792  37.618  1.00  0.00    -0.237 OA
ATOM     96  O   UNL A   1      45.770  37.616  36.679  1.00  0.00    -0.237 OA
ATOM     97  O   UNL A   1      44.120  39.120  35.634  1.00  0.00    -0.744 OA
ENDBRANCH  93  94
ENDBRANCH  61  86
ENDBRANCH  35  36
ENDBRANCH  27  30
ENDBRANCH  25  26
ENDBRANCH  24  25
ENDBRANCH   1  24
TORSDOF 19
ENDMDL
