MODEL 1
REMARK VINA RESULT:     -10.1      0.000      0.000
REMARK SMILES CC(C)(C[NH2+]C[C@](C)(O)CO)C(=O)NCCCCCCNC(=O)c1ccc(-c2c3nc(c(-c4c(F)cc(S(=O)(=O)[O-])cc4F)c4ccc([nH]4)c(-c4c(F)cc(S(=O)(=O)[O-])cc4F)c4nc(c(-c5c(F)cc(S(=O)(=O)[O-])cc5F)c5ccc2[nH]5)C=C4)C=C3)cc1
REMARK SMILES IDX 16 1 15 2 14 3 12 4 13 5 2 7 1 8 3 9 4 10 5 11 6 14 7 15
REMARK SMILES IDX 8 16 9 17 10 19 11 20 17 22 18 23 19 24 20 25 21 26 22 27
REMARK SMILES IDX 23 29 24 30 25 31 89 32 26 33 88 34 27 35 28 36 29 37 82 38
REMARK SMILES IDX 30 39 87 40 81 41 83 42 31 43 86 44 80 45 79 46 32 48 66 49
REMARK SMILES IDX 45 50 65 51 46 52 49 53 64 54 84 55 47 56 48 57 63 59 85 60
REMARK SMILES IDX 50 61 33 62 34 63 43 64 35 65 36 66 42 67 44 68 37 69 38 70
REMARK SMILES IDX 39 71 40 72 41 73 67 74 68 75 77 76 69 77 70 78 76 79 78 80
REMARK SMILES IDX 71 81 72 82 73 83 74 84 75 85 51 86 52 87 61 88 53 89 54 90
REMARK SMILES IDX 60 91 62 92 55 93 56 94 57 95 58 96 59 97
REMARK H PARENT 14 6 5 12 5 13 9 18 11 21 21 28 83 47 49 58
REMARK Flexibility Score: inf
ROOT
ATOM      1  C   UNL A   1      36.262  23.797  25.342  1.00  0.00     0.021 C 
ENDROOT
BRANCH   1   2
ATOM      2  C   UNL A   1      35.049  23.298  26.124  1.00  0.00     0.116 C 
BRANCH   2   3
ATOM      3  N   UNL A   1      33.941  24.227  26.031  1.00  0.00    -0.355 N 
ATOM      4  C   UNL A   1      32.833  24.259  25.247  1.00  0.00     0.231 C 
ATOM      5  O   UNL A   1      32.096  25.240  25.402  1.00  0.00    -0.274 OA
ATOM      6  H   UNL A   1      34.005  24.982  26.659  1.00  0.00     0.163 HD
BRANCH   4   7
ATOM      7  C   UNL A   1      32.453  23.122  24.276  1.00  0.00     0.092 C 
ATOM      8  C   UNL A   1      33.453  23.143  23.090  1.00  0.00     0.027 C 
ATOM      9  C   UNL A   1      31.063  23.410  23.673  1.00  0.00     0.027 C 
BRANCH   7  10
ATOM     10  C   UNL A   1      32.480  21.711  24.920  1.00  0.00     0.277 C 
BRANCH  10  11
ATOM     11  N   UNL A   1      32.620  20.615  23.962  1.00  0.00    -0.343 N 
ATOM     12  H   UNL A   1      33.212  20.935  23.195  1.00  0.00     0.346 HD
ATOM     13  H   UNL A   1      31.677  20.370  23.658  1.00  0.00     0.346 HD
BRANCH  11  14
ATOM     14  C   UNL A   1      33.213  19.392  24.523  1.00  0.00     0.298 C 
BRANCH  14  15
ATOM     15  C   UNL A   1      32.819  18.026  23.889  1.00  0.00     0.133 C 
ATOM     16  C   UNL A   1      32.304  18.177  22.452  1.00  0.00     0.051 C 
BRANCH  15  17
ATOM     17  O   UNL A   1      31.808  17.372  24.680  1.00  0.00    -0.382 OA
ATOM     18  H   UNL A   1      31.338  16.725  24.132  1.00  0.00     0.211 HD
ENDBRANCH  15  17
BRANCH  15  19
ATOM     19  C   UNL A   1      34.047  17.090  23.925  1.00  0.00     0.196 C 
BRANCH  19  20
ATOM     20  O   UNL A   1      35.075  17.663  24.735  1.00  0.00    -0.393 OA
ATOM     21  H   UNL A   1      35.495  18.395  24.257  1.00  0.00     0.210 HD
ENDBRANCH  19  20
ENDBRANCH  15  19
ENDBRANCH  14  15
ENDBRANCH  11  14
ENDBRANCH  10  11
ENDBRANCH   7  10
ENDBRANCH   4   7
ENDBRANCH   2   3
ENDBRANCH   1   2
BRANCH   1  22
ATOM     22  C   UNL A   1      37.602  23.569  26.052  1.00  0.00     0.002 C 
BRANCH  22  23
ATOM     23  C   UNL A   1      38.272  22.220  25.766  1.00  0.00     0.002 C 
BRANCH  23  24
ATOM     24  C   UNL A   1      39.649  22.027  26.409  1.00  0.00     0.021 C 
BRANCH  24  25
ATOM     25  C   UNL A   1      40.284  23.303  26.947  1.00  0.00     0.116 C 
BRANCH  25  26
ATOM     26  N   UNL A   1      41.200  23.900  25.991  1.00  0.00    -0.352 N 
ATOM     27  C   UNL A   1      41.699  25.175  25.953  1.00  0.00     0.251 C 
ATOM     28  H   UNL A   1      41.504  23.306  25.267  1.00  0.00     0.163 HD
ATOM     29  O   UNL A   1      42.302  25.566  24.951  1.00  0.00    -0.269 OA
BRANCH  27  30
ATOM     30  C   UNL A   1      41.504  26.086  27.102  1.00  0.00     0.039 A 
ATOM     31  C   UNL A   1      40.489  25.809  28.023  1.00  0.00     0.014 A 
ATOM     32  C   UNL A   1      42.297  27.227  27.257  1.00  0.00     0.014 A 
ATOM     33  C   UNL A   1      40.293  26.657  29.114  1.00  0.00     0.010 A 
ATOM     34  C   UNL A   1      42.149  28.029  28.384  1.00  0.00     0.010 A 
ATOM     35  C   UNL A   1      41.132  27.765  29.314  1.00  0.00    -0.014 A 
BRANCH  35  36
ATOM     36  C   UNL A   1      40.929  28.687  30.461  1.00  0.00     0.031 A 
ATOM     37  C   UNL A   1      41.797  28.559  31.686  1.00  0.00     0.074 A 
ATOM     38  C   UNL A   1      39.944  29.605  30.419  1.00  0.00     0.049 A 
ATOM     39  N   UNL A   1      41.738  29.220  32.813  1.00  0.00    -0.248 NA
ATOM     40  C   UNL A   1      42.853  27.534  31.649  1.00  0.00     0.031 C 
ATOM     41  C   UNL A   1      39.014  29.800  29.305  1.00  0.00     0.029 A 
ATOM     42  N   UNL A   1      39.556  30.544  31.342  1.00  0.00    -0.354 N 
ATOM     43  C   UNL A   1      42.737  28.685  33.618  1.00  0.00     0.074 A 
ATOM     44  C   UNL A   1      43.346  27.605  32.875  1.00  0.00     0.031 C 
ATOM     45  C   UNL A   1      38.181  30.813  29.599  1.00  0.00     0.029 A 
ATOM     46  C   UNL A   1      38.492  31.314  30.933  1.00  0.00     0.049 A 
ATOM     47  H   UNL A   1      39.998  30.655  32.215  1.00  0.00     0.167 HD
ATOM     48  C   UNL A   1      43.132  29.077  34.853  1.00  0.00     0.037 A 
ATOM     49  C   UNL A   1      37.841  32.310  31.567  1.00  0.00     0.037 A 
ATOM     50  C   UNL A   1      42.541  30.173  35.577  1.00  0.00     0.049 A 
ATOM     51  C   UNL A   1      38.297  32.726  32.940  1.00  0.00     0.074 A 
ATOM     52  C   UNL A   1      42.890  30.673  36.819  1.00  0.00     0.029 A 
ATOM     53  N   UNL A   1      41.483  30.944  35.118  1.00  0.00    -0.354 N 
ATOM     54  N   UNL A   1      39.272  32.235  33.670  1.00  0.00    -0.248 NA
ATOM     55  C   UNL A   1      37.574  33.838  33.573  1.00  0.00     0.031 C 
ATOM     56  C   UNL A   1      42.021  31.724  37.127  1.00  0.00     0.029 A 
ATOM     57  C   UNL A   1      41.162  31.911  36.055  1.00  0.00     0.049 A 
ATOM     58  H   UNL A   1      41.028  30.822  34.253  1.00  0.00     0.167 HD
ATOM     59  C   UNL A   1      39.304  33.005  34.828  1.00  0.00     0.074 A 
ATOM     60  C   UNL A   1      38.255  33.996  34.699  1.00  0.00     0.031 C 
ATOM     61  C   UNL A   1      40.129  32.904  35.899  1.00  0.00     0.037 A 
BRANCH  48  62
ATOM     62  C   UNL A   1      44.266  28.324  35.495  1.00  0.00     0.058 A 
ATOM     63  C   UNL A   1      44.036  27.203  36.310  1.00  0.00     0.135 A 
ATOM     64  C   UNL A   1      45.599  28.703  35.268  1.00  0.00     0.135 A 
ATOM     65  F   UNL A   1      42.781  26.806  36.576  1.00  0.00    -0.206 F 
ATOM     66  C   UNL A   1      45.084  26.503  36.899  1.00  0.00     0.059 A 
ATOM     67  C   UNL A   1      46.665  28.000  35.823  1.00  0.00     0.059 A 
ATOM     68  F   UNL A   1      45.877  29.768  34.499  1.00  0.00    -0.206 F 
ATOM     69  C   UNL A   1      46.395  26.908  36.648  1.00  0.00     0.060 A 
BRANCH  69  70
ATOM     70  S   UNL A   1      47.744  25.982  37.411  1.00  0.00     0.124 S 
ATOM     71  O   UNL A   1      47.449  26.156  38.831  1.00  0.00    -0.237 OA
ATOM     72  O   UNL A   1      47.536  24.637  36.884  1.00  0.00    -0.237 OA
ATOM     73  O   UNL A   1      48.941  26.665  36.931  1.00  0.00    -0.744 OA
ENDBRANCH  69  70
ENDBRANCH  48  62
BRANCH  49  74
ATOM     74  C   UNL A   1      36.707  33.005  30.901  1.00  0.00     0.058 A 
ATOM     75  C   UNL A   1      35.382  32.764  31.295  1.00  0.00     0.135 A 
ATOM     76  C   UNL A   1      36.921  33.915  29.853  1.00  0.00     0.135 A 
ATOM     77  F   UNL A   1      35.126  31.900  32.288  1.00  0.00    -0.206 F 
ATOM     78  C   UNL A   1      34.307  33.377  30.658  1.00  0.00     0.059 A 
ATOM     79  C   UNL A   1      35.864  34.561  29.219  1.00  0.00     0.059 A 
ATOM     80  F   UNL A   1      38.169  34.195  29.450  1.00  0.00    -0.206 F 
ATOM     81  C   UNL A   1      34.560  34.273  29.618  1.00  0.00     0.060 A 
BRANCH  81  82
ATOM     82  S   UNL A   1      33.159  35.084  28.815  1.00  0.00     0.124 S 
ATOM     83  O   UNL A   1      32.298  35.377  29.954  1.00  0.00    -0.237 OA
ATOM     84  O   UNL A   1      33.793  36.234  28.179  1.00  0.00    -0.237 OA
ATOM     85  O   UNL A   1      32.666  34.062  27.896  1.00  0.00    -0.744 OA
ENDBRANCH  81  82
ENDBRANCH  49  74
BRANCH  61  86
ATOM     86  C   UNL A   1      39.974  33.925  36.992  1.00  0.00     0.058 A 
ATOM     87  C   UNL A   1      40.559  35.198  36.909  1.00  0.00     0.135 A 
ATOM     88  C   UNL A   1      39.186  33.638  38.119  1.00  0.00     0.135 A 
ATOM     89  F   UNL A   1      41.326  35.522  35.855  1.00  0.00    -0.206 F 
ATOM     90  C   UNL A   1      40.391  36.141  37.918  1.00  0.00     0.059 A 
ATOM     91  C   UNL A   1      38.980  34.576  39.125  1.00  0.00     0.059 A 
ATOM     92  F   UNL A   1      38.594  32.439  38.242  1.00  0.00    -0.206 F 
ATOM     93  C   UNL A   1      39.598  35.821  39.021  1.00  0.00     0.060 A 
BRANCH  93  94
ATOM     94  S   UNL A   1      39.363  37.064  40.310  1.00  0.00     0.124 S 
ATOM     95  O   UNL A   1      38.843  38.189  39.540  1.00  0.00    -0.237 OA
ATOM     96  O   UNL A   1      38.410  36.413  41.202  1.00  0.00    -0.237 OA
ATOM     97  O   UNL A   1      40.705  37.244  40.857  1.00  0.00    -0.744 OA
ENDBRANCH  93  94
ENDBRANCH  61  86
ENDBRANCH  35  36
ENDBRANCH  27  30
ENDBRANCH  25  26
ENDBRANCH  24  25
ENDBRANCH  23  24
ENDBRANCH  22  23
ENDBRANCH   1  22
TORSDOF 23
ENDMDL
MODEL 2
REMARK VINA RESULT:      -9.5      3.298      9.321
REMARK SMILES CC(C)(C[NH2+]C[C@](C)(O)CO)C(=O)NCCCCCCNC(=O)c1ccc(-c2c3nc(c(-c4c(F)cc(S(=O)(=O)[O-])cc4F)c4ccc([nH]4)c(-c4c(F)cc(S(=O)(=O)[O-])cc4F)c4nc(c(-c5c(F)cc(S(=O)(=O)[O-])cc5F)c5ccc2[nH]5)C=C4)C=C3)cc1
REMARK SMILES IDX 16 1 15 2 14 3 12 4 13 5 2 7 1 8 3 9 4 10 5 11 6 14 7 15
REMARK SMILES IDX 8 16 9 17 10 19 11 20 17 22 18 23 19 24 20 25 21 26 22 27
REMARK SMILES IDX 23 29 24 30 25 31 89 32 26 33 88 34 27 35 28 36 29 37 82 38
REMARK SMILES IDX 30 39 87 40 81 41 83 42 31 43 86 44 80 45 79 46 32 48 66 49
REMARK SMILES IDX 45 50 65 51 46 52 49 53 64 54 84 55 47 56 48 57 63 59 85 60
REMARK SMILES IDX 50 61 33 62 34 63 43 64 35 65 36 66 42 67 44 68 37 69 38 70
REMARK SMILES IDX 39 71 40 72 41 73 67 74 68 75 77 76 69 77 70 78 76 79 78 80
REMARK SMILES IDX 71 81 72 82 73 83 74 84 75 85 51 86 52 87 61 88 53 89 54 90
REMARK SMILES IDX 60 91 62 92 55 93 56 94 57 95 58 96 59 97
REMARK H PARENT 14 6 5 12 5 13 9 18 11 21 21 28 83 47 49 58
REMARK Flexibility Score: inf
ROOT
ATOM      1  C   UNL A   1      34.155  28.799  26.590  1.00  0.00     0.021 C 
ENDROOT
BRANCH   1   2
ATOM      2  C   UNL A   1      33.087  28.454  25.555  1.00  0.00     0.116 C 
BRANCH   2   3
ATOM      3  N   UNL A   1      32.062  27.598  26.117  1.00  0.00    -0.355 N 
ATOM      4  C   UNL A   1      31.262  26.645  25.574  1.00  0.00     0.231 C 
ATOM      5  O   UNL A   1      30.451  26.123  26.348  1.00  0.00    -0.274 OA
ATOM      6  H   UNL A   1      31.919  27.734  27.082  1.00  0.00     0.163 HD
BRANCH   4   7
ATOM      7  C   UNL A   1      31.389  26.169  24.113  1.00  0.00     0.092 C 
ATOM      8  C   UNL A   1      30.368  25.025  23.885  1.00  0.00     0.027 C 
ATOM      9  C   UNL A   1      32.786  25.550  23.899  1.00  0.00     0.027 C 
BRANCH   7  10
ATOM     10  C   UNL A   1      31.127  27.282  23.064  1.00  0.00     0.277 C 
BRANCH  10  11
ATOM     11  N   UNL A   1      29.760  27.802  23.069  1.00  0.00    -0.343 N 
ATOM     12  H   UNL A   1      29.417  27.792  24.030  1.00  0.00     0.346 HD
ATOM     13  H   UNL A   1      29.217  27.201  22.449  1.00  0.00     0.346 HD
BRANCH  11  14
ATOM     14  C   UNL A   1      29.632  29.172  22.548  1.00  0.00     0.298 C 
BRANCH  14  15
ATOM     15  C   UNL A   1      28.205  29.784  22.436  1.00  0.00     0.133 C 
ATOM     16  C   UNL A   1      27.132  28.884  23.060  1.00  0.00     0.051 C 
BRANCH  15  17
ATOM     17  O   UNL A   1      27.864  30.028  21.057  1.00  0.00    -0.382 OA
ATOM     18  H   UNL A   1      26.928  30.273  20.994  1.00  0.00     0.211 HD
ENDBRANCH  15  17
BRANCH  15  19
ATOM     19  C   UNL A   1      28.206  31.171  23.116  1.00  0.00     0.196 C 
BRANCH  19  20
ATOM     20  O   UNL A   1      27.646  32.148  22.235  1.00  0.00    -0.393 OA
ATOM     21  H   UNL A   1      28.139  32.152  21.400  1.00  0.00     0.210 HD
ENDBRANCH  19  20
ENDBRANCH  15  19
ENDBRANCH  14  15
ENDBRANCH  11  14
ENDBRANCH  10  11
ENDBRANCH   7  10
ENDBRANCH   4   7
ENDBRANCH   2   3
ENDBRANCH   1   2
BRANCH   1  22
ATOM     22  C   UNL A   1      34.090  30.244  27.100  1.00  0.00     0.002 C 
BRANCH  22  23
ATOM     23  C   UNL A   1      32.709  30.906  27.013  1.00  0.00     0.002 C 
BRANCH  23  24
ATOM     24  C   UNL A   1      32.547  32.184  27.840  1.00  0.00     0.021 C 
BRANCH  24  25
ATOM     25  C   UNL A   1      33.162  33.430  27.214  1.00  0.00     0.116 C 
BRANCH  25  26
ATOM     26  N   UNL A   1      32.747  34.644  27.896  1.00  0.00    -0.352 N 
ATOM     27  C   UNL A   1      33.135  35.122  29.119  1.00  0.00     0.251 C 
ATOM     28  H   UNL A   1      32.095  35.200  27.412  1.00  0.00     0.163 HD
ATOM     29  O   UNL A   1      32.524  36.064  29.629  1.00  0.00    -0.269 OA
BRANCH  27  30
ATOM     30  C   UNL A   1      34.273  34.505  29.834  1.00  0.00     0.039 A 
ATOM     31  C   UNL A   1      34.033  33.822  31.030  1.00  0.00     0.014 A 
ATOM     32  C   UNL A   1      35.578  34.624  29.346  1.00  0.00     0.014 A 
ATOM     33  C   UNL A   1      35.096  33.232  31.717  1.00  0.00     0.010 A 
ATOM     34  C   UNL A   1      36.624  33.972  29.992  1.00  0.00     0.010 A 
ATOM     35  C   UNL A   1      36.399  33.287  31.195  1.00  0.00    -0.014 A 
BRANCH  35  36
ATOM     36  C   UNL A   1      37.544  32.678  31.919  1.00  0.00     0.031 A 
ATOM     37  C   UNL A   1      38.259  31.493  31.325  1.00  0.00     0.074 A 
ATOM     38  C   UNL A   1      37.913  33.162  33.122  1.00  0.00     0.049 A 
ATOM     39  N   UNL A   1      39.234  30.780  31.826  1.00  0.00    -0.248 NA
ATOM     40  C   UNL A   1      37.798  31.030  30.006  1.00  0.00     0.031 C 
ATOM     41  C   UNL A   1      37.274  34.281  33.817  1.00  0.00     0.029 A 
ATOM     42  N   UNL A   1      38.911  32.767  33.976  1.00  0.00    -0.354 N 
ATOM     43  C   UNL A   1      39.494  29.783  30.892  1.00  0.00     0.074 A 
ATOM     44  C   UNL A   1      38.534  29.945  29.823  1.00  0.00     0.031 C 
ATOM     45  C   UNL A   1      37.913  34.499  34.979  1.00  0.00     0.029 A 
ATOM     46  C   UNL A   1      38.981  33.516  35.129  1.00  0.00     0.049 A 
ATOM     47  H   UNL A   1      39.522  32.019  33.783  1.00  0.00     0.167 HD
ATOM     48  C   UNL A   1      40.464  28.838  30.908  1.00  0.00     0.037 A 
ATOM     49  C   UNL A   1      39.811  33.416  36.186  1.00  0.00     0.037 A 
ATOM     50  C   UNL A   1      41.436  28.699  31.961  1.00  0.00     0.049 A 
ATOM     51  C   UNL A   1      40.879  32.355  36.180  1.00  0.00     0.074 A 
ATOM     52  C   UNL A   1      42.480  27.797  32.055  1.00  0.00     0.029 A 
ATOM     53  N   UNL A   1      41.489  29.493  33.097  1.00  0.00    -0.354 N 
ATOM     54  N   UNL A   1      41.136  31.447  35.268  1.00  0.00    -0.248 NA
ATOM     55  C   UNL A   1      41.777  32.311  37.342  1.00  0.00     0.031 C 
ATOM     56  C   UNL A   1      43.144  28.022  33.266  1.00  0.00     0.029 A 
ATOM     57  C   UNL A   1      42.542  29.096  33.902  1.00  0.00     0.049 A 
ATOM     58  H   UNL A   1      40.867  30.230  33.301  1.00  0.00     0.167 HD
ATOM     59  C   UNL A   1      42.249  30.751  35.728  1.00  0.00     0.074 A 
ATOM     60  C   UNL A   1      42.619  31.347  36.995  1.00  0.00     0.031 C 
ATOM     61  C   UNL A   1      42.909  29.717  35.151  1.00  0.00     0.037 A 
BRANCH  48  62
ATOM     62  C   UNL A   1      40.529  27.886  29.744  1.00  0.00     0.058 A 
ATOM     63  C   UNL A   1      41.519  28.002  28.753  1.00  0.00     0.135 A 
ATOM     64  C   UNL A   1      39.617  26.824  29.633  1.00  0.00     0.135 A 
ATOM     65  F   UNL A   1      42.406  29.009  28.799  1.00  0.00    -0.206 F 
ATOM     66  C   UNL A   1      41.583  27.120  27.681  1.00  0.00     0.059 A 
ATOM     67  C   UNL A   1      39.681  25.910  28.584  1.00  0.00     0.059 A 
ATOM     68  F   UNL A   1      38.650  26.664  30.551  1.00  0.00    -0.206 F 
ATOM     69  C   UNL A   1      40.661  26.075  27.605  1.00  0.00     0.060 A 
BRANCH  69  70
ATOM     70  S   UNL A   1      40.766  24.932  26.213  1.00  0.00     0.124 S 
ATOM     71  O   UNL A   1      41.752  23.971  26.699  1.00  0.00    -0.237 OA
ATOM     72  O   UNL A   1      39.397  24.436  26.112  1.00  0.00    -0.237 OA
ATOM     73  O   UNL A   1      41.207  25.779  25.109  1.00  0.00    -0.744 OA
ENDBRANCH  69  70
ENDBRANCH  48  62
BRANCH  49  74
ATOM     74  C   UNL A   1      39.688  34.364  37.325  1.00  0.00     0.058 A 
ATOM     75  C   UNL A   1      40.259  35.644  37.263  1.00  0.00     0.135 A 
ATOM     76  C   UNL A   1      39.007  34.011  38.501  1.00  0.00     0.135 A 
ATOM     77  F   UNL A   1      40.923  36.028  36.162  1.00  0.00    -0.206 F 
ATOM     78  C   UNL A   1      40.186  36.530  38.334  1.00  0.00     0.059 A 
ATOM     79  C   UNL A   1      38.897  34.888  39.575  1.00  0.00     0.059 A 
ATOM     80  F   UNL A   1      38.427  32.805  38.605  1.00  0.00    -0.206 F 
ATOM     81  C   UNL A   1      39.503  36.140  39.487  1.00  0.00     0.060 A 
BRANCH  81  82
ATOM     82  S   UNL A   1      39.392  37.307  40.862  1.00  0.00     0.124 S 
ATOM     83  O   UNL A   1      40.790  37.684  41.040  1.00  0.00    -0.237 OA
ATOM     84  O   UNL A   1      38.515  38.339  40.320  1.00  0.00    -0.237 OA
ATOM     85  O   UNL A   1      38.812  36.503  41.935  1.00  0.00    -0.744 OA
ENDBRANCH  81  82
ENDBRANCH  49  74
BRANCH  61  86
ATOM     86  C   UNL A   1      44.134  29.199  35.852  1.00  0.00     0.058 A 
ATOM     87  C   UNL A   1      44.084  28.093  36.716  1.00  0.00     0.135 A 
ATOM     88  C   UNL A   1      45.386  29.791  35.616  1.00  0.00     0.135 A 
ATOM     89  F   UNL A   1      42.912  27.493  36.979  1.00  0.00    -0.206 F 
ATOM     90  C   UNL A   1      45.229  27.610  37.342  1.00  0.00     0.059 A 
ATOM     91  C   UNL A   1      46.547  29.307  36.209  1.00  0.00     0.059 A 
ATOM     92  F   UNL A   1      45.490  30.843  34.789  1.00  0.00    -0.206 F 
ATOM     93  C   UNL A   1      46.455  28.223  37.082  1.00  0.00     0.060 A 
BRANCH  93  94
ATOM     94  S   UNL A   1      47.938  27.568  37.878  1.00  0.00     0.124 S 
ATOM     95  O   UNL A   1      47.451  27.301  39.227  1.00  0.00    -0.237 OA
ATOM     96  O   UNL A   1      48.235  26.392  37.067  1.00  0.00    -0.237 OA
ATOM     97  O   UNL A   1      48.898  28.662  37.761  1.00  0.00    -0.744 OA
ENDBRANCH  93  94
ENDBRANCH  61  86
ENDBRANCH  35  36
ENDBRANCH  27  30
ENDBRANCH  25  26
ENDBRANCH  24  25
ENDBRANCH  23  24
ENDBRANCH  22  23
ENDBRANCH   1  22
TORSDOF 23
ENDMDL
MODEL 3
REMARK VINA RESULT:      -9.4      3.337      9.587
REMARK SMILES CC(C)(C[NH2+]C[C@](C)(O)CO)C(=O)NCCCCCCNC(=O)c1ccc(-c2c3nc(c(-c4c(F)cc(S(=O)(=O)[O-])cc4F)c4ccc([nH]4)c(-c4c(F)cc(S(=O)(=O)[O-])cc4F)c4nc(c(-c5c(F)cc(S(=O)(=O)[O-])cc5F)c5ccc2[nH]5)C=C4)C=C3)cc1
REMARK SMILES IDX 16 1 15 2 14 3 12 4 13 5 2 7 1 8 3 9 4 10 5 11 6 14 7 15
REMARK SMILES IDX 8 16 9 17 10 19 11 20 17 22 18 23 19 24 20 25 21 26 22 27
REMARK SMILES IDX 23 29 24 30 25 31 89 32 26 33 88 34 27 35 28 36 29 37 82 38
REMARK SMILES IDX 30 39 87 40 81 41 83 42 31 43 86 44 80 45 79 46 32 48 66 49
REMARK SMILES IDX 45 50 65 51 46 52 49 53 64 54 84 55 47 56 48 57 63 59 85 60
REMARK SMILES IDX 50 61 33 62 34 63 43 64 35 65 36 66 42 67 44 68 37 69 38 70
REMARK SMILES IDX 39 71 40 72 41 73 67 74 68 75 77 76 69 77 70 78 76 79 78 80
REMARK SMILES IDX 71 81 72 82 73 83 74 84 75 85 51 86 52 87 61 88 53 89 54 90
REMARK SMILES IDX 60 91 62 92 55 93 56 94 57 95 58 96 59 97
REMARK H PARENT 14 6 5 12 5 13 9 18 11 21 21 28 83 47 49 58
REMARK Flexibility Score: inf
ROOT
ATOM      1  C   UNL A   1      33.781  28.804  25.505  1.00  0.00     0.021 C 
ENDROOT
BRANCH   1   2
ATOM      2  C   UNL A   1      33.291  27.485  24.911  1.00  0.00     0.116 C 
BRANCH   2   3
ATOM      3  N   UNL A   1      32.225  26.911  25.707  1.00  0.00    -0.355 N 
ATOM      4  C   UNL A   1      30.942  26.572  25.417  1.00  0.00     0.231 C 
ATOM      5  O   UNL A   1      30.278  26.132  26.363  1.00  0.00    -0.274 OA
ATOM      6  H   UNL A   1      32.481  26.732  26.640  1.00  0.00     0.163 HD
BRANCH   4   7
ATOM      7  C   UNL A   1      30.353  26.643  23.994  1.00  0.00     0.092 C 
ATOM      8  C   UNL A   1      28.836  26.329  24.081  1.00  0.00     0.027 C 
ATOM      9  C   UNL A   1      30.975  25.529  23.127  1.00  0.00     0.027 C 
BRANCH   7  10
ATOM     10  C   UNL A   1      30.533  28.023  23.307  1.00  0.00     0.277 C 
BRANCH  10  11
ATOM     11  N   UNL A   1      29.658  29.073  23.828  1.00  0.00    -0.343 N 
ATOM     12  H   UNL A   1      30.216  29.690  24.419  1.00  0.00     0.346 HD
ATOM     13  H   UNL A   1      28.911  28.603  24.340  1.00  0.00     0.346 HD
BRANCH  11  14
ATOM     14  C   UNL A   1      29.010  29.890  22.791  1.00  0.00     0.298 C 
BRANCH  14  15
ATOM     15  C   UNL A   1      28.624  31.356  23.145  1.00  0.00     0.133 C 
ATOM     16  C   UNL A   1      29.516  31.944  24.246  1.00  0.00     0.051 C 
BRANCH  15  17
ATOM     17  O   UNL A   1      27.249  31.432  23.569  1.00  0.00    -0.382 OA
ATOM     18  H   UNL A   1      26.996  30.599  23.996  1.00  0.00     0.211 HD
ENDBRANCH  15  17
BRANCH  15  19
ATOM     19  C   UNL A   1      28.713  32.215  21.864  1.00  0.00     0.196 C 
BRANCH  19  20
ATOM     20  O   UNL A   1      28.029  33.454  22.058  1.00  0.00    -0.393 OA
ATOM     21  H   UNL A   1      27.084  33.334  21.878  1.00  0.00     0.210 HD
ENDBRANCH  19  20
ENDBRANCH  15  19
ENDBRANCH  14  15
ENDBRANCH  11  14
ENDBRANCH  10  11
ENDBRANCH   7  10
ENDBRANCH   4   7
ENDBRANCH   2   3
ENDBRANCH   1   2
BRANCH   1  22
ATOM     22  C   UNL A   1      32.720  29.911  25.534  1.00  0.00     0.002 C 
BRANCH  22  23
ATOM     23  C   UNL A   1      32.533  30.602  26.890  1.00  0.00     0.002 C 
BRANCH  23  24
ATOM     24  C   UNL A   1      33.183  31.983  27.013  1.00  0.00     0.021 C 
BRANCH  24  25
ATOM     25  C   UNL A   1      32.558  32.889  28.066  1.00  0.00     0.116 C 
BRANCH  25  26
ATOM     26  N   UNL A   1      32.912  34.284  27.864  1.00  0.00    -0.352 N 
ATOM     27  C   UNL A   1      33.938  35.002  28.417  1.00  0.00     0.251 C 
ATOM     28  H   UNL A   1      32.333  34.782  27.243  1.00  0.00     0.163 HD
ATOM     29  O   UNL A   1      33.963  36.229  28.290  1.00  0.00    -0.269 OA
BRANCH  27  30
ATOM     30  C   UNL A   1      35.006  34.315  29.175  1.00  0.00     0.039 A 
ATOM     31  C   UNL A   1      34.663  33.582  30.315  1.00  0.00     0.014 A 
ATOM     32  C   UNL A   1      36.344  34.417  28.785  1.00  0.00     0.014 A 
ATOM     33  C   UNL A   1      35.658  32.926  31.042  1.00  0.00     0.010 A 
ATOM     34  C   UNL A   1      37.324  33.702  29.467  1.00  0.00     0.010 A 
ATOM     35  C   UNL A   1      36.995  32.965  30.615  1.00  0.00    -0.014 A 
BRANCH  35  36
ATOM     36  C   UNL A   1      38.069  32.285  31.383  1.00  0.00     0.031 A 
ATOM     37  C   UNL A   1      38.465  32.810  32.739  1.00  0.00     0.074 A 
ATOM     38  C   UNL A   1      38.713  31.229  30.849  1.00  0.00     0.049 A 
ATOM     39  N   UNL A   1      39.418  32.403  33.537  1.00  0.00    -0.248 NA
ATOM     40  C   UNL A   1      37.709  33.964  33.251  1.00  0.00     0.031 C 
ATOM     41  C   UNL A   1      38.446  30.652  29.531  1.00  0.00     0.029 A 
ATOM     42  N   UNL A   1      39.731  30.456  31.349  1.00  0.00    -0.354 N 
ATOM     43  C   UNL A   1      39.381  33.253  34.636  1.00  0.00     0.074 A 
ATOM     44  C   UNL A   1      38.354  34.237  34.375  1.00  0.00     0.031 C 
ATOM     45  C   UNL A   1      39.261  29.601  29.336  1.00  0.00     0.029 A 
ATOM     46  C   UNL A   1      40.131  29.451  30.498  1.00  0.00     0.049 A 
ATOM     47  H   UNL A   1      40.137  30.606  32.233  1.00  0.00     0.167 HD
ATOM     48  C   UNL A   1      40.115  33.202  35.774  1.00  0.00     0.037 A 
ATOM     49  C   UNL A   1      41.094  28.519  30.640  1.00  0.00     0.037 A 
ATOM     50  C   UNL A   1      41.115  32.202  36.041  1.00  0.00     0.049 A 
ATOM     51  C   UNL A   1      41.897  28.483  31.913  1.00  0.00     0.074 A 
ATOM     52  C   UNL A   1      41.889  32.041  37.176  1.00  0.00     0.029 A 
ATOM     53  N   UNL A   1      41.472  31.187  35.165  1.00  0.00    -0.354 N 
ATOM     54  N   UNL A   1      41.820  29.272  32.960  1.00  0.00    -0.248 NA
ATOM     55  C   UNL A   1      42.912  27.427  32.030  1.00  0.00     0.031 C 
ATOM     56  C   UNL A   1      42.741  30.950  36.973  1.00  0.00     0.029 A 
ATOM     57  C   UNL A   1      42.461  30.401  35.732  1.00  0.00     0.049 A 
ATOM     58  H   UNL A   1      41.080  31.047  34.272  1.00  0.00     0.167 HD
ATOM     59  C   UNL A   1      42.746  28.781  33.874  1.00  0.00     0.074 A 
ATOM     60  C   UNL A   1      43.367  27.625  33.259  1.00  0.00     0.031 C 
ATOM     61  C   UNL A   1      43.051  29.241  35.113  1.00  0.00     0.037 A 
BRANCH  48  62
ATOM     62  C   UNL A   1      39.852  34.250  36.821  1.00  0.00     0.058 A 
ATOM     63  C   UNL A   1      38.923  34.041  37.855  1.00  0.00     0.135 A 
ATOM     64  C   UNL A   1      40.560  35.463  36.816  1.00  0.00     0.135 A 
ATOM     65  F   UNL A   1      38.206  32.907  37.898  1.00  0.00    -0.206 F 
ATOM     66  C   UNL A   1      38.684  35.007  38.826  1.00  0.00     0.059 A 
ATOM     67  C   UNL A   1      40.359  36.432  37.796  1.00  0.00     0.059 A 
ATOM     68  F   UNL A   1      41.459  35.717  35.852  1.00  0.00    -0.206 F 
ATOM     69  C   UNL A   1      39.409  36.199  38.790  1.00  0.00     0.060 A 
BRANCH  69  70
ATOM     70  S   UNL A   1      39.095  37.437  40.065  1.00  0.00     0.124 S 
ATOM     71  O   UNL A   1      38.158  38.325  39.383  1.00  0.00    -0.237 OA
ATOM     72  O   UNL A   1      38.532  36.635  41.146  1.00  0.00    -0.237 OA
ATOM     73  O   UNL A   1      40.416  38.000  40.326  1.00  0.00    -0.744 OA
ENDBRANCH  69  70
ENDBRANCH  48  62
BRANCH  49  74
ATOM     74  C   UNL A   1      41.333  27.521  29.563  1.00  0.00     0.058 A 
ATOM     75  C   UNL A   1      40.407  26.499  29.308  1.00  0.00     0.135 A 
ATOM     76  C   UNL A   1      42.493  27.561  28.773  1.00  0.00     0.135 A 
ATOM     77  F   UNL A   1      39.284  26.415  30.038  1.00  0.00    -0.206 F 
ATOM     78  C   UNL A   1      40.632  25.535  28.331  1.00  0.00     0.059 A 
ATOM     79  C   UNL A   1      42.729  26.625  27.772  1.00  0.00     0.059 A 
ATOM     80  F   UNL A   1      43.403  28.529  28.964  1.00  0.00    -0.206 F 
ATOM     81  C   UNL A   1      41.799  25.607  27.568  1.00  0.00     0.060 A 
BRANCH  81  82
ATOM     82  S   UNL A   1      42.071  24.366  26.283  1.00  0.00     0.124 S 
ATOM     83  O   UNL A   1      40.905  23.507  26.454  1.00  0.00    -0.237 OA
ATOM     84  O   UNL A   1      42.097  25.178  25.071  1.00  0.00    -0.237 OA
ATOM     85  O   UNL A   1      43.352  23.773  26.658  1.00  0.00    -0.744 OA
ENDBRANCH  81  82
ENDBRANCH  49  74
BRANCH  61  86
ATOM     86  C   UNL A   1      44.060  28.463  35.912  1.00  0.00     0.058 A 
ATOM     87  C   UNL A   1      43.685  27.404  36.753  1.00  0.00     0.135 A 
ATOM     88  C   UNL A   1      45.429  28.754  35.795  1.00  0.00     0.135 A 
ATOM     89  F   UNL A   1      42.388  27.087  36.904  1.00  0.00    -0.206 F 
ATOM     90  C   UNL A   1      44.630  26.677  37.471  1.00  0.00     0.059 A 
ATOM     91  C   UNL A   1      46.393  28.023  36.480  1.00  0.00     0.059 A 
ATOM     92  F   UNL A   1      45.842  29.750  34.995  1.00  0.00    -0.206 F 
ATOM     93  C   UNL A   1      45.982  26.994  37.327  1.00  0.00     0.060 A 
BRANCH  93  94
ATOM     94  S   UNL A   1      47.201  26.026  38.242  1.00  0.00     0.124 S 
ATOM     95  O   UNL A   1      46.373  25.415  39.276  1.00  0.00    -0.237 OA
ATOM     96  O   UNL A   1      47.709  25.118  37.219  1.00  0.00    -0.237 OA
ATOM     97  O   UNL A   1      48.152  27.031  38.709  1.00  0.00    -0.744 OA
ENDBRANCH  93  94
ENDBRANCH  61  86
ENDBRANCH  35  36
ENDBRANCH  27  30
ENDBRANCH  25  26
ENDBRANCH  24  25
ENDBRANCH  23  24
ENDBRANCH  22  23
ENDBRANCH   1  22
TORSDOF 23
ENDMDL
