MODEL 1
REMARK VINA RESULT:     -12.8      0.000      0.000
REMARK SMILES Cc1ccc2c(c1)c(-c1ccnc3c(C)cccc13)c(C)n2CC(=O)NCCCCCCNC(=O)c1ccc(-c2c3nc(c(-c4c(F)cc(S(=O)(=O)[O-])cc4F)c4ccc([nH]4)c(-c4c(F)cc(S(=O)(=O)[O-])cc4F)c4nc(c(-c5c(F)cc(S(=O)(=O)[O-])cc5F)c5ccc2[nH]5)C=C4)C=C3)cc1
REMARK SMILES IDX 30 1 29 2 28 3 27 4 26 5 24 6 25 7 23 9 22 10 1 11 2 12 3 13
REMARK SMILES IDX 7 14 4 15 6 16 5 17 8 18 20 19 21 20 9 21 10 22 19 23 11 24
REMARK SMILES IDX 13 25 18 26 12 27 14 28 17 29 15 30 16 31 31 32 32 33 33 34
REMARK SMILES IDX 34 35 35 37 36 38 37 39 101 40 38 41 100 42 39 43 40 44
REMARK SMILES IDX 41 45 94 46 42 47 99 48 93 49 95 50 43 51 98 52 92 53 91 54
REMARK SMILES IDX 44 56 78 57 57 58 77 59 58 60 61 61 76 62 96 63 59 64 60 65
REMARK SMILES IDX 75 67 97 68 62 69 45 70 46 71 55 72 47 73 48 74 54 75 56 76
REMARK SMILES IDX 49 77 50 78 51 79 52 80 53 81 79 82 80 83 89 84 81 85 82 86
REMARK SMILES IDX 88 87 90 88 83 89 84 90 85 91 86 92 87 93 63 94 64 95 73 96
REMARK SMILES IDX 65 97 66 98 72 99 74 100 67 101 68 102 69 103 70 104 71 105
REMARK H PARENT 26 8 33 36 95 55 61 66
REMARK Flexibility Score: inf
ROOT
ATOM      1  C   UNL A   1      41.917  19.732  27.771  1.00  0.00     0.002 C 
ENDROOT
BRANCH   1   2
ATOM      2  C   UNL A   1      40.810  20.498  27.038  1.00  0.00     0.002 C 
BRANCH   2   3
ATOM      3  C   UNL A   1      40.573  21.923  27.550  1.00  0.00     0.021 C 
BRANCH   3   4
ATOM      4  C   UNL A   1      39.500  22.683  26.776  1.00  0.00     0.116 C 
BRANCH   4   5
ATOM      5  N   UNL A   1      39.092  21.948  25.594  1.00  0.00    -0.355 N 
ATOM      6  C   UNL A   1      37.858  21.476  25.256  1.00  0.00     0.239 C 
ATOM      7  O   UNL A   1      37.753  20.809  24.222  1.00  0.00    -0.273 OA
ATOM      8  H   UNL A   1      39.808  21.764  24.943  1.00  0.00     0.163 HD
BRANCH   6   9
ATOM      9  C   UNL A   1      36.639  21.824  26.089  1.00  0.00     0.222 C 
BRANCH   9  10
ATOM     10  N   UNL A   1      35.413  22.004  25.315  1.00  0.00    -0.335 N 
ATOM     11  C   UNL A   1      31.851  18.392  22.802  1.00  0.00     0.044 C 
ATOM     12  C   UNL A   1      32.815  19.285  23.526  1.00  0.00    -0.050 A 
ATOM     13  C   UNL A   1      33.823  18.747  24.326  1.00  0.00     0.005 A 
ATOM     14  C   UNL A   1      32.700  20.679  23.406  1.00  0.00     0.014 A 
ATOM     15  C   UNL A   1      34.731  19.568  24.999  1.00  0.00     0.027 A 
ATOM     16  C   UNL A   1      33.611  21.530  24.071  1.00  0.00     0.008 A 
ATOM     17  C   UNL A   1      34.625  20.962  24.843  1.00  0.00     0.049 A 
ATOM     18  C   UNL A   1      33.759  22.944  24.154  1.00  0.00     0.011 A 
ATOM     19  C   UNL A   1      34.842  23.219  24.976  1.00  0.00     0.024 A 
ATOM     20  C   UNL A   1      35.379  24.542  25.415  1.00  0.00     0.065 C 
BRANCH  18  21
ATOM     21  C   UNL A   1      32.933  23.983  23.552  1.00  0.00    -0.005 A 
ATOM     22  C   UNL A   1      33.236  24.373  22.249  1.00  0.00     0.029 A 
ATOM     23  C   UNL A   1      31.848  24.584  24.240  1.00  0.00     0.008 A 
ATOM     24  C   UNL A   1      32.437  25.327  21.663  1.00  0.00     0.112 A 
ATOM     25  C   UNL A   1      31.081  25.545  23.541  1.00  0.00     0.074 A 
ATOM     26  C   UNL A   1      31.505  24.270  25.576  1.00  0.00     0.011 A 
ATOM     27  N   UNL A   1      31.381  25.901  22.274  1.00  0.00    -0.256 NA
ATOM     28  C   UNL A   1      29.987  26.133  24.196  1.00  0.00    -0.025 A 
ATOM     29  C   UNL A   1      30.430  24.872  26.216  1.00  0.00     0.001 A 
ATOM     30  C   UNL A   1      29.106  27.144  23.508  1.00  0.00     0.047 C 
ATOM     31  C   UNL A   1      29.670  25.800  25.525  1.00  0.00     0.005 A 
ENDBRANCH  18  21
ENDBRANCH   9  10
ENDBRANCH   6   9
ENDBRANCH   4   5
ENDBRANCH   3   4
ENDBRANCH   2   3
ENDBRANCH   1   2
BRANCH   1  32
ATOM     32  C   UNL A   1      42.759  18.802  26.887  1.00  0.00     0.021 C 
BRANCH  32  33
ATOM     33  C   UNL A   1      42.649  19.094  25.389  1.00  0.00     0.116 C 
BRANCH  33  34
ATOM     34  N   UNL A   1      43.859  19.647  24.821  1.00  0.00    -0.352 N 
ATOM     35  C   UNL A   1      44.504  20.847  24.908  1.00  0.00     0.251 C 
ATOM     36  H   UNL A   1      44.327  19.009  24.235  1.00  0.00     0.163 HD
ATOM     37  O   UNL A   1      45.586  20.919  24.317  1.00  0.00    -0.269 OA
BRANCH  35  38
ATOM     38  C   UNL A   1      43.978  22.058  25.596  1.00  0.00     0.039 A 
ATOM     39  C   UNL A   1      43.101  22.993  25.046  1.00  0.00     0.014 A 
ATOM     40  C   UNL A   1      44.481  22.293  26.891  1.00  0.00     0.014 A 
ATOM     41  C   UNL A   1      42.833  24.185  25.710  1.00  0.00     0.010 A 
ATOM     42  C   UNL A   1      44.195  23.470  27.569  1.00  0.00     0.010 A 
ATOM     43  C   UNL A   1      43.424  24.445  26.945  1.00  0.00    -0.014 A 
BRANCH  43  44
ATOM     44  C   UNL A   1      43.200  25.756  27.544  1.00  0.00     0.031 A 
ATOM     45  C   UNL A   1      44.243  26.788  27.268  1.00  0.00     0.074 A 
ATOM     46  C   UNL A   1      42.084  26.049  28.241  1.00  0.00     0.049 A 
ATOM     47  N   UNL A   1      45.020  27.396  28.105  1.00  0.00    -0.248 NA
ATOM     48  C   UNL A   1      44.515  27.112  25.859  1.00  0.00     0.031 C 
ATOM     49  C   UNL A   1      40.857  25.257  28.375  1.00  0.00     0.029 A 
ATOM     50  N   UNL A   1      41.781  27.193  28.912  1.00  0.00    -0.354 N 
ATOM     51  C   UNL A   1      45.762  28.310  27.356  1.00  0.00     0.074 A 
ATOM     52  C   UNL A   1      45.499  28.005  25.971  1.00  0.00     0.031 C 
ATOM     53  C   UNL A   1      39.874  26.038  28.876  1.00  0.00     0.029 A 
ATOM     54  C   UNL A   1      40.437  27.328  29.234  1.00  0.00     0.049 A 
ATOM     55  H   UNL A   1      42.456  27.868  29.149  1.00  0.00     0.167 HD
ATOM     56  C   UNL A   1      46.416  29.365  27.917  1.00  0.00     0.037 A 
ATOM     57  C   UNL A   1      39.829  28.451  29.689  1.00  0.00     0.037 A 
ATOM     58  C   UNL A   1      46.571  29.209  29.337  1.00  0.00     0.049 A 
ATOM     59  C   UNL A   1      40.887  29.318  30.270  1.00  0.00     0.074 A 
ATOM     60  C   UNL A   1      47.251  28.323  30.150  1.00  0.00     0.029 A 
ATOM     61  N   UNL A   1      45.690  29.864  30.160  1.00  0.00    -0.354 N 
ATOM     62  N   UNL A   1      41.575  29.018  31.338  1.00  0.00    -0.248 NA
ATOM     63  C   UNL A   1      41.487  30.324  29.406  1.00  0.00     0.031 C 
ATOM     64  C   UNL A   1      46.410  28.146  31.287  1.00  0.00     0.029 A 
ATOM     65  C   UNL A   1      45.292  28.964  31.118  1.00  0.00     0.049 A 
ATOM     66  H   UNL A   1      45.400  30.802  30.081  1.00  0.00     0.167 HD
ATOM     67  C   UNL A   1      42.860  29.474  31.077  1.00  0.00     0.074 A 
ATOM     68  C   UNL A   1      42.723  30.343  29.912  1.00  0.00     0.031 C 
ATOM     69  C   UNL A   1      43.953  28.899  31.661  1.00  0.00     0.037 A 
BRANCH  56  70
ATOM     70  C   UNL A   1      46.663  30.681  27.223  1.00  0.00     0.058 A 
ATOM     71  C   UNL A   1      47.964  31.225  27.176  1.00  0.00     0.135 A 
ATOM     72  C   UNL A   1      45.621  31.555  26.843  1.00  0.00     0.135 A 
ATOM     73  F   UNL A   1      49.027  30.486  27.531  1.00  0.00    -0.206 F 
ATOM     74  C   UNL A   1      48.204  32.557  26.829  1.00  0.00     0.059 A 
ATOM     75  C   UNL A   1      45.842  32.869  26.445  1.00  0.00     0.059 A 
ATOM     76  F   UNL A   1      44.333  31.199  26.934  1.00  0.00    -0.206 F 
ATOM     77  C   UNL A   1      47.133  33.375  26.479  1.00  0.00     0.060 A 
BRANCH  77  78
ATOM     78  S   UNL A   1      47.427  35.122  26.149  1.00  0.00     0.124 S 
ATOM     79  O   UNL A   1      46.078  35.668  26.243  1.00  0.00    -0.237 OA
ATOM     80  O   UNL A   1      48.341  35.485  27.227  1.00  0.00    -0.237 OA
ATOM     81  O   UNL A   1      48.013  35.117  24.812  1.00  0.00    -0.744 OA
ENDBRANCH  77  78
ENDBRANCH  56  70
BRANCH  57  82
ATOM     82  C   UNL A   1      38.504  28.983  29.267  1.00  0.00     0.058 A 
ATOM     83  C   UNL A   1      37.482  29.210  30.204  1.00  0.00     0.135 A 
ATOM     84  C   UNL A   1      38.315  29.554  27.991  1.00  0.00     0.135 A 
ATOM     85  F   UNL A   1      37.590  28.722  31.450  1.00  0.00    -0.206 F 
ATOM     86  C   UNL A   1      36.366  30.003  29.914  1.00  0.00     0.059 A 
ATOM     87  C   UNL A   1      37.208  30.338  27.675  1.00  0.00     0.059 A 
ATOM     88  F   UNL A   1      39.252  29.448  27.038  1.00  0.00    -0.206 F 
ATOM     89  C   UNL A   1      36.250  30.583  28.651  1.00  0.00     0.060 A 
BRANCH  89  90
ATOM     90  S   UNL A   1      34.909  31.753  28.329  1.00  0.00     0.124 S 
ATOM     91  O   UNL A   1      35.584  32.774  27.536  1.00  0.00    -0.237 OA
ATOM     92  O   UNL A   1      33.944  30.923  27.614  1.00  0.00    -0.237 OA
ATOM     93  O   UNL A   1      34.497  32.174  29.666  1.00  0.00    -0.744 OA
ENDBRANCH  89  90
ENDBRANCH  57  82
BRANCH  69  94
ATOM     94  C   UNL A   1      43.728  27.933  32.796  1.00  0.00     0.058 A 
ATOM     95  C   UNL A   1      43.708  26.534  32.650  1.00  0.00     0.135 A 
ATOM     96  C   UNL A   1      43.688  28.436  34.106  1.00  0.00     0.135 A 
ATOM     97  F   UNL A   1      43.850  25.965  31.445  1.00  0.00    -0.206 F 
ATOM     98  C   UNL A   1      43.613  25.677  33.750  1.00  0.00     0.059 A 
ATOM     99  C   UNL A   1      43.624  27.601  35.219  1.00  0.00     0.059 A 
ATOM    100  F   UNL A   1      43.769  29.761  34.318  1.00  0.00    -0.206 F 
ATOM    101  C   UNL A   1      43.576  26.222  35.033  1.00  0.00     0.060 A 
BRANCH 101 102
ATOM    102  S   UNL A   1      43.539  25.108  36.455  1.00  0.00     0.124 S 
ATOM    103  O   UNL A   1      44.690  25.556  37.229  1.00  0.00    -0.237 OA
ATOM    104  O   UNL A   1      42.232  25.385  37.041  1.00  0.00    -0.237 OA
ATOM    105  O   UNL A   1      43.671  23.781  35.853  1.00  0.00    -0.744 OA
ENDBRANCH 101 102
ENDBRANCH  69  94
ENDBRANCH  43  44
ENDBRANCH  35  38
ENDBRANCH  33  34
ENDBRANCH  32  33
ENDBRANCH   1  32
TORSDOF 18
ENDMDL
MODEL 2
REMARK VINA RESULT:     -12.5      2.551      4.389
REMARK SMILES Cc1ccc2c(c1)c(-c1ccnc3c(C)cccc13)c(C)n2CC(=O)NCCCCCCNC(=O)c1ccc(-c2c3nc(c(-c4c(F)cc(S(=O)(=O)[O-])cc4F)c4ccc([nH]4)c(-c4c(F)cc(S(=O)(=O)[O-])cc4F)c4nc(c(-c5c(F)cc(S(=O)(=O)[O-])cc5F)c5ccc2[nH]5)C=C4)C=C3)cc1
REMARK SMILES IDX 30 1 29 2 28 3 27 4 26 5 24 6 25 7 23 9 22 10 1 11 2 12 3 13
REMARK SMILES IDX 7 14 4 15 6 16 5 17 8 18 20 19 21 20 9 21 10 22 19 23 11 24
REMARK SMILES IDX 13 25 18 26 12 27 14 28 17 29 15 30 16 31 31 32 32 33 33 34
REMARK SMILES IDX 34 35 35 37 36 38 37 39 101 40 38 41 100 42 39 43 40 44
REMARK SMILES IDX 41 45 94 46 42 47 99 48 93 49 95 50 43 51 98 52 92 53 91 54
REMARK SMILES IDX 44 56 78 57 57 58 77 59 58 60 61 61 76 62 96 63 59 64 60 65
REMARK SMILES IDX 75 67 97 68 62 69 45 70 46 71 55 72 47 73 48 74 54 75 56 76
REMARK SMILES IDX 49 77 50 78 51 79 52 80 53 81 79 82 80 83 89 84 81 85 82 86
REMARK SMILES IDX 88 87 90 88 83 89 84 90 85 91 86 92 87 93 63 94 64 95 73 96
REMARK SMILES IDX 65 97 66 98 72 99 74 100 67 101 68 102 69 103 70 104 71 105
REMARK H PARENT 26 8 33 36 95 55 61 66
REMARK Flexibility Score: inf
ROOT
ATOM      1  C   UNL A   1      35.753  22.517  24.136  1.00  0.00     0.002 C 
ENDROOT
BRANCH   1   2
ATOM      2  C   UNL A   1      35.415  21.216  24.872  1.00  0.00     0.002 C 
BRANCH   2   3
ATOM      3  C   UNL A   1      33.946  21.079  25.286  1.00  0.00     0.021 C 
BRANCH   3   4
ATOM      4  C   UNL A   1      33.685  21.421  26.750  1.00  0.00     0.116 C 
BRANCH   4   5
ATOM      5  N   UNL A   1      32.374  22.017  26.920  1.00  0.00    -0.355 N 
ATOM      6  C   UNL A   1      32.018  23.334  26.910  1.00  0.00     0.239 C 
ATOM      7  O   UNL A   1      30.841  23.621  27.148  1.00  0.00    -0.273 OA
ATOM      8  H   UNL A   1      31.635  21.381  27.062  1.00  0.00     0.163 HD
BRANCH   6   9
ATOM      9  C   UNL A   1      33.026  24.408  26.547  1.00  0.00     0.222 C 
BRANCH   9  10
ATOM     10  N   UNL A   1      32.533  25.396  25.591  1.00  0.00    -0.335 N 
ATOM     11  C   UNL A   1      32.536  25.658  19.935  1.00  0.00     0.044 C 
ATOM     12  C   UNL A   1      32.535  25.500  21.428  1.00  0.00    -0.050 A 
ATOM     13  C   UNL A   1      32.963  24.312  22.020  1.00  0.00     0.005 A 
ATOM     14  C   UNL A   1      32.091  26.555  22.241  1.00  0.00     0.014 A 
ATOM     15  C   UNL A   1      32.973  24.156  23.408  1.00  0.00     0.027 A 
ATOM     16  C   UNL A   1      32.099  26.424  23.648  1.00  0.00     0.008 A 
ATOM     17  C   UNL A   1      32.558  25.232  24.212  1.00  0.00     0.049 A 
ATOM     18  C   UNL A   1      31.722  27.281  24.721  1.00  0.00     0.011 A 
ATOM     19  C   UNL A   1      31.941  26.606  25.913  1.00  0.00     0.024 A 
ATOM     20  C   UNL A   1      31.663  27.052  27.311  1.00  0.00     0.065 C 
BRANCH  18  21
ATOM     21  C   UNL A   1      31.154  28.623  24.658  1.00  0.00    -0.005 A 
ATOM     22  C   UNL A   1      31.859  29.650  25.280  1.00  0.00     0.029 A 
ATOM     23  C   UNL A   1      29.937  28.900  23.985  1.00  0.00     0.008 A 
ATOM     24  C   UNL A   1      31.346  30.924  25.192  1.00  0.00     0.112 A 
ATOM     25  C   UNL A   1      29.505  30.246  23.942  1.00  0.00     0.074 A 
ATOM     26  C   UNL A   1      29.147  27.904  23.365  1.00  0.00     0.011 A 
ATOM     27  N   UNL A   1      30.208  31.232  24.539  1.00  0.00    -0.256 NA
ATOM     28  C   UNL A   1      28.316  30.546  23.258  1.00  0.00    -0.025 A 
ATOM     29  C   UNL A   1      27.964  28.214  22.707  1.00  0.00     0.001 A 
ATOM     30  C   UNL A   1      27.806  31.960  23.145  1.00  0.00     0.047 C 
ATOM     31  C   UNL A   1      27.550  29.534  22.651  1.00  0.00     0.005 A 
ENDBRANCH  18  21
ENDBRANCH   9  10
ENDBRANCH   6   9
ENDBRANCH   4   5
ENDBRANCH   3   4
ENDBRANCH   2   3
ENDBRANCH   1   2
BRANCH   1  32
ATOM     32  C   UNL A   1      37.051  23.202  24.586  1.00  0.00     0.021 C 
BRANCH  32  33
ATOM     33  C   UNL A   1      37.477  22.857  26.015  1.00  0.00     0.116 C 
BRANCH  33  34
ATOM     34  N   UNL A   1      38.758  22.189  26.085  1.00  0.00    -0.352 N 
ATOM     35  C   UNL A   1      39.993  22.520  26.566  1.00  0.00     0.251 C 
ATOM     36  H   UNL A   1      38.735  21.285  25.696  1.00  0.00     0.163 HD
ATOM     37  O   UNL A   1      40.847  21.630  26.510  1.00  0.00    -0.269 OA
BRANCH  35  38
ATOM     38  C   UNL A   1      40.385  23.861  27.080  1.00  0.00     0.039 A 
ATOM     39  C   UNL A   1      41.466  24.129  27.921  1.00  0.00     0.014 A 
ATOM     40  C   UNL A   1      39.532  24.924  26.727  1.00  0.00     0.014 A 
ATOM     41  C   UNL A   1      41.618  25.387  28.494  1.00  0.00     0.010 A 
ATOM     42  C   UNL A   1      39.695  26.189  27.277  1.00  0.00     0.010 A 
ATOM     43  C   UNL A   1      40.701  26.398  28.213  1.00  0.00    -0.014 A 
BRANCH  43  44
ATOM     44  C   UNL A   1      40.841  27.662  28.929  1.00  0.00     0.031 A 
ATOM     45  C   UNL A   1      41.930  28.566  28.454  1.00  0.00     0.074 A 
ATOM     46  C   UNL A   1      39.994  28.033  29.909  1.00  0.00     0.049 A 
ATOM     47  N   UNL A   1      42.977  28.977  29.094  1.00  0.00    -0.248 NA
ATOM     48  C   UNL A   1      41.890  28.988  27.046  1.00  0.00     0.031 C 
ATOM     49  C   UNL A   1      38.731  27.404  30.310  1.00  0.00     0.029 A 
ATOM     50  N   UNL A   1      40.049  29.134  30.705  1.00  0.00    -0.354 N 
ATOM     51  C   UNL A   1      43.642  29.852  28.235  1.00  0.00     0.074 A 
ATOM     52  C   UNL A   1      42.998  29.724  26.951  1.00  0.00     0.031 C 
ATOM     53  C   UNL A   1      38.038  28.257  31.097  1.00  0.00     0.029 A 
ATOM     54  C   UNL A   1      38.866  29.418  31.374  1.00  0.00     0.049 A 
ATOM     55  H   UNL A   1      40.859  29.685  30.799  1.00  0.00     0.167 HD
ATOM     56  C   UNL A   1      44.571  30.749  28.670  1.00  0.00     0.037 A 
ATOM     57  C   UNL A   1      38.573  30.562  32.040  1.00  0.00     0.037 A 
ATOM     58  C   UNL A   1      45.049  30.432  29.988  1.00  0.00     0.049 A 
ATOM     59  C   UNL A   1      39.865  31.215  32.376  1.00  0.00     0.074 A 
ATOM     60  C   UNL A   1      45.762  29.387  30.539  1.00  0.00     0.029 A 
ATOM     61  N   UNL A   1      44.514  31.116  31.051  1.00  0.00    -0.354 N 
ATOM     62  N   UNL A   1      40.742  30.721  33.207  1.00  0.00    -0.248 NA
ATOM     63  C   UNL A   1      40.380  32.212  31.449  1.00  0.00     0.031 C 
ATOM     64  C   UNL A   1      45.214  29.213  31.843  1.00  0.00     0.029 A 
ATOM     65  C   UNL A   1      44.231  30.187  32.022  1.00  0.00     0.049 A 
ATOM     66  H   UNL A   1      44.363  32.087  31.107  1.00  0.00     0.167 HD
ATOM     67  C   UNL A   1      41.976  31.023  32.649  1.00  0.00     0.074 A 
ATOM     68  C   UNL A   1      41.691  32.014  31.615  1.00  0.00     0.031 C 
ATOM     69  C   UNL A   1      43.077  30.250  32.891  1.00  0.00     0.037 A 
BRANCH  56  70
ATOM     70  C   UNL A   1      44.840  32.081  28.018  1.00  0.00     0.058 A 
ATOM     71  C   UNL A   1      46.078  32.327  27.388  1.00  0.00     0.135 A 
ATOM     72  C   UNL A   1      44.027  33.217  28.228  1.00  0.00     0.135 A 
ATOM     73  F   UNL A   1      46.936  31.321  27.152  1.00  0.00    -0.206 F 
ATOM     74  C   UNL A   1      46.500  33.613  27.045  1.00  0.00     0.059 A 
ATOM     75  C   UNL A   1      44.404  34.500  27.848  1.00  0.00     0.059 A 
ATOM     76  F   UNL A   1      42.871  33.141  28.901  1.00  0.00    -0.206 F 
ATOM     77  C   UNL A   1      45.660  34.696  27.293  1.00  0.00     0.060 A 
BRANCH  77  78
ATOM     78  S   UNL A   1      46.250  36.366  26.962  1.00  0.00     0.124 S 
ATOM     79  O   UNL A   1      46.979  36.176  25.714  1.00  0.00    -0.237 OA
ATOM     80  O   UNL A   1      45.001  37.115  26.865  1.00  0.00    -0.237 OA
ATOM     81  O   UNL A   1      47.069  36.672  28.131  1.00  0.00    -0.744 OA
ENDBRANCH  77  78
ENDBRANCH  56  70
BRANCH  57  82
ATOM     82  C   UNL A   1      37.285  31.307  32.011  1.00  0.00     0.058 A 
ATOM     83  C   UNL A   1      36.691  31.773  33.196  1.00  0.00     0.135 A 
ATOM     84  C   UNL A   1      36.766  31.831  30.809  1.00  0.00     0.135 A 
ATOM     85  F   UNL A   1      37.137  31.344  34.388  1.00  0.00    -0.206 F 
ATOM     86  C   UNL A   1      35.682  32.743  33.194  1.00  0.00     0.059 A 
ATOM     87  C   UNL A   1      35.755  32.788  30.781  1.00  0.00     0.059 A 
ATOM     88  F   UNL A   1      37.296  31.499  29.622  1.00  0.00    -0.206 F 
ATOM     89  C   UNL A   1      35.236  33.262  31.978  1.00  0.00     0.060 A 
BRANCH  89  90
ATOM     90  S   UNL A   1      34.068  34.643  31.976  1.00  0.00     0.124 S 
ATOM     91  O   UNL A   1      33.617  34.654  30.589  1.00  0.00    -0.237 OA
ATOM     92  O   UNL A   1      33.083  34.211  32.963  1.00  0.00    -0.237 OA
ATOM     93  O   UNL A   1      34.888  35.784  32.375  1.00  0.00    -0.744 OA
ENDBRANCH  89  90
ENDBRANCH  57  82
BRANCH  69  94
ATOM     94  C   UNL A   1      42.994  29.215  33.984  1.00  0.00     0.058 A 
ATOM     95  C   UNL A   1      43.258  29.477  35.341  1.00  0.00     0.135 A 
ATOM     96  C   UNL A   1      42.475  27.950  33.670  1.00  0.00     0.135 A 
ATOM     97  F   UNL A   1      43.653  30.693  35.743  1.00  0.00    -0.206 F 
ATOM     98  C   UNL A   1      43.054  28.515  36.333  1.00  0.00     0.059 A 
ATOM     99  C   UNL A   1      42.235  26.984  34.646  1.00  0.00     0.059 A 
ATOM    100  F   UNL A   1      42.142  27.657  32.401  1.00  0.00    -0.206 F 
ATOM    101  C   UNL A   1      42.538  27.270  35.975  1.00  0.00     0.060 A 
BRANCH 101 102
ATOM    102  S   UNL A   1      42.196  26.059  37.271  1.00  0.00     0.124 S 
ATOM    103  O   UNL A   1      40.774  26.264  37.519  1.00  0.00    -0.237 OA
ATOM    104  O   UNL A   1      42.554  24.799  36.629  1.00  0.00    -0.237 OA
ATOM    105  O   UNL A   1      43.084  26.465  38.360  1.00  0.00    -0.744 OA
ENDBRANCH 101 102
ENDBRANCH  69  94
ENDBRANCH  43  44
ENDBRANCH  35  38
ENDBRANCH  33  34
ENDBRANCH  32  33
ENDBRANCH   1  32
TORSDOF 18
ENDMDL
MODEL 3
REMARK VINA RESULT:     -12.4      2.573      9.367
REMARK SMILES Cc1ccc2c(c1)c(-c1ccnc3c(C)cccc13)c(C)n2CC(=O)NCCCCCCNC(=O)c1ccc(-c2c3nc(c(-c4c(F)cc(S(=O)(=O)[O-])cc4F)c4ccc([nH]4)c(-c4c(F)cc(S(=O)(=O)[O-])cc4F)c4nc(c(-c5c(F)cc(S(=O)(=O)[O-])cc5F)c5ccc2[nH]5)C=C4)C=C3)cc1
REMARK SMILES IDX 30 1 29 2 28 3 27 4 26 5 24 6 25 7 23 9 22 10 1 11 2 12 3 13
REMARK SMILES IDX 7 14 4 15 6 16 5 17 8 18 20 19 21 20 9 21 10 22 19 23 11 24
REMARK SMILES IDX 13 25 18 26 12 27 14 28 17 29 15 30 16 31 31 32 32 33 33 34
REMARK SMILES IDX 34 35 35 37 36 38 37 39 101 40 38 41 100 42 39 43 40 44
REMARK SMILES IDX 41 45 94 46 42 47 99 48 93 49 95 50 43 51 98 52 92 53 91 54
REMARK SMILES IDX 44 56 78 57 57 58 77 59 58 60 61 61 76 62 96 63 59 64 60 65
REMARK SMILES IDX 75 67 97 68 62 69 45 70 46 71 55 72 47 73 48 74 54 75 56 76
REMARK SMILES IDX 49 77 50 78 51 79 52 80 53 81 79 82 80 83 89 84 81 85 82 86
REMARK SMILES IDX 88 87 90 88 83 89 84 90 85 91 86 92 87 93 63 94 64 95 73 96
REMARK SMILES IDX 65 97 66 98 72 99 74 100 67 101 68 102 69 103 70 104 71 105
REMARK H PARENT 26 8 33 36 95 55 61 66
REMARK Flexibility Score: inf
ROOT
ATOM      1  C   UNL A   1      31.474  28.488  26.459  1.00  0.00     0.002 C 
ENDROOT
BRANCH   1   2
ATOM      2  C   UNL A   1      31.498  29.308  25.165  1.00  0.00     0.002 C 
BRANCH   2   3
ATOM      3  C   UNL A   1      31.324  28.486  23.883  1.00  0.00     0.021 C 
BRANCH   3   4
ATOM      4  C   UNL A   1      32.424  28.716  22.852  1.00  0.00     0.116 C 
BRANCH   4   5
ATOM      5  N   UNL A   1      32.567  27.566  21.978  1.00  0.00    -0.355 N 
ATOM      6  C   UNL A   1      33.266  26.412  22.181  1.00  0.00     0.239 C 
ATOM      7  O   UNL A   1      33.308  25.589  21.263  1.00  0.00    -0.273 OA
ATOM      8  H   UNL A   1      32.093  27.627  21.118  1.00  0.00     0.163 HD
BRANCH   6   9
ATOM      9  C   UNL A   1      33.911  26.121  23.523  1.00  0.00     0.222 C 
BRANCH   9  10
ATOM     10  N   UNL A   1      33.650  24.778  24.037  1.00  0.00    -0.335 N 
ATOM     11  C   UNL A   1      29.613  22.618  27.366  1.00  0.00     0.044 C 
ATOM     12  C   UNL A   1      30.625  23.252  26.457  1.00  0.00    -0.050 A 
ATOM     13  C   UNL A   1      30.476  24.574  26.036  1.00  0.00     0.005 A 
ATOM     14  C   UNL A   1      31.731  22.508  26.017  1.00  0.00     0.014 A 
ATOM     15  C   UNL A   1      31.416  25.178  25.196  1.00  0.00     0.027 A 
ATOM     16  C   UNL A   1      32.698  23.099  25.173  1.00  0.00     0.008 A 
ATOM     17  C   UNL A   1      32.536  24.431  24.790  1.00  0.00     0.049 A 
ATOM     18  C   UNL A   1      33.898  22.628  24.566  1.00  0.00     0.011 A 
ATOM     19  C   UNL A   1      34.441  23.663  23.819  1.00  0.00     0.024 A 
ATOM     20  C   UNL A   1      35.664  23.663  22.962  1.00  0.00     0.065 C 
BRANCH  18  21
ATOM     21  C   UNL A   1      34.489  21.297  24.632  1.00  0.00    -0.005 A 
ATOM     22  C   UNL A   1      35.758  21.183  25.196  1.00  0.00     0.029 A 
ATOM     23  C   UNL A   1      33.815  20.143  24.157  1.00  0.00     0.008 A 
ATOM     24  C   UNL A   1      36.305  19.925  25.293  1.00  0.00     0.112 A 
ATOM     25  C   UNL A   1      34.461  18.895  24.317  1.00  0.00     0.074 A 
ATOM     26  C   UNL A   1      32.544  20.185  23.537  1.00  0.00     0.011 A 
ATOM     27  N   UNL A   1      35.685  18.802  24.879  1.00  0.00    -0.256 NA
ATOM     28  C   UNL A   1      33.799  17.737  23.877  1.00  0.00    -0.025 A 
ATOM     29  C   UNL A   1      31.910  19.033  23.091  1.00  0.00     0.001 A 
ATOM     30  C   UNL A   1      34.411  16.370  24.040  1.00  0.00     0.047 C 
ATOM     31  C   UNL A   1      32.535  17.810  23.264  1.00  0.00     0.005 A 
ENDBRANCH  18  21
ENDBRANCH   9  10
ENDBRANCH   6   9
ENDBRANCH   4   5
ENDBRANCH   3   4
ENDBRANCH   2   3
ENDBRANCH   1   2
BRANCH   1  32
ATOM     32  C   UNL A   1      32.538  28.874  27.495  1.00  0.00     0.021 C 
BRANCH  32  33
ATOM     33  C   UNL A   1      33.719  29.656  26.917  1.00  0.00     0.116 C 
BRANCH  33  34
ATOM     34  N   UNL A   1      33.833  30.998  27.444  1.00  0.00    -0.352 N 
ATOM     35  C   UNL A   1      34.804  31.697  28.103  1.00  0.00     0.251 C 
ATOM     36  H   UNL A   1      33.020  31.533  27.294  1.00  0.00     0.163 HD
ATOM     37  O   UNL A   1      34.550  32.882  28.332  1.00  0.00    -0.269 OA
BRANCH  35  38
ATOM     38  C   UNL A   1      36.085  31.126  28.602  1.00  0.00     0.039 A 
ATOM     39  C   UNL A   1      37.137  31.849  29.167  1.00  0.00     0.014 A 
ATOM     40  C   UNL A   1      36.252  29.740  28.413  1.00  0.00     0.014 A 
ATOM     41  C   UNL A   1      38.360  31.237  29.417  1.00  0.00     0.010 A 
ATOM     42  C   UNL A   1      37.464  29.119  28.685  1.00  0.00     0.010 A 
ATOM     43  C   UNL A   1      38.537  29.886  29.124  1.00  0.00    -0.014 A 
BRANCH  43  44
ATOM     44  C   UNL A   1      39.872  29.322  29.297  1.00  0.00     0.031 A 
ATOM     45  C   UNL A   1      40.309  29.095  30.706  1.00  0.00     0.074 A 
ATOM     46  C   UNL A   1      40.639  28.952  28.252  1.00  0.00     0.049 A 
ATOM     47  N   UNL A   1      41.297  29.635  31.343  1.00  0.00    -0.248 NA
ATOM     48  C   UNL A   1      39.471  28.218  31.539  1.00  0.00     0.031 C 
ATOM     49  C   UNL A   1      40.267  28.852  26.837  1.00  0.00     0.029 A 
ATOM     50  N   UNL A   1      41.918  28.490  28.262  1.00  0.00    -0.354 N 
ATOM     51  C   UNL A   1      41.320  29.040  32.605  1.00  0.00     0.074 A 
ATOM     52  C   UNL A   1      40.105  28.272  32.711  1.00  0.00     0.031 C 
ATOM     53  C   UNL A   1      41.211  28.144  26.176  1.00  0.00     0.029 A 
ATOM     54  C   UNL A   1      42.314  27.874  27.082  1.00  0.00     0.049 A 
ATOM     55  H   UNL A   1      42.513  28.583  29.040  1.00  0.00     0.167 HD
ATOM     56  C   UNL A   1      42.412  29.080  33.420  1.00  0.00     0.037 A 
ATOM     57  C   UNL A   1      43.434  27.133  26.898  1.00  0.00     0.037 A 
ATOM     58  C   UNL A   1      43.349  30.091  33.014  1.00  0.00     0.049 A 
ATOM     59  C   UNL A   1      44.393  27.518  27.967  1.00  0.00     0.074 A 
ATOM     60  C   UNL A   1      43.321  31.470  32.940  1.00  0.00     0.029 A 
ATOM     61  N   UNL A   1      44.441  29.703  32.280  1.00  0.00    -0.354 N 
ATOM     62  N   UNL A   1      44.947  28.695  28.065  1.00  0.00    -0.248 NA
ATOM     63  C   UNL A   1      44.400  26.723  29.187  1.00  0.00     0.031 C 
ATOM     64  C   UNL A   1      44.085  31.792  31.780  1.00  0.00     0.029 A 
ATOM     65  C   UNL A   1      44.565  30.596  31.244  1.00  0.00     0.049 A 
ATOM     66  H   UNL A   1      45.026  28.932  32.461  1.00  0.00     0.167 HD
ATOM     67  C   UNL A   1      44.998  28.956  29.427  1.00  0.00     0.074 A 
ATOM     68  C   UNL A   1      44.726  27.672  30.068  1.00  0.00     0.031 C 
ATOM     69  C   UNL A   1      44.989  30.234  29.909  1.00  0.00     0.037 A 
BRANCH  56  70
ATOM     70  C   UNL A   1      42.770  28.009  34.419  1.00  0.00     0.058 A 
ATOM     71  C   UNL A   1      42.807  28.307  35.797  1.00  0.00     0.135 A 
ATOM     72  C   UNL A   1      43.342  26.773  34.046  1.00  0.00     0.135 A 
ATOM     73  F   UNL A   1      42.304  29.462  36.260  1.00  0.00    -0.206 F 
ATOM     74  C   UNL A   1      43.418  27.463  36.727  1.00  0.00     0.059 A 
ATOM     75  C   UNL A   1      43.911  25.894  34.961  1.00  0.00     0.059 A 
ATOM     76  F   UNL A   1      43.461  26.410  32.762  1.00  0.00    -0.206 F 
ATOM     77  C   UNL A   1      43.981  26.265  36.295  1.00  0.00     0.060 A 
BRANCH  77  78
ATOM     78  S   UNL A   1      44.874  25.233  37.473  1.00  0.00     0.124 S 
ATOM     79  O   UNL A   1      44.300  25.672  38.739  1.00  0.00    -0.237 OA
ATOM     80  O   UNL A   1      44.510  23.889  37.036  1.00  0.00    -0.237 OA
ATOM     81  O   UNL A   1      46.270  25.601  37.251  1.00  0.00    -0.744 OA
ENDBRANCH  77  78
ENDBRANCH  56  70
BRANCH  57  82
ATOM     82  C   UNL A   1      43.544  25.851  26.149  1.00  0.00     0.058 A 
ATOM     83  C   UNL A   1      44.638  25.598  25.304  1.00  0.00     0.135 A 
ATOM     84  C   UNL A   1      42.739  24.740  26.475  1.00  0.00     0.135 A 
ATOM     85  F   UNL A   1      45.469  26.594  24.961  1.00  0.00    -0.206 F 
ATOM     86  C   UNL A   1      44.949  24.310  24.853  1.00  0.00     0.059 A 
ATOM     87  C   UNL A   1      43.023  23.451  26.029  1.00  0.00     0.059 A 
ATOM     88  F   UNL A   1      41.704  24.856  27.319  1.00  0.00    -0.206 F 
ATOM     89  C   UNL A   1      44.146  23.238  25.241  1.00  0.00     0.060 A 
BRANCH  89  90
ATOM     90  S   UNL A   1      44.647  21.552  24.815  1.00  0.00     0.124 S 
ATOM     91  O   UNL A   1      43.592  20.759  25.435  1.00  0.00    -0.237 OA
ATOM     92  O   UNL A   1      44.641  21.593  23.356  1.00  0.00    -0.237 OA
ATOM     93  O   UNL A   1      45.966  21.424  25.428  1.00  0.00    -0.744 OA
ENDBRANCH  89  90
ENDBRANCH  57  82
BRANCH  69  94
ATOM     94  C   UNL A   1      45.191  31.365  28.932  1.00  0.00     0.058 A 
ATOM     95  C   UNL A   1      46.450  31.869  28.558  1.00  0.00     0.135 A 
ATOM     96  C   UNL A   1      44.077  31.851  28.231  1.00  0.00     0.135 A 
ATOM     97  F   UNL A   1      47.575  31.384  29.099  1.00  0.00    -0.206 F 
ATOM     98  C   UNL A   1      46.591  32.838  27.561  1.00  0.00     0.059 A 
ATOM     99  C   UNL A   1      44.196  32.795  27.214  1.00  0.00     0.059 A 
ATOM    100  F   UNL A   1      42.852  31.365  28.496  1.00  0.00    -0.206 F 
ATOM    101  C   UNL A   1      45.456  33.293  26.891  1.00  0.00     0.060 A 
BRANCH 101 102
ATOM    102  S   UNL A   1      45.652  34.483  25.546  1.00  0.00     0.124 S 
ATOM    103  O   UNL A   1      45.150  35.713  26.145  1.00  0.00    -0.237 OA
ATOM    104  O   UNL A   1      47.089  34.440  25.293  1.00  0.00    -0.237 OA
ATOM    105  O   UNL A   1      44.825  33.927  24.475  1.00  0.00    -0.744 OA
ENDBRANCH 101 102
ENDBRANCH  69  94
ENDBRANCH  43  44
ENDBRANCH  35  38
ENDBRANCH  33  34
ENDBRANCH  32  33
ENDBRANCH   1  32
TORSDOF 18
ENDMDL
