MODEL 1
REMARK VINA RESULT:     -12.0      0.000      0.000
REMARK SMILES Cc1cc(OC(F)(F)F)cc2c1O[C@H](C(F)(F)F)C(C(=O)NCCCCCCNC(=O)c1ccc(-c3c4nc(c(-c5c(F)cc(S(=O)(=O)[O-])cc5F)c5ccc([nH]5)c(-c5c(F)cc(S(=O)(=O)[O-])cc5F)c5nc(c(-c6c(F)cc(S(=O)(=O)[O-])cc6F)c6ccc3[nH]6)C=C5)C=C4)cc1)=C2
REMARK SMILES IDX 26 1 25 2 24 3 23 4 22 5 20 6 21 7 19 9 1 10 2 11 3 12 12 13
REMARK SMILES IDX 4 14 11 15 13 16 10 17 98 18 14 19 5 20 6 21 7 22 8 23 9 24
REMARK SMILES IDX 15 25 16 26 17 27 18 28 27 29 28 30 29 31 30 32 31 34 32 35
REMARK SMILES IDX 33 36 97 37 34 38 96 39 35 40 36 41 37 42 90 43 38 44 95 45
REMARK SMILES IDX 89 46 91 47 39 48 94 49 88 50 87 51 40 53 74 54 53 55 73 56
REMARK SMILES IDX 54 57 57 58 72 59 92 60 55 61 56 62 71 64 93 65 58 66 41 67
REMARK SMILES IDX 42 68 51 69 43 70 44 71 50 72 52 73 45 74 46 75 47 76 48 77
REMARK SMILES IDX 49 78 75 79 76 80 85 81 77 82 78 83 84 84 86 85 79 86 80 87
REMARK SMILES IDX 81 88 82 89 83 90 59 91 60 92 69 93 61 94 62 95 68 96 70 97
REMARK SMILES IDX 63 98 64 99 65 100 66 101 67 102
REMARK H PARENT 22 8 29 33 91 52 57 63
REMARK Flexibility Score: inf
ROOT
ATOM      1  C   UNL A   1      35.326  21.968  24.221  1.00  0.00     0.002 C 
ENDROOT
BRANCH   1   2
ATOM      2  C   UNL A   1      34.132  21.775  25.166  1.00  0.00     0.002 C 
BRANCH   2   3
ATOM      3  C   UNL A   1      32.847  21.292  24.489  1.00  0.00     0.021 C 
BRANCH   3   4
ATOM      4  C   UNL A   1      31.820  22.401  24.288  1.00  0.00     0.116 C 
BRANCH   4   5
ATOM      5  N   UNL A   1      31.071  22.668  25.504  1.00  0.00    -0.352 N 
ATOM      6  C   UNL A   1      30.636  23.756  26.183  1.00  0.00     0.251 C 
ATOM      7  O   UNL A   1      29.979  23.516  27.201  1.00  0.00    -0.270 OA
ATOM      8  H   UNL A   1      30.810  21.834  25.957  1.00  0.00     0.163 HD
BRANCH   6   9
ATOM      9  C   UNL A   1      30.898  25.173  25.792  1.00  0.00     0.067 C 
ATOM     10  C   UNL A   1      32.201  30.118  25.642  1.00  0.00     0.048 C 
ATOM     11  C   UNL A   1      31.336  29.229  24.792  1.00  0.00    -0.005 A 
ATOM     12  C   UNL A   1      30.694  29.732  23.653  1.00  0.00     0.054 A 
ATOM     13  C   UNL A   1      31.157  27.884  25.132  1.00  0.00     0.131 A 
ATOM     14  C   UNL A   1      29.879  28.906  22.874  1.00  0.00     0.130 A 
ATOM     15  C   UNL A   1      30.344  27.046  24.369  1.00  0.00     0.021 A 
ATOM     16  O   UNL A   1      31.775  27.458  26.270  1.00  0.00    -0.475 OA
ATOM     17  C   UNL A   1      29.709  27.563  23.237  1.00  0.00     0.058 A 
ATOM     18  C   UNL A   1      30.136  25.666  24.797  1.00  0.00     0.025 C 
ATOM     19  C   UNL A   1      31.957  26.030  26.421  1.00  0.00     0.314 C 
BRANCH  14  20
ATOM     20  O   UNL A   1      29.196  29.280  21.751  1.00  0.00    -0.406 OA
BRANCH  20  21
ATOM     21  C   UNL A   1      28.276  30.352  21.869  1.00  0.00     0.573 C 
ATOM     22  F   UNL A   1      27.423  30.154  22.899  1.00  0.00    -0.132 F 
ATOM     23  F   UNL A   1      28.915  31.530  22.031  1.00  0.00    -0.132 F 
ATOM     24  F   UNL A   1      27.546  30.424  20.733  1.00  0.00    -0.132 F 
ENDBRANCH  20  21
ENDBRANCH  14  20
BRANCH  19  25
ATOM     25  C   UNL A   1      33.375  25.646  25.963  1.00  0.00     0.429 C 
ATOM     26  F   UNL A   1      34.236  26.673  26.162  1.00  0.00    -0.167 F 
ATOM     27  F   UNL A   1      33.874  24.591  26.652  1.00  0.00    -0.167 F 
ATOM     28  F   UNL A   1      33.426  25.316  24.653  1.00  0.00    -0.167 F 
ENDBRANCH  19  25
ENDBRANCH   6   9
ENDBRANCH   4   5
ENDBRANCH   3   4
ENDBRANCH   2   3
ENDBRANCH   1   2
BRANCH   1  29
ATOM     29  C   UNL A   1      35.840  23.408  24.106  1.00  0.00     0.021 C 
BRANCH  29  30
ATOM     30  C   UNL A   1      36.856  23.789  25.178  1.00  0.00     0.116 C 
BRANCH  30  31
ATOM     31  N   UNL A   1      37.813  22.719  25.399  1.00  0.00    -0.352 N 
ATOM     32  C   UNL A   1      39.065  22.793  25.949  1.00  0.00     0.251 C 
ATOM     33  H   UNL A   1      37.523  21.820  25.117  1.00  0.00     0.163 HD
ATOM     34  O   UNL A   1      39.858  21.864  25.819  1.00  0.00    -0.269 OA
BRANCH  32  35
ATOM     35  C   UNL A   1      39.447  24.002  26.702  1.00  0.00     0.039 A 
ATOM     36  C   UNL A   1      40.261  24.960  26.095  1.00  0.00     0.014 A 
ATOM     37  C   UNL A   1      39.005  24.169  28.019  1.00  0.00     0.014 A 
ATOM     38  C   UNL A   1      40.611  26.111  26.803  1.00  0.00     0.010 A 
ATOM     39  C   UNL A   1      39.312  25.337  28.705  1.00  0.00     0.010 A 
ATOM     40  C   UNL A   1      40.133  26.306  28.108  1.00  0.00    -0.014 A 
BRANCH  40  41
ATOM     41  C   UNL A   1      40.541  27.484  28.908  1.00  0.00     0.031 A 
ATOM     42  C   UNL A   1      41.857  27.451  29.634  1.00  0.00     0.074 A 
ATOM     43  C   UNL A   1      39.720  28.543  29.021  1.00  0.00     0.049 A 
ATOM     44  N   UNL A   1      42.365  28.323  30.463  1.00  0.00    -0.248 NA
ATOM     45  C   UNL A   1      42.704  26.267  29.408  1.00  0.00     0.031 C 
ATOM     46  C   UNL A   1      38.419  28.679  28.365  1.00  0.00     0.029 A 
ATOM     47  N   UNL A   1      39.856  29.702  29.741  1.00  0.00    -0.354 N 
ATOM     48  C   UNL A   1      43.591  27.798  30.856  1.00  0.00     0.074 A 
ATOM     49  C   UNL A   1      43.723  26.506  30.221  1.00  0.00     0.031 C 
ATOM     50  C   UNL A   1      37.879  29.861  28.706  1.00  0.00     0.029 A 
ATOM     51  C   UNL A   1      38.778  30.547  29.631  1.00  0.00     0.049 A 
ATOM     52  H   UNL A   1      40.650  29.909  30.285  1.00  0.00     0.167 HD
ATOM     53  C   UNL A   1      44.530  28.355  31.656  1.00  0.00     0.037 A 
ATOM     54  C   UNL A   1      38.542  31.735  30.220  1.00  0.00     0.037 A 
ATOM     55  C   UNL A   1      44.389  29.644  32.282  1.00  0.00     0.049 A 
ATOM     56  C   UNL A   1      39.577  32.309  31.151  1.00  0.00     0.074 A 
ATOM     57  C   UNL A   1      45.288  30.308  33.096  1.00  0.00     0.029 A 
ATOM     58  N   UNL A   1      43.276  30.464  32.163  1.00  0.00    -0.354 N 
ATOM     59  N   UNL A   1      40.742  31.812  31.498  1.00  0.00    -0.248 NA
ATOM     60  C   UNL A   1      39.268  33.605  31.769  1.00  0.00     0.031 C 
ATOM     61  C   UNL A   1      44.702  31.510  33.507  1.00  0.00     0.029 A 
ATOM     62  C   UNL A   1      43.457  31.619  32.907  1.00  0.00     0.049 A 
ATOM     63  H   UNL A   1      42.475  30.255  31.630  1.00  0.00     0.167 HD
ATOM     64  C   UNL A   1      41.312  32.745  32.358  1.00  0.00     0.074 A 
ATOM     65  C   UNL A   1      40.373  33.843  32.462  1.00  0.00     0.031 C 
ATOM     66  C   UNL A   1      42.504  32.698  33.006  1.00  0.00     0.037 A 
BRANCH  53  67
ATOM     67  C   UNL A   1      45.792  27.574  31.893  1.00  0.00     0.058 A 
ATOM     68  C   UNL A   1      46.911  27.719  31.059  1.00  0.00     0.135 A 
ATOM     69  C   UNL A   1      45.898  26.698  32.984  1.00  0.00     0.135 A 
ATOM     70  F   UNL A   1      46.856  28.527  29.987  1.00  0.00    -0.206 F 
ATOM     71  C   UNL A   1      48.085  27.011  31.286  1.00  0.00     0.059 A 
ATOM     72  C   UNL A   1      47.073  26.000  33.248  1.00  0.00     0.059 A 
ATOM     73  F   UNL A   1      44.856  26.515  33.810  1.00  0.00    -0.206 F 
ATOM     74  C   UNL A   1      48.158  26.156  32.386  1.00  0.00     0.060 A 
BRANCH  74  75
ATOM     75  S   UNL A   1      49.698  25.259  32.675  1.00  0.00     0.124 S 
ATOM     76  O   UNL A   1      50.509  26.277  33.335  1.00  0.00    -0.237 OA
ATOM     77  O   UNL A   1      49.258  24.154  33.520  1.00  0.00    -0.237 OA
ATOM     78  O   UNL A   1      50.134  24.885  31.334  1.00  0.00    -0.744 OA
ENDBRANCH  74  75
ENDBRANCH  53  67
BRANCH  54  79
ATOM     79  C   UNL A   1      37.282  32.473  29.931  1.00  0.00     0.058 A 
ATOM     80  C   UNL A   1      36.084  32.121  30.568  1.00  0.00     0.135 A 
ATOM     81  C   UNL A   1      37.252  33.547  29.028  1.00  0.00     0.135 A 
ATOM     82  F   UNL A   1      36.060  31.095  31.432  1.00  0.00    -0.206 F 
ATOM     83  C   UNL A   1      34.897  32.801  30.315  1.00  0.00     0.059 A 
ATOM     84  C   UNL A   1      36.084  34.257  28.776  1.00  0.00     0.059 A 
ATOM     85  F   UNL A   1      38.376  33.930  28.400  1.00  0.00    -0.206 F 
ATOM     86  C   UNL A   1      34.908  33.873  29.421  1.00  0.00     0.060 A 
BRANCH  86  87
ATOM     87  S   UNL A   1      33.373  34.782  29.145  1.00  0.00     0.124 S 
ATOM     88  O   UNL A   1      33.865  36.021  28.556  1.00  0.00    -0.237 OA
ATOM     89  O   UNL A   1      32.650  33.888  28.243  1.00  0.00    -0.237 OA
ATOM     90  O   UNL A   1      32.806  34.900  30.485  1.00  0.00    -0.744 OA
ENDBRANCH  86  87
ENDBRANCH  54  79
BRANCH  66  91
ATOM     91  C   UNL A   1      42.862  33.873  33.873  1.00  0.00     0.058 A 
ATOM     92  C   UNL A   1      42.512  33.919  35.231  1.00  0.00     0.135 A 
ATOM     93  C   UNL A   1      43.596  34.951  33.349  1.00  0.00     0.135 A 
ATOM     94  F   UNL A   1      41.808  32.917  35.782  1.00  0.00    -0.206 F 
ATOM     95  C   UNL A   1      42.840  35.009  36.031  1.00  0.00     0.059 A 
ATOM     96  C   UNL A   1      43.963  36.036  34.138  1.00  0.00     0.059 A 
ATOM     97  F   UNL A   1      43.971  34.950  32.060  1.00  0.00    -0.206 F 
ATOM     98  C   UNL A   1      43.565  36.064  35.473  1.00  0.00     0.060 A 
BRANCH  98  99
ATOM     99  S   UNL A   1      43.988  37.469  36.525  1.00  0.00     0.124 S 
ATOM    100  O   UNL A   1      42.926  37.419  37.523  1.00  0.00    -0.237 OA
ATOM    101  O   UNL A   1      45.322  37.113  36.999  1.00  0.00    -0.237 OA
ATOM    102  O   UNL A   1      43.936  38.606  35.610  1.00  0.00    -0.744 OA
ENDBRANCH  98  99
ENDBRANCH  66  91
ENDBRANCH  40  41
ENDBRANCH  32  35
ENDBRANCH  30  31
ENDBRANCH  29  30
ENDBRANCH   1  29
TORSDOF 19
ENDMDL
MODEL 2
REMARK VINA RESULT:     -11.9      1.824      2.934
REMARK SMILES Cc1cc(OC(F)(F)F)cc2c1O[C@H](C(F)(F)F)C(C(=O)NCCCCCCNC(=O)c1ccc(-c3c4nc(c(-c5c(F)cc(S(=O)(=O)[O-])cc5F)c5ccc([nH]5)c(-c5c(F)cc(S(=O)(=O)[O-])cc5F)c5nc(c(-c6c(F)cc(S(=O)(=O)[O-])cc6F)c6ccc3[nH]6)C=C5)C=C4)cc1)=C2
REMARK SMILES IDX 26 1 25 2 24 3 23 4 22 5 20 6 21 7 19 9 1 10 2 11 3 12 12 13
REMARK SMILES IDX 4 14 11 15 13 16 10 17 98 18 14 19 5 20 6 21 7 22 8 23 9 24
REMARK SMILES IDX 15 25 16 26 17 27 18 28 27 29 28 30 29 31 30 32 31 34 32 35
REMARK SMILES IDX 33 36 97 37 34 38 96 39 35 40 36 41 37 42 90 43 38 44 95 45
REMARK SMILES IDX 89 46 91 47 39 48 94 49 88 50 87 51 40 53 74 54 53 55 73 56
REMARK SMILES IDX 54 57 57 58 72 59 92 60 55 61 56 62 71 64 93 65 58 66 41 67
REMARK SMILES IDX 42 68 51 69 43 70 44 71 50 72 52 73 45 74 46 75 47 76 48 77
REMARK SMILES IDX 49 78 75 79 76 80 85 81 77 82 78 83 84 84 86 85 79 86 80 87
REMARK SMILES IDX 81 88 82 89 83 90 59 91 60 92 69 93 61 94 62 95 68 96 70 97
REMARK SMILES IDX 63 98 64 99 65 100 66 101 67 102
REMARK H PARENT 22 8 29 33 91 52 57 63
REMARK Flexibility Score: inf
ROOT
ATOM      1  C   UNL A   1      35.199  21.930  26.167  1.00  0.00     0.002 C 
ENDROOT
BRANCH   1   2
ATOM      2  C   UNL A   1      34.688  20.929  25.121  1.00  0.00     0.002 C 
BRANCH   2   3
ATOM      3  C   UNL A   1      33.285  20.379  25.388  1.00  0.00     0.021 C 
BRANCH   3   4
ATOM      4  C   UNL A   1      32.174  21.281  24.862  1.00  0.00     0.116 C 
BRANCH   4   5
ATOM      5  N   UNL A   1      31.457  21.936  25.942  1.00  0.00    -0.352 N 
ATOM      6  C   UNL A   1      31.214  23.205  26.347  1.00  0.00     0.251 C 
ATOM      7  O   UNL A   1      30.498  23.314  27.347  1.00  0.00    -0.270 OA
ATOM      8  H   UNL A   1      31.033  21.281  26.543  1.00  0.00     0.163 HD
BRANCH   6   9
ATOM      9  C   UNL A   1      31.746  24.434  25.684  1.00  0.00     0.067 C 
ATOM     10  C   UNL A   1      33.993  27.812  22.569  1.00  0.00     0.048 C 
ATOM     11  C   UNL A   1      33.511  27.849  23.993  1.00  0.00    -0.005 A 
ATOM     12  C   UNL A   1      33.620  29.020  24.755  1.00  0.00     0.054 A 
ATOM     13  C   UNL A   1      32.950  26.710  24.578  1.00  0.00     0.131 A 
ATOM     14  C   UNL A   1      33.183  29.046  26.082  1.00  0.00     0.130 A 
ATOM     15  C   UNL A   1      32.513  26.715  25.902  1.00  0.00     0.021 A 
ATOM     16  O   UNL A   1      32.904  25.589  23.802  1.00  0.00    -0.475 OA
ATOM     17  C   UNL A   1      32.631  27.889  26.650  1.00  0.00     0.058 A 
ATOM     18  C   UNL A   1      31.993  25.485  26.490  1.00  0.00     0.025 C 
ATOM     19  C   UNL A   1      31.981  24.550  24.207  1.00  0.00     0.314 C 
BRANCH  14  20
ATOM     20  O   UNL A   1      33.243  30.118  26.927  1.00  0.00    -0.406 OA
BRANCH  20  21
ATOM     21  C   UNL A   1      34.509  30.457  27.468  1.00  0.00     0.573 C 
ATOM     22  F   UNL A   1      34.822  31.747  27.212  1.00  0.00    -0.132 F 
ATOM     23  F   UNL A   1      34.546  30.239  28.799  1.00  0.00    -0.132 F 
ATOM     24  F   UNL A   1      35.450  29.678  26.890  1.00  0.00    -0.132 F 
ENDBRANCH  20  21
ENDBRANCH  14  20
BRANCH  19  25
ATOM     25  C   UNL A   1      30.672  24.692  23.411  1.00  0.00     0.429 C 
ATOM     26  F   UNL A   1      30.893  25.332  22.237  1.00  0.00    -0.167 F 
ATOM     27  F   UNL A   1      30.124  23.493  23.095  1.00  0.00    -0.167 F 
ATOM     28  F   UNL A   1      29.727  25.387  24.085  1.00  0.00    -0.167 F 
ENDBRANCH  19  25
ENDBRANCH   6   9
ENDBRANCH   4   5
ENDBRANCH   3   4
ENDBRANCH   2   3
ENDBRANCH   1   2
BRANCH   1  29
ATOM     29  C   UNL A   1      35.261  23.388  25.698  1.00  0.00     0.021 C 
BRANCH  29  30
ATOM     30  C   UNL A   1      36.678  23.924  25.529  1.00  0.00     0.116 C 
BRANCH  30  31
ATOM     31  N   UNL A   1      37.663  22.870  25.705  1.00  0.00    -0.352 N 
ATOM     32  C   UNL A   1      38.949  22.970  26.164  1.00  0.00     0.251 C 
ATOM     33  H   UNL A   1      37.366  21.962  25.463  1.00  0.00     0.163 HD
ATOM     34  O   UNL A   1      39.744  22.048  25.998  1.00  0.00    -0.269 OA
BRANCH  32  35
ATOM     35  C   UNL A   1      39.366  24.200  26.863  1.00  0.00     0.039 A 
ATOM     36  C   UNL A   1      40.132  25.150  26.183  1.00  0.00     0.014 A 
ATOM     37  C   UNL A   1      39.007  24.396  28.201  1.00  0.00     0.014 A 
ATOM     38  C   UNL A   1      40.515  26.320  26.841  1.00  0.00     0.010 A 
ATOM     39  C   UNL A   1      39.346  25.582  28.838  1.00  0.00     0.010 A 
ATOM     40  C   UNL A   1      40.119  26.543  28.168  1.00  0.00    -0.014 A 
BRANCH  40  41
ATOM     41  C   UNL A   1      40.566  27.742  28.913  1.00  0.00     0.031 A 
ATOM     42  C   UNL A   1      41.930  27.742  29.544  1.00  0.00     0.074 A 
ATOM     43  C   UNL A   1      39.740  28.793  29.062  1.00  0.00     0.049 A 
ATOM     44  N   UNL A   1      42.483  28.637  30.316  1.00  0.00    -0.248 NA
ATOM     45  C   UNL A   1      42.776  26.564  29.282  1.00  0.00     0.031 C 
ATOM     46  C   UNL A   1      38.394  28.899  28.497  1.00  0.00     0.029 A 
ATOM     47  N   UNL A   1      39.909  29.970  29.747  1.00  0.00    -0.354 N 
ATOM     48  C   UNL A   1      43.741  28.137  30.632  1.00  0.00     0.074 A 
ATOM     49  C   UNL A   1      43.846  26.833  30.016  1.00  0.00     0.031 C 
ATOM     50  C   UNL A   1      37.863  30.081  28.852  1.00  0.00     0.029 A 
ATOM     51  C   UNL A   1      38.815  30.798  29.696  1.00  0.00     0.049 A 
ATOM     52  H   UNL A   1      40.737  30.198  30.228  1.00  0.00     0.167 HD
ATOM     53  C   UNL A   1      44.726  28.723  31.352  1.00  0.00     0.037 A 
ATOM     54  C   UNL A   1      38.604  31.995  30.276  1.00  0.00     0.037 A 
ATOM     55  C   UNL A   1      44.612  30.023  31.960  1.00  0.00     0.049 A 
ATOM     56  C   UNL A   1      39.695  32.602  31.119  1.00  0.00     0.074 A 
ATOM     57  C   UNL A   1      45.557  30.716  32.694  1.00  0.00     0.029 A 
ATOM     58  N   UNL A   1      43.481  30.827  31.904  1.00  0.00    -0.354 N 
ATOM     59  N   UNL A   1      40.888  32.128  31.392  1.00  0.00    -0.248 NA
ATOM     60  C   UNL A   1      39.411  33.907  31.731  1.00  0.00     0.031 C 
ATOM     61  C   UNL A   1      44.984  31.918  33.121  1.00  0.00     0.029 A 
ATOM     62  C   UNL A   1      43.698  31.999  32.609  1.00  0.00     0.049 A 
ATOM     63  H   UNL A   1      42.648  30.596  31.433  1.00  0.00     0.167 HD
ATOM     64  C   UNL A   1      41.504  33.085  32.191  1.00  0.00     0.074 A 
ATOM     65  C   UNL A   1      40.559  34.174  32.338  1.00  0.00     0.031 C 
ATOM     66  C   UNL A   1      42.740  33.067  32.753  1.00  0.00     0.037 A 
BRANCH  53  67
ATOM     67  C   UNL A   1      46.013  27.963  31.515  1.00  0.00     0.058 A 
ATOM     68  C   UNL A   1      46.173  27.003  32.527  1.00  0.00     0.135 A 
ATOM     69  C   UNL A   1      47.083  28.168  30.632  1.00  0.00     0.135 A 
ATOM     70  F   UNL A   1      45.189  26.784  33.414  1.00  0.00    -0.206 F 
ATOM     71  C   UNL A   1      47.356  26.287  32.670  1.00  0.00     0.059 A 
ATOM     72  C   UNL A   1      48.266  27.442  30.738  1.00  0.00     0.059 A 
ATOM     73  F   UNL A   1      46.986  29.078  29.650  1.00  0.00    -0.206 F 
ATOM     74  C   UNL A   1      48.396  26.511  31.768  1.00  0.00     0.060 A 
BRANCH  74  75
ATOM     75  S   UNL A   1      49.917  25.557  31.957  1.00  0.00     0.124 S 
ATOM     76  O   UNL A   1      50.089  25.012  30.614  1.00  0.00    -0.237 OA
ATOM     77  O   UNL A   1      50.877  26.581  32.354  1.00  0.00    -0.237 OA
ATOM     78  O   UNL A   1      49.582  24.581  32.989  1.00  0.00    -0.744 OA
ENDBRANCH  74  75
ENDBRANCH  53  67
BRANCH  54  79
ATOM     79  C   UNL A   1      37.317  32.710  30.062  1.00  0.00     0.058 A 
ATOM     80  C   UNL A   1      37.206  33.711  29.087  1.00  0.00     0.135 A 
ATOM     81  C   UNL A   1      36.173  32.400  30.815  1.00  0.00     0.135 A 
ATOM     82  F   UNL A   1      38.275  34.050  28.349  1.00  0.00    -0.206 F 
ATOM     83  C   UNL A   1      36.011  34.387  28.869  1.00  0.00     0.059 A 
ATOM     84  C   UNL A   1      34.960  33.045  30.599  1.00  0.00     0.059 A 
ATOM     85  F   UNL A   1      36.224  31.442  31.753  1.00  0.00    -0.206 F 
ATOM     86  C   UNL A   1      34.890  34.043  29.626  1.00  0.00     0.060 A 
BRANCH  86  87
ATOM     87  S   UNL A   1      33.330  34.889  29.293  1.00  0.00     0.124 S 
ATOM     88  O   UNL A   1      32.695  33.978  28.349  1.00  0.00    -0.237 OA
ATOM     89  O   UNL A   1      32.731  34.953  30.623  1.00  0.00    -0.237 OA
ATOM     90  O   UNL A   1      33.755  36.173  28.743  1.00  0.00    -0.744 OA
ENDBRANCH  86  87
ENDBRANCH  54  79
BRANCH  66  91
ATOM     91  C   UNL A   1      43.142  34.265  33.568  1.00  0.00     0.058 A 
ATOM     92  C   UNL A   1      43.744  35.387  32.980  1.00  0.00     0.135 A 
ATOM     93  C   UNL A   1      42.890  34.306  34.951  1.00  0.00     0.135 A 
ATOM     94  F   UNL A   1      44.009  35.399  31.663  1.00  0.00    -0.206 F 
ATOM     95  C   UNL A   1      44.119  36.493  33.736  1.00  0.00     0.059 A 
ATOM     96  C   UNL A   1      43.228  35.414  35.721  1.00  0.00     0.059 A 
ATOM     97  F   UNL A   1      42.302  33.266  35.562  1.00  0.00    -0.206 F 
ATOM     98  C   UNL A   1      43.858  36.495  35.107  1.00  0.00     0.060 A 
BRANCH  98  99
ATOM     99  S   UNL A   1      44.346  37.939  36.075  1.00  0.00     0.124 S 
ATOM    100  O   UNL A   1      43.512  37.792  37.263  1.00  0.00    -0.237 OA
ATOM    101  O   UNL A   1      45.775  37.713  36.272  1.00  0.00    -0.237 OA
ATOM    102  O   UNL A   1      44.008  39.062  35.206  1.00  0.00    -0.744 OA
ENDBRANCH  98  99
ENDBRANCH  66  91
ENDBRANCH  40  41
ENDBRANCH  32  35
ENDBRANCH  30  31
ENDBRANCH  29  30
ENDBRANCH   1  29
TORSDOF 19
ENDMDL
MODEL 3
REMARK VINA RESULT:     -11.7      2.540      3.397
REMARK SMILES Cc1cc(OC(F)(F)F)cc2c1O[C@H](C(F)(F)F)C(C(=O)NCCCCCCNC(=O)c1ccc(-c3c4nc(c(-c5c(F)cc(S(=O)(=O)[O-])cc5F)c5ccc([nH]5)c(-c5c(F)cc(S(=O)(=O)[O-])cc5F)c5nc(c(-c6c(F)cc(S(=O)(=O)[O-])cc6F)c6ccc3[nH]6)C=C5)C=C4)cc1)=C2
REMARK SMILES IDX 26 1 25 2 24 3 23 4 22 5 20 6 21 7 19 9 1 10 2 11 3 12 12 13
REMARK SMILES IDX 4 14 11 15 13 16 10 17 98 18 14 19 5 20 6 21 7 22 8 23 9 24
REMARK SMILES IDX 15 25 16 26 17 27 18 28 27 29 28 30 29 31 30 32 31 34 32 35
REMARK SMILES IDX 33 36 97 37 34 38 96 39 35 40 36 41 37 42 90 43 38 44 95 45
REMARK SMILES IDX 89 46 91 47 39 48 94 49 88 50 87 51 40 53 74 54 53 55 73 56
REMARK SMILES IDX 54 57 57 58 72 59 92 60 55 61 56 62 71 64 93 65 58 66 41 67
REMARK SMILES IDX 42 68 51 69 43 70 44 71 50 72 52 73 45 74 46 75 47 76 48 77
REMARK SMILES IDX 49 78 75 79 76 80 85 81 77 82 78 83 84 84 86 85 79 86 80 87
REMARK SMILES IDX 81 88 82 89 83 90 59 91 60 92 69 93 61 94 62 95 68 96 70 97
REMARK SMILES IDX 63 98 64 99 65 100 66 101 67 102
REMARK H PARENT 22 8 29 33 91 52 57 63
REMARK Flexibility Score: inf
ROOT
ATOM      1  C   UNL A   1      36.820  23.701  24.432  1.00  0.00     0.002 C 
ENDROOT
BRANCH   1   2
ATOM      2  C   UNL A   1      35.943  22.677  23.697  1.00  0.00     0.002 C 
BRANCH   2   3
ATOM      3  C   UNL A   1      34.684  22.247  24.453  1.00  0.00     0.021 C 
BRANCH   3   4
ATOM      4  C   UNL A   1      33.392  22.621  23.734  1.00  0.00     0.116 C 
BRANCH   4   5
ATOM      5  N   UNL A   1      32.240  22.522  24.614  1.00  0.00    -0.352 N 
ATOM      6  C   UNL A   1      31.366  23.372  25.205  1.00  0.00     0.251 C 
ATOM      7  O   UNL A   1      30.480  22.836  25.877  1.00  0.00    -0.270 OA
ATOM      8  H   UNL A   1      32.040  21.586  24.843  1.00  0.00     0.163 HD
BRANCH   6   9
ATOM      9  C   UNL A   1      31.413  24.861  25.099  1.00  0.00     0.067 C 
ATOM     10  C   UNL A   1      31.798  29.886  25.975  1.00  0.00     0.048 C 
ATOM     11  C   UNL A   1      31.228  29.050  24.863  1.00  0.00    -0.005 A 
ATOM     12  C   UNL A   1      30.658  29.654  23.734  1.00  0.00     0.054 A 
ATOM     13  C   UNL A   1      31.255  27.655  24.944  1.00  0.00     0.131 A 
ATOM     14  C   UNL A   1      30.117  28.873  22.708  1.00  0.00     0.130 A 
ATOM     15  C   UNL A   1      30.716  26.859  23.933  1.00  0.00     0.021 A 
ATOM     16  O   UNL A   1      31.787  27.123  26.081  1.00  0.00    -0.475 OA
ATOM     17  C   UNL A   1      30.149  27.476  22.814  1.00  0.00     0.058 A 
ATOM     18  C   UNL A   1      30.710  25.409  24.089  1.00  0.00     0.025 C 
ATOM     19  C   UNL A   1      32.206  25.739  26.023  1.00  0.00     0.314 C 
BRANCH  14  20
ATOM     20  O   UNL A   1      29.529  29.342  21.567  1.00  0.00    -0.406 OA
BRANCH  20  21
ATOM     21  C   UNL A   1      28.443  30.241  21.710  1.00  0.00     0.573 C 
ATOM     22  F   UNL A   1      28.874  31.487  22.005  1.00  0.00    -0.132 F 
ATOM     23  F   UNL A   1      27.687  30.276  20.592  1.00  0.00    -0.132 F 
ATOM     24  F   UNL A   1      27.663  29.819  22.730  1.00  0.00    -0.132 F 
ENDBRANCH  20  21
ENDBRANCH  14  20
BRANCH  19  25
ATOM     25  C   UNL A   1      33.718  25.675  25.742  1.00  0.00     0.429 C 
ATOM     26  F   UNL A   1      33.952  25.528  24.416  1.00  0.00    -0.167 F 
ATOM     27  F   UNL A   1      34.364  26.805  26.121  1.00  0.00    -0.167 F 
ATOM     28  F   UNL A   1      34.322  24.648  26.381  1.00  0.00    -0.167 F 
ENDBRANCH  19  25
ENDBRANCH   6   9
ENDBRANCH   4   5
ENDBRANCH   3   4
ENDBRANCH   2   3
ENDBRANCH   1   2
BRANCH   1  29
ATOM     29  C   UNL A   1      37.380  23.230  25.779  1.00  0.00     0.021 C 
BRANCH  29  30
ATOM     30  C   UNL A   1      38.339  24.221  26.430  1.00  0.00     0.116 C 
BRANCH  30  31
ATOM     31  N   UNL A   1      39.723  23.833  26.213  1.00  0.00    -0.352 N 
ATOM     32  C   UNL A   1      40.863  24.481  26.606  1.00  0.00     0.251 C 
ATOM     33  H   UNL A   1      39.858  22.992  25.718  1.00  0.00     0.163 HD
ATOM     34  O   UNL A   1      41.950  24.183  26.117  1.00  0.00    -0.269 OA
BRANCH  32  35
ATOM     35  C   UNL A   1      40.770  25.541  27.628  1.00  0.00     0.039 A 
ATOM     36  C   UNL A   1      41.716  26.567  27.641  1.00  0.00     0.014 A 
ATOM     37  C   UNL A   1      39.747  25.498  28.582  1.00  0.00     0.014 A 
ATOM     38  C   UNL A   1      41.619  27.577  28.600  1.00  0.00     0.010 A 
ATOM     39  C   UNL A   1      39.623  26.529  29.503  1.00  0.00     0.010 A 
ATOM     40  C   UNL A   1      40.569  27.566  29.531  1.00  0.00    -0.014 A 
BRANCH  40  41
ATOM     41  C   UNL A   1      40.478  28.585  30.600  1.00  0.00     0.031 A 
ATOM     42  C   UNL A   1      41.375  28.465  31.800  1.00  0.00     0.074 A 
ATOM     43  C   UNL A   1      39.569  29.573  30.518  1.00  0.00     0.049 A 
ATOM     44  N   UNL A   1      41.398  29.183  32.890  1.00  0.00    -0.248 NA
ATOM     45  C   UNL A   1      42.369  27.377  31.772  1.00  0.00     0.031 C 
ATOM     46  C   UNL A   1      38.644  29.782  29.403  1.00  0.00     0.029 A 
ATOM     47  N   UNL A   1      39.266  30.580  31.399  1.00  0.00    -0.354 N 
ATOM     48  C   UNL A   1      42.406  28.639  33.678  1.00  0.00     0.074 A 
ATOM     49  C   UNL A   1      42.931  27.495  32.966  1.00  0.00     0.031 C 
ATOM     50  C   UNL A   1      37.883  30.858  29.663  1.00  0.00     0.029 A 
ATOM     51  C   UNL A   1      38.240  31.390  30.976  1.00  0.00     0.049 A 
ATOM     52  H   UNL A   1      39.739  30.710  32.252  1.00  0.00     0.167 HD
ATOM     53  C   UNL A   1      42.865  29.070  34.876  1.00  0.00     0.037 A 
ATOM     54  C   UNL A   1      37.651  32.436  31.587  1.00  0.00     0.037 A 
ATOM     55  C   UNL A   1      42.336  30.211  35.576  1.00  0.00     0.049 A 
ATOM     56  C   UNL A   1      38.143  32.862  32.945  1.00  0.00     0.074 A 
ATOM     57  C   UNL A   1      42.742  30.742  36.786  1.00  0.00     0.029 A 
ATOM     58  N   UNL A   1      41.284  30.997  35.127  1.00  0.00    -0.354 N 
ATOM     59  N   UNL A   1      39.111  32.352  33.670  1.00  0.00    -0.248 NA
ATOM     60  C   UNL A   1      37.463  34.006  33.567  1.00  0.00     0.031 C 
ATOM     61  C   UNL A   1      41.907  31.822  37.092  1.00  0.00     0.029 A 
ATOM     62  C   UNL A   1      41.014  31.997  36.047  1.00  0.00     0.049 A 
ATOM     63  H   UNL A   1      40.802  30.863  34.279  1.00  0.00     0.167 HD
ATOM     64  C   UNL A   1      39.170  33.126  34.825  1.00  0.00     0.074 A 
ATOM     65  C   UNL A   1      38.153  34.150  34.690  1.00  0.00     0.031 C 
ATOM     66  C   UNL A   1      39.989  33.002  35.900  1.00  0.00     0.037 A 
BRANCH  53  67
ATOM     67  C   UNL A   1      43.999  28.305  35.500  1.00  0.00     0.058 A 
ATOM     68  C   UNL A   1      45.338  28.622  35.221  1.00  0.00     0.135 A 
ATOM     69  C   UNL A   1      43.748  27.269  36.413  1.00  0.00     0.135 A 
ATOM     70  F   UNL A   1      45.634  29.589  34.338  1.00  0.00    -0.206 F 
ATOM     71  C   UNL A   1      46.388  27.927  35.810  1.00  0.00     0.059 A 
ATOM     72  C   UNL A   1      44.784  26.578  37.036  1.00  0.00     0.059 A 
ATOM     73  F   UNL A   1      42.487  26.919  36.710  1.00  0.00    -0.206 F 
ATOM     74  C   UNL A   1      46.101  26.909  36.720  1.00  0.00     0.060 A 
BRANCH  74  75
ATOM     75  S   UNL A   1      47.478  26.032  37.489  1.00  0.00     0.124 S 
ATOM     76  O   UNL A   1      48.553  27.013  37.370  1.00  0.00    -0.237 OA
ATOM     77  O   UNL A   1      46.980  25.798  38.840  1.00  0.00    -0.237 OA
ATOM     78  O   UNL A   1      47.627  24.838  36.663  1.00  0.00    -0.744 OA
ENDBRANCH  74  75
ENDBRANCH  53  67
BRANCH  54  79
ATOM     79  C   UNL A   1      36.546  33.168  30.911  1.00  0.00     0.058 A 
ATOM     80  C   UNL A   1      36.807  34.024  29.832  1.00  0.00     0.135 A 
ATOM     81  C   UNL A   1      35.210  33.017  31.317  1.00  0.00     0.135 A 
ATOM     82  F   UNL A   1      38.069  34.209  29.413  1.00  0.00    -0.206 F 
ATOM     83  C   UNL A   1      35.788  34.713  29.184  1.00  0.00     0.059 A 
ATOM     84  C   UNL A   1      34.171  33.675  30.670  1.00  0.00     0.059 A 
ATOM     85  F   UNL A   1      34.906  32.199  32.338  1.00  0.00    -0.206 F 
ATOM     86  C   UNL A   1      34.470  34.527  29.606  1.00  0.00     0.060 A 
BRANCH  86  87
ATOM     87  S   UNL A   1      33.151  35.384  28.720  1.00  0.00     0.124 S 
ATOM     88  O   UNL A   1      32.415  36.006  29.814  1.00  0.00    -0.237 OA
ATOM     89  O   UNL A   1      33.905  36.291  27.858  1.00  0.00    -0.237 OA
ATOM     90  O   UNL A   1      32.456  34.304  28.025  1.00  0.00    -0.744 OA
ENDBRANCH  86  87
ENDBRANCH  54  79
BRANCH  66  91
ATOM     91  C   UNL A   1      39.826  34.004  37.008  1.00  0.00     0.058 A 
ATOM     92  C   UNL A   1      40.459  35.256  36.967  1.00  0.00     0.135 A 
ATOM     93  C   UNL A   1      38.998  33.725  38.109  1.00  0.00     0.135 A 
ATOM     94  F   UNL A   1      41.262  35.573  35.939  1.00  0.00    -0.206 F 
ATOM     95  C   UNL A   1      40.310  36.181  37.995  1.00  0.00     0.059 A 
ATOM     96  C   UNL A   1      38.810  34.647  39.134  1.00  0.00     0.059 A 
ATOM     97  F   UNL A   1      38.356  32.549  38.191  1.00  0.00    -0.206 F 
ATOM     98  C   UNL A   1      39.484  35.866  39.076  1.00  0.00     0.060 A 
BRANCH  98  99
ATOM     99  S   UNL A   1      39.297  37.078  40.401  1.00  0.00     0.124 S 
ATOM    100  O   UNL A   1      40.688  37.375  40.726  1.00  0.00    -0.237 OA
ATOM    101  O   UNL A   1      38.557  38.149  39.740  1.00  0.00    -0.237 OA
ATOM    102  O   UNL A   1      38.555  36.350  41.426  1.00  0.00    -0.744 OA
ENDBRANCH  98  99
ENDBRANCH  66  91
ENDBRANCH  40  41
ENDBRANCH  32  35
ENDBRANCH  30  31
ENDBRANCH  29  30
ENDBRANCH   1  29
TORSDOF 19
ENDMDL
