MODEL 1
REMARK VINA RESULT:     -11.2      0.000      0.000
REMARK SMILES COc1ccc(-c2csc(NC(=O)[C@H](CC(=O)NCCCCCCNC(=O)c3ccc(-c4c5nc(c(-c6c(F)cc(S(=O)(=O)[O-])cc6F)c6ccc([nH]6)c(-c6c(F)cc(S(=O)(=O)[O-])cc6F)c6nc(c(-c7c(F)cc(S(=O)(=O)[O-])cc7F)c7ccc4[nH]7)C=C6)C=C5)cc3)[NH+]3CCCCC3)n2)cc1
REMARK SMILES IDX 20 1 19 2 18 3 16 4 17 5 15 7 14 8 12 9 11 10 13 12 10 13
REMARK SMILES IDX 7 14 8 15 100 16 9 17 6 18 3 19 4 20 102 21 5 22 101 23 2 24
REMARK SMILES IDX 1 25 94 26 95 27 99 28 96 30 98 31 97 32 21 33 22 34 23 35
REMARK SMILES IDX 24 36 25 37 26 38 27 40 28 41 29 42 93 43 30 44 92 45 31 46
REMARK SMILES IDX 32 47 33 48 86 49 34 50 91 51 85 52 87 53 35 54 90 55 84 56
REMARK SMILES IDX 83 57 36 59 70 60 49 61 69 62 50 63 53 64 68 65 88 66 51 67
REMARK SMILES IDX 52 68 67 70 89 71 54 72 37 73 38 74 47 75 39 76 40 77 46 78
REMARK SMILES IDX 48 79 41 80 42 81 43 82 44 83 45 84 71 85 72 86 81 87 73 88
REMARK SMILES IDX 74 89 80 90 82 91 75 92 76 93 77 94 78 95 79 96 55 97 56 98
REMARK SMILES IDX 65 99 57 100 58 101 64 102 66 103 59 104 60 105 61 106
REMARK SMILES IDX 62 107 63 108
REMARK H PARENT 18 6 11 11 94 29 25 39 87 58 53 69
REMARK Flexibility Score: inf
ROOT
ATOM      1  C   UNL A   1      33.753  31.434  27.518  1.00  0.00     0.021 C 
ENDROOT
BRANCH   1   2
ATOM      2  C   UNL A   1      33.862  29.931  27.306  1.00  0.00     0.116 C 
BRANCH   2   3
ATOM      3  N   UNL A   1      32.606  29.261  27.597  1.00  0.00    -0.356 N 
ATOM      4  C   UNL A   1      32.197  28.003  27.293  1.00  0.00     0.226 C 
ATOM      5  O   UNL A   1      31.089  27.632  27.682  1.00  0.00    -0.275 OA
ATOM      6  H   UNL A   1      31.950  29.803  28.091  1.00  0.00     0.163 HD
BRANCH   4   7
ATOM      7  C   UNL A   1      33.086  27.080  26.497  1.00  0.00     0.175 C 
BRANCH   7   8
ATOM      8  C   UNL A   1      32.335  26.349  25.368  1.00  0.00     0.284 C 
BRANCH   8   9
ATOM      9  C   UNL A   1      31.956  24.901  25.791  1.00  0.00     0.285 C 
ATOM     10  N   UNL A   1      32.226  23.786  25.038  1.00  0.00    -0.297 N 
ATOM     11  H   UNL A   1      31.479  23.181  24.827  1.00  0.00     0.172 HD
ATOM     12  O   UNL A   1      31.364  24.680  26.858  1.00  0.00    -0.268 OA
BRANCH  10  13
ATOM     13  C   UNL A   1      33.471  23.459  24.561  1.00  0.00     0.190 A 
ATOM     14  C   UNL A   1      35.637  23.054  24.624  1.00  0.00     0.084 A 
ATOM     15  C   UNL A   1      35.440  23.052  23.256  1.00  0.00     0.097 A 
ATOM     16  N   UNL A   1      34.474  23.185  25.365  1.00  0.00    -0.220 NA
ATOM     17  S   UNL A   1      33.768  23.228  22.906  1.00  0.00    -0.105 S 
BRANCH  14  18
ATOM     18  C   UNL A   1      36.948  22.911  25.254  1.00  0.00     0.001 A 
ATOM     19  C   UNL A   1      39.421  22.615  26.577  1.00  0.00     0.118 A 
ATOM     20  C   UNL A   1      38.891  21.564  25.831  1.00  0.00     0.047 A 
ATOM     21  C   UNL A   1      38.752  23.838  26.607  1.00  0.00     0.047 A 
ATOM     22  C   UNL A   1      37.661  21.706  25.179  1.00  0.00     0.014 A 
ATOM     23  C   UNL A   1      37.524  23.986  25.944  1.00  0.00     0.014 A 
BRANCH  19  24
ATOM     24  O   UNL A   1      40.611  22.354  27.198  1.00  0.00    -0.497 OA
ATOM     25  C   UNL A   1      41.675  21.985  26.326  1.00  0.00     0.278 C 
ENDBRANCH  19  24
ENDBRANCH  14  18
ENDBRANCH  10  13
ENDBRANCH   8   9
BRANCH   8  26
ATOM     26  N   UNL A   1      31.099  27.085  24.888  1.00  0.00    -0.324 N 
ATOM     27  C   UNL A   1      31.372  28.285  24.070  1.00  0.00     0.262 C 
ATOM     28  C   UNL A   1      30.186  26.176  24.168  1.00  0.00     0.262 C 
ATOM     29  H   UNL A   1      30.652  27.423  25.739  1.00  0.00     0.348 HD
ATOM     30  C   UNL A   1      30.087  29.022  23.678  1.00  0.00     0.062 C 
ATOM     31  C   UNL A   1      28.866  26.857  23.804  1.00  0.00     0.062 C 
ATOM     32  C   UNL A   1      29.108  28.104  22.964  1.00  0.00     0.012 C 
ENDBRANCH   8  26
ENDBRANCH   7   8
ENDBRANCH   4   7
ENDBRANCH   2   3
ENDBRANCH   1   2
BRANCH   1  33
ATOM     33  C   UNL A   1      34.938  32.045  28.265  1.00  0.00     0.002 C 
BRANCH  33  34
ATOM     34  C   UNL A   1      34.969  33.571  28.224  1.00  0.00     0.002 C 
BRANCH  34  35
ATOM     35  C   UNL A   1      33.603  34.235  28.409  1.00  0.00     0.021 C 
BRANCH  35  36
ATOM     36  C   UNL A   1      33.662  35.623  29.038  1.00  0.00     0.116 C 
BRANCH  36  37
ATOM     37  N   UNL A   1      32.792  35.717  30.201  1.00  0.00    -0.352 N 
ATOM     38  C   UNL A   1      32.950  35.110  31.424  1.00  0.00     0.251 C 
ATOM     39  H   UNL A   1      31.994  36.283  30.099  1.00  0.00     0.163 HD
ATOM     40  O   UNL A   1      32.028  35.055  32.224  1.00  0.00    -0.269 OA
BRANCH  38  41
ATOM     41  C   UNL A   1      34.265  34.516  31.741  1.00  0.00     0.039 A 
ATOM     42  C   UNL A   1      35.351  35.350  31.999  1.00  0.00     0.014 A 
ATOM     43  C   UNL A   1      34.392  33.126  31.831  1.00  0.00     0.014 A 
ATOM     44  C   UNL A   1      36.565  34.786  32.395  1.00  0.00     0.010 A 
ATOM     45  C   UNL A   1      35.575  32.574  32.305  1.00  0.00     0.010 A 
ATOM     46  C   UNL A   1      36.679  33.396  32.577  1.00  0.00    -0.014 A 
BRANCH  46  47
ATOM     47  C   UNL A   1      37.952  32.778  33.027  1.00  0.00     0.031 A 
ATOM     48  C   UNL A   1      38.446  33.025  34.428  1.00  0.00     0.074 A 
ATOM     49  C   UNL A   1      38.684  32.044  32.168  1.00  0.00     0.049 A 
ATOM     50  N   UNL A   1      39.552  32.623  34.998  1.00  0.00    -0.248 NA
ATOM     51  C   UNL A   1      37.594  33.858  35.293  1.00  0.00     0.031 C 
ATOM     52  C   UNL A   1      38.329  31.768  30.774  1.00  0.00     0.029 A 
ATOM     53  N   UNL A   1      39.882  31.397  32.339  1.00  0.00    -0.354 N 
ATOM     54  C   UNL A   1      39.532  33.159  36.280  1.00  0.00     0.074 A 
ATOM     55  C   UNL A   1      38.341  33.972  36.381  1.00  0.00     0.031 C 
ATOM     56  C   UNL A   1      39.271  30.981  30.229  1.00  0.00     0.029 A 
ATOM     57  C   UNL A   1      40.317  30.732  31.216  1.00  0.00     0.049 A 
ATOM     58  H   UNL A   1      40.385  31.408  33.185  1.00  0.00     0.167 HD
ATOM     59  C   UNL A   1      40.411  32.966  37.293  1.00  0.00     0.037 A 
ATOM     60  C   UNL A   1      41.432  30.006  31.006  1.00  0.00     0.037 A 
ATOM     61  C   UNL A   1      41.589  32.146  37.186  1.00  0.00     0.049 A 
ATOM     62  C   UNL A   1      42.412  29.833  32.136  1.00  0.00     0.074 A 
ATOM     63  C   UNL A   1      42.525  31.853  38.160  1.00  0.00     0.029 A 
ATOM     64  N   UNL A   1      41.996  31.492  36.032  1.00  0.00    -0.354 N 
ATOM     65  N   UNL A   1      42.351  30.298  33.361  1.00  0.00    -0.248 NA
ATOM     66  C   UNL A   1      43.611  29.030  31.858  1.00  0.00     0.031 C 
ATOM     67  C   UNL A   1      43.526  31.065  37.583  1.00  0.00     0.029 A 
ATOM     68  C   UNL A   1      43.182  30.815  36.263  1.00  0.00     0.049 A 
ATOM     69  H   UNL A   1      41.513  31.507  35.174  1.00  0.00     0.167 HD
ATOM     70  C   UNL A   1      43.484  29.817  34.009  1.00  0.00     0.074 A 
ATOM     71  C   UNL A   1      44.208  29.018  33.042  1.00  0.00     0.031 C 
ATOM     72  C   UNL A   1      43.886  30.015  35.289  1.00  0.00     0.037 A 
BRANCH  59  73
ATOM     73  C   UNL A   1      40.124  33.656  38.600  1.00  0.00     0.058 A 
ATOM     74  C   UNL A   1      39.146  33.177  39.489  1.00  0.00     0.135 A 
ATOM     75  C   UNL A   1      40.837  34.806  38.976  1.00  0.00     0.135 A 
ATOM     76  F   UNL A   1      38.423  32.090  39.178  1.00  0.00    -0.206 F 
ATOM     77  C   UNL A   1      38.857  33.836  40.679  1.00  0.00     0.059 A 
ATOM     78  C   UNL A   1      40.587  35.462  40.179  1.00  0.00     0.059 A 
ATOM     79  F   UNL A   1      41.782  35.309  38.167  1.00  0.00    -0.206 F 
ATOM     80  C   UNL A   1      39.581  34.980  41.014  1.00  0.00     0.060 A 
BRANCH  80  81
ATOM     81  S   UNL A   1      39.182  35.832  42.555  1.00  0.00     0.124 S 
ATOM     82  O   UNL A   1      37.798  35.416  42.767  1.00  0.00    -0.237 OA
ATOM     83  O   UNL A   1      40.160  35.272  43.483  1.00  0.00    -0.237 OA
ATOM     84  O   UNL A   1      39.369  37.240  42.225  1.00  0.00    -0.744 OA
ENDBRANCH  80  81
ENDBRANCH  59  73
BRANCH  60  85
ATOM     85  C   UNL A   1      41.664  29.361  29.685  1.00  0.00     0.058 A 
ATOM     86  C   UNL A   1      41.075  28.125  29.376  1.00  0.00     0.135 A 
ATOM     87  C   UNL A   1      42.459  29.969  28.702  1.00  0.00     0.135 A 
ATOM     88  F   UNL A   1      40.312  27.500  30.286  1.00  0.00    -0.206 F 
ATOM     89  C   UNL A   1      41.277  27.508  28.147  1.00  0.00     0.059 A 
ATOM     90  C   UNL A   1      42.654  29.384  27.454  1.00  0.00     0.059 A 
ATOM     91  F   UNL A   1      43.033  31.158  28.940  1.00  0.00    -0.206 F 
ATOM     92  C   UNL A   1      42.065  28.148  27.189  1.00  0.00     0.060 A 
BRANCH  92  93
ATOM     93  S   UNL A   1      42.276  27.362  25.577  1.00  0.00     0.124 S 
ATOM     94  O   UNL A   1      41.124  26.468  25.532  1.00  0.00    -0.237 OA
ATOM     95  O   UNL A   1      42.233  28.506  24.672  1.00  0.00    -0.237 OA
ATOM     96  O   UNL A   1      43.577  26.709  25.689  1.00  0.00    -0.744 OA
ENDBRANCH  92  93
ENDBRANCH  60  85
BRANCH  72  97
ATOM     97  C   UNL A   1      45.146  29.323  35.737  1.00  0.00     0.058 A 
ATOM     98  C   UNL A   1      46.398  29.953  35.686  1.00  0.00     0.135 A 
ATOM     99  C   UNL A   1      45.086  28.028  36.280  1.00  0.00     0.135 A 
ATOM    100  F   UNL A   1      46.512  31.188  35.169  1.00  0.00    -0.206 F 
ATOM    101  C   UNL A   1      47.551  29.316  36.134  1.00  0.00     0.059 A 
ATOM    102  C   UNL A   1      46.221  27.386  36.764  1.00  0.00     0.059 A 
ATOM    103  F   UNL A   1      43.911  27.384  36.364  1.00  0.00    -0.206 F 
ATOM    104  C   UNL A   1      47.451  28.033  36.676  1.00  0.00     0.060 A 
BRANCH 104 105
ATOM    105  S   UNL A   1      48.949  27.236  37.290  1.00  0.00     0.124 S 
ATOM    106  O   UNL A   1      49.567  26.775  36.050  1.00  0.00    -0.237 OA
ATOM    107  O   UNL A   1      49.630  28.333  37.969  1.00  0.00    -0.237 OA
ATOM    108  O   UNL A   1      48.440  26.183  38.165  1.00  0.00    -0.744 OA
ENDBRANCH 104 105
ENDBRANCH  72  97
ENDBRANCH  46  47
ENDBRANCH  38  41
ENDBRANCH  36  37
ENDBRANCH  35  36
ENDBRANCH  34  35
ENDBRANCH  33  34
ENDBRANCH   1  33
TORSDOF 22
ENDMDL
MODEL 2
REMARK VINA RESULT:     -11.0      3.067      8.744
REMARK SMILES COc1ccc(-c2csc(NC(=O)[C@H](CC(=O)NCCCCCCNC(=O)c3ccc(-c4c5nc(c(-c6c(F)cc(S(=O)(=O)[O-])cc6F)c6ccc([nH]6)c(-c6c(F)cc(S(=O)(=O)[O-])cc6F)c6nc(c(-c7c(F)cc(S(=O)(=O)[O-])cc7F)c7ccc4[nH]7)C=C6)C=C5)cc3)[NH+]3CCCCC3)n2)cc1
REMARK SMILES IDX 20 1 19 2 18 3 16 4 17 5 15 7 14 8 12 9 11 10 13 12 10 13
REMARK SMILES IDX 7 14 8 15 100 16 9 17 6 18 3 19 4 20 102 21 5 22 101 23 2 24
REMARK SMILES IDX 1 25 94 26 95 27 99 28 96 30 98 31 97 32 21 33 22 34 23 35
REMARK SMILES IDX 24 36 25 37 26 38 27 40 28 41 29 42 93 43 30 44 92 45 31 46
REMARK SMILES IDX 32 47 33 48 86 49 34 50 91 51 85 52 87 53 35 54 90 55 84 56
REMARK SMILES IDX 83 57 36 59 70 60 49 61 69 62 50 63 53 64 68 65 88 66 51 67
REMARK SMILES IDX 52 68 67 70 89 71 54 72 37 73 38 74 47 75 39 76 40 77 46 78
REMARK SMILES IDX 48 79 41 80 42 81 43 82 44 83 45 84 71 85 72 86 81 87 73 88
REMARK SMILES IDX 74 89 80 90 82 91 75 92 76 93 77 94 78 95 79 96 55 97 56 98
REMARK SMILES IDX 65 99 57 100 58 101 64 102 66 103 59 104 60 105 61 106
REMARK SMILES IDX 62 107 63 108
REMARK H PARENT 18 6 11 11 94 29 25 39 87 58 53 69
REMARK Flexibility Score: inf
ROOT
ATOM      1  C   UNL A   1      35.983  20.826  24.843  1.00  0.00     0.021 C 
ENDROOT
BRANCH   1   2
ATOM      2  C   UNL A   1      34.971  21.955  24.977  1.00  0.00     0.116 C 
BRANCH   2   3
ATOM      3  N   UNL A   1      34.300  21.917  26.265  1.00  0.00    -0.356 N 
ATOM      4  C   UNL A   1      33.801  22.929  27.020  1.00  0.00     0.226 C 
ATOM      5  O   UNL A   1      33.229  22.651  28.075  1.00  0.00    -0.275 OA
ATOM      6  H   UNL A   1      34.190  21.018  26.651  1.00  0.00     0.163 HD
BRANCH   4   7
ATOM      7  C   UNL A   1      33.943  24.362  26.570  1.00  0.00     0.175 C 
BRANCH   7   8
ATOM      8  C   UNL A   1      32.726  24.861  25.767  1.00  0.00     0.284 C 
BRANCH   8   9
ATOM      9  C   UNL A   1      31.444  24.059  26.133  1.00  0.00     0.285 C 
ATOM     10  N   UNL A   1      30.744  23.284  25.243  1.00  0.00    -0.297 N 
ATOM     11  H   UNL A   1      29.778  23.451  25.149  1.00  0.00     0.172 HD
ATOM     12  O   UNL A   1      30.975  24.092  27.280  1.00  0.00    -0.268 OA
BRANCH  10  13
ATOM     13  C   UNL A   1      31.303  22.292  24.477  1.00  0.00     0.190 A 
ATOM     14  C   UNL A   1      32.147  20.310  24.006  1.00  0.00     0.084 A 
ATOM     15  C   UNL A   1      32.429  20.970  22.824  1.00  0.00     0.097 A 
ATOM     16  N   UNL A   1      31.404  21.054  24.908  1.00  0.00    -0.220 NA
ATOM     17  S   UNL A   1      31.754  22.549  22.862  1.00  0.00    -0.105 S 
BRANCH  14  18
ATOM     18  C   UNL A   1      32.570  18.941  24.290  1.00  0.00     0.001 A 
ATOM     19  C   UNL A   1      33.503  16.336  24.836  1.00  0.00     0.118 A 
ATOM     20  C   UNL A   1      33.013  17.139  25.865  1.00  0.00     0.047 A 
ATOM     21  C   UNL A   1      33.462  16.805  23.524  1.00  0.00     0.047 A 
ATOM     22  C   UNL A   1      32.556  18.434  25.597  1.00  0.00     0.014 A 
ATOM     23  C   UNL A   1      32.993  18.099  23.253  1.00  0.00     0.014 A 
BRANCH  19  24
ATOM     24  O   UNL A   1      33.953  15.102  25.217  1.00  0.00    -0.497 OA
ATOM     25  C   UNL A   1      32.932  14.174  25.574  1.00  0.00     0.278 C 
ENDBRANCH  19  24
ENDBRANCH  14  18
ENDBRANCH  10  13
ENDBRANCH   8   9
BRANCH   8  26
ATOM     26  N   UNL A   1      32.466  26.346  25.923  1.00  0.00    -0.324 N 
ATOM     27  C   UNL A   1      33.654  27.148  26.285  1.00  0.00     0.262 C 
ATOM     28  C   UNL A   1      31.825  26.903  24.716  1.00  0.00     0.262 C 
ATOM     29  H   UNL A   1      31.830  26.416  26.717  1.00  0.00     0.348 HD
ATOM     30  C   UNL A   1      33.310  28.627  26.497  1.00  0.00     0.062 C 
ATOM     31  C   UNL A   1      31.416  28.364  24.904  1.00  0.00     0.062 C 
ATOM     32  C   UNL A   1      32.615  29.222  25.284  1.00  0.00     0.012 C 
ENDBRANCH   8  26
ENDBRANCH   7   8
ENDBRANCH   4   7
ENDBRANCH   2   3
ENDBRANCH   1   2
BRANCH   1  33
ATOM     33  C   UNL A   1      37.432  21.299  24.740  1.00  0.00     0.002 C 
BRANCH  33  34
ATOM     34  C   UNL A   1      37.999  21.834  26.054  1.00  0.00     0.002 C 
BRANCH  34  35
ATOM     35  C   UNL A   1      38.558  23.255  25.968  1.00  0.00     0.021 C 
BRANCH  35  36
ATOM     36  C   UNL A   1      39.714  23.531  26.924  1.00  0.00     0.116 C 
BRANCH  36  37
ATOM     37  N   UNL A   1      40.943  23.820  26.202  1.00  0.00    -0.352 N 
ATOM     38  C   UNL A   1      41.673  24.984  26.209  1.00  0.00     0.251 C 
ATOM     39  H   UNL A   1      41.295  23.093  25.640  1.00  0.00     0.163 HD
ATOM     40  O   UNL A   1      42.534  25.194  25.368  1.00  0.00    -0.269 OA
BRANCH  38  41
ATOM     41  C   UNL A   1      41.380  25.983  27.257  1.00  0.00     0.039 A 
ATOM     42  C   UNL A   1      40.402  25.709  28.212  1.00  0.00     0.014 A 
ATOM     43  C   UNL A   1      42.122  27.167  27.312  1.00  0.00     0.014 A 
ATOM     44  C   UNL A   1      40.198  26.611  29.257  1.00  0.00     0.010 A 
ATOM     45  C   UNL A   1      41.974  28.020  28.397  1.00  0.00     0.010 A 
ATOM     46  C   UNL A   1      41.000  27.760  29.373  1.00  0.00    -0.014 A 
BRANCH  46  47
ATOM     47  C   UNL A   1      40.821  28.717  30.494  1.00  0.00     0.031 A 
ATOM     48  C   UNL A   1      41.696  28.607  31.715  1.00  0.00     0.074 A 
ATOM     49  C   UNL A   1      39.846  29.645  30.438  1.00  0.00     0.049 A 
ATOM     50  N   UNL A   1      41.666  29.308  32.819  1.00  0.00    -0.248 NA
ATOM     51  C   UNL A   1      42.721  27.551  31.702  1.00  0.00     0.031 C 
ATOM     52  C   UNL A   1      38.910  29.823  29.325  1.00  0.00     0.029 A 
ATOM     53  N   UNL A   1      39.476  30.611  31.338  1.00  0.00    -0.354 N 
ATOM     54  C   UNL A   1      42.659  28.774  33.631  1.00  0.00     0.074 A 
ATOM     55  C   UNL A   1      43.224  27.647  32.923  1.00  0.00     0.031 C 
ATOM     56  C   UNL A   1      38.098  30.856  29.595  1.00  0.00     0.029 A 
ATOM     57  C   UNL A   1      38.423  31.388  30.915  1.00  0.00     0.049 A 
ATOM     58  H   UNL A   1      39.922  30.737  32.207  1.00  0.00     0.167 HD
ATOM     59  C   UNL A   1      43.083  29.202  34.844  1.00  0.00     0.037 A 
ATOM     60  C   UNL A   1      37.792  32.410  31.524  1.00  0.00     0.037 A 
ATOM     61  C   UNL A   1      42.521  30.332  35.536  1.00  0.00     0.049 A 
ATOM     62  C   UNL A   1      38.258  32.849  32.887  1.00  0.00     0.074 A 
ATOM     63  C   UNL A   1      42.900  30.873  36.751  1.00  0.00     0.029 A 
ATOM     64  N   UNL A   1      41.454  31.091  35.077  1.00  0.00    -0.354 N 
ATOM     65  N   UNL A   1      39.237  32.370  33.618  1.00  0.00    -0.248 NA
ATOM     66  C   UNL A   1      37.538  33.970  33.506  1.00  0.00     0.031 C 
ATOM     67  C   UNL A   1      42.031  31.926  37.051  1.00  0.00     0.029 A 
ATOM     68  C   UNL A   1      41.147  32.082  35.994  1.00  0.00     0.049 A 
ATOM     69  H   UNL A   1      40.984  30.947  34.223  1.00  0.00     0.167 HD
ATOM     70  C   UNL A   1      39.272  33.153  34.767  1.00  0.00     0.074 A 
ATOM     71  C   UNL A   1      38.222  34.141  34.629  1.00  0.00     0.031 C 
ATOM     72  C   UNL A   1      40.101  33.065  35.837  1.00  0.00     0.037 A 
BRANCH  59  73
ATOM     73  C   UNL A   1      44.210  28.442  35.492  1.00  0.00     0.058 A 
ATOM     74  C   UNL A   1      45.556  28.761  35.243  1.00  0.00     0.135 A 
ATOM     75  C   UNL A   1      43.946  27.386  36.380  1.00  0.00     0.135 A 
ATOM     76  F   UNL A   1      45.870  29.751  34.393  1.00  0.00    -0.206 F 
ATOM     77  C   UNL A   1      46.595  28.034  35.813  1.00  0.00     0.059 A 
ATOM     78  C   UNL A   1      44.971  26.667  36.989  1.00  0.00     0.059 A 
ATOM     79  F   UNL A   1      42.680  27.036  36.656  1.00  0.00    -0.206 F 
ATOM     80  C   UNL A   1      46.292  26.987  36.684  1.00  0.00     0.060 A 
BRANCH  80  81
ATOM     81  S   UNL A   1      47.654  26.045  37.404  1.00  0.00     0.124 S 
ATOM     82  O   UNL A   1      48.410  25.669  36.212  1.00  0.00    -0.237 OA
ATOM     83  O   UNL A   1      48.291  27.031  38.272  1.00  0.00    -0.237 OA
ATOM     84  O   UNL A   1      46.983  24.948  38.092  1.00  0.00    -0.744 OA
ENDBRANCH  80  81
ENDBRANCH  59  73
BRANCH  60  85
ATOM     85  C   UNL A   1      36.675  33.113  30.834  1.00  0.00     0.058 A 
ATOM     86  C   UNL A   1      35.347  32.937  31.254  1.00  0.00     0.135 A 
ATOM     87  C   UNL A   1      36.909  33.984  29.759  1.00  0.00     0.135 A 
ATOM     88  F   UNL A   1      35.070  32.109  32.272  1.00  0.00    -0.206 F 
ATOM     89  C   UNL A   1      34.291  33.587  30.624  1.00  0.00     0.059 A 
ATOM     90  C   UNL A   1      35.872  34.666  29.131  1.00  0.00     0.059 A 
ATOM     91  F   UNL A   1      38.162  34.199  29.328  1.00  0.00    -0.206 F 
ATOM     92  C   UNL A   1      34.564  34.454  29.566  1.00  0.00     0.060 A 
BRANCH  92  93
ATOM     93  S   UNL A   1      33.190  35.333  28.792  1.00  0.00     0.124 S 
ATOM     94  O   UNL A   1      33.891  36.336  27.998  1.00  0.00    -0.237 OA
ATOM     95  O   UNL A   1      32.532  34.268  28.040  1.00  0.00    -0.237 OA
ATOM     96  O   UNL A   1      32.434  35.845  29.931  1.00  0.00    -0.744 OA
ENDBRANCH  92  93
ENDBRANCH  60  85
BRANCH  72  97
ATOM     97  C   UNL A   1      39.939  34.089  36.928  1.00  0.00     0.058 A 
ATOM     98  C   UNL A   1      40.603  35.325  36.891  1.00  0.00     0.135 A 
ATOM     99  C   UNL A   1      39.059  33.851  37.997  1.00  0.00     0.135 A 
ATOM    100  F   UNL A   1      41.462  35.601  35.895  1.00  0.00    -0.206 F 
ATOM    101  C   UNL A   1      40.420  36.278  37.887  1.00  0.00     0.059 A 
ATOM    102  C   UNL A   1      38.835  34.803  38.986  1.00  0.00     0.059 A 
ATOM    103  F   UNL A   1      38.389  32.690  38.074  1.00  0.00    -0.206 F 
ATOM    104  C   UNL A   1      39.529  36.010  38.929  1.00  0.00     0.060 A 
BRANCH 104 105
ATOM    105  S   UNL A   1      39.272  37.272  40.192  1.00  0.00     0.124 S 
ATOM    106  O   UNL A   1      38.619  36.504  41.248  1.00  0.00    -0.237 OA
ATOM    107  O   UNL A   1      40.635  37.711  40.476  1.00  0.00    -0.237 OA
ATOM    108  O   UNL A   1      38.429  38.258  39.522  1.00  0.00    -0.744 OA
ENDBRANCH 104 105
ENDBRANCH  72  97
ENDBRANCH  46  47
ENDBRANCH  38  41
ENDBRANCH  36  37
ENDBRANCH  35  36
ENDBRANCH  34  35
ENDBRANCH  33  34
ENDBRANCH   1  33
TORSDOF 22
ENDMDL
MODEL 3
REMARK VINA RESULT:     -10.8      2.831      9.010
REMARK SMILES COc1ccc(-c2csc(NC(=O)[C@H](CC(=O)NCCCCCCNC(=O)c3ccc(-c4c5nc(c(-c6c(F)cc(S(=O)(=O)[O-])cc6F)c6ccc([nH]6)c(-c6c(F)cc(S(=O)(=O)[O-])cc6F)c6nc(c(-c7c(F)cc(S(=O)(=O)[O-])cc7F)c7ccc4[nH]7)C=C6)C=C5)cc3)[NH+]3CCCCC3)n2)cc1
REMARK SMILES IDX 20 1 19 2 18 3 16 4 17 5 15 7 14 8 12 9 11 10 13 12 10 13
REMARK SMILES IDX 7 14 8 15 100 16 9 17 6 18 3 19 4 20 102 21 5 22 101 23 2 24
REMARK SMILES IDX 1 25 94 26 95 27 99 28 96 30 98 31 97 32 21 33 22 34 23 35
REMARK SMILES IDX 24 36 25 37 26 38 27 40 28 41 29 42 93 43 30 44 92 45 31 46
REMARK SMILES IDX 32 47 33 48 86 49 34 50 91 51 85 52 87 53 35 54 90 55 84 56
REMARK SMILES IDX 83 57 36 59 70 60 49 61 69 62 50 63 53 64 68 65 88 66 51 67
REMARK SMILES IDX 52 68 67 70 89 71 54 72 37 73 38 74 47 75 39 76 40 77 46 78
REMARK SMILES IDX 48 79 41 80 42 81 43 82 44 83 45 84 71 85 72 86 81 87 73 88
REMARK SMILES IDX 74 89 80 90 82 91 75 92 76 93 77 94 78 95 79 96 55 97 56 98
REMARK SMILES IDX 65 99 57 100 58 101 64 102 66 103 59 104 60 105 61 106
REMARK SMILES IDX 62 107 63 108
REMARK H PARENT 18 6 11 11 94 29 25 39 87 58 53 69
REMARK Flexibility Score: inf
ROOT
ATOM      1  C   UNL A   1      37.015  21.554  25.240  1.00  0.00     0.021 C 
ENDROOT
BRANCH   1   2
ATOM      2  C   UNL A   1      36.707  23.043  25.187  1.00  0.00     0.116 C 
BRANCH   2   3
ATOM      3  N   UNL A   1      35.846  23.368  24.061  1.00  0.00    -0.356 N 
ATOM      4  C   UNL A   1      34.838  24.271  23.965  1.00  0.00     0.226 C 
ATOM      5  O   UNL A   1      34.266  24.404  22.883  1.00  0.00    -0.275 OA
ATOM      6  H   UNL A   1      36.022  22.852  23.242  1.00  0.00     0.163 HD
BRANCH   4   7
ATOM      7  C   UNL A   1      34.433  25.096  25.161  1.00  0.00     0.175 C 
BRANCH   7   8
ATOM      8  C   UNL A   1      32.980  25.601  25.077  1.00  0.00     0.284 C 
BRANCH   8   9
ATOM      9  C   UNL A   1      32.021  24.693  25.898  1.00  0.00     0.285 C 
ATOM     10  N   UNL A   1      31.149  23.793  25.339  1.00  0.00    -0.297 N 
ATOM     11  H   UNL A   1      30.201  23.850  25.597  1.00  0.00     0.172 HD
ATOM     12  O   UNL A   1      31.992  24.748  27.137  1.00  0.00    -0.268 OA
BRANCH  10  13
ATOM     13  C   UNL A   1      31.514  22.818  24.443  1.00  0.00     0.190 A 
ATOM     14  C   UNL A   1      32.302  20.880  23.747  1.00  0.00     0.084 A 
ATOM     15  C   UNL A   1      32.174  21.530  22.533  1.00  0.00     0.097 A 
ATOM     16  N   UNL A   1      31.818  21.599  24.829  1.00  0.00    -0.220 NA
ATOM     17  S   UNL A   1      31.443  23.066  22.766  1.00  0.00    -0.105 S 
BRANCH  14  18
ATOM     18  C   UNL A   1      32.876  19.546  23.895  1.00  0.00     0.001 A 
ATOM     19  C   UNL A   1      34.037  16.981  24.071  1.00  0.00     0.118 A 
ATOM     20  C   UNL A   1      34.620  18.065  24.725  1.00  0.00     0.047 A 
ATOM     21  C   UNL A   1      32.835  17.161  23.387  1.00  0.00     0.047 A 
ATOM     22  C   UNL A   1      34.050  19.340  24.634  1.00  0.00     0.014 A 
ATOM     23  C   UNL A   1      32.256  18.437  23.305  1.00  0.00     0.014 A 
BRANCH  19  24
ATOM     24  O   UNL A   1      34.697  15.790  24.202  1.00  0.00    -0.497 OA
ATOM     25  C   UNL A   1      35.479  15.664  25.386  1.00  0.00     0.278 C 
ENDBRANCH  19  24
ENDBRANCH  14  18
ENDBRANCH  10  13
ENDBRANCH   8   9
BRANCH   8  26
ATOM     26  N   UNL A   1      32.815  27.045  25.507  1.00  0.00    -0.324 N 
ATOM     27  C   UNL A   1      33.618  28.017  24.736  1.00  0.00     0.262 C 
ATOM     28  C   UNL A   1      31.393  27.442  25.500  1.00  0.00     0.262 C 
ATOM     29  H   UNL A   1      33.179  27.076  26.459  1.00  0.00     0.348 HD
ATOM     30  C   UNL A   1      33.461  29.446  25.265  1.00  0.00     0.062 C 
ATOM     31  C   UNL A   1      31.185  28.845  26.072  1.00  0.00     0.062 C 
ATOM     32  C   UNL A   1      32.003  29.874  25.305  1.00  0.00     0.012 C 
ENDBRANCH   8  26
ENDBRANCH   7   8
ENDBRANCH   4   7
ENDBRANCH   2   3
ENDBRANCH   1   2
BRANCH   1  33
ATOM     33  C   UNL A   1      38.486  21.232  25.502  1.00  0.00     0.002 C 
BRANCH  33  34
ATOM     34  C   UNL A   1      39.232  22.335  26.252  1.00  0.00     0.002 C 
BRANCH  34  35
ATOM     35  C   UNL A   1      40.398  21.838  27.109  1.00  0.00     0.021 C 
BRANCH  35  36
ATOM     36  C   UNL A   1      41.453  22.898  27.404  1.00  0.00     0.116 C 
BRANCH  36  37
ATOM     37  N   UNL A   1      41.736  23.707  26.228  1.00  0.00    -0.352 N 
ATOM     38  C   UNL A   1      41.686  25.075  26.114  1.00  0.00     0.251 C 
ATOM     39  H   UNL A   1      41.993  23.214  25.416  1.00  0.00     0.163 HD
ATOM     40  O   UNL A   1      41.690  25.617  25.018  1.00  0.00    -0.269 OA
BRANCH  38  41
ATOM     41  C   UNL A   1      41.619  25.876  27.353  1.00  0.00     0.039 A 
ATOM     42  C   UNL A   1      42.598  26.835  27.606  1.00  0.00     0.014 A 
ATOM     43  C   UNL A   1      40.546  25.699  28.233  1.00  0.00     0.014 A 
ATOM     44  C   UNL A   1      42.476  27.656  28.729  1.00  0.00     0.010 A 
ATOM     45  C   UNL A   1      40.384  26.571  29.302  1.00  0.00     0.010 A 
ATOM     46  C   UNL A   1      41.354  27.548  29.570  1.00  0.00    -0.014 A 
BRANCH  46  47
ATOM     47  C   UNL A   1      41.189  28.431  30.752  1.00  0.00     0.031 A 
ATOM     48  C   UNL A   1      40.113  29.485  30.750  1.00  0.00     0.074 A 
ATOM     49  C   UNL A   1      42.031  28.323  31.797  1.00  0.00     0.049 A 
ATOM     50  N   UNL A   1      39.837  30.388  31.656  1.00  0.00    -0.248 NA
ATOM     51  C   UNL A   1      39.251  29.550  29.558  1.00  0.00     0.031 C 
ATOM     52  C   UNL A   1      43.137  27.367  31.897  1.00  0.00     0.029 A 
ATOM     53  N   UNL A   1      42.093  29.024  32.974  1.00  0.00    -0.354 N 
ATOM     54  C   UNL A   1      38.780  31.128  31.141  1.00  0.00     0.074 A 
ATOM     55  C   UNL A   1      38.511  30.617  29.816  1.00  0.00     0.031 C 
ATOM     56  C   UNL A   1      43.744  27.520  33.084  1.00  0.00     0.029 A 
ATOM     57  C   UNL A   1      43.102  28.610  33.813  1.00  0.00     0.049 A 
ATOM     58  H   UNL A   1      41.473  29.755  33.199  1.00  0.00     0.167 HD
ATOM     59  C   UNL A   1      38.076  32.123  31.732  1.00  0.00     0.037 A 
ATOM     60  C   UNL A   1      43.468  29.061  35.028  1.00  0.00     0.037 A 
ATOM     61  C   UNL A   1      38.345  32.618  33.057  1.00  0.00     0.049 A 
ATOM     62  C   UNL A   1      42.693  30.191  35.651  1.00  0.00     0.074 A 
ATOM     63  C   UNL A   1      37.670  33.596  33.763  1.00  0.00     0.029 A 
ATOM     64  N   UNL A   1      39.377  32.176  33.872  1.00  0.00    -0.354 N 
ATOM     65  N   UNL A   1      41.658  30.843  35.176  1.00  0.00    -0.248 NA
ATOM     66  C   UNL A   1      43.130  30.644  36.979  1.00  0.00     0.031 C 
ATOM     67  C   UNL A   1      38.325  33.783  34.985  1.00  0.00     0.029 A 
ATOM     68  C   UNL A   1      39.372  32.877  35.066  1.00  0.00     0.049 A 
ATOM     69  H   UNL A   1      40.019  31.467  33.636  1.00  0.00     0.167 HD
ATOM     70  C   UNL A   1      41.301  31.759  36.160  1.00  0.00     0.074 A 
ATOM     71  C   UNL A   1      42.224  31.570  37.260  1.00  0.00     0.031 C 
ATOM     72  C   UNL A   1      40.295  32.670  36.156  1.00  0.00     0.037 A 
BRANCH  59  73
ATOM     73  C   UNL A   1      36.949  32.737  30.943  1.00  0.00     0.058 A 
ATOM     74  C   UNL A   1      37.187  33.666  29.915  1.00  0.00     0.135 A 
ATOM     75  C   UNL A   1      35.615  32.391  31.210  1.00  0.00     0.135 A 
ATOM     76  F   UNL A   1      38.441  34.046  29.624  1.00  0.00    -0.206 F 
ATOM     77  C   UNL A   1      36.144  34.259  29.214  1.00  0.00     0.059 A 
ATOM     78  C   UNL A   1      34.556  32.947  30.497  1.00  0.00     0.059 A 
ATOM     79  F   UNL A   1      35.326  31.509  32.180  1.00  0.00    -0.206 F 
ATOM     80  C   UNL A   1      34.831  33.895  29.513  1.00  0.00     0.060 A 
BRANCH  80  81
ATOM     81  S   UNL A   1      33.488  34.687  28.602  1.00  0.00     0.124 S 
ATOM     82  O   UNL A   1      32.540  34.978  29.674  1.00  0.00    -0.237 OA
ATOM     83  O   UNL A   1      34.152  35.846  28.014  1.00  0.00    -0.237 OA
ATOM     84  O   UNL A   1      33.068  33.661  27.655  1.00  0.00    -0.744 OA
ENDBRANCH  80  81
ENDBRANCH  59  73
BRANCH  60  85
ATOM     85  C   UNL A   1      44.601  28.420  35.750  1.00  0.00     0.058 A 
ATOM     86  C   UNL A   1      45.921  28.849  35.543  1.00  0.00     0.135 A 
ATOM     87  C   UNL A   1      44.390  27.383  36.671  1.00  0.00     0.135 A 
ATOM     88  F   UNL A   1      46.176  29.833  34.666  1.00  0.00    -0.206 F 
ATOM     89  C   UNL A   1      46.992  28.265  36.210  1.00  0.00     0.059 A 
ATOM     90  C   UNL A   1      45.442  26.800  37.372  1.00  0.00     0.059 A 
ATOM     91  F   UNL A   1      43.146  26.945  36.918  1.00  0.00    -0.206 F 
ATOM     92  C   UNL A   1      46.741  27.243  37.127  1.00  0.00     0.060 A 
BRANCH  92  93
ATOM     93  S   UNL A   1      48.135  26.529  38.027  1.00  0.00     0.124 S 
ATOM     94  O   UNL A   1      49.246  27.339  37.541  1.00  0.00    -0.237 OA
ATOM     95  O   UNL A   1      47.745  26.747  39.417  1.00  0.00    -0.237 OA
ATOM     96  O   UNL A   1      48.134  25.134  37.595  1.00  0.00    -0.744 OA
ENDBRANCH  92  93
ENDBRANCH  60  85
BRANCH  72  97
ATOM     97  C   UNL A   1      40.110  33.507  37.394  1.00  0.00     0.058 A 
ATOM     98  C   UNL A   1      40.846  34.681  37.613  1.00  0.00     0.135 A 
ATOM     99  C   UNL A   1      39.138  33.156  38.345  1.00  0.00     0.135 A 
ATOM    100  F   UNL A   1      41.793  35.058  36.739  1.00  0.00    -0.206 F 
ATOM    101  C   UNL A   1      40.643  35.464  38.745  1.00  0.00     0.059 A 
ATOM    102  C   UNL A   1      38.895  33.942  39.467  1.00  0.00     0.059 A 
ATOM    103  F   UNL A   1      38.397  32.048  38.178  1.00  0.00    -0.206 F 
ATOM    104  C   UNL A   1      39.661  35.089  39.664  1.00  0.00     0.060 A 
BRANCH 104 105
ATOM    105  S   UNL A   1      39.382  36.137  41.106  1.00  0.00     0.124 S 
ATOM    106  O   UNL A   1      38.763  35.198  42.037  1.00  0.00    -0.237 OA
ATOM    107  O   UNL A   1      40.735  36.567  41.445  1.00  0.00    -0.237 OA
ATOM    108  O   UNL A   1      38.504  37.188  40.599  1.00  0.00    -0.744 OA
ENDBRANCH 104 105
ENDBRANCH  72  97
ENDBRANCH  46  47
ENDBRANCH  38  41
ENDBRANCH  36  37
ENDBRANCH  35  36
ENDBRANCH  34  35
ENDBRANCH  33  34
ENDBRANCH   1  33
TORSDOF 22
ENDMDL
