MODEL 1
REMARK VINA RESULT:     -14.0      0.000      0.000
REMARK SMILES Cc1ccc(/C=C(\NC(=O)c2cccc(C)c2)C(=O)NCCCCCCNC(=O)c2ccc(-c3c4nc(c(-c5c(F)cc(S(=O)(=O)[O-])cc5F)c5ccc([nH]5)c(-c5c(F)cc(S(=O)(=O)[O-])cc5F)c5nc(c(-c6c(F)cc(S(=O)(=O)[O-])cc6F)c6ccc3[nH]6)C=C5)C=C4)cc2)cc1
REMARK SMILES IDX 24 1 23 2 22 3 21 4 20 5 18 6 19 7 7 9 6 10 5 11 1 12 2 13
REMARK SMILES IDX 3 14 97 15 4 16 96 17 8 18 9 19 10 21 11 22 12 23 17 24
REMARK SMILES IDX 13 25 15 26 14 27 16 28 25 29 26 30 27 31 28 32 29 34 30 35
REMARK SMILES IDX 31 36 95 37 32 38 94 39 33 40 34 41 35 42 88 43 36 44 93 45
REMARK SMILES IDX 87 46 89 47 37 48 92 49 86 50 85 51 38 53 72 54 51 55 71 56
REMARK SMILES IDX 52 57 55 58 70 59 90 60 53 61 54 62 69 64 91 65 56 66 39 67
REMARK SMILES IDX 40 68 49 69 41 70 42 71 48 72 50 73 43 74 44 75 45 76 46 77
REMARK SMILES IDX 47 78 73 79 74 80 83 81 75 82 76 83 82 84 84 85 77 86 78 87
REMARK SMILES IDX 79 88 80 89 81 90 57 91 58 92 67 93 59 94 60 95 66 96 68 97
REMARK SMILES IDX 61 98 62 99 63 100 64 101 65 102
REMARK H PARENT 20 8 8 20 27 33 89 52 55 63
REMARK Flexibility Score: inf
ROOT
ATOM      1  C   UNL A   1      32.160  29.786  26.810  1.00  0.00     0.002 C 
ENDROOT
BRANCH   1   2
ATOM      2  C   UNL A   1      32.140  28.407  27.481  1.00  0.00     0.002 C 
BRANCH   2   3
ATOM      3  C   UNL A   1      31.541  27.212  26.727  1.00  0.00     0.021 C 
BRANCH   3   4
ATOM      4  C   UNL A   1      31.518  27.246  25.200  1.00  0.00     0.116 C 
BRANCH   4   5
ATOM      5  N   UNL A   1      30.240  27.001  24.565  1.00  0.00    -0.351 N 
ATOM      6  C   UNL A   1      29.840  25.923  23.817  1.00  0.00     0.267 C 
ATOM      7  O   UNL A   1      28.676  25.886  23.411  1.00  0.00    -0.268 OA
ATOM      8  H   UNL A   1      29.564  27.707  24.686  1.00  0.00     0.163 HD
BRANCH   6   9
ATOM      9  C   UNL A   1      30.815  24.814  23.443  1.00  0.00     0.107 C 
ATOM     10  C   UNL A   1      30.809  23.717  24.239  1.00  0.00     0.040 C 
BRANCH  10  11
ATOM     11  C   UNL A   1      31.624  22.465  24.206  1.00  0.00    -0.023 A 
ATOM     12  C   UNL A   1      33.860  18.735  24.419  1.00  0.00     0.044 C 
ATOM     13  C   UNL A   1      33.134  20.045  24.355  1.00  0.00    -0.051 A 
ATOM     14  C   UNL A   1      32.501  20.421  23.174  1.00  0.00     0.004 A 
ATOM     15  C   UNL A   1      33.044  20.897  25.456  1.00  0.00     0.004 A 
ATOM     16  C   UNL A   1      31.788  21.624  23.096  1.00  0.00     0.008 A 
ATOM     17  C   UNL A   1      32.298  22.086  25.382  1.00  0.00     0.008 A 
ENDBRANCH  10  11
BRANCH   9  18
ATOM     18  N   UNL A   1      31.630  24.867  22.343  1.00  0.00    -0.317 N 
ATOM     19  C   UNL A   1      32.980  24.758  22.130  1.00  0.00     0.255 C 
ATOM     20  H   UNL A   1      31.129  25.021  21.511  1.00  0.00     0.170 HD
ATOM     21  O   UNL A   1      33.367  24.869  20.964  1.00  0.00    -0.269 OA
BRANCH  19  22
ATOM     22  C   UNL A   1      33.985  24.516  23.197  1.00  0.00     0.040 A 
ATOM     23  C   UNL A   1      33.948  25.394  24.290  1.00  0.00     0.014 A 
ATOM     24  C   UNL A   1      34.912  23.470  23.197  1.00  0.00     0.017 A 
ATOM     25  C   UNL A   1      34.753  25.177  25.405  1.00  0.00     0.001 A 
ATOM     26  C   UNL A   1      35.699  23.223  24.331  1.00  0.00    -0.050 A 
ATOM     27  C   UNL A   1      35.603  24.075  25.438  1.00  0.00     0.003 A 
ATOM     28  C   UNL A   1      36.591  22.019  24.401  1.00  0.00     0.044 C 
ENDBRANCH  19  22
ENDBRANCH   9  18
ENDBRANCH   6   9
ENDBRANCH   4   5
ENDBRANCH   3   4
ENDBRANCH   2   3
ENDBRANCH   1   2
BRANCH   1  29
ATOM     29  C   UNL A   1      33.129  30.837  27.350  1.00  0.00     0.021 C 
BRANCH  29  30
ATOM     30  C   UNL A   1      34.560  30.374  27.583  1.00  0.00     0.116 C 
BRANCH  30  31
ATOM     31  N   UNL A   1      35.342  31.367  28.323  1.00  0.00    -0.352 N 
ATOM     32  C   UNL A   1      36.548  31.196  28.986  1.00  0.00     0.251 C 
ATOM     33  H   UNL A   1      34.962  32.274  28.356  1.00  0.00     0.163 HD
ATOM     34  O   UNL A   1      37.049  32.037  29.706  1.00  0.00    -0.269 OA
BRANCH  32  35
ATOM     35  C   UNL A   1      37.259  29.938  28.694  1.00  0.00     0.039 A 
ATOM     36  C   UNL A   1      37.396  29.040  29.758  1.00  0.00     0.014 A 
ATOM     37  C   UNL A   1      38.093  29.897  27.581  1.00  0.00     0.014 A 
ATOM     38  C   UNL A   1      38.523  28.231  29.813  1.00  0.00     0.010 A 
ATOM     39  C   UNL A   1      39.253  29.155  27.682  1.00  0.00     0.010 A 
ATOM     40  C   UNL A   1      39.496  28.377  28.825  1.00  0.00    -0.014 A 
BRANCH  40  41
ATOM     41  C   UNL A   1      40.852  27.861  28.963  1.00  0.00     0.031 A 
ATOM     42  C   UNL A   1      41.173  26.496  28.500  1.00  0.00     0.074 A 
ATOM     43  C   UNL A   1      41.839  28.662  29.428  1.00  0.00     0.049 A 
ATOM     44  N   UNL A   1      42.216  25.838  28.871  1.00  0.00    -0.248 NA
ATOM     45  C   UNL A   1      40.313  25.747  27.590  1.00  0.00     0.031 C 
ATOM     46  C   UNL A   1      43.278  28.430  29.346  1.00  0.00     0.029 A 
ATOM     47  N   UNL A   1      41.719  29.781  30.255  1.00  0.00    -0.354 N 
ATOM     48  C   UNL A   1      42.309  24.717  28.084  1.00  0.00     0.074 A 
ATOM     49  C   UNL A   1      41.079  24.684  27.325  1.00  0.00     0.031 C 
ATOM     50  C   UNL A   1      43.895  29.183  30.269  1.00  0.00     0.029 A 
ATOM     51  C   UNL A   1      42.868  29.816  31.075  1.00  0.00     0.049 A 
ATOM     52  H   UNL A   1      40.974  30.425  30.265  1.00  0.00     0.167 HD
ATOM     53  C   UNL A   1      43.463  23.995  28.078  1.00  0.00     0.037 A 
ATOM     54  C   UNL A   1      42.749  29.688  32.429  1.00  0.00     0.037 A 
ATOM     55  C   UNL A   1      44.435  24.517  29.034  1.00  0.00     0.049 A 
ATOM     56  C   UNL A   1      43.341  28.408  32.995  1.00  0.00     0.074 A 
ATOM     57  C   UNL A   1      45.535  25.356  28.955  1.00  0.00     0.029 A 
ATOM     58  N   UNL A   1      44.136  24.422  30.379  1.00  0.00    -0.354 N 
ATOM     59  N   UNL A   1      43.976  27.507  32.294  1.00  0.00    -0.248 NA
ATOM     60  C   UNL A   1      43.196  28.006  34.396  1.00  0.00     0.031 C 
ATOM     61  C   UNL A   1      45.873  25.777  30.274  1.00  0.00     0.029 A 
ATOM     62  C   UNL A   1      44.986  25.186  31.154  1.00  0.00     0.049 A 
ATOM     63  H   UNL A   1      43.403  23.875  30.743  1.00  0.00     0.167 HD
ATOM     64  C   UNL A   1      44.225  26.408  33.076  1.00  0.00     0.074 A 
ATOM     65  C   UNL A   1      43.747  26.781  34.394  1.00  0.00     0.031 C 
ATOM     66  C   UNL A   1      44.749  25.245  32.587  1.00  0.00     0.037 A 
BRANCH  53  67
ATOM     67  C   UNL A   1      43.763  22.946  27.041  1.00  0.00     0.058 A 
ATOM     68  C   UNL A   1      43.018  21.751  26.992  1.00  0.00     0.135 A 
ATOM     69  C   UNL A   1      44.806  23.042  26.098  1.00  0.00     0.135 A 
ATOM     70  F   UNL A   1      41.958  21.555  27.788  1.00  0.00    -0.206 F 
ATOM     71  C   UNL A   1      43.342  20.693  26.145  1.00  0.00     0.059 A 
ATOM     72  C   UNL A   1      45.189  21.974  25.281  1.00  0.00     0.059 A 
ATOM     73  F   UNL A   1      45.477  24.191  25.923  1.00  0.00    -0.206 F 
ATOM     74  C   UNL A   1      44.453  20.798  25.318  1.00  0.00     0.060 A 
BRANCH  74  75
ATOM     75  S   UNL A   1      44.920  19.371  24.319  1.00  0.00     0.124 S 
ATOM     76  O   UNL A   1      46.375  19.365  24.451  1.00  0.00    -0.237 OA
ATOM     77  O   UNL A   1      44.218  18.286  24.996  1.00  0.00    -0.237 OA
ATOM     78  O   UNL A   1      44.422  19.711  22.989  1.00  0.00    -0.744 OA
ENDBRANCH  74  75
ENDBRANCH  53  67
BRANCH  54  79
ATOM     79  C   UNL A   1      41.559  30.416  32.957  1.00  0.00     0.058 A 
ATOM     80  C   UNL A   1      40.376  29.673  33.158  1.00  0.00     0.135 A 
ATOM     81  C   UNL A   1      41.683  31.629  33.644  1.00  0.00     0.135 A 
ATOM     82  F   UNL A   1      40.199  28.506  32.516  1.00  0.00    -0.206 F 
ATOM     83  C   UNL A   1      39.437  30.035  34.116  1.00  0.00     0.059 A 
ATOM     84  C   UNL A   1      40.747  32.018  34.603  1.00  0.00     0.059 A 
ATOM     85  F   UNL A   1      42.785  32.381  33.494  1.00  0.00    -0.206 F 
ATOM     86  C   UNL A   1      39.663  31.180  34.876  1.00  0.00     0.060 A 
BRANCH  86  87
ATOM     87  S   UNL A   1      38.620  31.450  36.330  1.00  0.00     0.124 S 
ATOM     88  O   UNL A   1      38.263  30.086  36.700  1.00  0.00    -0.237 OA
ATOM     89  O   UNL A   1      39.540  32.131  37.241  1.00  0.00    -0.237 OA
ATOM     90  O   UNL A   1      37.535  32.272  35.810  1.00  0.00    -0.744 OA
ENDBRANCH  86  87
ENDBRANCH  54  79
BRANCH  66  91
ATOM     91  C   UNL A   1      45.052  24.041  33.441  1.00  0.00     0.058 A 
ATOM     92  C   UNL A   1      46.248  23.924  34.168  1.00  0.00     0.135 A 
ATOM     93  C   UNL A   1      44.212  22.905  33.446  1.00  0.00     0.135 A 
ATOM     94  F   UNL A   1      47.140  24.928  34.185  1.00  0.00    -0.206 F 
ATOM     95  C   UNL A   1      46.571  22.770  34.887  1.00  0.00     0.059 A 
ATOM     96  C   UNL A   1      44.538  21.726  34.109  1.00  0.00     0.059 A 
ATOM     97  F   UNL A   1      43.022  22.912  32.830  1.00  0.00    -0.206 F 
ATOM     98  C   UNL A   1      45.710  21.675  34.849  1.00  0.00     0.060 A 
BRANCH  98  99
ATOM     99  S   UNL A   1      46.131  20.177  35.758  1.00  0.00     0.124 S 
ATOM    100  O   UNL A   1      45.974  20.591  37.148  1.00  0.00    -0.237 OA
ATOM    101  O   UNL A   1      45.126  19.244  35.258  1.00  0.00    -0.237 OA
ATOM    102  O   UNL A   1      47.504  19.905  35.344  1.00  0.00    -0.744 OA
ENDBRANCH  98  99
ENDBRANCH  66  91
ENDBRANCH  40  41
ENDBRANCH  32  35
ENDBRANCH  30  31
ENDBRANCH  29  30
ENDBRANCH   1  29
TORSDOF 19
ENDMDL
MODEL 2
REMARK VINA RESULT:     -13.9      0.963      2.336
REMARK SMILES Cc1ccc(/C=C(\NC(=O)c2cccc(C)c2)C(=O)NCCCCCCNC(=O)c2ccc(-c3c4nc(c(-c5c(F)cc(S(=O)(=O)[O-])cc5F)c5ccc([nH]5)c(-c5c(F)cc(S(=O)(=O)[O-])cc5F)c5nc(c(-c6c(F)cc(S(=O)(=O)[O-])cc6F)c6ccc3[nH]6)C=C5)C=C4)cc2)cc1
REMARK SMILES IDX 24 1 23 2 22 3 21 4 20 5 18 6 19 7 7 9 6 10 5 11 1 12 2 13
REMARK SMILES IDX 3 14 97 15 4 16 96 17 8 18 9 19 10 21 11 22 12 23 17 24
REMARK SMILES IDX 13 25 15 26 14 27 16 28 25 29 26 30 27 31 28 32 29 34 30 35
REMARK SMILES IDX 31 36 95 37 32 38 94 39 33 40 34 41 35 42 88 43 36 44 93 45
REMARK SMILES IDX 87 46 89 47 37 48 92 49 86 50 85 51 38 53 72 54 51 55 71 56
REMARK SMILES IDX 52 57 55 58 70 59 90 60 53 61 54 62 69 64 91 65 56 66 39 67
REMARK SMILES IDX 40 68 49 69 41 70 42 71 48 72 50 73 43 74 44 75 45 76 46 77
REMARK SMILES IDX 47 78 73 79 74 80 83 81 75 82 76 83 82 84 84 85 77 86 78 87
REMARK SMILES IDX 79 88 80 89 81 90 57 91 58 92 67 93 59 94 60 95 66 96 68 97
REMARK SMILES IDX 61 98 62 99 63 100 64 101 65 102
REMARK H PARENT 20 8 8 20 27 33 89 52 55 63
REMARK Flexibility Score: inf
ROOT
ATOM      1  C   UNL A   1      32.241  30.058  26.618  1.00  0.00     0.002 C 
ENDROOT
BRANCH   1   2
ATOM      2  C   UNL A   1      32.081  28.615  27.112  1.00  0.00     0.002 C 
BRANCH   2   3
ATOM      3  C   UNL A   1      31.887  27.487  26.090  1.00  0.00     0.021 C 
BRANCH   3   4
ATOM      4  C   UNL A   1      32.607  27.582  24.747  1.00  0.00     0.116 C 
BRANCH   4   5
ATOM      5  N   UNL A   1      32.083  26.769  23.670  1.00  0.00    -0.351 N 
ATOM      6  C   UNL A   1      32.237  25.424  23.450  1.00  0.00     0.267 C 
ATOM      7  O   UNL A   1      31.653  24.912  22.492  1.00  0.00    -0.268 OA
ATOM      8  H   UNL A   1      31.541  27.248  23.001  1.00  0.00     0.163 HD
BRANCH   6   9
ATOM      9  C   UNL A   1      33.149  24.578  24.329  1.00  0.00     0.107 C 
ATOM     10  C   UNL A   1      34.436  24.462  23.920  1.00  0.00     0.040 C 
BRANCH  10  11
ATOM     11  C   UNL A   1      35.593  23.708  24.493  1.00  0.00    -0.023 A 
ATOM     12  C   UNL A   1      39.080  21.473  25.836  1.00  0.00     0.044 C 
ATOM     13  C   UNL A   1      37.850  22.202  25.385  1.00  0.00    -0.051 A 
ATOM     14  C   UNL A   1      37.467  23.370  26.038  1.00  0.00     0.004 A 
ATOM     15  C   UNL A   1      37.083  21.765  24.304  1.00  0.00     0.004 A 
ATOM     16  C   UNL A   1      36.341  24.088  25.617  1.00  0.00     0.008 A 
ATOM     17  C   UNL A   1      35.975  22.509  23.864  1.00  0.00     0.008 A 
ENDBRANCH  10  11
BRANCH   9  18
ATOM     18  N   UNL A   1      32.739  23.996  25.498  1.00  0.00    -0.317 N 
ATOM     19  C   UNL A   1      32.430  22.719  25.890  1.00  0.00     0.255 C 
ATOM     20  H   UNL A   1      32.642  24.647  26.229  1.00  0.00     0.170 HD
ATOM     21  O   UNL A   1      32.080  22.569  27.064  1.00  0.00    -0.269 OA
BRANCH  19  22
ATOM     22  C   UNL A   1      32.492  21.527  25.005  1.00  0.00     0.040 A 
ATOM     23  C   UNL A   1      31.970  21.690  23.714  1.00  0.00     0.014 A 
ATOM     24  C   UNL A   1      33.062  20.301  25.358  1.00  0.00     0.017 A 
ATOM     25  C   UNL A   1      32.099  20.682  22.762  1.00  0.00     0.001 A 
ATOM     26  C   UNL A   1      33.230  19.296  24.394  1.00  0.00    -0.050 A 
ATOM     27  C   UNL A   1      32.756  19.501  23.092  1.00  0.00     0.003 A 
ATOM     28  C   UNL A   1      33.970  18.032  24.721  1.00  0.00     0.044 C 
ENDBRANCH  19  22
ENDBRANCH   9  18
ENDBRANCH   6   9
ENDBRANCH   4   5
ENDBRANCH   3   4
ENDBRANCH   2   3
ENDBRANCH   1   2
BRANCH   1  29
ATOM     29  C   UNL A   1      33.163  30.991  27.402  1.00  0.00     0.021 C 
BRANCH  29  30
ATOM     30  C   UNL A   1      34.561  30.465  27.694  1.00  0.00     0.116 C 
BRANCH  30  31
ATOM     31  N   UNL A   1      35.347  31.411  28.488  1.00  0.00    -0.352 N 
ATOM     32  C   UNL A   1      36.544  31.195  29.154  1.00  0.00     0.251 C 
ATOM     33  H   UNL A   1      34.978  32.321  28.559  1.00  0.00     0.163 HD
ATOM     34  O   UNL A   1      37.047  31.995  29.918  1.00  0.00    -0.269 OA
BRANCH  32  35
ATOM     35  C   UNL A   1      37.243  29.943  28.811  1.00  0.00     0.039 A 
ATOM     36  C   UNL A   1      37.359  28.995  29.834  1.00  0.00     0.014 A 
ATOM     37  C   UNL A   1      38.086  29.943  27.705  1.00  0.00     0.014 A 
ATOM     38  C   UNL A   1      38.476  28.171  29.862  1.00  0.00     0.010 A 
ATOM     39  C   UNL A   1      39.236  29.183  27.781  1.00  0.00     0.010 A 
ATOM     40  C   UNL A   1      39.459  28.350  28.890  1.00  0.00    -0.014 A 
BRANCH  40  41
ATOM     41  C   UNL A   1      40.808  27.812  29.016  1.00  0.00     0.031 A 
ATOM     42  C   UNL A   1      41.100  26.438  28.559  1.00  0.00     0.074 A 
ATOM     43  C   UNL A   1      41.814  28.599  29.463  1.00  0.00     0.049 A 
ATOM     44  N   UNL A   1      42.136  25.765  28.923  1.00  0.00    -0.248 NA
ATOM     45  C   UNL A   1      40.216  25.697  27.665  1.00  0.00     0.031 C 
ATOM     46  C   UNL A   1      43.248  28.341  29.366  1.00  0.00     0.029 A 
ATOM     47  N   UNL A   1      41.723  29.726  30.283  1.00  0.00    -0.354 N 
ATOM     48  C   UNL A   1      42.200  24.637  28.143  1.00  0.00     0.074 A 
ATOM     49  C   UNL A   1      40.961  24.619  27.399  1.00  0.00     0.031 C 
ATOM     50  C   UNL A   1      43.888  29.091  30.276  1.00  0.00     0.029 A 
ATOM     51  C   UNL A   1      42.882  29.747  31.089  1.00  0.00     0.049 A 
ATOM     52  H   UNL A   1      40.989  30.382  30.297  1.00  0.00     0.167 HD
ATOM     53  C   UNL A   1      43.341  23.895  28.129  1.00  0.00     0.037 A 
ATOM     54  C   UNL A   1      42.777  29.631  32.446  1.00  0.00     0.037 A 
ATOM     55  C   UNL A   1      44.333  24.407  29.070  1.00  0.00     0.049 A 
ATOM     56  C   UNL A   1      43.353  28.345  33.014  1.00  0.00     0.074 A 
ATOM     57  C   UNL A   1      45.447  25.226  28.971  1.00  0.00     0.029 A 
ATOM     58  N   UNL A   1      44.049  24.327  30.419  1.00  0.00    -0.354 N 
ATOM     59  N   UNL A   1      43.965  27.428  32.312  1.00  0.00    -0.248 NA
ATOM     60  C   UNL A   1      43.218  27.956  34.420  1.00  0.00     0.031 C 
ATOM     61  C   UNL A   1      45.807  25.651  30.283  1.00  0.00     0.029 A 
ATOM     62  C   UNL A   1      44.921  25.081  31.178  1.00  0.00     0.049 A 
ATOM     63  H   UNL A   1      43.311  23.795  30.795  1.00  0.00     0.167 HD
ATOM     64  C   UNL A   1      44.204  26.330  33.100  1.00  0.00     0.074 A 
ATOM     65  C   UNL A   1      43.748  26.721  34.420  1.00  0.00     0.031 C 
ATOM     66  C   UNL A   1      44.702  25.155  32.614  1.00  0.00     0.037 A 
BRANCH  53  67
ATOM     67  C   UNL A   1      43.611  22.833  27.096  1.00  0.00     0.058 A 
ATOM     68  C   UNL A   1      42.842  21.653  27.063  1.00  0.00     0.135 A 
ATOM     69  C   UNL A   1      44.646  22.902  26.143  1.00  0.00     0.135 A 
ATOM     70  F   UNL A   1      41.786  21.483  27.870  1.00  0.00    -0.206 F 
ATOM     71  C   UNL A   1      43.138  20.584  26.220  1.00  0.00     0.059 A 
ATOM     72  C   UNL A   1      45.001  21.822  25.330  1.00  0.00     0.059 A 
ATOM     73  F   UNL A   1      45.338  24.037  25.954  1.00  0.00    -0.206 F 
ATOM     74  C   UNL A   1      44.243  20.660  25.382  1.00  0.00     0.060 A 
BRANCH  74  75
ATOM     75  S   UNL A   1      44.672  19.219  24.388  1.00  0.00     0.124 S 
ATOM     76  O   UNL A   1      44.373  19.677  23.034  1.00  0.00    -0.237 OA
ATOM     77  O   UNL A   1      46.087  19.047  24.702  1.00  0.00    -0.237 OA
ATOM     78  O   UNL A   1      43.784  18.178  24.898  1.00  0.00    -0.744 OA
ENDBRANCH  74  75
ENDBRANCH  53  67
BRANCH  54  79
ATOM     79  C   UNL A   1      41.605  30.383  32.982  1.00  0.00     0.058 A 
ATOM     80  C   UNL A   1      40.390  29.681  33.125  1.00  0.00     0.135 A 
ATOM     81  C   UNL A   1      41.764  31.559  33.725  1.00  0.00     0.135 A 
ATOM     82  F   UNL A   1      40.181  28.552  32.428  1.00  0.00    -0.206 F 
ATOM     83  C   UNL A   1      39.445  30.039  34.080  1.00  0.00     0.059 A 
ATOM     84  C   UNL A   1      40.823  31.943  34.682  1.00  0.00     0.059 A 
ATOM     85  F   UNL A   1      42.898  32.270  33.632  1.00  0.00    -0.206 F 
ATOM     86  C   UNL A   1      39.700  31.139  34.895  1.00  0.00     0.060 A 
BRANCH  86  87
ATOM     87  S   UNL A   1      38.638  31.387  36.339  1.00  0.00     0.124 S 
ATOM     88  O   UNL A   1      37.473  32.032  35.746  1.00  0.00    -0.237 OA
ATOM     89  O   UNL A   1      38.433  30.016  36.805  1.00  0.00    -0.237 OA
ATOM     90  O   UNL A   1      39.454  32.225  37.209  1.00  0.00    -0.744 OA
ENDBRANCH  86  87
ENDBRANCH  54  79
BRANCH  66  91
ATOM     91  C   UNL A   1      44.994  23.952  33.472  1.00  0.00     0.058 A 
ATOM     92  C   UNL A   1      46.295  23.641  33.902  1.00  0.00     0.135 A 
ATOM     93  C   UNL A   1      43.998  22.998  33.776  1.00  0.00     0.135 A 
ATOM     94  F   UNL A   1      47.323  24.456  33.618  1.00  0.00    -0.206 F 
ATOM     95  C   UNL A   1      46.581  22.478  34.621  1.00  0.00     0.059 A 
ATOM     96  C   UNL A   1      44.269  21.807  34.443  1.00  0.00     0.059 A 
ATOM     97  F   UNL A   1      42.711  23.205  33.462  1.00  0.00    -0.206 F 
ATOM     98  C   UNL A   1      45.561  21.566  34.885  1.00  0.00     0.060 A 
BRANCH  98  99
ATOM     99  S   UNL A   1      45.928  20.054  35.795  1.00  0.00     0.124 S 
ATOM    100  O   UNL A   1      45.020  19.086  35.188  1.00  0.00    -0.237 OA
ATOM    101  O   UNL A   1      47.344  19.870  35.492  1.00  0.00    -0.237 OA
ATOM    102  O   UNL A   1      45.621  20.408  37.178  1.00  0.00    -0.744 OA
ENDBRANCH  98  99
ENDBRANCH  66  91
ENDBRANCH  40  41
ENDBRANCH  32  35
ENDBRANCH  30  31
ENDBRANCH  29  30
ENDBRANCH   1  29
TORSDOF 19
ENDMDL
MODEL 3
REMARK VINA RESULT:     -13.7      4.773     11.186
REMARK SMILES Cc1ccc(/C=C(\NC(=O)c2cccc(C)c2)C(=O)NCCCCCCNC(=O)c2ccc(-c3c4nc(c(-c5c(F)cc(S(=O)(=O)[O-])cc5F)c5ccc([nH]5)c(-c5c(F)cc(S(=O)(=O)[O-])cc5F)c5nc(c(-c6c(F)cc(S(=O)(=O)[O-])cc6F)c6ccc3[nH]6)C=C5)C=C4)cc2)cc1
REMARK SMILES IDX 24 1 23 2 22 3 21 4 20 5 18 6 19 7 7 9 6 10 5 11 1 12 2 13
REMARK SMILES IDX 3 14 97 15 4 16 96 17 8 18 9 19 10 21 11 22 12 23 17 24
REMARK SMILES IDX 13 25 15 26 14 27 16 28 25 29 26 30 27 31 28 32 29 34 30 35
REMARK SMILES IDX 31 36 95 37 32 38 94 39 33 40 34 41 35 42 88 43 36 44 93 45
REMARK SMILES IDX 87 46 89 47 37 48 92 49 86 50 85 51 38 53 72 54 51 55 71 56
REMARK SMILES IDX 52 57 55 58 70 59 90 60 53 61 54 62 69 64 91 65 56 66 39 67
REMARK SMILES IDX 40 68 49 69 41 70 42 71 48 72 50 73 43 74 44 75 45 76 46 77
REMARK SMILES IDX 47 78 73 79 74 80 83 81 75 82 76 83 82 84 84 85 77 86 78 87
REMARK SMILES IDX 79 88 80 89 81 90 57 91 58 92 67 93 59 94 60 95 66 96 68 97
REMARK SMILES IDX 61 98 62 99 63 100 64 101 65 102
REMARK H PARENT 20 8 8 20 27 33 89 52 55 63
REMARK Flexibility Score: inf
ROOT
ATOM      1  C   UNL A   1      36.420  21.449  25.856  1.00  0.00     0.002 C 
ENDROOT
BRANCH   1   2
ATOM      2  C   UNL A   1      35.157  21.893  25.109  1.00  0.00     0.002 C 
BRANCH   2   3
ATOM      3  C   UNL A   1      33.905  22.279  25.909  1.00  0.00     0.021 C 
BRANCH   3   4
ATOM      4  C   UNL A   1      32.556  22.298  25.195  1.00  0.00     0.116 C 
BRANCH   4   5
ATOM      5  N   UNL A   1      31.383  22.088  26.017  1.00  0.00    -0.351 N 
ATOM      6  C   UNL A   1      30.465  23.005  26.461  1.00  0.00     0.267 C 
ATOM      7  O   UNL A   1      29.496  22.602  27.110  1.00  0.00    -0.268 OA
ATOM      8  H   UNL A   1      31.222  21.158  26.296  1.00  0.00     0.163 HD
BRANCH   6   9
ATOM      9  C   UNL A   1      30.651  24.496  26.214  1.00  0.00     0.107 C 
ATOM     10  C   UNL A   1      31.785  25.048  26.711  1.00  0.00     0.040 C 
BRANCH  10  11
ATOM     11  C   UNL A   1      32.292  26.455  26.693  1.00  0.00    -0.023 A 
ATOM     12  C   UNL A   1      33.666  30.577  26.971  1.00  0.00     0.044 C 
ATOM     13  C   UNL A   1      33.154  29.173  26.846  1.00  0.00    -0.051 A 
ATOM     14  C   UNL A   1      33.957  28.201  26.257  1.00  0.00     0.004 A 
ATOM     15  C   UNL A   1      31.901  28.795  27.328  1.00  0.00     0.004 A 
ATOM     16  C   UNL A   1      33.518  26.875  26.155  1.00  0.00     0.008 A 
ATOM     17  C   UNL A   1      31.479  27.456  27.256  1.00  0.00     0.008 A 
ENDBRANCH  10  11
BRANCH   9  18
ATOM     18  N   UNL A   1      29.771  25.255  25.491  1.00  0.00    -0.317 N 
ATOM     19  C   UNL A   1      29.806  25.888  24.275  1.00  0.00     0.255 C 
ATOM     20  H   UNL A   1      28.910  25.375  25.952  1.00  0.00     0.170 HD
ATOM     21  O   UNL A   1      28.790  26.505  23.942  1.00  0.00    -0.269 OA
BRANCH  19  22
ATOM     22  C   UNL A   1      30.970  25.876  23.352  1.00  0.00     0.040 A 
ATOM     23  C   UNL A   1      31.548  27.123  23.071  1.00  0.00     0.014 A 
ATOM     24  C   UNL A   1      31.534  24.725  22.795  1.00  0.00     0.017 A 
ATOM     25  C   UNL A   1      32.722  27.212  22.328  1.00  0.00     0.001 A 
ATOM     26  C   UNL A   1      32.737  24.803  22.078  1.00  0.00    -0.050 A 
ATOM     27  C   UNL A   1      33.332  26.052  21.861  1.00  0.00     0.003 A 
ATOM     28  C   UNL A   1      33.429  23.561  21.600  1.00  0.00     0.044 C 
ENDBRANCH  19  22
ENDBRANCH   9  18
ENDBRANCH   6   9
ENDBRANCH   4   5
ENDBRANCH   3   4
ENDBRANCH   2   3
ENDBRANCH   1   2
BRANCH   1  29
ATOM     29  C   UNL A   1      37.777  21.866  25.291  1.00  0.00     0.021 C 
BRANCH  29  30
ATOM     30  C   UNL A   1      38.314  23.212  25.759  1.00  0.00     0.116 C 
BRANCH  30  31
ATOM     31  N   UNL A   1      39.646  23.092  26.357  1.00  0.00    -0.352 N 
ATOM     32  C   UNL A   1      40.460  24.095  26.859  1.00  0.00     0.251 C 
ATOM     33  H   UNL A   1      40.011  22.179  26.409  1.00  0.00     0.163 HD
ATOM     34  O   UNL A   1      41.616  23.923  27.195  1.00  0.00    -0.269 OA
BRANCH  32  35
ATOM     35  C   UNL A   1      39.808  25.403  27.054  1.00  0.00     0.039 A 
ATOM     36  C   UNL A   1      40.379  26.488  26.380  1.00  0.00     0.014 A 
ATOM     37  C   UNL A   1      38.993  25.570  28.168  1.00  0.00     0.014 A 
ATOM     38  C   UNL A   1      40.314  27.748  26.961  1.00  0.00     0.010 A 
ATOM     39  C   UNL A   1      39.003  26.806  28.785  1.00  0.00     0.010 A 
ATOM     40  C   UNL A   1      39.718  27.873  28.215  1.00  0.00    -0.014 A 
BRANCH  40  41
ATOM     41  C   UNL A   1      39.902  29.039  29.070  1.00  0.00     0.031 A 
ATOM     42  C   UNL A   1      38.863  30.088  29.119  1.00  0.00     0.074 A 
ATOM     43  C   UNL A   1      40.976  29.119  29.889  1.00  0.00     0.049 A 
ATOM     44  N   UNL A   1      39.067  31.281  29.559  1.00  0.00    -0.248 NA
ATOM     45  C   UNL A   1      37.500  29.875  28.642  1.00  0.00     0.031 C 
ATOM     46  C   UNL A   1      41.166  30.033  31.011  1.00  0.00     0.029 A 
ATOM     47  N   UNL A   1      42.218  28.497  29.739  1.00  0.00    -0.354 N 
ATOM     48  C   UNL A   1      37.848  31.904  29.666  1.00  0.00     0.074 A 
ATOM     49  C   UNL A   1      36.905  31.002  29.047  1.00  0.00     0.031 C 
ATOM     50  C   UNL A   1      42.476  30.118  31.287  1.00  0.00     0.029 A 
ATOM     51  C   UNL A   1      43.188  29.377  30.264  1.00  0.00     0.049 A 
ATOM     52  H   UNL A   1      42.384  27.611  29.343  1.00  0.00     0.167 HD
ATOM     53  C   UNL A   1      37.750  33.070  30.364  1.00  0.00     0.037 A 
ATOM     54  C   UNL A   1      44.151  29.901  29.448  1.00  0.00     0.037 A 
ATOM     55  C   UNL A   1      39.052  33.532  30.835  1.00  0.00     0.049 A 
ATOM     56  C   UNL A   1      44.042  31.401  29.228  1.00  0.00     0.074 A 
ATOM     57  C   UNL A   1      39.749  33.447  32.029  1.00  0.00     0.029 A 
ATOM     58  N   UNL A   1      39.978  33.931  29.891  1.00  0.00    -0.354 N 
ATOM     59  N   UNL A   1      43.158  32.176  29.799  1.00  0.00    -0.248 NA
ATOM     60  C   UNL A   1      44.882  32.137  28.281  1.00  0.00     0.031 C 
ATOM     61  C   UNL A   1      41.112  33.780  31.776  1.00  0.00     0.029 A 
ATOM     62  C   UNL A   1      41.239  34.079  30.432  1.00  0.00     0.049 A 
ATOM     63  H   UNL A   1      39.763  34.092  28.943  1.00  0.00     0.167 HD
ATOM     64  C   UNL A   1      43.229  33.432  29.253  1.00  0.00     0.074 A 
ATOM     65  C   UNL A   1      44.345  33.368  28.330  1.00  0.00     0.031 C 
ATOM     66  C   UNL A   1      42.336  34.425  29.543  1.00  0.00     0.037 A 
BRANCH  53  67
ATOM     67  C   UNL A   1      36.429  33.658  30.785  1.00  0.00     0.058 A 
ATOM     68  C   UNL A   1      35.562  34.229  29.834  1.00  0.00     0.135 A 
ATOM     69  C   UNL A   1      35.987  33.730  32.121  1.00  0.00     0.135 A 
ATOM     70  F   UNL A   1      35.827  34.172  28.522  1.00  0.00    -0.206 F 
ATOM     71  C   UNL A   1      34.397  34.907  30.187  1.00  0.00     0.059 A 
ATOM     72  C   UNL A   1      34.856  34.456  32.506  1.00  0.00     0.059 A 
ATOM     73  F   UNL A   1      36.632  33.076  33.100  1.00  0.00    -0.206 F 
ATOM     74  C   UNL A   1      34.069  35.049  31.529  1.00  0.00     0.060 A 
BRANCH  74  75
ATOM     75  S   UNL A   1      32.621  36.031  31.963  1.00  0.00     0.124 S 
ATOM     76  O   UNL A   1      32.253  36.623  30.680  1.00  0.00    -0.237 OA
ATOM     77  O   UNL A   1      31.710  35.015  32.477  1.00  0.00    -0.237 OA
ATOM     78  O   UNL A   1      33.135  36.974  32.953  1.00  0.00    -0.744 OA
ENDBRANCH  74  75
ENDBRANCH  53  67
BRANCH  54  79
ATOM     79  C   UNL A   1      44.653  28.901  28.463  1.00  0.00     0.058 A 
ATOM     80  C   UNL A   1      44.151  28.973  27.147  1.00  0.00     0.135 A 
ATOM     81  C   UNL A   1      45.862  28.220  28.656  1.00  0.00     0.135 A 
ATOM     82  F   UNL A   1      42.991  29.605  26.905  1.00  0.00    -0.206 F 
ATOM     83  C   UNL A   1      44.890  28.534  26.054  1.00  0.00     0.059 A 
ATOM     84  C   UNL A   1      46.616  27.762  27.575  1.00  0.00     0.059 A 
ATOM     85  F   UNL A   1      46.391  28.119  29.885  1.00  0.00    -0.206 F 
ATOM     86  C   UNL A   1      46.150  27.983  26.276  1.00  0.00     0.060 A 
BRANCH  86  87
ATOM     87  S   UNL A   1      47.228  27.731  24.845  1.00  0.00     0.124 S 
ATOM     88  O   UNL A   1      47.030  26.314  24.567  1.00  0.00    -0.237 OA
ATOM     89  O   UNL A   1      46.654  28.653  23.865  1.00  0.00    -0.237 OA
ATOM     90  O   UNL A   1      48.543  28.101  25.353  1.00  0.00    -0.744 OA
ENDBRANCH  86  87
ENDBRANCH  54  79
BRANCH  66  91
ATOM     91  C   UNL A   1      42.419  35.817  28.972  1.00  0.00     0.058 A 
ATOM     92  C   UNL A   1      41.698  36.198  27.828  1.00  0.00     0.135 A 
ATOM     93  C   UNL A   1      43.331  36.772  29.474  1.00  0.00     0.135 A 
ATOM     94  F   UNL A   1      40.844  35.344  27.241  1.00  0.00    -0.206 F 
ATOM     95  C   UNL A   1      41.843  37.459  27.245  1.00  0.00     0.059 A 
ATOM     96  C   UNL A   1      43.532  38.012  28.878  1.00  0.00     0.059 A 
ATOM     97  F   UNL A   1      44.040  36.544  30.589  1.00  0.00    -0.206 F 
ATOM     98  C   UNL A   1      42.765  38.358  27.776  1.00  0.00     0.060 A 
BRANCH  98  99
ATOM     99  S   UNL A   1      42.971  39.980  27.015  1.00  0.00     0.124 S 
ATOM    100  O   UNL A   1      41.863  40.031  26.066  1.00  0.00    -0.237 OA
ATOM    101  O   UNL A   1      42.853  40.860  28.173  1.00  0.00    -0.237 OA
ATOM    102  O   UNL A   1      44.299  39.905  26.413  1.00  0.00    -0.744 OA
ENDBRANCH  98  99
ENDBRANCH  66  91
ENDBRANCH  40  41
ENDBRANCH  32  35
ENDBRANCH  30  31
ENDBRANCH  29  30
ENDBRANCH   1  29
TORSDOF 19
ENDMDL
