MODEL 1
REMARK VINA RESULT:     -11.9      0.000      0.000
REMARK SMILES CC[C@@H](C)c1ccccc1NC(=O)[C@@H]1[C@@H](C(=O)NCCCCCCNC(=O)c2ccc(-c3c4nc(c(-c5c(F)cc(S(=O)(=O)[O-])cc5F)c5ccc([nH]5)c(-c5c(F)cc(S(=O)(=O)[O-])cc5F)c5nc(c(-c6c(F)cc(S(=O)(=O)[O-])cc6F)c6ccc3[nH]6)C=C5)C=C4)cc2)[C@@H]2C=C[C@H]1C2
REMARK SMILES IDX 21 1 20 2 19 3 18 4 16 5 17 6 15 8 14 9 97 10 94 11 96 12
REMARK SMILES IDX 98 13 95 14 12 15 11 16 13 18 10 19 5 20 6 21 7 22 9 23 8 24
REMARK SMILES IDX 3 25 4 26 2 27 1 28 22 29 23 30 24 31 25 32 26 33 27 35
REMARK SMILES IDX 28 36 29 37 93 38 30 39 92 40 31 41 32 42 33 43 86 44 34 45
REMARK SMILES IDX 91 46 85 47 87 48 35 49 90 50 84 51 83 52 36 54 70 55 49 56
REMARK SMILES IDX 69 57 50 58 53 59 68 60 88 61 51 62 52 63 67 65 89 66 54 67
REMARK SMILES IDX 37 68 38 69 47 70 39 71 40 72 46 73 48 74 41 75 42 76 43 77
REMARK SMILES IDX 44 78 45 79 71 80 72 81 81 82 73 83 74 84 80 85 82 86 75 87
REMARK SMILES IDX 76 88 77 89 78 90 79 91 55 92 56 93 65 94 57 95 58 96 64 97
REMARK SMILES IDX 66 98 59 99 60 100 61 101 62 102 63 103
REMARK H PARENT 18 7 11 17 25 34 87 53 53 64
REMARK Flexibility Score: inf
ROOT
ATOM      1  C   UNL A   1      38.425  22.485  26.130  1.00  0.00     0.002 C 
ENDROOT
BRANCH   1   2
ATOM      2  C   UNL A   1      37.620  21.815  25.007  1.00  0.00     0.021 C 
BRANCH   2   3
ATOM      3  C   UNL A   1      36.454  20.955  25.497  1.00  0.00     0.116 C 
BRANCH   3   4
ATOM      4  N   UNL A   1      35.589  21.725  26.361  1.00  0.00    -0.356 N 
ATOM      5  C   UNL A   1      34.506  22.488  26.079  1.00  0.00     0.224 C 
ATOM      6  O   UNL A   1      34.005  23.096  27.029  1.00  0.00    -0.275 OA
ATOM      7  H   UNL A   1      35.826  21.689  27.316  1.00  0.00     0.163 HD
BRANCH   5   8
ATOM      8  C   UNL A   1      33.910  22.538  24.672  1.00  0.00     0.098 C 
ATOM      9  C   UNL A   1      33.078  23.842  24.344  1.00  0.00     0.099 C 
ATOM     10  C   UNL A   1      31.650  23.257  24.111  1.00  0.00     0.025 C 
ATOM     11  C   UNL A   1      32.828  21.423  24.565  1.00  0.00     0.025 C 
ATOM     12  C   UNL A   1      31.647  22.405  22.864  1.00  0.00    -0.027 C 
ATOM     13  C   UNL A   1      31.601  22.137  25.145  1.00  0.00     0.017 C 
ATOM     14  C   UNL A   1      32.376  21.314  23.129  1.00  0.00    -0.027 C 
BRANCH   9  15
ATOM     15  C   UNL A   1      33.622  24.616  23.127  1.00  0.00     0.228 C 
ATOM     16  N   UNL A   1      33.082  25.812  22.728  1.00  0.00    -0.326 N 
ATOM     17  H   UNL A   1      33.464  26.193  21.905  1.00  0.00     0.169 HD
ATOM     18  O   UNL A   1      34.550  24.173  22.443  1.00  0.00    -0.274 OA
BRANCH  16  19
ATOM     19  C   UNL A   1      32.063  26.573  23.322  1.00  0.00     0.044 A 
ATOM     20  C   UNL A   1      32.366  27.486  24.354  1.00  0.00    -0.022 A 
ATOM     21  C   UNL A   1      31.375  28.429  24.693  1.00  0.00     0.006 A 
ATOM     22  C   UNL A   1      30.091  28.370  24.145  1.00  0.00     0.000 A 
ATOM     23  C   UNL A   1      30.745  26.453  22.859  1.00  0.00     0.026 A 
ATOM     24  C   UNL A   1      29.761  27.348  23.268  1.00  0.00     0.002 A 
BRANCH  20  25
ATOM     25  C   UNL A   1      33.716  27.515  25.079  1.00  0.00     0.018 C 
ATOM     26  C   UNL A   1      33.764  26.501  26.236  1.00  0.00     0.013 C 
BRANCH  25  27
ATOM     27  C   UNL A   1      34.083  28.939  25.538  1.00  0.00     0.005 C 
ATOM     28  C   UNL A   1      34.284  29.072  27.044  1.00  0.00     0.004 C 
ENDBRANCH  25  27
ENDBRANCH  20  25
ENDBRANCH  16  19
ENDBRANCH   9  15
ENDBRANCH   5   8
ENDBRANCH   3   4
ENDBRANCH   2   3
ENDBRANCH   1   2
BRANCH   1  29
ATOM     29  C   UNL A   1      39.838  21.932  26.342  1.00  0.00     0.002 C 
BRANCH  29  30
ATOM     30  C   UNL A   1      40.526  22.379  27.634  1.00  0.00     0.021 C 
BRANCH  30  31
ATOM     31  C   UNL A   1      41.785  23.218  27.437  1.00  0.00     0.116 C 
BRANCH  31  32
ATOM     32  N   UNL A   1      41.708  24.054  26.251  1.00  0.00    -0.352 N 
ATOM     33  C   UNL A   1      41.334  25.367  26.135  1.00  0.00     0.251 C 
ATOM     34  H   UNL A   1      41.959  23.612  25.408  1.00  0.00     0.163 HD
ATOM     35  O   UNL A   1      41.151  25.847  25.014  1.00  0.00    -0.269 OA
BRANCH  33  36
ATOM     36  C   UNL A   1      41.131  26.205  27.337  1.00  0.00     0.039 A 
ATOM     37  C   UNL A   1      42.069  27.200  27.625  1.00  0.00     0.014 A 
ATOM     38  C   UNL A   1      40.048  25.997  28.198  1.00  0.00     0.014 A 
ATOM     39  C   UNL A   1      41.899  28.010  28.748  1.00  0.00     0.010 A 
ATOM     40  C   UNL A   1      39.847  26.846  29.286  1.00  0.00     0.010 A 
ATOM     41  C   UNL A   1      40.775  27.856  29.578  1.00  0.00    -0.014 A 
BRANCH  41  42
ATOM     42  C   UNL A   1      40.572  28.757  30.740  1.00  0.00     0.031 A 
ATOM     43  C   UNL A   1      41.421  28.623  31.975  1.00  0.00     0.074 A 
ATOM     44  C   UNL A   1      39.598  29.687  30.689  1.00  0.00     0.049 A 
ATOM     45  N   UNL A   1      41.413  29.349  33.063  1.00  0.00    -0.248 NA
ATOM     46  C   UNL A   1      42.391  27.517  32.000  1.00  0.00     0.031 C 
ATOM     47  C   UNL A   1      38.662  29.870  29.576  1.00  0.00     0.029 A 
ATOM     48  N   UNL A   1      39.237  30.657  31.589  1.00  0.00    -0.354 N 
ATOM     49  C   UNL A   1      42.368  28.789  33.903  1.00  0.00     0.074 A 
ATOM     50  C   UNL A   1      42.901  27.630  33.219  1.00  0.00     0.031 C 
ATOM     51  C   UNL A   1      37.856  30.909  29.846  1.00  0.00     0.029 A 
ATOM     52  C   UNL A   1      38.206  31.455  31.154  1.00  0.00     0.049 A 
ATOM     53  H   UNL A   1      39.673  30.770  32.464  1.00  0.00     0.167 HD
ATOM     54  C   UNL A   1      42.782  29.214  35.122  1.00  0.00     0.037 A 
ATOM     55  C   UNL A   1      37.617  32.517  31.737  1.00  0.00     0.037 A 
ATOM     56  C   UNL A   1      42.265  30.382  35.789  1.00  0.00     0.049 A 
ATOM     57  C   UNL A   1      38.124  32.997  33.069  1.00  0.00     0.074 A 
ATOM     58  C   UNL A   1      42.661  30.931  36.997  1.00  0.00     0.029 A 
ATOM     59  N   UNL A   1      41.239  31.181  35.306  1.00  0.00    -0.354 N 
ATOM     60  N   UNL A   1      39.080  32.499  33.814  1.00  0.00    -0.248 NA
ATOM     61  C   UNL A   1      37.481  34.193  33.628  1.00  0.00     0.031 C 
ATOM     62  C   UNL A   1      41.853  32.045  37.259  1.00  0.00     0.029 A 
ATOM     63  C   UNL A   1      40.979  32.211  36.196  1.00  0.00     0.049 A 
ATOM     64  H   UNL A   1      40.766  31.038  34.455  1.00  0.00     0.167 HD
ATOM     65  C   UNL A   1      39.165  33.329  34.926  1.00  0.00     0.074 A 
ATOM     66  C   UNL A   1      38.178  34.374  34.742  1.00  0.00     0.031 C 
ATOM     67  C   UNL A   1      39.984  33.234  36.003  1.00  0.00     0.037 A 
BRANCH  54  68
ATOM     68  C   UNL A   1      43.856  28.414  35.807  1.00  0.00     0.058 A 
ATOM     69  C   UNL A   1      43.542  27.376  36.698  1.00  0.00     0.135 A 
ATOM     70  C   UNL A   1      45.213  28.668  35.552  1.00  0.00     0.135 A 
ATOM     71  F   UNL A   1      42.260  27.100  36.988  1.00  0.00    -0.206 F 
ATOM     72  C   UNL A   1      44.533  26.638  37.336  1.00  0.00     0.059 A 
ATOM     73  C   UNL A   1      46.222  27.927  36.161  1.00  0.00     0.059 A 
ATOM     74  F   UNL A   1      45.571  29.649  34.708  1.00  0.00    -0.206 F 
ATOM     75  C   UNL A   1      45.872  26.924  37.064  1.00  0.00     0.060 A 
BRANCH  75  76
ATOM     76  S   UNL A   1      47.150  25.961  37.901  1.00  0.00     0.124 S 
ATOM     77  O   UNL A   1      46.532  25.731  39.204  1.00  0.00    -0.237 OA
ATOM     78  O   UNL A   1      47.271  24.786  37.043  1.00  0.00    -0.237 OA
ATOM     79  O   UNL A   1      48.303  26.855  37.902  1.00  0.00    -0.744 OA
ENDBRANCH  75  76
ENDBRANCH  54  68
BRANCH  55  80
ATOM     80  C   UNL A   1      36.515  33.227  31.037  1.00  0.00     0.058 A 
ATOM     81  C   UNL A   1      35.198  33.159  31.515  1.00  0.00     0.135 A 
ATOM     82  C   UNL A   1      36.759  34.002  29.894  1.00  0.00     0.135 A 
ATOM     83  F   UNL A   1      34.917  32.425  32.602  1.00  0.00    -0.206 F 
ATOM     84  C   UNL A   1      34.157  33.823  30.875  1.00  0.00     0.059 A 
ATOM     85  C   UNL A   1      35.738  34.693  29.250  1.00  0.00     0.059 A 
ATOM     86  F   UNL A   1      38.007  34.112  29.410  1.00  0.00    -0.206 F 
ATOM     87  C   UNL A   1      34.437  34.590  29.744  1.00  0.00     0.060 A 
BRANCH  87  88
ATOM     88  S   UNL A   1      33.091  35.496  28.952  1.00  0.00     0.124 S 
ATOM     89  O   UNL A   1      33.812  36.587  28.306  1.00  0.00    -0.237 OA
ATOM     90  O   UNL A   1      32.523  34.489  28.061  1.00  0.00    -0.237 OA
ATOM     91  O   UNL A   1      32.240  35.878  30.076  1.00  0.00    -0.744 OA
ENDBRANCH  87  88
ENDBRANCH  55  80
BRANCH  67  92
ATOM     92  C   UNL A   1      39.844  34.299  37.056  1.00  0.00     0.058 A 
ATOM     93  C   UNL A   1      39.028  34.113  38.182  1.00  0.00     0.135 A 
ATOM     94  C   UNL A   1      40.534  35.515  36.937  1.00  0.00     0.135 A 
ATOM     95  F   UNL A   1      38.343  32.969  38.339  1.00  0.00    -0.206 F 
ATOM     96  C   UNL A   1      38.864  35.114  39.134  1.00  0.00     0.059 A 
ATOM     97  C   UNL A   1      40.407  36.521  37.890  1.00  0.00     0.059 A 
ATOM     98  F   UNL A   1      41.339  35.737  35.886  1.00  0.00    -0.206 F 
ATOM     99  C   UNL A   1      39.552  36.318  38.974  1.00  0.00     0.060 A 
BRANCH  99 100
ATOM    100  S   UNL A   1      39.329  37.618  40.208  1.00  0.00     0.124 S 
ATOM    101  O   UNL A   1      40.648  38.242  40.215  1.00  0.00    -0.237 OA
ATOM    102  O   UNL A   1      38.252  38.419  39.633  1.00  0.00    -0.237 OA
ATOM    103  O   UNL A   1      38.975  36.880  41.416  1.00  0.00    -0.744 OA
ENDBRANCH  99 100
ENDBRANCH  67  92
ENDBRANCH  41  42
ENDBRANCH  33  36
ENDBRANCH  31  32
ENDBRANCH  30  31
ENDBRANCH  29  30
ENDBRANCH   1  29
TORSDOF 20
ENDMDL
MODEL 2
REMARK VINA RESULT:     -11.7      6.337     11.952
REMARK SMILES CC[C@@H](C)c1ccccc1NC(=O)[C@@H]1[C@@H](C(=O)NCCCCCCNC(=O)c2ccc(-c3c4nc(c(-c5c(F)cc(S(=O)(=O)[O-])cc5F)c5ccc([nH]5)c(-c5c(F)cc(S(=O)(=O)[O-])cc5F)c5nc(c(-c6c(F)cc(S(=O)(=O)[O-])cc6F)c6ccc3[nH]6)C=C5)C=C4)cc2)[C@@H]2C=C[C@H]1C2
REMARK SMILES IDX 21 1 20 2 19 3 18 4 16 5 17 6 15 8 14 9 97 10 94 11 96 12
REMARK SMILES IDX 98 13 95 14 12 15 11 16 13 18 10 19 5 20 6 21 7 22 9 23 8 24
REMARK SMILES IDX 3 25 4 26 2 27 1 28 22 29 23 30 24 31 25 32 26 33 27 35
REMARK SMILES IDX 28 36 29 37 93 38 30 39 92 40 31 41 32 42 33 43 86 44 34 45
REMARK SMILES IDX 91 46 85 47 87 48 35 49 90 50 84 51 83 52 36 54 70 55 49 56
REMARK SMILES IDX 69 57 50 58 53 59 68 60 88 61 51 62 52 63 67 65 89 66 54 67
REMARK SMILES IDX 37 68 38 69 47 70 39 71 40 72 46 73 48 74 41 75 42 76 43 77
REMARK SMILES IDX 44 78 45 79 71 80 72 81 81 82 73 83 74 84 80 85 82 86 75 87
REMARK SMILES IDX 76 88 77 89 78 90 79 91 55 92 56 93 65 94 57 95 58 96 64 97
REMARK SMILES IDX 66 98 59 99 60 100 61 101 62 102 63 103
REMARK H PARENT 18 7 11 17 25 34 87 53 53 64
REMARK Flexibility Score: inf
ROOT
ATOM      1  C   UNL A   1      35.309  30.151  27.457  1.00  0.00     0.002 C 
ENDROOT
BRANCH   1   2
ATOM      2  C   UNL A   1      34.446  28.955  27.029  1.00  0.00     0.021 C 
BRANCH   2   3
ATOM      3  C   UNL A   1      33.177  29.337  26.268  1.00  0.00     0.116 C 
BRANCH   3   4
ATOM      4  N   UNL A   1      33.464  29.506  24.862  1.00  0.00    -0.356 N 
ATOM      5  C   UNL A   1      33.292  28.664  23.815  1.00  0.00     0.224 C 
ATOM      6  O   UNL A   1      33.705  29.062  22.722  1.00  0.00    -0.275 OA
ATOM      7  H   UNL A   1      33.849  30.380  24.625  1.00  0.00     0.163 HD
BRANCH   5   8
ATOM      8  C   UNL A   1      32.572  27.325  23.978  1.00  0.00     0.098 C 
ATOM      9  C   UNL A   1      33.500  26.115  24.397  1.00  0.00     0.099 C 
ATOM     10  C   UNL A   1      33.372  25.174  23.157  1.00  0.00     0.025 C 
ATOM     11  C   UNL A   1      32.061  26.878  22.576  1.00  0.00     0.025 C 
ATOM     12  C   UNL A   1      31.961  24.641  23.067  1.00  0.00    -0.027 C 
ATOM     13  C   UNL A   1      33.303  26.179  22.012  1.00  0.00     0.017 C 
ATOM     14  C   UNL A   1      31.170  25.671  22.742  1.00  0.00    -0.027 C 
BRANCH   9  15
ATOM     15  C   UNL A   1      33.060  25.445  25.713  1.00  0.00     0.228 C 
ATOM     16  N   UNL A   1      33.642  24.288  26.168  1.00  0.00    -0.326 N 
ATOM     17  H   UNL A   1      33.248  23.913  26.988  1.00  0.00     0.169 HD
ATOM     18  O   UNL A   1      32.144  25.908  26.399  1.00  0.00    -0.274 OA
BRANCH  16  19
ATOM     19  C   UNL A   1      34.718  23.563  25.635  1.00  0.00     0.044 A 
ATOM     20  C   UNL A   1      34.495  22.327  24.992  1.00  0.00    -0.022 A 
ATOM     21  C   UNL A   1      35.550  21.803  24.217  1.00  0.00     0.006 A 
ATOM     22  C   UNL A   1      36.814  22.396  24.207  1.00  0.00     0.000 A 
ATOM     23  C   UNL A   1      36.016  24.091  25.706  1.00  0.00     0.026 A 
ATOM     24  C   UNL A   1      37.061  23.510  24.994  1.00  0.00     0.002 A 
BRANCH  20  25
ATOM     25  C   UNL A   1      33.167  21.567  25.072  1.00  0.00     0.018 C 
ATOM     26  C   UNL A   1      33.242  20.391  26.062  1.00  0.00     0.013 C 
BRANCH  25  27
ATOM     27  C   UNL A   1      32.681  21.125  23.679  1.00  0.00     0.005 C 
ATOM     28  C   UNL A   1      32.564  19.613  23.514  1.00  0.00     0.004 C 
ENDBRANCH  25  27
ENDBRANCH  20  25
ENDBRANCH  16  19
ENDBRANCH   9  15
ENDBRANCH   5   8
ENDBRANCH   3   4
ENDBRANCH   2   3
ENDBRANCH   1   2
BRANCH   1  29
ATOM     29  C   UNL A   1      34.543  31.320  28.086  1.00  0.00     0.002 C 
BRANCH  29  30
ATOM     30  C   UNL A   1      35.327  32.631  28.195  1.00  0.00     0.021 C 
BRANCH  30  31
ATOM     31  C   UNL A   1      36.403  32.650  29.277  1.00  0.00     0.116 C 
BRANCH  31  32
ATOM     32  N   UNL A   1      36.041  31.837  30.425  1.00  0.00    -0.352 N 
ATOM     33  C   UNL A   1      36.656  30.722  30.930  1.00  0.00     0.251 C 
ATOM     34  H   UNL A   1      35.237  32.130  30.911  1.00  0.00     0.163 HD
ATOM     35  O   UNL A   1      36.089  30.060  31.802  1.00  0.00    -0.269 OA
BRANCH  33  36
ATOM     36  C   UNL A   1      37.981  30.296  30.427  1.00  0.00     0.039 A 
ATOM     37  C   UNL A   1      38.150  30.122  29.051  1.00  0.00     0.014 A 
ATOM     38  C   UNL A   1      39.043  30.033  31.299  1.00  0.00     0.014 A 
ATOM     39  C   UNL A   1      39.390  29.728  28.547  1.00  0.00     0.010 A 
ATOM     40  C   UNL A   1      40.298  29.697  30.790  1.00  0.00     0.010 A 
ATOM     41  C   UNL A   1      40.483  29.533  29.410  1.00  0.00    -0.014 A 
BRANCH  41  42
ATOM     42  C   UNL A   1      41.813  29.166  28.864  1.00  0.00     0.031 A 
ATOM     43  C   UNL A   1      42.915  30.188  28.771  1.00  0.00     0.074 A 
ATOM     44  C   UNL A   1      42.022  27.909  28.428  1.00  0.00     0.049 A 
ATOM     45  N   UNL A   1      44.148  30.035  28.363  1.00  0.00    -0.248 NA
ATOM     46  C   UNL A   1      42.581  31.565  29.166  1.00  0.00     0.031 C 
ATOM     47  C   UNL A   1      41.013  26.846  28.401  1.00  0.00     0.029 A 
ATOM     48  N   UNL A   1      43.150  27.307  27.931  1.00  0.00    -0.354 N 
ATOM     49  C   UNL A   1      44.737  31.290  28.448  1.00  0.00     0.074 A 
ATOM     50  C   UNL A   1      43.710  32.206  28.896  1.00  0.00     0.031 C 
ATOM     51  C   UNL A   1      41.577  25.717  27.943  1.00  0.00     0.029 A 
ATOM     52  C   UNL A   1      42.978  25.978  27.630  1.00  0.00     0.049 A 
ATOM     53  H   UNL A   1      44.002  27.783  27.801  1.00  0.00     0.167 HD
ATOM     54  C   UNL A   1      46.022  31.645  28.198  1.00  0.00     0.037 A 
ATOM     55  C   UNL A   1      43.855  25.066  27.167  1.00  0.00     0.037 A 
ATOM     56  C   UNL A   1      47.046  30.725  27.773  1.00  0.00     0.049 A 
ATOM     57  C   UNL A   1      45.285  25.472  26.941  1.00  0.00     0.074 A 
ATOM     58  C   UNL A   1      48.391  30.973  27.554  1.00  0.00     0.029 A 
ATOM     59  N   UNL A   1      46.841  29.380  27.504  1.00  0.00    -0.354 N 
ATOM     60  N   UNL A   1      45.841  26.649  27.098  1.00  0.00    -0.248 NA
ATOM     61  C   UNL A   1      46.207  24.422  26.490  1.00  0.00     0.031 C 
ATOM     62  C   UNL A   1      48.992  29.785  27.122  1.00  0.00     0.029 A 
ATOM     63  C   UNL A   1      48.029  28.787  27.108  1.00  0.00     0.049 A 
ATOM     64  H   UNL A   1      45.977  28.914  27.583  1.00  0.00     0.167 HD
ATOM     65  C   UNL A   1      47.184  26.478  26.779  1.00  0.00     0.074 A 
ATOM     66  C   UNL A   1      47.357  25.080  26.443  1.00  0.00     0.031 C 
ATOM     67  C   UNL A   1      48.182  27.397  26.764  1.00  0.00     0.037 A 
BRANCH  54  68
ATOM     68  C   UNL A   1      46.391  33.090  28.389  1.00  0.00     0.058 A 
ATOM     69  C   UNL A   1      46.840  33.576  29.627  1.00  0.00     0.135 A 
ATOM     70  C   UNL A   1      46.321  33.996  27.318  1.00  0.00     0.135 A 
ATOM     71  F   UNL A   1      46.912  32.756  30.688  1.00  0.00    -0.206 F 
ATOM     72  C   UNL A   1      47.178  34.913  29.807  1.00  0.00     0.059 A 
ATOM     73  C   UNL A   1      46.677  35.334  27.468  1.00  0.00     0.059 A 
ATOM     74  F   UNL A   1      45.900  33.586  26.111  1.00  0.00    -0.206 F 
ATOM     75  C   UNL A   1      47.089  35.786  28.721  1.00  0.00     0.060 A 
BRANCH  75  76
ATOM     76  S   UNL A   1      47.527  37.521  28.968  1.00  0.00     0.124 S 
ATOM     77  O   UNL A   1      47.427  38.041  27.608  1.00  0.00    -0.237 OA
ATOM     78  O   UNL A   1      46.496  37.977  29.896  1.00  0.00    -0.237 OA
ATOM     79  O   UNL A   1      48.876  37.455  29.518  1.00  0.00    -0.744 OA
ENDBRANCH  75  76
ENDBRANCH  54  68
BRANCH  55  80
ATOM     80  C   UNL A   1      43.412  23.667  26.935  1.00  0.00     0.058 A 
ATOM     81  C   UNL A   1      43.267  22.771  28.005  1.00  0.00     0.135 A 
ATOM     82  C   UNL A   1      43.106  23.205  25.647  1.00  0.00     0.135 A 
ATOM     83  F   UNL A   1      43.553  23.167  29.254  1.00  0.00    -0.206 F 
ATOM     84  C   UNL A   1      42.847  21.460  27.805  1.00  0.00     0.059 A 
ATOM     85  C   UNL A   1      42.663  21.905  25.424  1.00  0.00     0.059 A 
ATOM     86  F   UNL A   1      43.212  24.030  24.594  1.00  0.00    -0.206 F 
ATOM     87  C   UNL A   1      42.545  21.037  26.510  1.00  0.00     0.060 A 
BRANCH  87  88
ATOM     88  S   UNL A   1      41.944  19.352  26.264  1.00  0.00     0.124 S 
ATOM     89  O   UNL A   1      42.684  18.947  25.074  1.00  0.00    -0.237 OA
ATOM     90  O   UNL A   1      42.334  18.700  27.511  1.00  0.00    -0.237 OA
ATOM     91  O   UNL A   1      40.506  19.533  26.084  1.00  0.00    -0.744 OA
ENDBRANCH  87  88
ENDBRANCH  55  80
BRANCH  67  92
ATOM     92  C   UNL A   1      49.549  26.905  26.378  1.00  0.00     0.058 A 
ATOM     93  C   UNL A   1      50.048  27.073  25.077  1.00  0.00     0.135 A 
ATOM     94  C   UNL A   1      50.368  26.260  27.318  1.00  0.00     0.135 A 
ATOM     95  F   UNL A   1      49.302  27.679  24.140  1.00  0.00    -0.206 F 
ATOM     96  C   UNL A   1      51.295  26.579  24.708  1.00  0.00     0.059 A 
ATOM     97  C   UNL A   1      51.629  25.781  26.979  1.00  0.00     0.059 A 
ATOM     98  F   UNL A   1      49.942  26.086  28.580  1.00  0.00    -0.206 F 
ATOM     99  C   UNL A   1      52.074  25.926  25.665  1.00  0.00     0.060 A 
BRANCH  99 100
ATOM    100  S   UNL A   1      53.689  25.279  25.178  1.00  0.00     0.124 S 
ATOM    101  O   UNL A   1      53.674  23.960  25.802  1.00  0.00    -0.237 OA
ATOM    102  O   UNL A   1      53.609  25.292  23.721  1.00  0.00    -0.237 OA
ATOM    103  O   UNL A   1      54.625  26.238  25.757  1.00  0.00    -0.744 OA
ENDBRANCH  99 100
ENDBRANCH  67  92
ENDBRANCH  41  42
ENDBRANCH  33  36
ENDBRANCH  31  32
ENDBRANCH  30  31
ENDBRANCH  29  30
ENDBRANCH   1  29
TORSDOF 20
ENDMDL
MODEL 3
REMARK VINA RESULT:     -11.6      1.636      2.976
REMARK SMILES CC[C@@H](C)c1ccccc1NC(=O)[C@@H]1[C@@H](C(=O)NCCCCCCNC(=O)c2ccc(-c3c4nc(c(-c5c(F)cc(S(=O)(=O)[O-])cc5F)c5ccc([nH]5)c(-c5c(F)cc(S(=O)(=O)[O-])cc5F)c5nc(c(-c6c(F)cc(S(=O)(=O)[O-])cc6F)c6ccc3[nH]6)C=C5)C=C4)cc2)[C@@H]2C=C[C@H]1C2
REMARK SMILES IDX 21 1 20 2 19 3 18 4 16 5 17 6 15 8 14 9 97 10 94 11 96 12
REMARK SMILES IDX 98 13 95 14 12 15 11 16 13 18 10 19 5 20 6 21 7 22 9 23 8 24
REMARK SMILES IDX 3 25 4 26 2 27 1 28 22 29 23 30 24 31 25 32 26 33 27 35
REMARK SMILES IDX 28 36 29 37 93 38 30 39 92 40 31 41 32 42 33 43 86 44 34 45
REMARK SMILES IDX 91 46 85 47 87 48 35 49 90 50 84 51 83 52 36 54 70 55 49 56
REMARK SMILES IDX 69 57 50 58 53 59 68 60 88 61 51 62 52 63 67 65 89 66 54 67
REMARK SMILES IDX 37 68 38 69 47 70 39 71 40 72 46 73 48 74 41 75 42 76 43 77
REMARK SMILES IDX 44 78 45 79 71 80 72 81 81 82 73 83 74 84 80 85 82 86 75 87
REMARK SMILES IDX 76 88 77 89 78 90 79 91 55 92 56 93 65 94 57 95 58 96 64 97
REMARK SMILES IDX 66 98 59 99 60 100 61 101 62 102 63 103
REMARK H PARENT 18 7 11 17 25 34 87 53 53 64
REMARK Flexibility Score: inf
ROOT
ATOM      1  C   UNL A   1      41.658  22.576  28.554  1.00  0.00     0.002 C 
ENDROOT
BRANCH   1   2
ATOM      2  C   UNL A   1      41.187  21.667  27.409  1.00  0.00     0.021 C 
BRANCH   2   3
ATOM      3  C   UNL A   1      39.935  22.165  26.686  1.00  0.00     0.116 C 
BRANCH   3   4
ATOM      4  N   UNL A   1      39.386  21.120  25.852  1.00  0.00    -0.356 N 
ATOM      5  C   UNL A   1      38.117  20.890  25.439  1.00  0.00     0.224 C 
ATOM      6  O   UNL A   1      37.934  19.860  24.784  1.00  0.00    -0.275 OA
ATOM      7  H   UNL A   1      40.046  20.464  25.530  1.00  0.00     0.163 HD
BRANCH   5   8
ATOM      8  C   UNL A   1      36.993  21.888  25.724  1.00  0.00     0.098 C 
ATOM      9  C   UNL A   1      35.584  21.496  25.123  1.00  0.00     0.099 C 
ATOM     10  C   UNL A   1      35.336  22.658  24.111  1.00  0.00     0.025 C 
ATOM     11  C   UNL A   1      37.317  23.210  24.965  1.00  0.00     0.025 C 
ATOM     12  C   UNL A   1      35.153  23.956  24.861  1.00  0.00    -0.027 C 
ATOM     13  C   UNL A   1      36.743  22.908  23.576  1.00  0.00     0.017 C 
ATOM     14  C   UNL A   1      36.338  24.274  25.396  1.00  0.00    -0.027 C 
BRANCH   9  15
ATOM     15  C   UNL A   1      34.482  21.381  26.194  1.00  0.00     0.228 C 
ATOM     16  N   UNL A   1      33.171  21.142  25.864  1.00  0.00    -0.326 N 
ATOM     17  H   UNL A   1      32.540  21.146  26.619  1.00  0.00     0.169 HD
ATOM     18  O   UNL A   1      34.731  21.529  27.394  1.00  0.00    -0.274 OA
BRANCH  16  19
ATOM     19  C   UNL A   1      32.601  20.893  24.607  1.00  0.00     0.044 A 
ATOM     20  C   UNL A   1      32.036  21.949  23.860  1.00  0.00    -0.022 A 
ATOM     21  C   UNL A   1      31.763  21.702  22.499  1.00  0.00     0.006 A 
ATOM     22  C   UNL A   1      31.897  20.427  21.946  1.00  0.00     0.000 A 
ATOM     23  C   UNL A   1      32.629  19.596  24.075  1.00  0.00     0.026 A 
ATOM     24  C   UNL A   1      32.279  19.362  22.748  1.00  0.00     0.002 A 
BRANCH  20  25
ATOM     25  C   UNL A   1      31.749  23.334  24.448  1.00  0.00     0.018 C 
ATOM     26  C   UNL A   1      30.572  23.300  25.438  1.00  0.00     0.013 C 
BRANCH  25  27
ATOM     27  C   UNL A   1      31.551  24.390  23.344  1.00  0.00     0.005 C 
ATOM     28  C   UNL A   1      30.142  24.971  23.287  1.00  0.00     0.004 C 
ENDBRANCH  25  27
ENDBRANCH  20  25
ENDBRANCH  16  19
ENDBRANCH   9  15
ENDBRANCH   5   8
ENDBRANCH   3   4
ENDBRANCH   2   3
ENDBRANCH   1   2
BRANCH   1  29
ATOM     29  C   UNL A   1      43.177  22.663  28.739  1.00  0.00     0.002 C 
BRANCH  29  30
ATOM     30  C   UNL A   1      43.982  22.838  27.449  1.00  0.00     0.021 C 
BRANCH  30  31
ATOM     31  C   UNL A   1      44.304  24.283  27.082  1.00  0.00     0.116 C 
BRANCH  31  32
ATOM     32  N   UNL A   1      43.547  24.739  25.929  1.00  0.00    -0.352 N 
ATOM     33  C   UNL A   1      42.539  25.664  25.860  1.00  0.00     0.251 C 
ATOM     34  H   UNL A   1      43.793  24.321  25.072  1.00  0.00     0.163 HD
ATOM     35  O   UNL A   1      41.891  25.777  24.818  1.00  0.00    -0.269 OA
BRANCH  33  36
ATOM     36  C   UNL A   1      42.212  26.514  27.026  1.00  0.00     0.039 A 
ATOM     37  C   UNL A   1      41.245  26.065  27.930  1.00  0.00     0.014 A 
ATOM     38  C   UNL A   1      42.820  27.759  27.217  1.00  0.00     0.014 A 
ATOM     39  C   UNL A   1      40.921  26.842  29.044  1.00  0.00     0.010 A 
ATOM     40  C   UNL A   1      42.540  28.507  28.361  1.00  0.00     0.010 A 
ATOM     41  C   UNL A   1      41.581  28.060  29.282  1.00  0.00    -0.014 A 
BRANCH  41  42
ATOM     42  C   UNL A   1      41.271  28.856  30.496  1.00  0.00     0.031 A 
ATOM     43  C   UNL A   1      42.099  28.709  31.744  1.00  0.00     0.074 A 
ATOM     44  C   UNL A   1      40.221  29.700  30.479  1.00  0.00     0.049 A 
ATOM     45  N   UNL A   1      42.001  29.353  32.878  1.00  0.00    -0.248 NA
ATOM     46  C   UNL A   1      43.161  27.692  31.723  1.00  0.00     0.031 C 
ATOM     47  C   UNL A   1      39.300  29.879  29.353  1.00  0.00     0.029 A 
ATOM     48  N   UNL A   1      39.753  30.569  31.432  1.00  0.00    -0.354 N 
ATOM     49  C   UNL A   1      42.981  28.820  33.706  1.00  0.00     0.074 A 
ATOM     50  C   UNL A   1      43.630  27.762  32.962  1.00  0.00     0.031 C 
ATOM     51  C   UNL A   1      38.399  30.823  29.669  1.00  0.00     0.029 A 
ATOM     52  C   UNL A   1      38.667  31.303  31.021  1.00  0.00     0.049 A 
ATOM     53  H   UNL A   1      40.157  30.658  32.324  1.00  0.00     0.167 HD
ATOM     54  C   UNL A   1      43.325  29.193  34.964  1.00  0.00     0.037 A 
ATOM     55  C   UNL A   1      37.973  32.268  31.656  1.00  0.00     0.037 A 
ATOM     56  C   UNL A   1      42.691  30.261  35.693  1.00  0.00     0.049 A 
ATOM     57  C   UNL A   1      38.403  32.694  33.033  1.00  0.00     0.074 A 
ATOM     58  C   UNL A   1      43.008  30.756  36.947  1.00  0.00     0.029 A 
ATOM     59  N   UNL A   1      41.611  31.000  35.234  1.00  0.00    -0.354 N 
ATOM     60  N   UNL A   1      39.381  32.229  33.771  1.00  0.00    -0.248 NA
ATOM     61  C   UNL A   1      37.644  33.788  33.652  1.00  0.00     0.031 C 
ATOM     62  C   UNL A   1      42.099  31.774  37.259  1.00  0.00     0.029 A 
ATOM     63  C   UNL A   1      41.239  31.939  36.184  1.00  0.00     0.049 A 
ATOM     64  H   UNL A   1      41.173  30.877  34.362  1.00  0.00     0.167 HD
ATOM     65  C   UNL A   1      39.365  32.983  34.939  1.00  0.00     0.074 A 
ATOM     66  C   UNL A   1      38.294  33.949  34.797  1.00  0.00     0.031 C 
ATOM     67  C   UNL A   1      40.163  32.884  36.031  1.00  0.00     0.037 A 
BRANCH  54  68
ATOM     68  C   UNL A   1      44.449  28.442  35.625  1.00  0.00     0.058 A 
ATOM     69  C   UNL A   1      44.207  27.310  36.420  1.00  0.00     0.135 A 
ATOM     70  C   UNL A   1      45.783  28.839  35.443  1.00  0.00     0.135 A 
ATOM     71  F   UNL A   1      42.949  26.895  36.639  1.00  0.00    -0.206 F 
ATOM     72  C   UNL A   1      45.244  26.617  37.036  1.00  0.00     0.059 A 
ATOM     73  C   UNL A   1      46.839  28.147  36.030  1.00  0.00     0.059 A 
ATOM     74  F   UNL A   1      46.072  29.914  34.691  1.00  0.00    -0.206 F 
ATOM     75  C   UNL A   1      46.557  27.046  36.839  1.00  0.00     0.060 A 
BRANCH  75  76
ATOM     76  S   UNL A   1      47.894  26.140  37.647  1.00  0.00     0.124 S 
ATOM     77  O   UNL A   1      47.222  24.898  38.013  1.00  0.00    -0.237 OA
ATOM     78  O   UNL A   1      48.888  26.032  36.583  1.00  0.00    -0.237 OA
ATOM     79  O   UNL A   1      48.266  27.006  38.761  1.00  0.00    -0.744 OA
ENDBRANCH  75  76
ENDBRANCH  54  68
BRANCH  55  80
ATOM     80  C   UNL A   1      36.830  32.927  30.974  1.00  0.00     0.058 A 
ATOM     81  C   UNL A   1      35.508  32.651  31.354  1.00  0.00     0.135 A 
ATOM     82  C   UNL A   1      37.036  33.858  29.946  1.00  0.00     0.135 A 
ATOM     83  F   UNL A   1      35.263  31.763  32.330  1.00  0.00    -0.206 F 
ATOM     84  C   UNL A   1      34.428  33.266  30.730  1.00  0.00     0.059 A 
ATOM     85  C   UNL A   1      35.973  34.502  29.321  1.00  0.00     0.059 A 
ATOM     86  F   UNL A   1      38.283  34.168  29.559  1.00  0.00    -0.206 F 
ATOM     87  C   UNL A   1      34.671  34.192  29.715  1.00  0.00     0.060 A 
BRANCH  87  88
ATOM     88  S   UNL A   1      33.266  35.028  28.948  1.00  0.00     0.124 S 
ATOM     89  O   UNL A   1      33.906  36.203  28.366  1.00  0.00    -0.237 OA
ATOM     90  O   UNL A   1      32.789  34.026  27.999  1.00  0.00    -0.237 OA
ATOM     91  O   UNL A   1      32.375  35.286  30.075  1.00  0.00    -0.744 OA
ENDBRANCH  87  88
ENDBRANCH  55  80
BRANCH  67  92
ATOM     92  C   UNL A   1      39.904  33.855  37.150  1.00  0.00     0.058 A 
ATOM     93  C   UNL A   1      39.028  33.546  38.201  1.00  0.00     0.135 A 
ATOM     94  C   UNL A   1      40.539  35.107  37.169  1.00  0.00     0.135 A 
ATOM     95  F   UNL A   1      38.393  32.363  38.226  1.00  0.00    -0.206 F 
ATOM     96  C   UNL A   1      38.756  34.461  39.213  1.00  0.00     0.059 A 
ATOM     97  C   UNL A   1      40.302  36.028  38.184  1.00  0.00     0.059 A 
ATOM     98  F   UNL A   1      41.397  35.446  36.193  1.00  0.00    -0.206 F 
ATOM     99  C   UNL A   1      39.391  35.703  39.190  1.00  0.00     0.060 A 
BRANCH  99 100
ATOM    100  S   UNL A   1      39.027  36.892  40.500  1.00  0.00     0.124 S 
ATOM    101  O   UNL A   1      40.361  37.165  41.025  1.00  0.00    -0.237 OA
ATOM    102  O   UNL A   1      38.397  37.986  39.769  1.00  0.00    -0.237 OA
ATOM    103  O   UNL A   1      38.140  36.150  41.391  1.00  0.00    -0.744 OA
ENDBRANCH  99 100
ENDBRANCH  67  92
ENDBRANCH  41  42
ENDBRANCH  33  36
ENDBRANCH  31  32
ENDBRANCH  30  31
ENDBRANCH  29  30
ENDBRANCH   1  29
TORSDOF 20
ENDMDL
